data_PCOD9200338
_publ_section_title
;
Structure prediction by ZEFSAII (Michael W. Deem and Ramdas Pophale) SiO2 
 PCOD9200338
Probable space group: C 2/M
;
_chemical_formula_sum "Si O2"
_cell_formula_units_Z 60
_cell_length_a 9.425670
_cell_length_b 31.553181
_cell_length_c 12.055169
_cell_angle_alpha 90.000000
_cell_angle_beta 116.444893
_cell_angle_gamma 90.000000
_cell_volume 3210.168838
_symmetry_space_group_name_H-M "C 2/M"
_symmetry_group_IT_number 12
_symmetry_cell_setting 'monoclinic'
loop_
_space_group_symop_operation_xyz
x,y,z
-x,y,-z
-x,-y,-z
x,-y,z
1/2+x,1/2+y,z
1/2-x,1/2+y,-z
1/2-x,1/2-y,-z
1/2+x,1/2-y,z
loop_
_atom_site_type_symbol
_atom_site_label
_atom_site_fract_x
_atom_site_fract_y
_atom_site_fract_z
Si Si1 0.646809 0.949229 0.731352
Si Si2 0.682713 0.608471 0.024381
Si Si3 0.685397 0.306259 0.898724
Si Si4 0.782445 0.955459 0.161620
Si Si5 0.808342 0.424881 0.651174
Si Si6 0.075485 0.851608 0.637337
Si Si7 0.000000 0.748803 0.000000
Si Si8 0.609808 0.435551 0.381245
O O1 0.721294 0.918207 0.850744
O O2 0.474013 0.929790 0.647894
O O3 0.758085 0.944551 0.663365
O O4 0.639335 0.000000 0.755931
O O5 0.500000 0.608961 0.000000
O O6 0.726142 0.656028 0.000931
O O7 0.704786 0.581672 0.920432
O O8 0.619378 0.324444 0.759760
O O9 0.844124 0.279831 0.928053
O O10 0.552580 0.277942 0.914331
O O11 0.663361 0.946740 0.220179
O O12 0.950148 0.956754 0.283201
O O13 0.750087 0.000000 0.093652
O O14 0.730182 0.379454 0.654478
O O15 0.679162 0.446374 0.525730
O O16 0.000000 0.830920 0.500000
O O17 0.944462 0.886418 0.629103
#
# Coordination Sequence:
#
# PCOD9200338 Si02
#       8
#     8   8   8   8   8   8   4   8
#     4  12  25  36  53  86 122 162 211 257 296 335
#     4  12  23  39  63  82 116 164 197 244 298 359
#     4  11  21  44  64  93 123 149 190 235 307 356
#     4  11  21  35  56  83 113 155 208 246 284 340
#     4  10  22  37  54  84 115 155 205 250 298 336
#     4   9  19  40  68  88 115 157 204 240 284 365
#     4  10  26  38  68 100 120 146 184 244 288 380
#     4  10  20  37  57  81 112 161 207 245 291 342
#
# _framework density 18.690605999999999
#
# number of rings (size 3 to 8) (size 9 to 14) (size 15 to 20)
#    0.000    1.333    4.667    2.800    1.867    4.267 
#    0.000    2.000    0.000    0.000    0.000    0.000 
#    0.000    0.000    0.000    0.000    0.000    0.000 
#
# Total GULP energy -167191.859627 kJ/mol
# GULP energy per Si atom -5573.061988 kJ/mol
# Density = 1.864807 g / cm^3
# Si number density = 18.690606 Si / 1000 Ang^3
#
#
#
# Elastic Constant Matrix: (Units=GPa)
#
#
# Indices 1 2 3 4 5 6 
#
# 1 90.5316 30.4913 18.7047 0.0000 -6.3738 0.0000
# 2 30.4913 98.1640 42.4394 0.0000 -5.6448 0.0000
# 3 18.7047 42.4394 83.9379 0.0000 -10.0016 0.0000
# 4 0.0000 0.0000 0.0000 48.2830 0.0000 36.9452
# 5 -6.3738 -5.6448 -10.0016 0.0000 26.1690 0.0000
# 6 0.0000 0.0000 0.0000 36.9452 0.0000 33.4376
#
#
#
# Elastic Compliance Matrix: (Units=1/GPa)
#
#
# Indices 1 2 3 4 5 6 
#
# 1 0.012506 -0.003414 -0.000823 0.000000 0.001995 0.000000
# 2 -0.003414 0.013971 -0.006331 0.000000 -0.000238 0.000000
# 3 -0.000823 -0.006331 0.015833 0.000000 0.004485 0.000000
# 4 0.000000 0.000000 0.000000 0.134008 0.000000 -0.148066
# 5 0.001995 -0.000238 0.004485 0.000000 0.040362 0.000000
# 6 0.000000 0.000000 0.000000 -0.148066 0.000000 0.193505
#
#
# Mechanical properties :
#
#
# Convention : Reuss Voigt Hill
#
# Bulk Modulus (GPa) = 47.23009 50.65602 48.94305
# Shear Modulus (GPa) = 11.40564 33.64446 22.52505
#
# Velocity S-wave (km/s) = 2.47297 4.24733 3.47530
# Velocity P-wave (km/s) = 5.78605 7.15642 6.50741
#
# Compressibility (1/GPa) = 0.02117294
#
# Stress axis : x y z
#
# Youngs Moduli (GPa) = 79.96002 71.57626 63.16104
#
# Poissons Ratio (x) = 0.24437 0.05198
# Poissons Ratio (y) = 0.27299 0.39990
# Poissons Ratio (z) = 0.06580 0.45318
#
# Static dielectric constant tensor:
#      x y z
#    x 1.648370 0.000000 0.007050 
#    y 0.000000 1.672990 0.000000 
#    z 0.007050 0.000000 1.664190 
# 
# From -- ./inp_files/125792.got.cif
#   From: 2010.05.17/outbox.cif.g08.bks.cpg/sg12_63_cif.got.tgz:125792.got - 2010.06.03 13:09:07.
