data_PCOD9200941
_publ_section_title
;
Structure prediction by ZEFSAII (Michael W. Deem and Ramdas Pophale) SiO2 
 PCOD9200941
Probable space group: C 2/M
;
_chemical_formula_sum "Si O2"
_cell_formula_units_Z 34
_cell_length_a 8.907506
_cell_length_b 13.933987
_cell_length_c 16.103862
_cell_angle_alpha 90.000000
_cell_angle_beta 122.362622
_cell_angle_gamma 90.000000
_cell_volume 1688.310764
_symmetry_space_group_name_H-M "C 2/M"
_symmetry_group_IT_number 12
_symmetry_cell_setting 'monoclinic'
loop_
_space_group_symop_operation_xyz
x,y,z
-x,y,-z
-x,-y,-z
x,-y,z
1/2+x,1/2+y,z
1/2-x,1/2+y,-z
1/2-x,1/2-y,-z
1/2+x,1/2-y,z
loop_
_atom_site_type_symbol
_atom_site_label
_atom_site_fract_x
_atom_site_fract_y
_atom_site_fract_z
Si Si1 0.866985 0.106875 0.539262
Si Si2 0.500000 0.000000 0.000000
Si Si3 0.455407 0.193762 0.649638
Si Si4 0.768805 0.824053 0.081226
Si Si5 0.653722 0.275433 0.218227
O O1 0.671960 0.130485 0.445213
O O2 0.923633 0.194995 0.613826
O O3 0.000000 0.109885 0.500000
O O4 0.875264 0.000000 0.578125
O O5 0.347954 0.083478 0.968744
O O6 0.393851 0.194084 0.727170
O O7 0.663284 0.173106 0.701480
O O8 0.697405 0.774194 0.143963
O O9 0.979254 0.840005 0.157412
O O10 0.750000 0.750000 0.000000
#
# Coordination Sequence:
#
# PCOD9200941 Si02
#       5
#     8   2   8   8   8
#     4  10  20  37  60  86 119 166 214 252 310 379
#     4  12  24  44  74  94 124 180 206 260 350 378
#     4  10  20  39  60  89 124 166 202 264 321 363
#     4  11  22  45  69  94 128 168 212 266 325 396
#     4  10  21  40  65  90 130 161 208 271 316 376
#
# _framework density 20.138473999999999
#
# number of rings (size 3 to 8) (size 9 to 14) (size 15 to 20)
#    0.000    1.647    4.706    0.000    0.000    0.000 
#   12.706    3.529    0.000    0.000    0.000    0.000 
#    0.000    0.000    0.000    0.000    0.000    0.000 
#
# Total GULP energy -94648.509320 kJ/mol
# GULP energy per Si atom -5567.559372 kJ/mol
# Density = 2.009264 g / cm^3
# Si number density = 20.138474 Si / 1000 Ang^3
#
#
#
# Elastic Constant Matrix: (Units=GPa)
#
#
# Indices 1 2 3 4 5 6 
#
# 1 123.8468 30.0524 49.5519 0.0000 34.5619 0.0000
# 2 30.0524 111.0517 31.3909 0.0000 13.5301 0.0000
# 3 49.5519 31.3909 89.1950 0.0000 32.2831 0.0000
# 4 0.0000 0.0000 0.0000 6.5821 0.0000 13.3931
# 5 34.5619 13.5301 32.2831 0.0000 61.0923 0.0000
# 6 0.0000 0.0000 0.0000 13.3931 0.0000 17.5195
#
#
#
# Elastic Compliance Matrix: (Units=1/GPa)
#
#
# Indices 1 2 3 4 5 6 
#
# 1 0.011197 -0.001332 -0.004409 0.000000 -0.003710 0.000000
# 2 -0.001332 0.010168 -0.002839 0.000000 0.000002 0.000000
# 3 -0.004409 -0.002839 0.016729 0.000000 -0.005717 0.000000
# 4 0.000000 0.000000 0.000000 -0.273485 0.000000 0.209071
# 5 -0.003710 0.000002 -0.005717 0.000000 0.021488 0.000000
# 6 0.000000 0.000000 0.000000 0.209071 0.000000 -0.102749
#
#
# Mechanical properties :
#
#
# Convention : Reuss Voigt Hill
#
# Bulk Modulus (GPa) = 47.76970 60.67599 54.22284
# Shear Modulus (GPa) = -17.09320 31.24536 7.07608
#
# Velocity S-wave (km/s) = -2.91655 3.94321 1.87652
# Velocity P-wave (km/s) = 3.52568 7.13630 5.62837
#
# Compressibility (1/GPa) = 0.02093377
#
# Stress axis : x y z
#
# Youngs Moduli (GPa) = 89.30943 98.35238 59.77552
#
# Poissons Ratio (x) = 0.13099 0.26355
# Poissons Ratio (y) = 0.11894 0.16971
# Poissons Ratio (z) = 0.39377 0.27924
#
# Static dielectric constant tensor:
#      x y z
#    x 1.731830 0.000000 0.011480 
#    y 0.000000 1.650740 0.000000 
#    z 0.011480 0.000000 1.765210 
# 
# From -- ./inp_files/194232.got.cif
#   From: 2010.05.17/outbox.cif.g08.bks.cpg/sg12_98_cif.got.tgz:194232.got - 2010.06.03 13:09:07.
