data_PCOD9200874
_publ_section_title
;
Structure prediction by ZEFSAII (Michael W. Deem and Ramdas Pophale) SiO2 
 PCOD9200874
Probable space group: C 2/M
;
_chemical_formula_sum "Si O2"
_cell_formula_units_Z 50
_cell_length_a 23.011099
_cell_length_b 7.320523
_cell_length_c 15.190309
_cell_angle_alpha 90.000000
_cell_angle_beta 127.818798
_cell_angle_gamma 90.000000
_cell_volume 2021.379314
_symmetry_space_group_name_H-M "C 2/M"
_symmetry_group_IT_number 12
_symmetry_cell_setting 'monoclinic'
loop_
_space_group_symop_operation_xyz
x,y,z
-x,y,-z
-x,-y,-z
x,-y,z
1/2+x,1/2+y,z
1/2-x,1/2+y,-z
1/2-x,1/2-y,-z
1/2+x,1/2-y,z
loop_
_atom_site_type_symbol
_atom_site_label
_atom_site_fract_x
_atom_site_fract_y
_atom_site_fract_z
Si Si1 0.500000 0.500000 0.000000
Si Si2 0.942849 0.210481 0.713471
Si Si3 0.419602 0.221296 0.389969
Si Si4 0.618715 0.777143 0.027782
Si Si5 0.323398 0.288253 0.468202
Si Si6 0.673948 0.218860 0.260262
Si Si7 0.106816 0.296239 0.828597
O O1 0.548460 0.659814 0.992125
O O2 0.881954 0.291639 0.590632
O O3 0.902186 0.212874 0.769240
O O4 0.020511 0.305095 0.776676
O O5 0.956911 0.000000 0.702323
O O6 0.500000 0.281538 0.500000
O O7 0.360809 0.277344 0.407796
O O8 0.397212 0.288780 0.272125
O O9 0.422926 0.000000 0.388711
O O10 0.642292 0.721234 0.951043
O O11 0.606300 0.000000 0.016568
O O12 0.676711 0.737057 0.159842
O O13 0.315021 0.500000 0.485910
O O14 0.242176 0.209605 0.380645
O O15 0.673820 0.000000 0.267336
O O16 0.136905 0.500000 0.845023
#
# Coordination Sequence:
#
# PCOD9200874 Si02
#       7
#     2   8   8   8   8   8   8
#     4  12  22  36  64  90 122 156 212 240 292 362
#     4  11  22  33  55  88 118 149 191 244 293 348
#     4  10  20  37  60  85 112 149 195 246 296 350
#     4  10  23  40  58  86 125 162 197 250 298 351
#     4  10  22  39  57  84 117 155 195 242 298 354
#     4  10  22  40  58  78 118 164 197 230 296 365
#     4  10  21  38  59  83 117 153 193 239 303 353
#
# _framework density 24.735582999999998
#
# number of rings (size 3 to 8) (size 9 to 14) (size 15 to 20)
#    0.000    1.760    1.600    2.160    4.480    4.800 
#    0.000    0.800    0.000    0.000    0.000    0.000 
#    0.000    0.000    0.000    0.000    0.000    0.000 
#
# Total GULP energy -139460.413361 kJ/mol
# GULP energy per Si atom -5578.416534 kJ/mol
# Density = 2.467928 g / cm^3
# Si number density = 24.735583 Si / 1000 Ang^3
#
#
#
# Elastic Constant Matrix: (Units=GPa)
#
#
# Indices 1 2 3 4 5 6 
#
# 1 40.4412 -15.9330 -2.2371 0.0000 -19.3035 0.0000
# 2 -15.9330 120.8196 4.5340 0.0000 -0.0554 0.0000
# 3 -2.2371 4.5340 117.5133 0.0000 -36.6590 0.0000
# 4 0.0000 0.0000 0.0000 -4.4362 0.0000 -0.5873
# 5 -19.3035 -0.0554 -36.6590 0.0000 51.4383 0.0000
# 6 0.0000 0.0000 0.0000 -0.5873 0.0000 23.8445
#
#
#
# Elastic Compliance Matrix: (Units=1/GPa)
#
#
# Indices 1 2 3 4 5 6 
#
# 1 0.035100 0.004414 0.005926 0.000000 0.017400 0.000000
# 2 0.004414 0.008847 0.000337 0.000000 0.001907 0.000000
# 3 0.005926 0.000337 0.011963 0.000000 0.010750 0.000000
# 4 0.000000 0.000000 0.000000 -0.224683 0.000000 -0.005534
# 5 0.017400 0.001907 0.010750 0.000000 0.033634 0.000000
# 6 0.000000 0.000000 0.000000 -0.005534 0.000000 0.041802
#
#
# Mechanical properties :
#
#
# Convention : Reuss Voigt Hill
#
# Bulk Modulus (GPa) = 12.94242 27.94465 20.44353
# Shear Modulus (GPa) = -56.21899 33.66333 -11.27783
#
# Velocity S-wave (km/s) = -4.77256 3.69308 -2.13758
# Velocity P-wave (km/s) = 5.01259 5.43203 1.48001
#
# Compressibility (1/GPa) = 0.07726531
#
# Stress axis : x y z
#
# Youngs Moduli (GPa) = 28.49031 113.03071 83.59111
#
# Poissons Ratio (x) = -0.49896 -0.49536
# Poissons Ratio (y) = -0.12577 -0.02821
# Poissons Ratio (z) = -0.16883 -0.03814
#
# Static dielectric constant tensor:
#      x y z
#    x 1.892110 0.000000 -0.006800 
#    y 0.000000 1.939050 0.000000 
#    z -0.006800 0.000000 2.088380 
# 
# From -- ./inp_files/244369.got.cif
#   From: 2010.05.17/outbox.cif.g08.bks.cpg/sg12_123_cif.got.tgz:244369.got - 2010.06.03 13:09:07.
