data_PCOD9200096
_publ_section_title
;
Structure prediction by ZEFSAII (Michael W. Deem and Ramdas Pophale) SiO2 
 PCOD9200096
Probable space group: C 2/M
;
_chemical_formula_sum "Si O2"
_cell_formula_units_Z 44
_cell_length_a 5.149547
_cell_length_b 23.472945
_cell_length_c 21.778691
_cell_angle_alpha 90.000000
_cell_angle_beta 123.663411
_cell_angle_gamma 90.000000
_cell_volume 2191.051538
_symmetry_space_group_name_H-M "C 2/M"
_symmetry_group_IT_number 12
_symmetry_cell_setting 'monoclinic'
loop_
_space_group_symop_operation_xyz
x,y,z
-x,y,-z
-x,-y,-z
x,-y,z
1/2+x,1/2+y,z
1/2-x,1/2+y,-z
1/2-x,1/2-y,-z
1/2+x,1/2-y,z
loop_
_atom_site_type_symbol
_atom_site_label
_atom_site_fract_x
_atom_site_fract_y
_atom_site_fract_z
Si Si1 0.767044 0.214189 0.837238
Si Si2 0.122156 0.000000 0.948172
Si Si3 0.281413 0.615132 0.084902
Si Si4 0.677249 0.567971 0.780009
Si Si5 0.295328 0.711875 0.411724
Si Si6 0.017197 0.375970 0.710472
O O1 0.483253 0.234080 0.842302
O O2 0.640060 0.180532 0.761739
O O3 0.005533 0.169468 0.897898
O O4 0.022062 0.942244 0.902927
O O5 0.500000 0.000000 0.000000
O O6 0.000000 0.000000 0.000000
O O7 0.188054 0.603257 0.143423
O O8 0.000000 0.617728 0.000000
O O9 0.712295 0.500000 0.794425
O O10 0.315787 0.587469 0.729382
O O11 0.834556 0.588156 0.737748
O O12 0.500000 0.703678 0.500000
O O13 0.503654 0.748320 0.391799
O O14 0.188535 0.651420 0.370295
#
# Coordination Sequence:
#
# PCOD9200096 Si02
#       6
#     8   4   8   8   8   8
#     4  11  23  39  59  84 119 158 195 237 300 377
#     4  10  22  38  60  82 108 142 189 258 313 352
#     4  10  23  42  61  88 116 155 206 265 318 360
#     4  11  23  40  62  88 118 157 207 260 308 358
#     4  10  20  36  63  97 128 159 199 247 296 353
#     4  11  22  39  63  88 123 161 200 246 303 366
#
# _framework density 20.081683999999999
#
# number of rings (size 3 to 8) (size 9 to 14) (size 15 to 20)
#    0.000    1.455    0.909    4.909    0.000    9.455 
#    0.000    0.000    0.000    3.273    0.000    0.000 
#    0.000    0.000    0.000    0.000    0.000    0.000 
#
# Total GULP energy -122982.788417 kJ/mol
# GULP energy per Si atom -5590.126746 kJ/mol
# Density = 2.003598 g / cm^3
# Si number density = 20.081684 Si / 1000 Ang^3
#
#
#
# Elastic Constant Matrix: (Units=GPa)
#
#
# Indices 1 2 3 4 5 6 
#
# 1 131.1950 27.8822 29.6491 0.0000 -6.7827 0.0000
# 2 27.8822 102.4553 23.3985 0.0000 1.8178 0.0000
# 3 29.6491 23.3985 60.9701 0.0000 5.3642 0.0000
# 4 0.0000 0.0000 0.0000 35.7668 0.0000 -5.4610
# 5 -6.7827 1.8178 5.3642 0.0000 12.7969 0.0000
# 6 0.0000 0.0000 0.0000 -5.4610 0.0000 20.9809
#
#
#
# Elastic Compliance Matrix: (Units=1/GPa)
#
#
# Indices 1 2 3 4 5 6 
#
# 1 0.009366 -0.001635 -0.004552 0.000000 0.007105 0.000000
# 2 -0.001635 0.010984 -0.003329 0.000000 -0.001031 0.000000
# 3 -0.004552 -0.003329 0.020832 0.000000 -0.010672 0.000000
# 4 0.000000 0.000000 0.000000 0.029116 0.000000 0.007579
# 5 0.007105 -0.001031 -0.010672 0.000000 0.086530 0.000000
# 6 0.000000 0.000000 0.000000 0.007579 0.000000 0.049635
#
#
# Mechanical properties :
#
#
# Convention : Reuss Voigt Hill
#
# Bulk Modulus (GPa) = 45.15028 50.72000 47.93514
# Shear Modulus (GPa) = 21.47046 28.15495 24.81270
#
# Velocity S-wave (km/s) = 3.27334 3.74842 3.51891
# Velocity P-wave (km/s) = 6.06782 6.63671 6.35863
#
# Compressibility (1/GPa) = 0.02214826
#
# Stress axis : x y z
#
# Youngs Moduli (GPa) = 106.77156 91.04120 48.00385
#
# Poissons Ratio (x) = 0.14888 0.21851
# Poissons Ratio (y) = 0.17460 0.15982
# Poissons Ratio (z) = 0.48602 0.30311
#
# Static dielectric constant tensor:
#      x y z
#    x 1.741510 0.000000 0.012080 
#    y 0.000000 1.741840 0.000000 
#    z 0.012080 0.000000 1.749380 
# 
# From -- ./inp_files/253263.got.cif
#   From: 2010.05.17/outbox.cif.g08.bks.cpg/sg12_127_cif.got.tgz:253263.got - 2010.06.03 13:09:07.
