data_PCOD9200994
_publ_section_title
;
Structure prediction by ZEFSAII (Michael W. Deem and Ramdas Pophale) SiO2 
 PCOD9200994
Probable space group: C 2/M
;
_chemical_formula_sum "Si O2"
_cell_formula_units_Z 60
_cell_length_a 28.043919
_cell_length_b 7.578446
_cell_length_c 22.163245
_cell_angle_alpha 90.000000
_cell_angle_beta 29.399165
_cell_angle_gamma 90.000000
_cell_volume 2312.263544
_symmetry_space_group_name_H-M "C 2/M"
_symmetry_group_IT_number 12
_symmetry_cell_setting 'monoclinic'
loop_
_space_group_symop_operation_xyz
x,y,z
-x,y,-z
-x,-y,-z
x,-y,z
1/2+x,1/2+y,z
1/2-x,1/2+y,-z
1/2-x,1/2-y,-z
1/2+x,1/2-y,z
loop_
_atom_site_type_symbol
_atom_site_label
_atom_site_fract_x
_atom_site_fract_y
_atom_site_fract_z
Si Si1 0.497198 0.799261 0.436447
Si Si2 0.019784 0.214527 0.047717
Si Si3 0.204207 0.210003 0.309571
Si Si4 0.950236 0.204570 0.753161
Si Si5 0.206417 0.500000 0.092690
Si Si6 0.785205 0.296772 0.094787
Si Si7 0.837572 0.194829 0.446977
Si Si8 0.688184 0.296444 0.703419
O O1 0.500000 0.713952 0.500000
O O2 0.381144 0.808160 0.561853
O O3 0.535674 0.703805 0.335434
O O4 0.536497 0.000000 0.393714
O O5 0.919904 0.263161 0.193036
O O6 0.025577 0.000000 0.040280
O O7 0.111371 0.283628 0.984592
O O8 0.000000 0.273689 0.000000
O O9 0.209498 0.246308 0.232819
O O10 0.299709 0.277193 0.238064
O O11 0.196886 0.000000 0.324366
O O12 0.055035 0.274416 0.662613
O O13 0.865776 0.344411 0.856398
O O14 0.929160 0.000000 0.794271
O O15 0.265840 0.654719 0.065311
O O16 0.769684 0.500000 0.092221
O O17 0.750000 0.250000 0.500000
O O18 0.776903 0.194721 0.575802
O O19 0.863909 0.000000 0.398462
O O20 0.699266 0.500000 0.674172
#
# Coordination Sequence:
#
# PCOD9200994 Si02
#       8
#     8   8   8   8   4   8   8   8
#     4  11  22  33  50  75 113 167 213 251 297 359
#     4  10  20  37  60  88 129 178 226 269 318 382
#     4  11  22  33  49  77 119 166 217 260 307 361
#     4  11  24  41  60  89 122 162 207 259 315 386
#     4  12  24  40  62  82 130 164 223 256 323 376
#     4  11  24  38  58  88 124 175 224 271 312 370
#     4  11  25  44  68  96 131 160 208 269 330 398
#     4  11  22  36  62  90 126 171 211 264 326 388
#
# _framework density 25.948601
#
# number of rings (size 3 to 8) (size 9 to 14) (size 15 to 20)
#    0.000    1.067    4.000    2.800    5.600    3.467 
#    0.000    0.000    0.000    0.000    0.000    0.933 
#    0.000    0.000    0.000    0.000    0.000    0.000 
#
# Total GULP energy -167192.962713 kJ/mol
# GULP energy per Si atom -5573.098757 kJ/mol
# Density = 2.588954 g / cm^3
# Si number density = 25.948601 Si / 1000 Ang^3
#
#
#
# Elastic Constant Matrix: (Units=GPa)
#
#
# Indices 1 2 3 4 5 6 
#
# 1 111.0067 38.2972 49.8215 0.0033 -30.9001 -0.0008
# 2 38.2972 157.6946 42.8652 0.0281 -5.0302 0.0001
# 3 49.8215 42.8652 60.6465 -0.0029 -14.5495 0.0072
# 4 0.0033 0.0281 -0.0029 12.7362 0.0045 -4.0403
# 5 -30.9001 -5.0302 -14.5495 0.0045 45.4134 -0.0064
# 6 -0.0008 0.0001 0.0072 -4.0403 -0.0064 26.0239
#
#
#
# Elastic Compliance Matrix: (Units=1/GPa)
#
#
# Indices 1 2 3 4 5 6 
#
# 1 0.016319 -0.000703 -0.011119 -0.000007 0.007463 0.000004
# 2 -0.000703 0.007920 -0.005335 -0.000019 -0.001310 -0.000002
# 3 -0.011119 -0.005335 0.029722 0.000019 0.001366 -0.000005
# 4 -0.000007 -0.000019 0.000019 0.082584 -0.000007 0.012821
# 5 0.007463 -0.001310 0.001366 -0.000007 0.027391 0.000006
# 6 0.000004 -0.000002 -0.000005 0.012821 0.000006 0.040417
#
#
# Mechanical properties :
#
#
# Convention : Reuss Voigt Hill
#
# Bulk Modulus (GPa) = 50.89676 65.70173 58.29924
# Shear Modulus (GPa) = 20.39030 30.05896 25.22463
#
# Velocity S-wave (km/s) = 2.80625 3.40723 3.12123
# Velocity P-wave (km/s) = 5.49154 6.39170 5.95864
#
# Compressibility (1/GPa) = 0.01964762
#
# Stress axis : x y z
#
# Youngs Moduli (GPa) = 61.27944 126.25467 33.64533
#
# Poissons Ratio (x) = 0.08872 0.37409
# Poissons Ratio (y) = 0.04306 0.17951
# Poissons Ratio (z) = 0.68135 0.67361
#
# Static dielectric constant tensor:
#      x y z
#    x 2.230440 0.000000 -0.049280 
#    y 0.000000 1.938340 0.000000 
#    z -0.049280 0.000000 2.188840 
# 
# From -- ./inp_files/368856.got.cif
#   From: 2010.05.17/outbox.cif.g08.bks.cpg/sg12_185_cif.got.tgz:368856.got - 2010.06.03 13:09:07.
