data_PCOD9200057
_publ_section_title
;
Structure prediction by ZEFSAII (Michael W. Deem and Ramdas Pophale) SiO2 
 PCOD9200057
Probable space group: C 2/M
;
_chemical_formula_sum "Si O2"
_cell_formula_units_Z 56
_cell_length_a 16.727110
_cell_length_b 12.805484
_cell_length_c 17.912440
_cell_angle_alpha 90.000000
_cell_angle_beta 129.593345
_cell_angle_gamma 90.000000
_cell_volume 2956.606264
_symmetry_space_group_name_H-M "C 2/M"
_symmetry_group_IT_number 12
_symmetry_cell_setting 'monoclinic'
loop_
_space_group_symop_operation_xyz
x,y,z
-x,y,-z
-x,-y,-z
x,-y,z
1/2+x,1/2+y,z
1/2-x,1/2+y,-z
1/2-x,1/2-y,-z
1/2+x,1/2-y,z
loop_
_atom_site_type_symbol
_atom_site_label
_atom_site_fract_x
_atom_site_fract_y
_atom_site_fract_z
Si Si1 0.505871 0.000000 0.873918
Si Si2 0.516929 0.779714 0.798987
Si Si3 0.890558 0.881287 0.416644
Si Si4 0.242776 0.886793 0.274380
Si Si5 0.502507 0.384290 0.088452
Si Si6 0.720072 0.254003 0.395320
Si Si7 0.330305 0.000000 0.893386
Si Si8 0.178475 0.808667 0.776172
O O1 0.517803 0.102392 0.829859
O O2 0.396797 0.000000 0.855373
O O3 0.592063 0.000000 0.990430
O O4 0.538521 0.706095 0.883496
O O5 0.402145 0.761694 0.694735
O O6 0.602964 0.741542 0.791916
O O7 0.790596 0.831966 0.395892
O O8 0.881136 0.874723 0.322263
O O9 0.000000 0.826940 0.500000
O O10 0.104855 0.000000 0.554476
O O11 0.121510 0.893606 0.183737
O O12 0.251910 0.857401 0.367235
O O13 0.279309 0.790778 0.245262
O O14 0.291043 0.000000 0.286751
O O15 0.453378 0.500000 0.068535
O O16 0.500000 0.356902 0.000000
O O17 0.750000 0.250000 0.500000
O O18 0.263104 0.107457 0.855602
#
# Coordination Sequence:
#
# PCOD9200057 Si02
#       8
#     4   8   8   8   8   8   4   8
#     4  11  26  44  64  92 130 178 219 260 328 398
#     4  11  25  39  64  93 131 163 218 269 323 382
#     4  10  20  36  63  92 123 164 211 264 323 379
#     4   9  20  38  59  84 122 161 203 251 320 381
#     4   9  19  37  60  87 116 161 202 256 311 379
#     4  10  21  39  63  92 127 165 214 264 318 389
#     4  11  24  44  69  90 126 175 220 267 326 385
#     4  11  23  40  63  92 126 162 210 273 318 383
#
# _framework density 18.940636000000001
#
# number of rings (size 3 to 8) (size 9 to 14) (size 15 to 20)
#    0.000    1.857    0.714    3.429    7.000    1.143 
#    0.000    0.000    0.000    2.571    0.000    0.000 
#    0.000    0.000    0.000    0.000    0.000    0.000 
#
# Total GULP energy -155983.215818 kJ/mol
# GULP energy per Si atom -5570.829136 kJ/mol
# Density = 1.889753 g / cm^3
# Si number density = 18.940636 Si / 1000 Ang^3
#
#
#
# Elastic Constant Matrix: (Units=GPa)
#
#
# Indices 1 2 3 4 5 6 
#
# 1 118.7388 74.5848 36.4611 0.0000 -13.3885 0.0000
# 2 74.5848 132.0473 37.9061 0.0000 -14.7810 0.0000
# 3 36.4611 37.9061 90.0748 0.0000 -19.3076 0.0000
# 4 0.0000 0.0000 0.0000 79.0050 0.0000 -2.0233
# 5 -13.3885 -14.7810 -19.3076 0.0000 29.6629 0.0000
# 6 0.0000 0.0000 0.0000 -2.0233 0.0000 22.8441
#
#
#
# Elastic Compliance Matrix: (Units=1/GPa)
#
#
# Indices 1 2 3 4 5 6 
#
# 1 0.013594 -0.006869 -0.002360 0.000000 0.001177 0.000000
# 2 -0.006869 0.012215 -0.001999 0.000000 0.001685 0.000000
# 3 -0.002360 -0.001999 0.014476 0.000000 0.007362 0.000000
# 4 0.000000 0.000000 0.000000 0.012686 0.000000 0.001124
# 5 0.001177 0.001685 0.007362 0.000000 0.039875 0.000000
# 6 0.000000 0.000000 0.000000 0.001124 0.000000 0.043875
#
#
# Mechanical properties :
#
#
# Convention : Reuss Voigt Hill
#
# Bulk Modulus (GPa) = 56.08426 70.97389 63.52907
# Shear Modulus (GPa) = 30.28104 39.09632 34.68868
#
# Velocity S-wave (km/s) = 4.00276 4.54822 4.28418
# Velocity P-wave (km/s) = 7.14406 8.07062 7.62143
#
# Compressibility (1/GPa) = 0.01783031
#
# Stress axis : x y z
#
# Youngs Moduli (GPa) = 73.56198 81.86344 69.07931
#
# Poissons Ratio (x) = 0.56234 0.16300
# Poissons Ratio (y) = 0.50531 0.13807
# Poissons Ratio (z) = 0.17358 0.16363
#
# Static dielectric constant tensor:
#      x y z
#    x 1.692650 0.000000 0.015090 
#    y 0.000000 1.723380 0.000000 
#    z 0.015090 0.000000 1.674070 
# 
# From -- ./inp_files/269409.got.cif
#   From: 2010.05.17/outbox.cif.g08.bks.cpg/sg12_135_cif.got.tgz:269409.got - 2010.06.03 13:09:07.
