data_PCOD9200684
_publ_section_title
;
Structure prediction by ZEFSAII (Michael W. Deem and Ramdas Pophale) SiO2 
 PCOD9200684
Probable space group: C 2/M
;
_chemical_formula_sum "Si O2"
_cell_formula_units_Z 52
_cell_length_a 5.663791
_cell_length_b 22.610117
_cell_length_c 20.483920
_cell_angle_alpha 90.000000
_cell_angle_beta 113.089542
_cell_angle_gamma 90.000000
_cell_volume 2413.017426
_symmetry_space_group_name_H-M "C 2/M"
_symmetry_group_IT_number 12
_symmetry_cell_setting 'monoclinic'
loop_
_space_group_symop_operation_xyz
x,y,z
-x,y,-z
-x,-y,-z
x,-y,z
1/2+x,1/2+y,z
1/2-x,1/2+y,-z
1/2-x,1/2-y,-z
1/2+x,1/2-y,z
loop_
_atom_site_type_symbol
_atom_site_label
_atom_site_fract_x
_atom_site_fract_y
_atom_site_fract_z
Si Si1 0.823811 0.734143 0.751372
Si Si2 0.000000 0.214976 0.000000
Si Si3 0.899428 0.569722 0.415299
Si Si4 0.326393 0.567084 0.363693
Si Si5 0.142302 0.436155 0.084505
Si Si6 0.979499 0.601200 0.790917
Si Si7 0.959124 0.836794 0.861233
O O1 0.527564 0.754504 0.714907
O O2 0.843544 0.666128 0.775622
O O3 0.949481 0.775907 0.821040
O O4 0.885420 0.177641 0.927602
O O5 0.750000 0.250000 0.000000
O O6 0.875548 0.500000 0.393116
O O7 0.608686 0.594632 0.383478
O O8 0.000000 0.572367 0.500000
O O9 0.120863 0.595122 0.391761
O O10 0.376598 0.500000 0.393636
O O11 0.178916 0.565721 0.279199
O O12 0.285112 0.500000 0.101991
O O13 0.995272 0.431413 0.137342
O O14 0.289522 0.374614 0.103071
O O15 0.000000 0.436415 0.000000
O O16 0.266356 0.619422 0.802678
#
# Coordination Sequence:
#
# PCOD9200684 Si02
#       7
#     8   4   8   8   8   8   8
#     4  10  20  37  59  85 113 148 193 263 317 364
#     4  12  26  40  67  94 117 150 208 274 346 384
#     4   9  18  35  58  88 126 165 206 248 297 365
#     4  10  21  34  57  89 124 169 206 247 309 369
#     4  11  25  42  60  83 119 170 216 260 319 385
#     4  11  23  39  58  87 125 160 216 260 317 376
#     4  11  24  40  61  85 117 155 205 271 326 379
#
# _framework density 21.549782
#
# number of rings (size 3 to 8) (size 9 to 14) (size 15 to 20)
#    0.000    1.538    1.538    3.692    5.385    3.077 
#    0.000    1.923    0.000    0.000    0.000    0.000 
#    0.000   49.231    0.000    0.000    0.000    0.000 
#
# Total GULP energy -144797.697313 kJ/mol
# GULP energy per Si atom -5569.142204 kJ/mol
# Density = 2.150073 g / cm^3
# Si number density = 21.549782 Si / 1000 Ang^3
#
#
#
# Elastic Constant Matrix: (Units=GPa)
#
#
# Indices 1 2 3 4 5 6 
#
# 1 138.2499 15.4391 21.7166 0.0000 5.3601 0.0000
# 2 15.4391 68.4174 0.8460 0.0000 -5.2575 0.0000
# 3 21.7166 0.8460 52.1352 0.0000 10.6835 0.0000
# 4 0.0000 0.0000 0.0000 -103.1351 0.0000 -21.2802
# 5 5.3601 -5.2575 10.6835 0.0000 19.9120 0.0000
# 6 0.0000 0.0000 0.0000 -21.2802 0.0000 4.1392
#
#
#
# Elastic Compliance Matrix: (Units=1/GPa)
#
#
# Indices 1 2 3 4 5 6 
#
# 1 0.007961 -0.001833 -0.003087 0.000000 -0.000970 0.000000
# 2 -0.001833 0.015406 -0.000473 0.000000 0.004815 0.000000
# 3 -0.003087 -0.000473 0.022841 0.000000 -0.011549 0.000000
# 4 0.000000 0.000000 0.000000 -0.004705 0.000000 -0.024189
# 5 -0.000970 0.004815 -0.011549 0.000000 0.057950 0.000000
# 6 0.000000 0.000000 0.000000 -0.024189 0.000000 0.117233
#
#
# Mechanical properties :
#
#
# Convention : Reuss Voigt Hill
#
# Bulk Modulus (GPa) = 28.23205 37.20064 32.71634
# Shear Modulus (GPa) = 20.89610 -1.09673 9.89969
#
# Velocity S-wave (km/s) = 3.11733 -0.71417 2.14566
# Velocity P-wave (km/s) = 5.10747 4.07677 4.62095
#
# Compressibility (1/GPa) = 0.03542073
#
# Stress axis : x y z
#
# Youngs Moduli (GPa) = 125.61970 64.91151 43.78047
#
# Poissons Ratio (x) = 0.11897 0.13516
# Poissons Ratio (y) = 0.23023 0.02072
# Poissons Ratio (z) = 0.38783 0.03072
#
# Static dielectric constant tensor:
#      x y z
#    x 1.998200 0.000000 -0.045600 
#    y 0.000000 1.806500 0.000000 
#    z -0.045600 0.000000 1.780970 
# 
# From -- ./inp_files/298127.got.cif
#   From: 2010.05.17/outbox.cif.g08.bks.cpg/sg12_150_cif.got.tgz:298127.got - 2010.06.03 13:09:07.
