data_PCOD9200688
_publ_section_title
;
Structure prediction by ZEFSAII (Michael W. Deem and Ramdas Pophale) SiO2 
 PCOD9200688
Probable space group: C 2/M
;
_chemical_formula_sum "Si O2"
_cell_formula_units_Z 64
_cell_length_a 20.938352
_cell_length_b 7.802644
_cell_length_c 34.670022
_cell_angle_alpha 90.000000
_cell_angle_beta 147.014336
_cell_angle_gamma 90.000000
_cell_volume 3083.754495
_symmetry_space_group_name_H-M "C 2/M"
_symmetry_group_IT_number 12
_symmetry_cell_setting 'monoclinic'
loop_
_space_group_symop_operation_xyz
x,y,z
-x,y,-z
-x,-y,-z
x,-y,z
1/2+x,1/2+y,z
1/2-x,1/2+y,-z
1/2-x,1/2-y,-z
1/2+x,1/2-y,z
loop_
_atom_site_type_symbol
_atom_site_label
_atom_site_fract_x
_atom_site_fract_y
_atom_site_fract_z
Si Si1 0.129122 0.707542 0.550682
Si Si2 0.460625 0.206871 0.158491
Si Si3 0.727175 0.201124 0.303502
Si Si4 0.809013 0.297847 0.845592
Si Si5 0.555490 0.210102 0.936062
Si Si6 0.134932 0.706528 0.465636
Si Si7 0.384639 0.198430 0.312593
Si Si8 0.761225 0.295167 0.906917
O O1 0.134861 0.500000 0.554457
O O2 0.223660 0.775411 0.628765
O O3 0.145000 0.767011 0.514893
O O4 0.000000 0.757892 0.500000
O O5 0.594177 0.265464 0.232531
O O6 0.420475 0.265599 0.095563
O O7 0.369981 0.262648 0.145070
O O8 0.462163 0.000000 0.159360
O O9 0.814483 0.288550 0.317390
O O10 0.727003 0.000000 0.293065
O O11 0.830479 0.500000 0.861138
O O12 0.696513 0.278384 0.761360
O O13 0.788149 0.225911 0.877864
O O14 0.925840 0.231569 0.883587
O O15 0.556802 0.000000 0.936229
O O16 0.649854 0.270094 0.015187
O O17 0.123632 0.500000 0.461785
O O18 0.250000 0.750000 0.500000
O O19 0.014466 0.772273 0.385301
O O20 0.397245 0.000000 0.308420
O O21 0.777869 0.500000 0.913879
#
# Coordination Sequence:
#
# PCOD9200688 Si02
#       8
#     8   8   8   8   8   8   8   8
#     4  10  20  39  62  85 117 152 188 234 285 333
#     4  10  21  37  56  80 117 153 186 237 291 338
#     4  11  22  37  60  89 115 149 195 240 283 336
#     4  10  20  37  59  85 115 149 194 239 282 339
#     4   9  17  35  59  82 110 151 195 236 284 337
#     4  10  23  41  61  86 118 153 188 232 284 338
#     4  11  22  39  61  85 115 152 189 234 289 340
#     4  10  21  35  57  85 114 150 193 239 286 339
#
# _framework density 20.753924000000001
#
# number of rings (size 3 to 8) (size 9 to 14) (size 15 to 20)
#    0.000    1.875    2.500    1.500    0.000    5.750 
#    0.000    5.625    0.000    1.500    0.000    0.000 
#    0.000    0.000    0.000    0.000    0.000    0.000 
#
# Total GULP energy -178782.292999 kJ/mol
# GULP energy per Si atom -5586.946656 kJ/mol
# Density = 2.070669 g / cm^3
# Si number density = 20.753924 Si / 1000 Ang^3
#
#
#
# Elastic Constant Matrix: (Units=GPa)
#
#
# Indices 1 2 3 4 5 6 
#
# 1 80.1071 -10.7715 3.2303 -0.0003 -4.6507 0.0003
# 2 -10.7715 22.4138 -12.6336 -0.0002 -0.4509 -0.0006
# 3 3.2303 -12.6336 81.1471 -0.0003 4.2652 0.0006
# 4 -0.0003 -0.0002 -0.0003 36.3853 0.0000 1.6150
# 5 -4.6507 -0.4509 4.2652 0.0000 28.8007 0.0000
# 6 0.0003 -0.0006 0.0006 1.6150 0.0000 23.8158
#
#
#
# Elastic Compliance Matrix: (Units=1/GPa)
#
#
# Indices 1 2 3 4 5 6 
#
# 1 0.013505 0.006759 0.000398 0.000000 0.002228 0.000000
# 2 0.006759 0.052294 0.007833 0.000000 0.000750 0.000001
# 3 0.000398 0.007833 0.013623 0.000000 -0.001831 0.000000
# 4 0.000000 0.000000 0.000000 0.027567 0.000000 -0.001869
# 5 0.002228 0.000750 -0.001831 0.000000 0.035364 0.000000
# 6 0.000000 0.000001 0.000000 -0.001869 0.000000 0.042116
#
#
# Mechanical properties :
#
#
# Convention : Reuss Voigt Hill
#
# Bulk Modulus (GPa) = 9.14055 15.92426 12.53241
# Shear Modulus (GPa) = 26.18398 31.38987 28.78693
#
# Velocity S-wave (km/s) = 3.55581 3.89328 3.72837
# Velocity P-wave (km/s) = 4.61218 5.28202 4.95842
#
# Compressibility (1/GPa) = 0.10940256
#
# Stress axis : x y z
#
# Youngs Moduli (GPa) = 74.04401 19.12267 73.40419
#
# Poissons Ratio (x) = -0.12926 -0.02919
# Poissons Ratio (y) = -0.50049 -0.57498
# Poissons Ratio (z) = -0.02944 -0.14979
#
# Static dielectric constant tensor:
#      x y z
#    x 1.708410 0.000000 -0.001290 
#    y 0.000000 1.781860 0.000000 
#    z -0.001290 0.000000 1.727190 
# 
# From -- ./inp_files/319976.got.cif
#   From: 2010.05.17/outbox.cif.g08.bks.cpg/sg12_160_cif.got.tgz:319976.got - 2010.06.03 13:09:07.
