data_PCOD9200399
_publ_section_title
;
Structure prediction by ZEFSAII (Michael W. Deem and Ramdas Pophale) SiO2 
 PCOD9200399
Probable space group: C 2/M
;
_chemical_formula_sum "Si O2"
_cell_formula_units_Z 64
_cell_length_a 31.218093
_cell_length_b 8.693856
_cell_length_c 14.252962
_cell_angle_alpha 90.000000
_cell_angle_beta 120.730187
_cell_angle_gamma 90.000000
_cell_volume 3325.154596
_symmetry_space_group_name_H-M "C 2/M"
_symmetry_group_IT_number 12
_symmetry_cell_setting 'monoclinic'
loop_
_space_group_symop_operation_xyz
x,y,z
-x,y,-z
-x,-y,-z
x,-y,z
1/2+x,1/2+y,z
1/2-x,1/2+y,-z
1/2-x,1/2-y,-z
1/2+x,1/2-y,z
loop_
_atom_site_type_symbol
_atom_site_label
_atom_site_fract_x
_atom_site_fract_y
_atom_site_fract_z
Si Si1 0.661567 0.684776 0.170365
Si Si2 0.293377 0.184121 0.115153
Si Si3 0.630689 0.814702 0.480385
Si Si4 0.914630 0.316425 0.769349
Si Si5 0.033834 0.184492 0.451486
Si Si6 0.727694 0.812392 0.694192
Si Si7 0.126276 0.185053 0.925277
Si Si8 0.012202 0.184000 0.803710
O O1 0.658813 0.500000 0.176136
O O2 0.616674 0.755483 0.178612
O O3 0.716062 0.737974 0.265153
O O4 0.655899 0.720484 0.053955
O O5 0.285791 0.233833 0.214391
O O6 0.345553 0.239235 0.130065
O O7 0.290364 0.000000 0.109605
O O8 0.250000 0.250000 0.000000
O O9 0.613551 0.762046 0.357774
O O10 0.588006 0.759592 0.504137
O O11 0.684727 0.760475 0.575066
O O12 0.630968 0.000000 0.479719
O O13 0.914973 0.500000 0.769887
O O14 0.971217 0.257399 0.825802
O O15 0.000000 0.237197 0.500000
O O16 0.005924 0.218199 0.322454
O O17 0.039735 0.000000 0.465187
O O18 0.728086 0.000000 0.693498
O O19 0.069222 0.235026 0.876166
O O20 0.126464 0.000000 0.912477
O O21 0.010832 0.000000 0.815429
#
# Coordination Sequence:
#
# PCOD9200399 Si02
#       8
#     8   8   8   8   8   8   8   8
#     4  10  20  37  58  77 105 143 182 222 272 329
#     4  11  21  36  57  81 113 148 181 221 269 319
#     4   9  19  36  55  76 106 142 179 220 265 319
#     4  10  21  37  56  80 109 138 180 233 275 314
#     4   9  18  32  50  77 109 139 175 222 269 312
#     4   9  19  36  56  80 109 144 181 217 263 324
#     4  10  21  37  57  83 110 143 186 223 265 324
#     4   9  19  36  56  77 108 146 181 218 269 329
#
# _framework density 19.247226000000001
#
# number of rings (size 3 to 8) (size 9 to 14) (size 15 to 20)
#    0.000    2.375    1.250    0.750    1.750    2.750 
#    0.000    3.750    0.000    0.000    0.000    0.000 
#    0.000    0.000    0.000    0.000    0.000    0.000 
#
# Total GULP energy -178593.291654 kJ/mol
# GULP energy per Si atom -5581.040364 kJ/mol
# Density = 1.920342 g / cm^3
# Si number density = 19.247226 Si / 1000 Ang^3
#
#
#
# Elastic Constant Matrix: (Units=GPa)
#
#
# Indices 1 2 3 4 5 6 
#
# 1 107.9569 16.4162 2.2076 0.0000 8.6861 0.0000
# 2 16.4162 3.7930 9.4546 0.0000 1.7755 0.0000
# 3 2.2076 9.4546 16.3899 0.0000 19.3318 0.0000
# 4 0.0000 0.0000 0.0000 17.1553 0.0000 0.2847
# 5 8.6861 1.7755 19.3318 0.0000 38.5334 0.0000
# 6 0.0000 0.0000 0.0000 0.2847 0.0000 31.8333
#
#
#
# Elastic Compliance Matrix: (Units=1/GPa)
#
#
# Indices 1 2 3 4 5 6 
#
# 1 0.006498 0.016822 -0.019442 0.000000 0.007514 0.000000
# 2 0.016822 -0.094393 0.126214 0.000000 -0.062763 0.000000
# 3 -0.019442 0.126214 -0.018335 0.000000 0.007765 0.000000
# 4 0.000000 0.000000 0.000000 0.058300 0.000000 -0.000521
# 5 0.007514 -0.062763 0.007765 0.000000 0.023254 0.000000
# 6 0.000000 0.000000 0.000000 -0.000521 0.000000 0.031418
#
#
# Mechanical properties :
#
#
# Convention : Reuss Voigt Hill
#
# Bulk Modulus (GPa) = 7.09423 20.47738 13.78581
# Shear Modulus (GPa) = -25.84515 24.17516 -0.83499
#
# Velocity S-wave (km/s) = -3.66840 3.54790 -0.65937
# Velocity P-wave (km/s) = 3.77478 5.23886 2.56873
#
# Compressibility (1/GPa) = 0.14095956
#
# Stress axis : x y z
#
# Youngs Moduli (GPa) = 153.89622 -10.59405 -54.54189
#
# Poissons Ratio (x) = 0.17822 -1.06042
# Poissons Ratio (y) = -2.58892 6.88396
# Poissons Ratio (z) = 2.99209 1.33712
#
# Static dielectric constant tensor:
#      x y z
#    x 1.659280 0.000000 0.014460 
#    y 0.000000 1.649220 0.000000 
#    z 0.014460 0.000000 1.678660 
# 
# From -- ./inp_files/249142.got.cif
#   From: 2010.05.17/outbox.cif.g08.bks.cpg/sg12_125_cif.got.tgz:249142.got - 2010.06.03 13:09:07.
