data_PCOD9200697
_publ_section_title
;
Structure prediction by ZEFSAII (Michael W. Deem and Ramdas Pophale) SiO2 
 PCOD9200697
Probable space group: C 2/M
;
_chemical_formula_sum "Si O2"
_cell_formula_units_Z 48
_cell_length_a 30.504640
_cell_length_b 8.559910
_cell_length_c 9.651768
_cell_angle_alpha 90.000000
_cell_angle_beta 98.204927
_cell_angle_gamma 90.000000
_cell_volume 2494.443168
_symmetry_space_group_name_H-M "C 2/M"
_symmetry_group_IT_number 12
_symmetry_cell_setting 'monoclinic'
loop_
_space_group_symop_operation_xyz
x,y,z
-x,y,-z
-x,-y,-z
x,-y,z
1/2+x,1/2+y,z
1/2-x,1/2+y,-z
1/2-x,1/2-y,-z
1/2+x,1/2-y,z
loop_
_atom_site_type_symbol
_atom_site_label
_atom_site_fract_x
_atom_site_fract_y
_atom_site_fract_z
Si Si1 0.623433 0.311524 0.353035
Si Si2 0.477840 0.681729 0.639650
Si Si3 0.965819 0.686665 0.096100
Si Si4 0.370760 0.810866 0.954996
Si Si5 0.208493 0.811899 0.571014
Si Si6 0.710650 0.187644 0.886223
O O1 0.623652 0.500000 0.354076
O O2 0.573239 0.261102 0.371863
O O3 0.634119 0.254228 0.202438
O O4 0.662345 0.260828 0.476142
O O5 0.500000 0.688089 0.500000
O O6 0.477129 0.500000 0.683698
O O7 0.511714 0.774396 0.750274
O O8 0.963508 0.500000 0.080262
O O9 0.917188 0.745671 0.039695
O O10 0.000000 0.751864 0.000000
O O11 0.370703 0.000000 0.943976
O O12 0.333063 0.767304 0.047115
O O13 0.250000 0.750000 0.500000
O O14 0.211224 0.754003 0.730768
O O15 0.209841 0.000000 0.571139
O O16 0.712942 0.000000 0.878190
O O17 0.750000 0.250000 0.000000
#
# Coordination Sequence:
#
# PCOD9200697 Si02
#       6
#     8   8   8   8   8   8
#     4  10  22  39  59  86 118 155 197 241 293 351
#     4  10  22  38  57  84 119 156 197 242 290 347
#     4  10  20  37  59  85 117 154 197 241 289 345
#     4  10  22  39  60  87 119 154 195 244 293 348
#     4  11  24  42  64  90 122 157 197 244 297 356
#     4  11  24  42  64  91 121 154 197 246 299 356
#
# _framework density 19.242771000000001
#
# number of rings (size 3 to 8) (size 9 to 14) (size 15 to 20)
#    0.000    1.667    1.667    2.000    2.333    6.667 
#    0.000    0.000    0.000    0.000    0.000    0.000 
#    0.000    0.000    0.000    0.000    0.000    0.000 
#
# Total GULP energy -133962.137005 kJ/mol
# GULP energy per Si atom -5581.755709 kJ/mol
# Density = 1.919897 g / cm^3
# Si number density = 19.242771 Si / 1000 Ang^3
#
#
#
# Elastic Constant Matrix: (Units=GPa)
#
#
# Indices 1 2 3 4 5 6 
#
# 1 177.6250 38.8661 107.6949 0.0000 10.1425 0.0000
# 2 38.8661 16.9571 31.2513 0.0000 -3.0630 0.0000
# 3 107.6949 31.2513 149.5676 0.0000 7.2430 0.0000
# 4 0.0000 0.0000 0.0000 38.9809 0.0000 4.4601
# 5 10.1425 -3.0630 7.2430 0.0000 37.3769 0.0000
# 6 0.0000 0.0000 0.0000 4.4601 0.0000 28.1273
#
#
#
# Elastic Compliance Matrix: (Units=1/GPa)
#
#
# Indices 1 2 3 4 5 6 
#
# 1 0.014242 -0.024513 -0.004895 0.000000 -0.004925 0.000000
# 2 -0.024513 0.143591 -0.013370 0.000000 0.021010 0.000000
# 3 -0.004895 -0.013370 0.013116 0.000000 -0.002309 0.000000
# 4 0.000000 0.000000 0.000000 0.026128 0.000000 -0.004143
# 5 -0.004925 0.021010 -0.002309 0.000000 0.030260 0.000000
# 6 0.000000 0.000000 0.000000 -0.004143 0.000000 0.036210
#
#
# Mechanical properties :
#
#
# Convention : Reuss Voigt Hill
#
# Bulk Modulus (GPa) = 11.71038 77.75272 44.73155
# Shear Modulus (GPa) = 13.24274 31.98618 22.61446
#
# Velocity S-wave (km/s) = 2.62619 4.08149 3.43186
# Velocity P-wave (km/s) = 3.91084 7.91867 6.24499
#
# Compressibility (1/GPa) = 0.08539430
#
# Stress axis : x y z
#
# Youngs Moduli (GPa) = 70.21273 6.96425 76.24375
#
# Poissons Ratio (x) = 0.17071 0.37320
# Poissons Ratio (y) = 1.72109 1.01937
# Poissons Ratio (z) = 0.34368 0.09311
#
# Static dielectric constant tensor:
#      x y z
#    x 1.602630 0.000000 0.095940 
#    y 0.000000 1.675150 0.000000 
#    z 0.095940 0.000000 1.437600 
# 
# From -- ./inp_files/108622.got.cif
#   From: 2010.05.17/outbox.cif.g08.bks.cpg/sg12_55_cif.got.tgz:108622.got - 2010.06.03 13:09:07.
