data_PCOD9200884
_publ_section_title
;
Structure prediction by ZEFSAII (Michael W. Deem and Ramdas Pophale) SiO2 
 PCOD9200884
Probable space group: C 2/M
;
_chemical_formula_sum "Si O2"
_cell_formula_units_Z 64
_cell_length_a 22.888362
_cell_length_b 8.776484
_cell_length_c 19.794191
_cell_angle_alpha 90.000000
_cell_angle_beta 124.564665
_cell_angle_gamma 90.000000
_cell_volume 3274.382956
_symmetry_space_group_name_H-M "C 2/M"
_symmetry_group_IT_number 12
_symmetry_cell_setting 'monoclinic'
loop_
_space_group_symop_operation_xyz
x,y,z
-x,y,-z
-x,-y,-z
x,-y,z
1/2+x,1/2+y,z
1/2-x,1/2+y,-z
1/2-x,1/2-y,-z
1/2+x,1/2-y,z
loop_
_atom_site_type_symbol
_atom_site_label
_atom_site_fract_x
_atom_site_fract_y
_atom_site_fract_z
Si Si1 0.949214 0.818520 0.176296
Si Si2 0.270564 0.179759 0.217983
Si Si3 0.993992 0.678980 0.918629
Si Si4 0.570679 0.681124 0.465153
Si Si5 0.583573 0.817895 0.616208
Si Si6 0.287204 0.318538 0.089930
Si Si7 0.837910 0.677768 0.752162
Si Si8 0.588798 0.182727 0.336022
O O1 0.870144 0.771557 0.145272
O O2 0.960984 0.774010 0.105672
O O3 0.011242 0.735142 0.258617
O O4 0.957061 0.000000 0.190562
O O5 0.350556 0.218998 0.292960
O O6 0.252250 0.264293 0.136680
O O7 0.219443 0.226416 0.245421
O O8 0.266756 0.000000 0.204003
O O9 0.014952 0.500000 0.928386
O O10 0.912701 0.688980 0.840751
O O11 0.000000 0.728820 0.000000
O O12 0.576265 0.500000 0.475896
O O13 0.600574 0.764264 0.551160
O O14 0.487821 0.731072 0.409495
O O15 0.603660 0.738904 0.416997
O O16 0.570775 0.000000 0.608810
O O17 0.284651 0.500000 0.083993
O O18 0.250000 0.250000 0.000000
O O19 0.816547 0.500000 0.737933
O O20 0.856202 0.724317 0.687477
O O21 0.588387 0.000000 0.342539
#
# Coordination Sequence:
#
# PCOD9200884 Si02
#       8
#     8   8   8   8   8   8   8   8
#     4  10  21  36  55  83 111 140 184 237 285 329
#     4  11  24  40  60  84 115 153 192 234 285 342
#     4   9  19  35  56  81 108 144 187 229 283 343
#     4  11  21  34  59  92 121 148 188 242 287 329
#     4  10  21  38  59  86 119 158 193 228 282 346
#     4  11  25  41  58  82 113 149 190 234 285 341
#     4   9  20  37  57  82 111 151 193 234 284 339
#     4  10  20  37  60  85 114 152 191 230 284 346
#
# _framework density 19.545667999999999
#
# number of rings (size 3 to 8) (size 9 to 14) (size 15 to 20)
#    0.000    1.875    0.000    5.250    1.750    8.750 
#    0.000    0.625    0.000    0.000    0.000    0.000 
#    0.000    0.000    0.000    0.000    0.000    0.000 
#
# Total GULP energy -178822.552286 kJ/mol
# GULP energy per Si atom -5588.204759 kJ/mol
# Density = 1.950118 g / cm^3
# Si number density = 19.545668 Si / 1000 Ang^3
#
#
#
# Elastic Constant Matrix: (Units=GPa)
#
#
# Indices 1 2 3 4 5 6 
#
# 1 57.4214 15.6634 23.2599 0.0000 -14.6886 0.0000
# 2 15.6634 37.8902 17.5731 0.0000 0.8020 0.0000
# 3 23.2599 17.5731 62.6277 0.0000 -27.0417 0.0000
# 4 0.0000 0.0000 0.0000 22.8799 0.0000 -5.3410
# 5 -14.6886 0.8020 -27.0417 0.0000 28.2437 0.0000
# 6 0.0000 0.0000 0.0000 -5.3410 0.0000 33.7249
#
#
#
# Elastic Compliance Matrix: (Units=1/GPa)
#
#
# Indices 1 2 3 4 5 6 
#
# 1 0.023320 -0.009332 -0.001179 0.000000 0.011264 0.000000
# 2 -0.009332 0.038564 -0.016917 0.000000 -0.022145 0.000000
# 3 -0.001179 -0.016917 0.035962 0.000000 0.034299 0.000000
# 4 0.000000 0.000000 0.000000 0.045384 0.000000 0.007188
# 5 0.011264 -0.022145 0.034299 0.000000 0.074732 0.000000
# 6 0.000000 0.000000 0.000000 0.007188 0.000000 0.030790
#
#
# Mechanical properties :
#
#
# Convention : Reuss Voigt Hill
#
# Bulk Modulus (GPa) = 23.26121 30.10357 26.68239
# Shear Modulus (GPa) = 15.72637 23.73255 19.72946
#
# Velocity S-wave (km/s) = 2.83962 3.48833 3.18056
# Velocity P-wave (km/s) = 4.76215 5.62670 5.21238
#
# Compressibility (1/GPa) = 0.04299003
#
# Stress axis : x y z
#
# Youngs Moduli (GPa) = 42.88255 25.93062 27.80738
#
# Poissons Ratio (x) = 0.24198 0.03278
# Poissons Ratio (y) = 0.40017 0.47043
# Poissons Ratio (z) = 0.05055 0.43868
#
# Static dielectric constant tensor:
#      x y z
#    x 1.690590 0.000000 -0.010500 
#    y 0.000000 1.653880 0.000000 
#    z -0.010500 0.000000 1.676800 
# 
# From -- ./inp_files/324256.got.cif
#   From: 2010.05.17/outbox.cif.g08.bks.cpg/sg12_163_cif.got.tgz:324256.got - 2010.06.03 13:09:07.
