data_PCOD9200501
_publ_section_title
;
Structure prediction by ZEFSAII (Michael W. Deem and Ramdas Pophale) SiO2 
 PCOD9200501
Probable space group: C 2/M
;
_chemical_formula_sum "Si O2"
_cell_formula_units_Z 56
_cell_length_a 15.275345
_cell_length_b 8.446870
_cell_length_c 25.096952
_cell_angle_alpha 90.000000
_cell_angle_beta 116.782781
_cell_angle_gamma 90.000000
_cell_volume 2890.837669
_symmetry_space_group_name_H-M "C 2/M"
_symmetry_group_IT_number 12
_symmetry_cell_setting 'monoclinic'
loop_
_space_group_symop_operation_xyz
x,y,z
-x,y,-z
-x,-y,-z
x,-y,z
1/2+x,1/2+y,z
1/2-x,1/2+y,-z
1/2-x,1/2-y,-z
1/2+x,1/2-y,z
loop_
_atom_site_type_symbol
_atom_site_label
_atom_site_fract_x
_atom_site_fract_y
_atom_site_fract_z
Si Si1 0.856688 0.810112 0.510186
Si Si2 0.573367 0.811225 0.363800
Si Si3 0.364489 0.310780 0.286722
Si Si4 0.712653 0.306932 0.619784
Si Si5 0.760790 0.189469 0.846060
Si Si6 0.177384 0.809605 0.933897
Si Si7 0.477947 0.307206 0.933533
O O1 0.750000 0.750000 0.500000
O O2 0.928021 0.744390 0.574891
O O3 0.859331 0.761332 0.448928
O O4 0.861103 0.000000 0.513367
O O5 0.475114 0.750164 0.309419
O O6 0.676116 0.755891 0.365080
O O7 0.575143 0.000000 0.363325
O O8 0.367517 0.500000 0.289664
O O9 0.323088 0.251797 0.332464
O O10 0.294323 0.258298 0.219891
O O11 0.713851 0.500000 0.620787
O O12 0.707337 0.238714 0.885753
O O13 0.872986 0.246517 0.883421
O O14 0.761522 0.000000 0.842012
O O15 0.068044 0.761598 0.920998
O O16 0.182360 0.000000 0.933026
O O17 0.250000 0.750000 0.000000
O O18 0.475301 0.500000 0.934642
O O19 0.500000 0.253611 0.000000
#
# Coordination Sequence:
#
# PCOD9200501 Si02
#       7
#     8   8   8   8   8   8   8
#     4   9  16  31  55  84 113 149 193 242 294 344
#     4  10  20  37  58  84 116 152 191 239 294 347
#     4  11  23  40  58  81 112 152 196 238 284 343
#     4   8  18  36  58  80 112 152 192 237 288 343
#     4  11  23  41  60  83 116 152 191 236 285 340
#     4  11  21  37  62  91 119 150 186 228 279 335
#     4   9  18  36  61  86 115 150 183 225 281 336
#
# _framework density 19.371549000000002
#
# number of rings (size 3 to 8) (size 9 to 14) (size 15 to 20)
#    0.000    2.143    1.429    3.000    0.000    1.714 
#    0.000   17.857    0.000    0.000    0.000    0.000 
#    0.000    0.000    0.000    0.000    0.000    0.000 
#
# Total GULP energy -156297.796078 kJ/mol
# GULP energy per Si atom -5582.064146 kJ/mol
# Density = 1.932746 g / cm^3
# Si number density = 19.371549 Si / 1000 Ang^3
#
#
#
# Elastic Constant Matrix: (Units=GPa)
#
#
# Indices 1 2 3 4 5 6 
#
# 1 82.9391 5.8828 21.9281 0.0000 10.1531 0.0000
# 2 5.8828 37.5918 7.6592 0.0000 4.2355 0.0000
# 3 21.9281 7.6592 97.3459 0.0000 13.1230 0.0000
# 4 0.0000 0.0000 0.0000 35.9482 0.0000 1.0647
# 5 10.1531 4.2355 13.1230 0.0000 35.7701 0.0000
# 6 0.0000 0.0000 0.0000 1.0647 0.0000 17.1051
#
#
#
# Elastic Compliance Matrix: (Units=1/GPa)
#
#
# Indices 1 2 3 4 5 6 
#
# 1 0.013133 -0.001246 -0.002501 0.000000 -0.002662 0.000000
# 2 -0.001246 0.027375 -0.001561 0.000000 -0.002315 0.000000
# 3 -0.002501 -0.001561 0.011402 0.000000 -0.003288 0.000000
# 4 0.000000 0.000000 0.000000 0.027869 0.000000 -0.001735
# 5 -0.002662 -0.002315 -0.003288 0.000000 0.030193 0.000000
# 6 0.000000 0.000000 0.000000 -0.001735 0.000000 0.058570
#
#
# Mechanical properties :
#
#
# Convention : Reuss Voigt Hill
#
# Bulk Modulus (GPa) = 24.21655 32.09079 28.15367
# Shear Modulus (GPa) = 25.91707 29.92512 27.92109
#
# Velocity S-wave (km/s) = 3.66169 3.93466 3.80062
# Velocity P-wave (km/s) = 5.51412 6.10278 5.81590
#
# Compressibility (1/GPa) = 0.04129408
#
# Stress axis : x y z
#
# Youngs Moduli (GPa) = 76.14619 36.52915 87.70222
#
# Poissons Ratio (x) = 0.04550 0.21937
# Poissons Ratio (y) = 0.09484 0.13692
# Poissons Ratio (z) = 0.19047 0.05703
#
# Static dielectric constant tensor:
#      x y z
#    x 1.688890 0.000000 0.004110 
#    y 0.000000 1.669930 0.000000 
#    z 0.004110 0.000000 1.662780 
# 
# From -- ./inp_files/339030.got.cif
#   From: 2010.05.17/outbox.cif.g08.bks.cpg/sg12_170_cif.got.tgz:339030.got - 2010.06.03 13:09:07.
