data_PCOD9200949
_publ_section_title
;
Structure prediction by ZEFSAII (Michael W. Deem and Ramdas Pophale) SiO2 
 PCOD9200949
Probable space group: C 2/M
;
_chemical_formula_sum "Si O2"
_cell_formula_units_Z 24
_cell_length_a 21.435487
_cell_length_b 12.308279
_cell_length_c 10.180101
_cell_angle_alpha 90.000000
_cell_angle_beta 20.305198
_cell_angle_gamma 90.000000
_cell_volume 932.047835
_symmetry_space_group_name_H-M "C 2/M"
_symmetry_group_IT_number 12
_symmetry_cell_setting 'monoclinic'
loop_
_space_group_symop_operation_xyz
x,y,z
-x,y,-z
-x,-y,-z
x,-y,z
1/2+x,1/2+y,z
1/2-x,1/2+y,-z
1/2-x,1/2-y,-z
1/2+x,1/2-y,z
loop_
_atom_site_type_symbol
_atom_site_label
_atom_site_fract_x
_atom_site_fract_y
_atom_site_fract_z
Si Si1 0.633045 0.654841 0.557787
Si Si2 0.272566 0.113432 0.571653
Si Si3 0.209801 0.878726 0.117426
O O1 0.621787 0.784815 0.584501
O O2 0.736356 0.624072 0.487192
O O3 0.728640 0.620034 0.237338
O O4 0.428037 0.615496 0.971591
O O5 0.362091 0.000000 0.424043
O O6 0.000000 0.885067 0.500000
O O7 0.283189 0.000000 0.923711
O O8 0.250000 0.750000 0.000000
#
# Coordination Sequence:
#
# PCOD9200949 Si02
#       3
#     8   8   8
#     4  10  20  37  60  87 115 149 192 235 290 348
#     4  10  20  37  61  86 116 148 183 239 296 345
#     4  11  24  41  61  86 119 159 200 242 288 344
#
# _framework density 25.749751
#
# number of rings (size 3 to 8) (size 9 to 14) (size 15 to 20)
#    0.000    1.667    0.000    6.000    0.000    4.667 
#    0.000   20.000    0.000    0.000    0.000    0.000 
#    0.000    0.000    0.000    0.000    0.000    0.000 
#
# Total GULP energy -67015.912105 kJ/mol
# GULP energy per Si atom -5584.659342 kJ/mol
# Density = 2.569114 g / cm^3
# Si number density = 25.749751 Si / 1000 Ang^3
#
#
#
# Elastic Constant Matrix: (Units=GPa)
#
#
# Indices 1 2 3 4 5 6 
#
# 1 63.9371 22.3450 20.8452 0.0000 18.2215 0.0000
# 2 22.3450 329.5340 41.6631 0.0000 2.9051 0.0000
# 3 20.8452 41.6631 45.4234 -0.0001 2.2166 0.0001
# 4 0.0000 0.0000 -0.0001 32.0700 0.0001 -16.9884
# 5 18.2215 2.9051 2.2166 0.0001 38.2163 0.0000
# 6 0.0000 0.0000 0.0001 -16.9884 0.0000 1.9947
#
#
#
# Elastic Compliance Matrix: (Units=1/GPa)
#
#
# Indices 1 2 3 4 5 6 
#
# 1 0.021470 -0.000209 -0.009189 0.000000 -0.009688 0.000000
# 2 -0.000209 0.003435 -0.003056 0.000000 0.000016 0.000000
# 3 -0.009189 -0.003056 0.028891 0.000000 0.002938 0.000000
# 4 0.000000 0.000000 0.000000 -0.008880 0.000000 -0.075627
# 5 -0.009688 0.000016 0.002938 0.000000 0.030615 0.000000
# 6 0.000000 0.000000 0.000000 -0.075627 0.000000 -0.142765
#
#
# Mechanical properties :
#
#
# Convention : Reuss Voigt Hill
#
# Bulk Modulus (GPa) = 34.61368 67.62235 51.11802
# Shear Modulus (GPa) = -152.91213 38.05895 -57.42659
#
# Velocity S-wave (km/s) = -7.71446 3.84869 -4.72760
# Velocity P-wave (km/s) = 8.11658 6.78736 3.14728
#
# Compressibility (1/GPa) = 0.02889031
#
# Stress axis : x y z
#
# Youngs Moduli (GPa) = 46.57654 291.12783 34.61281
#
# Poissons Ratio (x) = 0.06076 0.31804
# Poissons Ratio (y) = 0.00972 0.10576
# Poissons Ratio (z) = 0.42797 0.88955
#
# Static dielectric constant tensor:
#      x y z
#    x 1.903830 0.000000 0.077710 
#    y 0.000000 2.129290 0.000000 
#    z 0.077710 0.000000 2.006820 
# 
# From -- ./inp_files/172744.got.cif
#   From: 2010.05.17/outbox.cif.g08.bks.cpg/sg12_87_cif.got.tgz:172744.got - 2010.06.03 13:09:07.
