data_PCOD9200262
_publ_section_title
;
Structure prediction by ZEFSAII (Michael W. Deem and Ramdas Pophale) SiO2 
 PCOD9200262
Probable space group: C 2/M
;
_chemical_formula_sum "Si O2"
_cell_formula_units_Z 56
_cell_length_a 31.154554
_cell_length_b 8.722419
_cell_length_c 17.231668
_cell_angle_alpha 90.000000
_cell_angle_beta 45.384507
_cell_angle_gamma 90.000000
_cell_volume 3333.234319
_symmetry_space_group_name_H-M "C 2/M"
_symmetry_group_IT_number 12
_symmetry_cell_setting 'monoclinic'
loop_
_space_group_symop_operation_xyz
x,y,z
-x,y,-z
-x,-y,-z
x,-y,z
1/2+x,1/2+y,z
1/2-x,1/2+y,-z
1/2-x,1/2-y,-z
1/2+x,1/2-y,z
loop_
_atom_site_type_symbol
_atom_site_label
_atom_site_fract_x
_atom_site_fract_y
_atom_site_fract_z
Si Si1 0.721347 0.815728 0.653242
Si Si2 0.804414 0.816165 0.982651
Si Si3 0.241753 0.315575 0.802093
Si Si4 0.876587 0.317399 0.636079
Si Si5 0.157372 0.184328 0.592427
Si Si6 0.923087 0.815511 0.735666
Si Si7 0.558745 0.685144 0.597901
O O1 0.718790 0.767568 0.745963
O O2 0.786078 0.768799 0.534303
O O3 0.670848 0.751548 0.659750
O O4 0.719372 0.000000 0.653784
O O5 0.796826 0.751026 0.078468
O O6 0.799607 0.000000 0.990193
O O7 0.750000 0.750000 0.000000
O O8 0.867633 0.774282 0.862146
O O9 0.242346 0.500000 0.805198
O O10 0.310149 0.256479 0.724286
O O11 0.871314 0.500000 0.641590
O O12 0.912751 0.263491 0.666100
O O13 0.909816 0.258101 0.517010
O O14 0.096389 0.231369 0.626301
O O15 0.158302 0.000000 0.596601
O O16 0.988283 0.775595 0.687433
O O17 0.921331 0.000000 0.726346
O O18 0.564057 0.500000 0.584175
#
# Coordination Sequence:
#
# PCOD9200262 Si02
#       7
#     8   8   8   8   8   8   8
#     4   9  18  32  51  77 105 134 169 213 265 315
#     4  11  22  36  55  80 105 138 181 224 265 308
#     4  11  21  36  56  77 107 143 178 218 265 316
#     4  12  23  33  51  80 111 141 175 219 264 313
#     4   9  17  31  52  77 105 134 170 213 257 312
#     4  10  22  38  56  74 104 146 182 215 259 316
#     4  10  20  37  56  76 106 146 180 210 259 320
#
# _framework density 16.800498000000001
#
# number of rings (size 3 to 8) (size 9 to 14) (size 15 to 20)
#    0.000    1.714    2.857    2.571    0.000    4.571 
#    0.000    0.000    0.000    0.857    0.000    6.000 
#    0.000    0.000    0.000    0.000    0.000    0.000 
#
# Total GULP energy -156338.163915 kJ/mol
# GULP energy per Si atom -5583.505854 kJ/mol
# Density = 1.676226 g / cm^3
# Si number density = 16.800498 Si / 1000 Ang^3
#
#
#
# Elastic Constant Matrix: (Units=GPa)
#
#
# Indices 1 2 3 4 5 6 
#
# 1 166.4526 36.3154 51.7292 -0.0002 5.4514 0.0001
# 2 36.3154 26.5906 20.0068 -0.0004 -2.2024 0.0003
# 3 51.7292 20.0068 50.1643 0.0000 -4.3933 0.0001
# 4 -0.0002 -0.0004 0.0000 24.1762 0.0001 5.4832
# 5 5.4514 -2.2024 -4.3933 0.0001 27.8206 0.0000
# 6 0.0001 0.0003 0.0001 5.4832 0.0000 27.2818
#
#
#
# Elastic Compliance Matrix: (Units=1/GPa)
#
#
# Indices 1 2 3 4 5 6 
#
# 1 0.010419 -0.008876 -0.007549 0.000000 -0.003936 0.000000
# 2 -0.008876 0.061313 -0.014930 0.000001 0.004235 -0.000001
# 3 -0.007549 -0.014930 0.034172 0.000000 0.005694 0.000000
# 4 0.000000 0.000001 0.000000 0.043339 0.000000 -0.008710
# 5 -0.003936 0.004235 0.005694 0.000000 0.037950 0.000000
# 6 0.000000 -0.000001 0.000000 -0.008710 0.000000 0.038405
#
#
# Mechanical properties :
#
#
# Convention : Reuss Voigt Hill
#
# Bulk Modulus (GPa) = 23.15065 51.03449 37.09257
# Shear Modulus (GPa) = 16.51771 24.86612 20.69192
#
# Velocity S-wave (km/s) = 3.13895 3.85136 3.51326
# Velocity P-wave (km/s) = 5.19105 7.08661 6.21156
#
# Compressibility (1/GPa) = 0.04319533
#
# Stress axis : x y z
#
# Youngs Moduli (GPa) = 95.97734 16.30973 29.26379
#
# Poissons Ratio (x) = 0.14476 0.22091
# Poissons Ratio (y) = 0.85188 0.43690
# Poissons Ratio (z) = 0.72453 0.24350
#
# Static dielectric constant tensor:
#      x y z
#    x 1.564660 0.000000 -0.001990 
#    y 0.000000 1.569180 0.000000 
#    z -0.001990 0.000000 1.545470 
# 
# From -- ./inp_files/237837.got.cif
#   From: 2010.05.17/outbox.cif.g08.bks.cpg/sg12_119_cif.got.tgz:237837.got - 2010.06.03 13:09:07.
