data_PCOD9200936
_publ_section_title
;
Structure prediction by ZEFSAII (Michael W. Deem and Ramdas Pophale) SiO2 
 PCOD9200936
Probable space group: C 2/M
;
_chemical_formula_sum "Si O2"
_cell_formula_units_Z 56
_cell_length_a 19.936839
_cell_length_b 17.895556
_cell_length_c 15.083217
_cell_angle_alpha 90.000000
_cell_angle_beta 32.683733
_cell_angle_gamma 90.000000
_cell_volume 2905.964799
_symmetry_space_group_name_H-M "C 2/M"
_symmetry_group_IT_number 12
_symmetry_cell_setting 'monoclinic'
loop_
_space_group_symop_operation_xyz
x,y,z
-x,y,-z
-x,-y,-z
x,-y,z
1/2+x,1/2+y,z
1/2-x,1/2+y,-z
1/2-x,1/2-y,-z
1/2+x,1/2-y,z
loop_
_atom_site_type_symbol
_atom_site_label
_atom_site_fract_x
_atom_site_fract_y
_atom_site_fract_z
Si Si1 0.373534 0.233428 0.678441
Si Si2 0.856693 0.412326 0.142349
Si Si3 0.734997 0.716986 0.375286
Si Si4 0.694019 0.834367 0.984104
Si Si5 0.039231 0.085233 0.056807
Si Si6 0.454205 0.726768 0.258525
Si Si7 0.314457 0.084991 0.821063
O O1 0.500000 0.267788 0.500000
O O2 0.281253 0.235329 0.696567
O O3 0.397653 0.149847 0.685615
O O4 0.308021 0.280897 0.828689
O O5 0.845003 0.500000 0.169570
O O6 0.766488 0.365757 0.306209
O O7 0.826428 0.389211 0.075899
O O8 0.000000 0.390147 0.000000
O O9 0.613195 0.722815 0.571559
O O10 0.850970 0.742478 0.305135
O O11 0.572929 0.781284 0.127131
O O12 0.714345 0.883223 0.048926
O O13 0.989671 0.145689 0.181393
O O14 0.994850 0.000000 0.122582
O O15 0.187369 0.084702 0.906207
O O16 0.000000 0.105204 0.000000
O O17 0.363018 0.000000 0.770316
#
# Coordination Sequence:
#
# PCOD9200936 Si02
#       7
#     8   8   8   8   8   8   8
#     4  11  23  38  61  87 123 157 202 245 299 355
#     4  10  20  37  60  86 119 156 196 242 300 355
#     4  10  23  37  59  92 118 156 202 251 294 355
#     4  11  22  38  65  88 119 158 201 253 294 357
#     4  10  22  38  61  88 118 157 201 246 299 359
#     4  11  21  38  63  88 120 154 204 249 301 347
#     4  11  23  39  61  89 120 160 201 246 303 358
#
# _framework density 19.270709
#
# number of rings (size 3 to 8) (size 9 to 14) (size 15 to 20)
#    0.000    1.429    2.857    2.571    4.000    0.857 
#    0.000    0.000    0.000    3.000    0.000    0.000 
#    0.000    0.000    0.000    0.000    0.000    0.000 
#
# Total GULP energy -156374.555572 kJ/mol
# GULP energy per Si atom -5584.805556 kJ/mol
# Density = 1.922685 g / cm^3
# Si number density = 19.270709 Si / 1000 Ang^3
#
#
#
# Elastic Constant Matrix: (Units=GPa)
#
#
# Indices 1 2 3 4 5 6 
#
# 1 61.1669 -6.6263 -14.5065 0.0000 3.8816 0.0000
# 2 -6.6263 76.7146 17.2529 0.0000 7.7727 0.0000
# 3 -14.5065 17.2529 68.7154 0.0000 -5.3529 0.0000
# 4 0.0000 0.0000 0.0000 13.7658 0.0000 1.8920
# 5 3.8816 7.7727 -5.3529 0.0000 27.0825 0.0000
# 6 0.0000 0.0000 0.0000 1.8920 0.0000 25.0750
#
#
#
# Elastic Compliance Matrix: (Units=1/GPa)
#
#
# Indices 1 2 3 4 5 6 
#
# 1 0.017362 0.000984 0.003252 0.000000 -0.002128 0.000000
# 2 0.000984 0.014493 -0.003825 0.000000 -0.005056 0.000000
# 3 0.003252 -0.003825 0.016503 0.000000 0.003893 0.000000
# 4 0.000000 0.000000 0.000000 0.073405 0.000000 -0.005539
# 5 -0.002128 -0.005056 0.003893 0.000000 0.039450 0.000000
# 6 0.000000 0.000000 0.000000 -0.005539 0.000000 0.040298
#
#
# Mechanical properties :
#
#
# Convention : Reuss Voigt Hill
#
# Bulk Modulus (GPa) = 20.33350 22.09303 21.21327
# Shear Modulus (GPa) = 23.03283 27.21648 25.12465
#
# Velocity S-wave (km/s) = 3.46095 3.76217 3.61470
# Velocity P-wave (km/s) = 5.15222 5.51011 5.33417
#
# Compressibility (1/GPa) = 0.04917992
#
# Stress axis : x y z
#
# Youngs Moduli (GPa) = 57.59817 68.99947 60.59479
#
# Poissons Ratio (x) = -0.06788 -0.19708
# Poissons Ratio (y) = -0.05666 0.23178
# Poissons Ratio (z) = -0.18734 0.26393
#
# Static dielectric constant tensor:
#      x y z
#    x 1.698140 0.000000 -0.011410 
#    y 0.000000 1.659370 0.000000 
#    z -0.011410 0.000000 1.660660 
# 
# From -- ./inp_files/226572.got.cif
#   From: 2010.05.17/outbox.cif.g08.bks.cpg/sg12_114_cif.got.tgz:226572.got - 2010.06.03 13:09:07.
