data_PCOD9200444
_publ_section_title
;
Structure prediction by ZEFSAII (Michael W. Deem and Ramdas Pophale) SiO2 
 PCOD9200444
Probable space group: C 2/M
;
_chemical_formula_sum "Si O2"
_cell_formula_units_Z 48
_cell_length_a 8.860575
_cell_length_b 10.781567
_cell_length_c 25.231018
_cell_angle_alpha 90.000000
_cell_angle_beta 78.654101
_cell_angle_gamma 90.000000
_cell_volume 2363.237027
_symmetry_space_group_name_H-M "C 2/M"
_symmetry_group_IT_number 12
_symmetry_cell_setting 'monoclinic'
loop_
_space_group_symop_operation_xyz
x,y,z
-x,y,-z
-x,-y,-z
x,-y,z
1/2+x,1/2+y,z
1/2-x,1/2+y,-z
1/2-x,1/2-y,-z
1/2+x,1/2-y,z
loop_
_atom_site_type_symbol
_atom_site_label
_atom_site_fract_x
_atom_site_fract_y
_atom_site_fract_z
Si Si1 0.194224 0.638124 0.184402
Si Si2 0.463412 0.779499 0.114890
Si Si3 0.228567 0.138982 0.043054
Si Si4 0.992889 0.642774 0.302235
Si Si5 0.320467 0.363724 0.526649
Si Si6 0.350236 0.639907 0.649686
O O1 0.256297 0.500000 0.187482
O O2 0.334693 0.729158 0.163968
O O3 0.088147 0.666815 0.242151
O O4 0.086317 0.643040 0.139842
O O5 0.367993 0.847999 0.075578
O O6 0.565705 0.668827 0.082657
O O7 0.228907 0.000000 0.020429
O O8 0.250000 0.250000 0.000000
O O9 0.026031 0.500000 0.317225
O O10 0.041419 0.748718 0.339995
O O11 0.809757 0.649281 0.307321
O O12 0.500000 0.366641 0.500000
O O13 0.254165 0.500000 0.517203
O O14 0.250000 0.250000 0.500000
O O15 0.308094 0.348638 0.590697
O O16 0.414705 0.500000 0.653028
#
# Coordination Sequence:
#
# PCOD9200444 Si02
#       6
#     8   8   8   8   8   8
#     4  10  20  37  58  81 111 144 181 226 273 324
#     4  10  22  38  59  83 112 146 183 225 273 325
#     4  11  24  40  60  86 114 147 186 226 273 327
#     4  10  21  36  57  84 111 144 185 227 275 330
#     4  10  21  36  55  80 110 146 188 232 279 331
#     4  10  21  37  55  80 114 147 184 231 279 330
#
# _framework density 20.311122999999998
#
# number of rings (size 3 to 8) (size 9 to 14) (size 15 to 20)
#    0.000    1.833    0.000    3.500    0.000    7.000 
#    0.000    4.167    0.000    0.000    0.000    0.000 
#    0.000    0.000    0.000    0.000    0.000    0.000 
#
# Total GULP energy -133988.761231 kJ/mol
# GULP energy per Si atom -5582.865051 kJ/mol
# Density = 2.026489 g / cm^3
# Si number density = 20.311123 Si / 1000 Ang^3
#
#
#
# Elastic Constant Matrix: (Units=GPa)
#
#
# Indices 1 2 3 4 5 6 
#
# 1 54.5575 28.0864 -3.9257 0.0000 -5.1887 0.0000
# 2 28.0864 136.6888 27.1283 0.0000 16.8254 0.0000
# 3 -3.9257 27.1283 48.1219 0.0000 -6.4044 0.0000
# 4 0.0000 0.0000 0.0000 34.7787 0.0000 4.7445
# 5 -5.1887 16.8254 -6.4044 0.0000 29.0073 0.0000
# 6 0.0000 0.0000 0.0000 4.7445 0.0000 17.7209
#
#
#
# Elastic Compliance Matrix: (Units=1/GPa)
#
#
# Indices 1 2 3 4 5 6 
#
# 1 0.023841 -0.007706 0.007677 0.000000 0.010429 0.000000
# 2 -0.007706 0.011875 -0.008678 0.000000 -0.010183 0.000000
# 3 0.007677 -0.008678 0.027974 0.000000 0.012583 0.000000
# 4 0.000000 0.000000 0.000000 0.029843 0.000000 -0.007990
# 5 0.010429 -0.010183 0.012583 0.000000 0.045024 0.000000
# 6 0.000000 0.000000 0.000000 -0.007990 0.000000 0.058570
#
#
# Mechanical properties :
#
#
# Convention : Reuss Voigt Hill
#
# Bulk Modulus (GPa) = 21.60990 37.99402 29.80196
# Shear Modulus (GPa) = 21.74229 28.83999 25.29114
#
# Velocity S-wave (km/s) = 3.27534 3.77226 3.53255
# Velocity P-wave (km/s) = 4.99663 6.14165 5.59849
#
# Compressibility (1/GPa) = 0.04627508
#
# Stress axis : x y z
#
# Youngs Moduli (GPa) = 41.94497 84.20995 35.74774
#
# Poissons Ratio (x) = 0.64894 -0.27444
# Poissons Ratio (y) = 0.32324 0.31023
# Poissons Ratio (z) = -0.32202 0.73080
#
# Static dielectric constant tensor:
#      x y z
#    x 1.692070 0.000000 -0.017830 
#    y 0.000000 1.733620 0.000000 
#    z -0.017830 0.000000 1.731560 
# 
# From -- ./inp_files/331991.got.cif
#   From: 2010.05.17/outbox.cif.g08.bks.cpg/sg12_166_cif.got.tgz:331991.got - 2010.06.03 13:09:07.
