data_PCOD9200666
_publ_section_title
;
Structure prediction by ZEFSAII (Michael W. Deem and Ramdas Pophale) SiO2 
 PCOD9200666
Probable space group: C 2/M
;
_chemical_formula_sum "Si O2"
_cell_formula_units_Z 64
_cell_length_a 14.725898
_cell_length_b 8.605824
_cell_length_c 33.305914
_cell_angle_alpha 90.000000
_cell_angle_beta 49.423480
_cell_angle_gamma 90.000000
_cell_volume 3205.863837
_symmetry_space_group_name_H-M "C 2/M"
_symmetry_group_IT_number 12
_symmetry_cell_setting 'monoclinic'
loop_
_space_group_symop_operation_xyz
x,y,z
-x,y,-z
-x,-y,-z
x,-y,z
1/2+x,1/2+y,z
1/2-x,1/2+y,-z
1/2-x,1/2-y,-z
1/2+x,1/2-y,z
loop_
_atom_site_type_symbol
_atom_site_label
_atom_site_fract_x
_atom_site_fract_y
_atom_site_fract_z
Si Si1 0.231481 0.189030 0.788002
Si Si2 0.381488 0.181848 0.955303
Si Si3 0.596235 0.187645 0.505431
Si Si4 0.850260 0.182970 0.880733
Si Si5 0.374249 0.314328 0.094625
Si Si6 0.565321 0.314536 0.762210
Si Si7 0.872187 0.185812 0.417268
Si Si8 0.004745 0.314695 0.697347
O O1 0.172309 0.233894 0.847398
O O2 0.368217 0.239836 0.743864
O O3 0.155489 0.238840 0.771128
O O4 0.229206 0.000000 0.788779
O O5 0.401439 0.218034 0.902577
O O6 0.488115 0.265653 0.948253
O O7 0.383154 0.000000 0.963311
O O8 0.250000 0.250000 0.000000
O O9 0.500000 0.240264 0.500000
O O10 0.732304 0.235317 0.455591
O O11 0.574084 0.249089 0.556679
O O12 0.592769 0.000000 0.507496
O O13 0.715012 0.230731 0.910334
O O14 0.932983 0.213250 0.818353
O O15 0.860101 0.000000 0.887884
O O16 0.362392 0.500000 0.093969
O O17 0.579711 0.500000 0.752974
O O18 0.577565 0.234207 0.715976
O O19 0.941044 0.244430 0.358497
O O20 0.874962 0.000000 0.417849
O O21 0.003281 0.500000 0.694271
#
# Coordination Sequence:
#
# PCOD9200666 Si02
#       8
#     8   8   8   8   8   8   8   8
#     4   9  19  36  58  83 114 156 197 236 288 349
#     4  12  26  44  65  92 122 158 201 252 308 364
#     4   9  19  38  63  85 110 152 200 241 292 357
#     4  11  22  39  64  93 122 157 198 248 302 362
#     4  11  21  40  65  91 122 157 199 247 300 360
#     4  10  20  37  59  84 115 154 197 242 291 344
#     4  10  21  37  57  85 119 152 191 246 299 344
#     4  11  22  37  57  85 121 159 199 241 291 354
#
# _framework density 19.963418999999998
#
# number of rings (size 3 to 8) (size 9 to 14) (size 15 to 20)
#    0.000    1.625    2.500    2.625    0.000    2.750 
#    0.000    8.750    0.000    0.000    0.000    0.000 
#    0.000    0.000    0.000    0.000    0.000    0.000 
#
# Total GULP energy -178827.883931 kJ/mol
# GULP energy per Si atom -5588.371373 kJ/mol
# Density = 1.991798 g / cm^3
# Si number density = 19.963419 Si / 1000 Ang^3
#
#
#
# Elastic Constant Matrix: (Units=GPa)
#
#
# Indices 1 2 3 4 5 6 
#
# 1 88.1490 0.1717 -8.4149 0.0000 4.7101 0.0000
# 2 0.1717 27.1263 6.5484 -0.0003 -0.4226 -0.0001
# 3 -8.4149 6.5484 49.9852 -0.0001 2.0050 0.0000
# 4 0.0000 -0.0003 -0.0001 30.7918 0.0000 3.3184
# 5 4.7101 -0.4226 2.0050 0.0000 19.3966 0.0000
# 6 0.0000 -0.0001 0.0000 3.3184 0.0000 28.8428
#
#
#
# Elastic Compliance Matrix: (Units=1/GPa)
#
#
# Indices 1 2 3 4 5 6 
#
# 1 0.011719 -0.000649 0.002182 0.000000 -0.003085 0.000000
# 2 -0.000649 0.038140 -0.005167 0.000000 0.001523 0.000000
# 3 0.002182 -0.005167 0.021164 0.000000 -0.002830 0.000000
# 4 0.000000 0.000000 0.000000 0.032884 0.000000 -0.003783
# 5 -0.003085 0.001523 -0.002830 0.000000 0.052630 0.000000
# 6 0.000000 0.000000 0.000000 -0.003783 0.000000 0.035106
#
#
# Mechanical properties :
#
#
# Convention : Reuss Voigt Hill
#
# Bulk Modulus (GPa) = 15.68532 17.98564 16.83548
# Shear Modulus (GPa) = 22.71057 26.93659 24.82358
#
# Velocity S-wave (km/s) = 3.37651 3.67726 3.53009
# Velocity P-wave (km/s) = 4.80366 5.20178 5.00668
#
# Compressibility (1/GPa) = 0.06375386
#
# Stress axis : x y z
#
# Youngs Moduli (GPa) = 85.33291 26.21941 47.25093
#
# Poissons Ratio (x) = 0.01701 -0.10308
# Poissons Ratio (y) = 0.05537 0.24414
# Poissons Ratio (z) = -0.18616 0.13547
#
# Static dielectric constant tensor:
#      x y z
#    x 1.707490 0.000000 -0.008840 
#    y 0.000000 1.673280 0.000000 
#    z -0.008840 0.000000 1.707870 
# 
# From -- ./inp_files/375415.got.cif
#   From: 2010.05.17/outbox.cif.g08.bks.cpg/sg12_188_cif.got.tgz:375415.got - 2010.06.03 13:09:07.
