data_PCOD9200048
_publ_section_title
;
Structure prediction by ZEFSAII (Michael W. Deem and Ramdas Pophale) SiO2 
 PCOD9200048
Probable space group: C 2/M
;
_chemical_formula_sum "Si O2"
_cell_formula_units_Z 48
_cell_length_a 13.832007
_cell_length_b 11.488539
_cell_length_c 14.688139
_cell_angle_alpha 90.000000
_cell_angle_beta 111.800152
_cell_angle_gamma 90.000000
_cell_volume 2167.163086
_symmetry_space_group_name_H-M "C 2/M"
_symmetry_group_IT_number 12
_symmetry_cell_setting 'monoclinic'
loop_
_space_group_symop_operation_xyz
x,y,z
-x,y,-z
-x,-y,-z
x,-y,z
1/2+x,1/2+y,z
1/2-x,1/2+y,-z
1/2-x,1/2-y,-z
1/2+x,1/2-y,z
loop_
_atom_site_type_symbol
_atom_site_label
_atom_site_fract_x
_atom_site_fract_y
_atom_site_fract_z
Si Si1 0.752910 0.628848 0.917973
Si Si2 0.002007 0.632198 0.727509
Si Si3 0.248724 0.871237 0.187434
Si Si4 0.090007 0.788963 0.466398
Si Si5 0.435805 0.757942 0.069963
Si Si6 0.248861 0.122658 0.389220
O O1 0.753745 0.500000 0.876152
O O2 0.771605 0.746800 0.866366
O O3 0.640698 0.653099 0.925536
O O4 0.850630 0.639292 0.021046
O O5 0.961808 0.500000 0.720621
O O6 0.126459 0.627091 0.756372
O O7 0.993913 0.699771 0.821156
O O8 0.953533 0.698578 0.624572
O O9 0.203279 0.866775 0.272794
O O10 0.219195 0.000000 0.137447
O O11 0.157519 0.875656 0.430377
O O12 0.172039 0.724069 0.559901
O O13 0.000000 0.835454 0.500000
O O14 0.500000 0.736083 0.000000
O O15 0.307301 0.000000 0.414499
#
# Coordination Sequence:
#
# PCOD9200048 Si02
#       6
#     8   8   8   8   8   8
#     4  10  22  41  65  94 128 162 209 266 311 362
#     4  10  20  36  63  91 119 161 209 256 303 363
#     4   9  19  39  65  90 125 170 210 251 312 377
#     4  11  22  38  63  91 123 153 204 259 308 366
#     4  10  23  41  62  89 129 167 206 251 318 376
#     4  10  22  40  61  88 123 164 205 250 311 378
#
# _framework density 22.148772000000001
#
# number of rings (size 3 to 8) (size 9 to 14) (size 15 to 20)
#    0.000    2.000    1.667    1.000    2.333    6.667 
#    0.000    6.667    0.000    0.000    0.000    0.000 
#    0.000    0.000    0.000    0.000    0.000    0.000 
#
# Total GULP energy -133828.626069 kJ/mol
# GULP energy per Si atom -5576.192753 kJ/mol
# Density = 2.209836 g / cm^3
# Si number density = 22.148772 Si / 1000 Ang^3
#
#
#
# Elastic Constant Matrix: (Units=GPa)
#
#
# Indices 1 2 3 4 5 6 
#
# 1 89.3025 10.3626 6.8471 0.0000 -21.5506 0.0000
# 2 10.3626 140.7319 38.9484 0.0000 -4.5180 0.0000
# 3 6.8471 38.9484 70.4040 0.0000 -15.5097 0.0000
# 4 0.0000 0.0000 0.0000 13.5633 0.0000 -11.0093
# 5 -21.5506 -4.5180 -15.5097 0.0000 38.9003 0.0000
# 6 0.0000 0.0000 0.0000 -11.0093 0.0000 4.7691
#
#
#
# Elastic Compliance Matrix: (Units=1/GPa)
#
#
# Indices 1 2 3 4 5 6 
#
# 1 0.013046 -0.000975 0.000918 0.000000 0.007480 0.000000
# 2 -0.000975 0.008496 -0.004941 0.000000 -0.001523 0.000000
# 3 0.000918 -0.004941 0.018454 0.000000 0.007293 0.000000
# 4 0.000000 0.000000 0.000000 -0.084378 0.000000 -0.194786
# 5 0.007480 -0.001523 0.007293 0.000000 0.032581 0.000000
# 6 0.000000 0.000000 0.000000 -0.194786 0.000000 -0.239974
#
#
# Mechanical properties :
#
#
# Convention : Reuss Voigt Hill
#
# Bulk Modulus (GPa) = 33.33151 45.86161 39.59656
# Shear Modulus (GPa) = -21.57214 27.73190 3.07988
#
# Velocity S-wave (km/s) = -3.12423 3.54230 1.18049
# Velocity P-wave (km/s) = 1.43777 6.12223 4.44685
#
# Compressibility (1/GPa) = 0.03000164
#
# Stress axis : x y z
#
# Youngs Moduli (GPa) = 76.65359 117.70279 54.18793
#
# Poissons Ratio (x) = 0.11471 -0.04976
# Poissons Ratio (y) = 0.07471 0.26773
# Poissons Ratio (z) = -0.07039 0.58155
#
# Static dielectric constant tensor:
#      x y z
#    x 1.846360 0.000000 -0.041970 
#    y 0.000000 1.803980 0.000000 
#    z -0.041970 0.000000 1.862970 
# 
# From -- ./inp_files/213521.got.cif
#   From: 2010.05.17/outbox.cif.g08.bks.cpg/sg12_107_cif.got.tgz:213521.got - 2010.06.03 13:09:07.
