data_PCOD9200387
_publ_section_title
;
Structure prediction by ZEFSAII (Michael W. Deem and Ramdas Pophale) SiO2 
 PCOD9200387
Probable space group: C 2/M
;
_chemical_formula_sum "Si O2"
_cell_formula_units_Z 64
_cell_length_a 9.243804
_cell_length_b 13.566742
_cell_length_c 30.863799
_cell_angle_alpha 90.000000
_cell_angle_beta 57.417612
_cell_angle_gamma 90.000000
_cell_volume 3261.417465
_symmetry_space_group_name_H-M "C 2/M"
_symmetry_group_IT_number 12
_symmetry_cell_setting 'monoclinic'
loop_
_space_group_symop_operation_xyz
x,y,z
-x,y,-z
-x,-y,-z
x,-y,z
1/2+x,1/2+y,z
1/2-x,1/2+y,-z
1/2-x,1/2-y,-z
1/2+x,1/2-y,z
loop_
_atom_site_type_symbol
_atom_site_label
_atom_site_fract_x
_atom_site_fract_y
_atom_site_fract_z
Si Si1 0.050874 0.201723 0.583357
Si Si2 0.050274 0.247612 0.111907
Si Si3 0.856452 0.607350 0.485836
Si Si4 0.909137 0.389304 0.754963
Si Si5 0.884887 0.116131 0.061747
Si Si6 0.327716 0.697221 0.818125
Si Si7 0.865424 0.892104 0.274019
Si Si8 0.326850 0.224800 0.346244
O O1 0.098761 0.306709 0.554394
O O2 0.176822 0.127011 0.538893
O O3 0.087392 0.216323 0.628111
O O4 0.851463 0.179795 0.608903
O O5 0.207693 0.324346 0.080238
O O6 0.112698 0.181443 0.142313
O O7 0.988056 0.177698 0.082283
O O8 0.876221 0.305854 0.152583
O O9 0.858963 0.500000 0.464655
O O10 0.000000 0.611272 0.500000
O O11 0.942889 0.500000 0.764794
O O12 0.887032 0.308483 0.795735
O O13 0.734196 0.388354 0.755360
O O14 0.052496 0.352978 0.697590
O O15 0.856257 0.000000 0.078295
O O16 0.000000 0.117256 0.000000
O O17 0.435655 0.630134 0.767980
O O18 0.789492 0.807964 0.316383
O O19 0.841387 0.000000 0.297141
#
# Coordination Sequence:
#
# PCOD9200387 Si02
#       8
#     8   8   8   8   8   8   8   8
#     4  11  22  39  59  83 113 142 178 233 282 334
#     4  10  21  37  63  91 124 164 210 256 309 369
#     4  10  22  39  61  85 108 141 180 225 284 341
#     4  10  21  37  59  84 116 156 194 240 293 341
#     4  10  22  41  64  92 127 166 210 262 318 372
#     4  10  20  37  57  88 122 155 197 250 298 351
#     4  10  21  36  57  83 115 155 192 234 288 344
#     4  11  22  38  58  84 114 147 187 229 280 344
#
# _framework density 19.623370000000001
#
# number of rings (size 3 to 8) (size 9 to 14) (size 15 to 20)
#    0.000    1.750    3.750    0.375    0.000    5.000 
#    0.000    3.750    0.000    6.750    0.000    0.000 
#    0.000    0.000    0.000    0.000    0.000    0.000 
#
# Total GULP energy -178531.250041 kJ/mol
# GULP energy per Si atom -5579.101564 kJ/mol
# Density = 1.957871 g / cm^3
# Si number density = 19.623370 Si / 1000 Ang^3
#
#
#
# Elastic Constant Matrix: (Units=GPa)
#
#
# Indices 1 2 3 4 5 6 
#
# 1 76.5809 13.3391 16.2800 0.0000 -14.7094 0.0000
# 2 13.3391 91.7153 13.5077 0.0000 -3.8790 0.0000
# 3 16.2800 13.5077 58.9125 0.0000 -17.7600 0.0000
# 4 0.0000 0.0000 0.0000 -8.3266 0.0000 -2.7302
# 5 -14.7094 -3.8790 -17.7600 0.0000 42.5401 0.0000
# 6 0.0000 0.0000 0.0000 -2.7302 0.0000 18.6238
#
#
#
# Elastic Compliance Matrix: (Units=1/GPa)
#
#
# Indices 1 2 3 4 5 6 
#
# 1 0.014610 -0.001592 -0.002509 0.000000 0.003859 0.000000
# 2 -0.001592 0.011458 -0.002332 0.000000 -0.000479 0.000000
# 3 -0.002509 -0.002332 0.020450 0.000000 0.007458 0.000000
# 4 0.000000 0.000000 0.000000 -0.114590 0.000000 -0.016798
# 5 0.003859 -0.000479 0.007458 0.000000 0.027911 0.000000
# 6 0.000000 0.000000 0.000000 -0.016798 0.000000 0.051232
#
#
# Mechanical properties :
#
#
# Convention : Reuss Voigt Hill
#
# Bulk Modulus (GPa) = 29.71488 34.82915 32.27201
# Shear Modulus (GPa) = 142.22487 22.83960 82.53223
#
# Velocity S-wave (km/s) = 8.52260 3.41530 6.49226
# Velocity P-wave (km/s) = 10.58403 5.77405 8.52530
#
# Compressibility (1/GPa) = 0.03365317
#
# Stress axis : x y z
#
# Youngs Moduli (GPa) = 68.44613 87.27521 48.89862
#
# Poissons Ratio (x) = 0.13896 0.12268
# Poissons Ratio (y) = 0.10898 0.11401
# Poissons Ratio (z) = 0.17172 0.20349
#
# Static dielectric constant tensor:
#      x y z
#    x 1.708170 0.000000 -0.001660 
#    y 0.000000 1.679790 0.000000 
#    z -0.001660 0.000000 1.682570 
# 
# From -- ./inp_files/372375.got.cif
#   From: 2010.05.17/outbox.cif.g08.bks.cpg/sg12_187_cif.got.tgz:372375.got - 2010.06.03 13:09:07.
