data_PCOD9200668
_publ_section_title
;
Structure prediction by ZEFSAII (Michael W. Deem and Ramdas Pophale) SiO2 
 PCOD9200668
Probable space group: C 2/M
;
_chemical_formula_sum "Si O2"
_cell_formula_units_Z 56
_cell_length_a 19.231685
_cell_length_b 8.453380
_cell_length_c 18.451836
_cell_angle_alpha 90.000000
_cell_angle_beta 68.827617
_cell_angle_gamma 90.000000
_cell_volume 2797.275383
_symmetry_space_group_name_H-M "C 2/M"
_symmetry_group_IT_number 12
_symmetry_cell_setting 'monoclinic'
loop_
_space_group_symop_operation_xyz
x,y,z
-x,y,-z
-x,-y,-z
x,-y,z
1/2+x,1/2+y,z
1/2-x,1/2+y,-z
1/2-x,1/2-y,-z
1/2+x,1/2-y,z
loop_
_atom_site_type_symbol
_atom_site_label
_atom_site_fract_x
_atom_site_fract_y
_atom_site_fract_z
Si Si1 0.935515 0.808859 0.470877
Si Si2 0.274119 0.309971 0.568940
Si Si3 0.073280 0.806983 0.017576
Si Si4 0.477507 0.188918 0.296600
Si Si5 0.114557 0.810853 0.162495
Si Si6 0.281656 0.311050 0.127036
Si Si7 0.664966 0.808003 0.737646
O O1 0.859725 0.761736 0.539537
O O2 0.000000 0.757057 0.500000
O O3 0.946764 0.742346 0.386247
O O4 0.936254 0.000000 0.464225
O O5 0.269588 0.500000 0.571230
O O6 0.250000 0.250000 0.500000
O O7 0.221846 0.254277 0.653290
O O8 0.079116 0.755725 0.099079
O O9 0.071161 0.000000 0.017652
O O10 0.151026 0.757352 0.950882
O O11 0.000000 0.753842 0.000000
O O12 0.558829 0.254475 0.246527
O O13 0.417324 0.240603 0.258244
O O14 0.480165 0.000000 0.294813
O O15 0.199715 0.754646 0.139569
O O16 0.115514 0.000000 0.161888
O O17 0.277417 0.500000 0.123952
O O18 0.308142 0.260993 0.196901
O O19 0.666633 0.000000 0.741441
#
# Coordination Sequence:
#
# PCOD9200668 Si02
#       7
#     8   8   8   8   8   8   8
#     4  10  22  38  59  86 116 157 204 248 299 360
#     4  10  20  37  59  84 116 154 199 248 299 354
#     4   9  19  38  64  92 121 155 198 244 291 349
#     4  11  23  40  60  87 121 157 202 254 301 353
#     4  11  23  40  63  88 122 163 198 242 302 357
#     4  11  23  39  62  93 124 156 200 247 292 352
#     4  10  22  39  59  86 122 160 198 246 302 356
#
# _framework density 20.019480000000001
#
# number of rings (size 3 to 8) (size 9 to 14) (size 15 to 20)
#    0.000    1.714    1.429    2.571    2.000    3.143 
#    0.000    2.143    0.000    5.143    0.000    0.000 
#    0.000    0.000    0.000    0.000    0.000    0.000 
#
# Total GULP energy -156375.608818 kJ/mol
# GULP energy per Si atom -5584.843172 kJ/mol
# Density = 1.997391 g / cm^3
# Si number density = 20.019480 Si / 1000 Ang^3
#
#
#
# Elastic Constant Matrix: (Units=GPa)
#
#
# Indices 1 2 3 4 5 6 
#
# 1 124.3769 20.0719 14.1195 0.0000 -13.7171 0.0000
# 2 20.0719 21.1003 8.8722 0.0000 -4.9774 0.0000
# 3 14.1195 8.8722 81.1856 0.0000 -14.9321 0.0000
# 4 0.0000 0.0000 0.0000 17.3910 0.0000 6.9184
# 5 -13.7171 -4.9774 -14.9321 0.0000 40.9830 0.0000
# 6 0.0000 0.0000 0.0000 6.9184 0.0000 18.0424
#
#
#
# Elastic Compliance Matrix: (Units=1/GPa)
#
#
# Indices 1 2 3 4 5 6 
#
# 1 0.009695 -0.008579 -0.000368 0.000000 0.002069 0.000000
# 2 -0.008579 0.058001 -0.004372 0.000000 0.002580 0.000000
# 3 -0.000368 -0.004372 0.013654 0.000000 0.004321 0.000000
# 4 0.000000 0.000000 0.000000 0.067851 0.000000 -0.026018
# 5 0.002069 0.002580 0.004321 0.000000 0.026980 0.000000
# 6 0.000000 0.000000 0.000000 -0.026018 0.000000 0.065402
#
#
# Mechanical properties :
#
#
# Convention : Reuss Voigt Hill
#
# Bulk Modulus (GPa) = 18.27795 34.75444 26.51620
# Shear Modulus (GPa) = 17.45461 27.52321 22.48891
#
# Velocity S-wave (km/s) = 2.95597 3.71188 3.35528
# Velocity P-wave (km/s) = 4.56073 5.98070 5.31832
#
# Compressibility (1/GPa) = 0.05471073
#
# Stress axis : x y z
#
# Youngs Moduli (GPa) = 103.15085 17.24120 73.23918
#
# Poissons Ratio (x) = 0.14792 0.02695
# Poissons Ratio (y) = 0.88496 0.32019
# Poissons Ratio (z) = 0.03796 0.07538
#
# Static dielectric constant tensor:
#      x y z
#    x 1.246960 0.000000 0.233200 
#    y 0.000000 1.681890 0.000000 
#    z 0.233200 0.000000 1.549400 
# 
# From -- ./inp_files/275104.got.cif
#   From: 2010.05.17/outbox.cif.g08.bks.cpg/sg12_138_cif.got.tgz:275104.got - 2010.06.03 13:09:07.
