data_PCOD9200575
_publ_section_title
;
Structure prediction by ZEFSAII (Michael W. Deem and Ramdas Pophale) SiO2 
 PCOD9200575
Probable space group: C 2/M
;
_chemical_formula_sum "Si O2"
_cell_formula_units_Z 48
_cell_length_a 22.232975
_cell_length_b 16.199642
_cell_length_c 22.426907
_cell_angle_alpha 90.000000
_cell_angle_beta 159.880272
_cell_angle_gamma 90.000000
_cell_volume 2778.493506
_symmetry_space_group_name_H-M "C 2/M"
_symmetry_group_IT_number 12
_symmetry_cell_setting 'monoclinic'
loop_
_space_group_symop_operation_xyz
x,y,z
-x,y,-z
-x,-y,-z
x,-y,z
1/2+x,1/2+y,z
1/2-x,1/2+y,-z
1/2-x,1/2-y,-z
1/2+x,1/2-y,z
loop_
_atom_site_type_symbol
_atom_site_label
_atom_site_fract_x
_atom_site_fract_y
_atom_site_fract_z
Si Si1 0.794438 0.000000 0.758931
Si Si2 0.523444 0.323897 0.089512
Si Si3 0.162959 0.648514 0.822611
Si Si4 0.538784 0.313547 0.331016
Si Si5 0.450922 0.000000 0.359569
Si Si6 0.881524 0.278938 0.714621
Si Si7 0.197004 0.405000 0.989508
O O1 0.898341 0.916081 0.843040
O O2 0.623175 0.000000 0.558937
O O3 0.719482 0.000000 0.756373
O O4 0.637432 0.265869 0.239383
O O5 0.500000 0.292571 0.000000
O O6 0.336883 0.329921 0.948310
O O7 0.056451 0.580737 0.687395
O O8 0.049529 0.729611 0.727484
O O9 0.209641 0.610904 0.930302
O O10 0.712733 0.326956 0.531676
O O11 0.585488 0.291235 0.305643
O O12 0.387302 0.381458 0.192239
O O13 0.047800 0.340525 0.871551
O O14 0.152172 0.500000 0.959682
#
# Coordination Sequence:
#
# PCOD9200575 Si02
#       7
#     4   8   8   8   4   8   8
#     4  11  24  31  48  81 116 165 190 218 257 317
#     4  12  21  35  55  80 113 155 194 222 269 328
#     4  11  19  36  55  79 113 151 183 224 271 331
#     4  10  20  37  59  79 111 148 182 232 283 328
#     4  11  21  36  47  78 125 150 194 223 256 330
#     4  10  21  38  56  82 112 145 188 229 277 334
#     4  11  21  36  59  84 109 143 184 236 288 329
#
# _framework density 17.275548000000001
#
# number of rings (size 3 to 8) (size 9 to 14) (size 15 to 20)
#    0.000    1.167    5.833    2.750    0.000    0.667 
#    0.000    0.000    0.000    0.500    0.000    1.167 
#    0.000    0.000    0.000    0.000    0.000    0.000 
#
# Total GULP energy -133976.231154 kJ/mol
# GULP energy per Si atom -5582.342965 kJ/mol
# Density = 1.723623 g / cm^3
# Si number density = 17.275548 Si / 1000 Ang^3
#
#
#
# Elastic Constant Matrix: (Units=GPa)
#
#
# Indices 1 2 3 4 5 6 
#
# 1 85.8892 31.4571 24.7951 0.0004 -13.8654 -0.0006
# 2 31.4571 55.8786 21.0380 -0.0037 -12.8433 -0.0043
# 3 24.7951 21.0380 101.0391 -0.0016 -9.7896 -0.0014
# 4 0.0004 -0.0037 -0.0016 22.6442 -0.0006 -8.7928
# 5 -13.8654 -12.8433 -9.7896 -0.0006 25.0632 -0.0007
# 6 -0.0006 -0.0043 -0.0014 -8.7928 -0.0007 21.8443
#
#
#
# Elastic Compliance Matrix: (Units=1/GPa)
#
#
# Indices 1 2 3 4 5 6 
#
# 1 0.015442 -0.007003 -0.001924 -0.000002 0.004203 -0.000002
# 2 -0.007003 0.024609 -0.002660 0.000007 0.007698 0.000008
# 3 -0.001924 -0.002660 0.011108 0.000001 0.001911 0.000000
# 4 -0.000002 0.000007 0.000001 0.052343 0.000005 0.021069
# 5 0.004203 0.007698 0.001911 0.000005 0.046915 0.000005
# 6 -0.000002 0.000008 0.000000 0.021069 0.000005 0.054259
#
#
# Mechanical properties :
#
#
# Convention : Reuss Voigt Hill
#
# Bulk Modulus (GPa) = 35.73235 44.15412 39.94324
# Shear Modulus (GPa) = 21.08133 24.94480 23.01307
#
# Velocity S-wave (km/s) = 3.49707 3.80404 3.65378
# Velocity P-wave (km/s) = 6.08561 6.70138 6.40090
#
# Compressibility (1/GPa) = 0.02798584
#
# Stress axis : x y z
#
# Youngs Moduli (GPa) = 64.76051 40.63613 90.02252
#
# Poissons Ratio (x) = 0.28455 0.17322
# Poissons Ratio (y) = 0.45349 0.23943
# Poissons Ratio (z) = 0.12461 0.10808
#
# Static dielectric constant tensor:
#      x y z
#    x 1.582500 0.000000 -0.003320 
#    y 0.000000 1.561570 0.000000 
#    z -0.003320 0.000000 1.621740 
# 
# From -- ./inp_files/322597.got.cif
#   From: 2010.05.17/outbox.cif.g08.bks.cpg/sg12_162_cif.got.tgz:322597.got - 2010.06.03 13:09:07.
