data_PCOD9200581
_publ_section_title
;
Structure prediction by ZEFSAII (Michael W. Deem and Ramdas Pophale) SiO2 
 PCOD9200581
Probable space group: C 2/M
;
_chemical_formula_sum "Si O2"
_cell_formula_units_Z 64
_cell_length_a 16.796553
_cell_length_b 24.404807
_cell_length_c 15.525301
_cell_angle_alpha 90.000000
_cell_angle_beta 28.848402
_cell_angle_gamma 90.000000
_cell_volume 3070.628618
_symmetry_space_group_name_H-M "C 2/M"
_symmetry_group_IT_number 12
_symmetry_cell_setting 'monoclinic'
loop_
_space_group_symop_operation_xyz
x,y,z
-x,y,-z
-x,-y,-z
x,-y,z
1/2+x,1/2+y,z
1/2-x,1/2+y,-z
1/2-x,1/2-y,-z
1/2+x,1/2-y,z
loop_
_atom_site_type_symbol
_atom_site_label
_atom_site_fract_x
_atom_site_fract_y
_atom_site_fract_z
Si Si1 0.836243 0.693210 0.399162
Si Si2 0.273490 0.563468 0.900802
Si Si3 0.624653 0.875666 0.206813
Si Si4 0.664596 0.940434 0.454874
Si Si5 0.301518 0.161603 0.690169
Si Si6 0.836220 0.084625 0.467819
Si Si7 0.153504 0.278247 0.794334
Si Si8 0.802849 0.105760 0.686628
O O1 0.750000 0.750000 0.500000
O O2 0.690645 0.649025 0.525484
O O3 0.915724 0.702964 0.231478
O O4 0.978386 0.667809 0.323648
O O5 0.226169 0.500000 0.958709
O O6 0.473369 0.568038 0.713972
O O7 0.228845 0.582266 0.845437
O O8 0.201367 0.601204 0.045912
O O9 0.526663 0.924707 0.347993
O O10 0.742729 0.849194 0.167358
O O11 0.743710 0.891094 0.324769
O O12 0.741963 0.941553 0.477144
O O13 0.683467 0.000000 0.396502
O O14 0.500000 0.164521 0.500000
O O15 0.239196 0.219118 0.712641
O O16 0.755880 0.077688 0.639310
O O17 0.265901 0.329331 0.717472
O O18 0.000000 0.272740 0.000000
O O19 0.000000 0.098262 0.500000
#
# Coordination Sequence:
#
# PCOD9200581 Si02
#       8
#     8   8   8   8   8   8   8   8
#     4  10  20  38  61  82 111 150 191 235 283 344
#     4  11  22  37  57  84 118 151 188 238 289 339
#     4  10  22  37  56  84 115 147 189 235 287 336
#     4  10  20  37  59  80 108 151 198 236 275 332
#     4  10  22  38  57  82 113 150 191 230 279 342
#     4   9  20  36  57  83 112 149 192 233 282 343
#     4  11  21  36  58  83 114 143 180 234 287 337
#     4   9  20  37  58  83 113 149 187 228 281 344
#
# _framework density 20.842637
#
# number of rings (size 3 to 8) (size 9 to 14) (size 15 to 20)
#    0.000    2.000    0.000    4.125    0.000    9.500 
#    0.000    1.875    0.000    9.750    0.000    0.000 
#    0.000    0.000    0.000    0.000    0.000    0.000 
#
# Total GULP energy -178415.369533 kJ/mol
# GULP energy per Si atom -5575.480298 kJ/mol
# Density = 2.079520 g / cm^3
# Si number density = 20.842637 Si / 1000 Ang^3
#
#
#
# Elastic Constant Matrix: (Units=GPa)
#
#
# Indices 1 2 3 4 5 6 
#
# 1 91.9512 36.8411 8.3200 0.0030 26.6823 -0.0083
# 2 36.8411 126.8784 19.3588 -0.0292 17.3917 0.0207
# 3 8.3200 19.3588 58.5343 0.0313 23.3304 0.0033
# 4 0.0030 -0.0292 0.0313 22.5324 -0.0122 10.8078
# 5 26.6823 17.3917 23.3304 -0.0122 25.9161 0.0012
# 6 -0.0083 0.0207 0.0033 10.8078 0.0012 10.7911
#
#
#
# Elastic Compliance Matrix: (Units=1/GPa)
#
#
# Indices 1 2 3 4 5 6 
#
# 1 0.018430 -0.003287 0.008034 -0.000079 -0.024002 0.000099
# 2 -0.003287 0.009294 -0.002292 0.000047 -0.000789 -0.000067
# 3 0.008034 -0.002292 0.030231 -0.000129 -0.033949 0.000134
# 4 -0.000079 0.000047 -0.000129 0.085413 0.000209 -0.085545
# 5 -0.024002 -0.000789 -0.033949 0.000209 0.094389 -0.000226
# 6 0.000099 -0.000067 0.000134 -0.085545 -0.000226 0.178346
#
#
# Mechanical properties :
#
#
# Convention : Reuss Voigt Hill
#
# Bulk Modulus (GPa) = 15.90709 45.15597 30.53153
# Shear Modulus (GPa) = 11.57008 26.03753 18.80381
#
# Velocity S-wave (km/s) = 2.35865 3.53830 3.00689
# Velocity P-wave (km/s) = 3.88152 6.19717 5.17065
#
# Compressibility (1/GPa) = 0.06286506
#
# Stress axis : x y z
#
# Youngs Moduli (GPa) = 54.25849 107.59643 33.07826
#
# Poissons Ratio (x) = 0.35371 -0.26575
# Poissons Ratio (y) = 0.17837 0.07582
# Poissons Ratio (z) = -0.43592 0.24661
#
# Static dielectric constant tensor:
#      x y z
#    x 1.848140 -0.000060 0.074350 
#    y -0.000060 1.864830 0.000030 
#    z 0.074350 0.000030 1.763740 
# 
# From -- ./inp_files/228130.got.cif
#   From: 2010.05.17/outbox.cif.g08.bks.cpg/sg12_115_cif.got.tgz:228130.got - 2010.06.03 13:09:07.
