data_PCOD9200776
_publ_section_title
;
Structure prediction by ZEFSAII (Michael W. Deem and Ramdas Pophale) SiO2 
 PCOD9200776
Probable space group: C 2/M
;
_chemical_formula_sum "Si O2"
_cell_formula_units_Z 60
_cell_length_a 18.699752
_cell_length_b 11.883222
_cell_length_c 12.201873
_cell_angle_alpha 90.000000
_cell_angle_beta 96.290758
_cell_angle_gamma 90.000000
_cell_volume 2695.092100
_symmetry_space_group_name_H-M "C 2/M"
_symmetry_group_IT_number 12
_symmetry_cell_setting 'monoclinic'
loop_
_space_group_symop_operation_xyz
x,y,z
-x,y,-z
-x,-y,-z
x,-y,z
1/2+x,1/2+y,z
1/2-x,1/2+y,-z
1/2-x,1/2-y,-z
1/2+x,1/2-y,z
loop_
_atom_site_type_symbol
_atom_site_label
_atom_site_fract_x
_atom_site_fract_y
_atom_site_fract_z
Si Si1 0.460914 0.208129 0.213064
Si Si2 0.356974 0.627167 0.614012
Si Si3 0.566023 0.628163 0.137286
Si Si4 0.099379 0.128301 0.616691
Si Si5 0.650655 0.830877 0.091193
Si Si6 0.696470 0.126377 0.872326
Si Si7 0.453856 0.000000 0.843716
Si Si8 0.757513 0.297073 0.705154
O O1 0.492385 0.302543 0.135645
O O2 0.440951 0.277881 0.319137
O O3 0.387627 0.152633 0.158303
O O4 0.515186 0.103289 0.228892
O O5 0.326040 0.500000 0.598856
O O6 0.403451 0.629531 0.732583
O O7 0.404906 0.645237 0.514444
O O8 0.297147 0.723533 0.619463
O O9 0.559736 0.500000 0.100307
O O10 0.624411 0.702292 0.082835
O O11 0.185470 0.141135 0.656013
O O12 0.076728 0.000000 0.640411
O O13 0.683488 0.866098 0.215640
O O14 0.579007 0.904595 0.075955
O O15 0.705318 0.858979 0.003685
O O16 0.735131 0.210107 0.797159
O O17 0.715246 0.000000 0.843988
#
# Coordination Sequence:
#
# PCOD9200776 Si02
#       8
#     8   8   8   8   8   8   4   8
#     4  10  21  36  55  85 113 145 197 235 287 329
#     4   9  18  36  59  84 108 150 198 233 283 343
#     4   9  19  36  58  80 112 145 184 238 284 339
#     4  10  21  35  58  85 116 151 190 235 291 348
#     4  10  21  36  57  85 112 151 196 230 288 338
#     4  11  21  36  57  84 112 153 197 234 274 343
#     4  10  20  37  60  79 114 154 188 243 276 338
#     4  10  21  36  56  84 119 147 189 241 292 336
#
# _framework density 22.262689999999999
#
# number of rings (size 3 to 8) (size 9 to 14) (size 15 to 20)
#    0.000    2.133    1.333    1.600    0.933    3.733 
#    0.000    6.000    1.467    7.200    0.000    0.000 
#    0.000    0.000    0.000    0.000    0.000    0.000 
#
# Total GULP energy -167003.204737 kJ/mol
# GULP energy per Si atom -5566.773491 kJ/mol
# Density = 2.221202 g / cm^3
# Si number density = 22.262690 Si / 1000 Ang^3
#
#
#
# Elastic Constant Matrix: (Units=GPa)
#
#
# Indices 1 2 3 4 5 6 
#
# 1 41.6270 6.2561 3.5162 0.0000 -4.2971 0.0000
# 2 6.2561 139.1167 28.0574 0.0000 -16.7341 0.0000
# 3 3.5162 28.0574 70.5152 0.0000 -12.2396 0.0000
# 4 0.0000 0.0000 0.0000 28.2759 0.0000 0.7191
# 5 -4.2971 -16.7341 -12.2396 0.0000 33.9067 0.0000
# 6 0.0000 0.0000 0.0000 0.7191 0.0000 30.0607
#
#
#
# Elastic Compliance Matrix: (Units=1/GPa)
#
#
# Indices 1 2 3 4 5 6 
#
# 1 0.024434 -0.000689 -0.000497 0.000000 0.002577 0.000000
# 2 -0.000689 0.008115 -0.002683 0.000000 0.002949 0.000000
# 3 -0.000497 -0.002683 0.016038 0.000000 0.004402 0.000000
# 4 0.000000 0.000000 0.000000 0.035387 0.000000 -0.000847
# 5 0.002577 0.002949 0.004402 0.000000 0.032864 0.000000
# 6 0.000000 0.000000 0.000000 -0.000847 0.000000 0.033286
#
#
# Mechanical properties :
#
#
# Convention : Reuss Voigt Hill
#
# Bulk Modulus (GPa) = 24.47945 36.32426 30.40186
# Shear Modulus (GPa) = 29.15824 32.67727 30.91776
#
# Velocity S-wave (km/s) = 3.62295 3.83535 3.73066
# Velocity P-wave (km/s) = 5.34047 5.99707 5.67827
#
# Compressibility (1/GPa) = 0.04085059
#
# Stress axis : x y z
#
# Youngs Moduli (GPa) = 40.92586 123.22879 62.35330
#
# Poissons Ratio (x) = 0.08485 0.03099
# Poissons Ratio (y) = 0.02818 0.16727
# Poissons Ratio (z) = 0.02034 0.33058
#
# Static dielectric constant tensor:
#      x y z
#    x 1.952340 0.000000 0.075730 
#    y 0.000000 1.811920 0.000000 
#    z 0.075730 0.000000 1.859530 
# 
# From -- ./inp_files/165692.got.cif
#   From: 2010.05.17/outbox.cif.g08.bks.cpg/sg12_83_cif.got.tgz:165692.got - 2010.06.03 13:09:07.
