data_PCOD9200523
_publ_section_title
;
Structure prediction by ZEFSAII (Michael W. Deem and Ramdas Pophale) SiO2 
 PCOD9200523
Probable space group: C 2/M
;
_chemical_formula_sum "Si O2"
_cell_formula_units_Z 64
_cell_length_a 31.312522
_cell_length_b 7.675854
_cell_length_c 25.125112
_cell_angle_alpha 90.000000
_cell_angle_beta 28.213648
_cell_angle_gamma 90.000000
_cell_volume 2854.921092
_symmetry_space_group_name_H-M "C 2/M"
_symmetry_group_IT_number 12
_symmetry_cell_setting 'monoclinic'
loop_
_space_group_symop_operation_xyz
x,y,z
-x,y,-z
-x,-y,-z
x,-y,z
1/2+x,1/2+y,z
1/2-x,1/2+y,-z
1/2-x,1/2-y,-z
1/2+x,1/2-y,z
loop_
_atom_site_type_symbol
_atom_site_label
_atom_site_fract_x
_atom_site_fract_y
_atom_site_fract_z
Si Si1 0.093437 0.296447 0.920417
Si Si2 0.822536 0.208680 0.374984
Si Si3 0.983159 0.211114 0.268929
Si Si4 0.556525 0.794439 0.566271
Si Si5 0.425601 0.703284 0.621506
Si Si6 0.227685 0.293705 0.857254
Si Si7 0.816239 0.207348 0.975232
Si Si8 0.741951 0.712436 0.670044
O O1 0.073432 0.500000 0.953406
O O2 0.140908 0.220138 0.921128
O O3 0.172276 0.280478 0.790020
O O4 0.000000 0.219343 0.000000
O O5 0.750000 0.250000 0.500000
O O6 0.791597 0.272287 0.351388
O O7 0.917210 0.273241 0.294478
O O8 0.828227 0.000000 0.363961
O O9 0.947931 0.264782 0.365667
O O10 0.982880 0.000000 0.268883
O O11 0.084177 0.274660 0.148182
O O12 0.471996 0.712411 0.628522
O O13 0.653774 0.731118 0.437865
O O14 0.551482 0.000000 0.562161
O O15 0.500000 0.782483 0.500000
O O16 0.416044 0.500000 0.617387
O O17 0.324962 0.780152 0.732254
O O18 0.229623 0.500000 0.843160
O O19 0.217895 0.275088 0.930883
O O20 0.821962 0.000000 0.974027
O O21 0.750000 0.250000 0.000000
O O22 0.741037 0.500000 0.672697
#
# Coordination Sequence:
#
# PCOD9200523 Si02
#       8
#     8   8   8   8   8   8   8   8
#     4  10  23  42  63  89 118 155 204 251 296 349
#     4  10  20  37  58  85 119 154 194 241 291 350
#     4  10  22  38  58  83 114 154 197 234 284 355
#     4  11  22  36  57  88 120 148 186 241 293 345
#     4  10  21  38  61  85 112 152 194 233 287 352
#     4  10  22  41  62  87 121 156 198 248 295 352
#     4  11  24  41  62  89 120 158 201 244 295 353
#     4  10  22  38  58  86 121 155 193 242 298 353
#
# _framework density 22.417432000000002
#
# number of rings (size 3 to 8) (size 9 to 14) (size 15 to 20)
#    0.000    1.750    1.250    2.250    1.750    8.000 
#    0.000    0.000    0.000    0.000    0.000    0.000 
#    0.000    0.000    0.000    0.000    0.000    0.000 
#
# Total GULP energy -178871.857338 kJ/mol
# GULP energy per Si atom -5589.745542 kJ/mol
# Density = 2.236641 g / cm^3
# Si number density = 22.417432 Si / 1000 Ang^3
#
#
#
# Elastic Constant Matrix: (Units=GPa)
#
#
# Indices 1 2 3 4 5 6 
#
# 1 142.3936 -2.2671 43.9848 0.0054 -23.9287 -0.0022
# 2 -2.2671 44.2863 -2.7602 -0.1213 -9.0466 0.0300
# 3 43.9848 -2.7602 115.1233 -0.0413 -29.7246 0.0188
# 4 0.0054 -0.1213 -0.0413 38.0830 0.0105 6.8845
# 5 -23.9287 -9.0466 -29.7246 0.0105 47.5172 -0.0019
# 6 -0.0022 0.0300 0.0188 6.8845 -0.0019 11.0478
#
#
#
# Elastic Compliance Matrix: (Units=1/GPa)
#
#
# Indices 1 2 3 4 5 6 
#
# 1 0.008252 0.000847 -0.002407 -0.000003 0.002811 0.000006
# 2 0.000847 0.023994 0.001838 0.000100 0.006144 -0.000129
# 3 -0.002407 0.001838 0.011243 0.000024 0.006171 -0.000038
# 4 -0.000003 0.000100 0.000024 0.029592 0.000025 -0.018441
# 5 0.002811 0.006144 0.006171 0.000025 0.027491 -0.000038
# 6 0.000006 -0.000129 -0.000038 -0.018441 -0.000038 0.102008
#
#
# Mechanical properties :
#
#
# Convention : Reuss Voigt Hill
#
# Bulk Modulus (GPa) = 22.70360 42.19092 32.44726
# Shear Modulus (GPa) = 23.07272 36.85264 29.96268
#
# Velocity S-wave (km/s) = 3.21164 4.05894 3.65989
# Velocity P-wave (km/s) = 4.88902 6.38968 5.68905
#
# Compressibility (1/GPa) = 0.04404588
#
# Stress axis : x y z
#
# Youngs Moduli (GPa) = 121.18109 41.67751 88.94112
#
# Poissons Ratio (x) = -0.03529 0.21405
# Poissons Ratio (y) = -0.10260 -0.16350
# Poissons Ratio (z) = 0.29165 -0.07662
#
# Static dielectric constant tensor:
#      x y z
#    x 1.833180 -0.000010 -0.031180 
#    y -0.000010 1.880240 0.000010 
#    z -0.031180 0.000010 1.805290 
# 
# From -- ./inp_files/249752.got.cif
#   From: 2010.05.17/outbox.cif.g08.bks.cpg/sg12_125_cif.got.tgz:249752.got - 2010.06.03 13:09:07.
