data_PCOD9200899
_publ_section_title
;
Structure prediction by ZEFSAII (Michael W. Deem and Ramdas Pophale) SiO2 
 PCOD9200899
Probable space group: C 2/M
;
_chemical_formula_sum "Si O2"
_cell_formula_units_Z 56
_cell_length_a 21.901698
_cell_length_b 18.404495
_cell_length_c 16.481971
_cell_angle_alpha 90.000000
_cell_angle_beta 155.097049
_cell_angle_gamma 90.000000
_cell_volume 2797.551310
_symmetry_space_group_name_H-M "C 2/M"
_symmetry_group_IT_number 12
_symmetry_cell_setting 'monoclinic'
loop_
_space_group_symop_operation_xyz
x,y,z
-x,y,-z
-x,-y,-z
x,-y,z
1/2+x,1/2+y,z
1/2-x,1/2+y,-z
1/2-x,1/2-y,-z
1/2+x,1/2-y,z
loop_
_atom_site_type_symbol
_atom_site_label
_atom_site_fract_x
_atom_site_fract_y
_atom_site_fract_z
Si Si1 0.349513 0.418338 0.288832
Si Si2 0.131131 0.334841 0.912031
Si Si3 0.337385 0.586786 0.840829
Si Si4 0.167838 0.830457 0.994232
Si Si5 0.151193 0.418452 0.208073
Si Si6 0.633668 0.330581 0.423446
Si Si7 0.178134 0.331919 0.506032
O O1 0.500000 0.382684 0.500000
O O2 0.386217 0.500000 0.304334
O O3 0.248862 0.422665 0.246202
O O4 0.250831 0.379805 0.104097
O O5 0.129827 0.255463 0.953000
O O6 0.967072 0.363937 0.710853
O O7 0.189869 0.331890 0.890394
O O8 0.311783 0.500000 0.819174
O O9 0.229425 0.623341 0.645400
O O10 0.500000 0.595600 0.000000
O O11 0.322191 0.628540 0.908393
O O12 0.028547 0.861279 0.776925
O O13 0.116592 0.500000 0.195865
O O14 0.248118 0.378477 0.389771
O O15 0.000000 0.382040 0.000000
O O16 0.690337 0.325493 0.399323
O O17 0.634576 0.252206 0.468537
#
# Coordination Sequence:
#
# PCOD9200899 Si02
#       7
#     8   8   8   8   8   8   8
#     4  10  21  37  57  86 119 155 197 238 297 369
#     4  10  22  40  61  90 123 159 200 252 308 362
#     4  11  24  42  64  93 126 165 212 260 314 372
#     4  10  22  41  60  89 122 156 210 250 299 373
#     4  10  21  34  53  86 117 148 194 245 303 362
#     4  10  20  37  60  85 118 161 202 249 304 361
#     4  10  22  38  59  90 118 154 210 252 300 367
#
# _framework density 20.017506999999998
#
# number of rings (size 3 to 8) (size 9 to 14) (size 15 to 20)
#    0.000    1.857    1.429    1.714    2.000    3.429 
#    0.000    0.714    0.000    0.000    0.000    0.000 
#    0.000    0.000    0.000    0.000    0.000    0.000 
#
# Total GULP energy -156168.568222 kJ/mol
# GULP energy per Si atom -5577.448865 kJ/mol
# Density = 1.997195 g / cm^3
# Si number density = 20.017507 Si / 1000 Ang^3
#
#
#
# Elastic Constant Matrix: (Units=GPa)
#
#
# Indices 1 2 3 4 5 6 
#
# 1 81.4592 33.9515 26.0128 0.0000 -3.6924 0.0000
# 2 33.9515 78.0116 56.2817 0.0000 -25.5123 0.0000
# 3 26.0128 56.2817 144.1465 0.0000 -3.6665 0.0000
# 4 0.0000 0.0000 0.0000 37.8272 0.0000 -10.1084
# 5 -3.6924 -25.5123 -3.6665 0.0000 39.7135 0.0000
# 6 0.0000 0.0000 0.0000 -10.1084 0.0000 37.9378
#
#
#
# Elastic Compliance Matrix: (Units=1/GPa)
#
#
# Indices 1 2 3 4 5 6 
#
# 1 0.015410 -0.008171 0.000313 0.000000 -0.003788 0.000000
# 2 -0.008171 0.028487 -0.009224 0.000000 0.016689 0.000000
# 3 0.000313 -0.009224 0.010357 0.000000 -0.004940 0.000000
# 4 0.000000 0.000000 0.000000 0.028463 0.000000 0.007584
# 5 -0.003788 0.016689 -0.004940 0.000000 0.035093 0.000000
# 6 0.000000 0.000000 0.000000 0.007584 0.000000 0.028380
#
#
# Mechanical properties :
#
#
# Convention : Reuss Voigt Hill
#
# Bulk Modulus (GPa) = 49.77512 59.56771 54.67141
# Shear Modulus (GPa) = 26.73087 35.58711 31.15899
#
# Velocity S-wave (km/s) = 3.65824 4.22097 3.94964
# Velocity P-wave (km/s) = 6.53937 7.31969 6.94051
#
# Compressibility (1/GPa) = 0.02009036
#
# Stress axis : x y z
#
# Youngs Moduli (GPa) = 64.89250 35.10352 96.55717
#
# Poissons Ratio (x) = 0.28684 -0.03024
# Poissons Ratio (y) = 0.53026 0.89061
# Poissons Ratio (z) = -0.02032 0.32378
#
# Static dielectric constant tensor:
#      x y z
#    x 1.708020 0.000000 0.020320 
#    y 0.000000 1.728860 0.000000 
#    z 0.020320 0.000000 1.724520 
# 
# From -- ./inp_files/234699.got.cif
#   From: 2010.05.17/outbox.cif.g08.bks.cpg/sg12_118_cif.got.tgz:234699.got - 2010.06.03 13:09:07.
