data_PCOD9200127
_publ_section_title
;
Structure prediction by ZEFSAII (Michael W. Deem and Ramdas Pophale) SiO2 
 PCOD9200127
Probable space group: C 2/M
;
_chemical_formula_sum "Si O2"
_cell_formula_units_Z 48
_cell_length_a 10.513175
_cell_length_b 31.442507
_cell_length_c 12.893545
_cell_angle_alpha 90.000000
_cell_angle_beta 34.509794
_cell_angle_gamma 90.000000
_cell_volume 2414.679100
_symmetry_space_group_name_H-M "C 2/M"
_symmetry_group_IT_number 12
_symmetry_cell_setting 'monoclinic'
loop_
_space_group_symop_operation_xyz
x,y,z
-x,y,-z
-x,-y,-z
x,-y,z
1/2+x,1/2+y,z
1/2-x,1/2+y,-z
1/2-x,1/2-y,-z
1/2+x,1/2-y,z
loop_
_atom_site_type_symbol
_atom_site_label
_atom_site_fract_x
_atom_site_fract_y
_atom_site_fract_z
Si Si1 0.674094 0.104662 0.966069
Si Si2 0.244982 0.370019 0.294347
Si Si3 0.034974 0.660327 0.246605
Si Si4 0.004377 0.951691 0.122390
Si Si5 0.536868 0.666539 0.669120
Si Si6 0.754222 0.750354 0.872892
O O1 0.571650 0.143295 0.105497
O O2 0.500000 0.087625 0.000000
O O3 0.774245 0.068520 0.973695
O O4 0.871028 0.127046 0.767586
O O5 0.210224 0.368298 0.195407
O O6 0.317057 0.417047 0.279102
O O7 0.406242 0.336880 0.244706
O O8 0.000000 0.359750 0.500000
O O9 0.116679 0.706314 0.231924
O O10 0.771103 0.659244 0.452452
O O11 0.967583 0.000000 0.182103
O O12 0.000000 0.952105 0.000000
O O13 0.405595 0.709925 0.733543
O O14 0.500000 0.751881 0.000000
O O15 0.750000 0.750000 0.000000
#
# Coordination Sequence:
#
# PCOD9200127 Si02
#       6
#     8   8   8   8   8   8
#     4  11  23  40  61  87 123 158 199 248 299 361
#     4   9  19  37  61  89 116 152 199 247 302 353
#     4  11  22  38  62  83 121 163 199 255 298 350
#     4  10  20  36  64  92 118 154 196 242 301 365
#     4  10  22  39  58  89 116 158 210 244 303 358
#     4  12  24  38  59  84 121 160 202 253 302 349
#
# _framework density 19.878418
#
# number of rings (size 3 to 8) (size 9 to 14) (size 15 to 20)
#    0.000    1.500    3.333    2.000    2.333    1.333 
#    0.000    1.667    0.000    0.000    0.000    4.667 
#    0.000    0.000    0.000    0.000    0.000    0.000 
#
# Total GULP energy -133714.773537 kJ/mol
# GULP energy per Si atom -5571.448897 kJ/mol
# Density = 1.983317 g / cm^3
# Si number density = 19.878418 Si / 1000 Ang^3
#
#
#
# Elastic Constant Matrix: (Units=GPa)
#
#
# Indices 1 2 3 4 5 6 
#
# 1 119.5774 30.3255 29.0023 0.0000 -27.4428 0.0000
# 2 30.3255 119.8973 22.0227 0.0000 -15.8336 0.0000
# 3 29.0023 22.0227 77.4726 0.0000 -21.6169 0.0000
# 4 0.0000 0.0000 0.0000 17.4359 0.0000 -1.4795
# 5 -27.4428 -15.8336 -21.6169 0.0000 21.5497 0.0000
# 6 0.0000 0.0000 0.0000 -1.4795 0.0000 19.8543
#
#
#
# Elastic Compliance Matrix: (Units=1/GPa)
#
#
# Indices 1 2 3 4 5 6 
#
# 1 0.011953 -0.001111 -0.000194 0.000000 0.014211 0.000000
# 2 -0.001111 0.009398 -0.001005 0.000000 0.004482 0.000000
# 3 -0.000194 -0.001005 0.018041 0.000000 0.017112 0.000000
# 4 0.000000 0.000000 0.000000 0.057718 0.000000 0.004301
# 5 0.014211 0.004482 0.017112 0.000000 0.084961 0.000000
# 6 0.000000 0.000000 0.000000 0.004301 0.000000 0.050687
#
#
# Mechanical properties :
#
#
# Convention : Reuss Voigt Hill
#
# Bulk Modulus (GPa) = 28.75820 53.29427 41.02624
# Shear Modulus (GPa) = 20.08297 27.47444 23.77870
#
# Velocity S-wave (km/s) = 3.18195 3.72173 3.46237
# Velocity P-wave (km/s) = 5.29134 6.73325 6.05536
#
# Compressibility (1/GPa) = 0.03477269
#
# Stress axis : x y z
#
# Youngs Moduli (GPa) = 83.66152 106.40577 55.43049
#
# Poissons Ratio (x) = 0.11821 0.01073
# Poissons Ratio (y) = 0.09294 0.05570
# Poissons Ratio (z) = 0.01619 0.10693
#
# Static dielectric constant tensor:
#      x y z
#    x 1.849440 0.000000 0.088700 
#    y 0.000000 1.787690 0.000000 
#    z 0.088700 0.000000 1.769960 
# 
# From -- ./inp_files/209775.got.cif
#   From: 2010.05.17/outbox.cif.g08.bks.cpg/sg12_105_cif.got.tgz:209775.got - 2010.06.03 13:09:07.
