data_PCOD9200486
_publ_section_title
;
Structure prediction by ZEFSAII (Michael W. Deem and Ramdas Pophale) SiO2 
 PCOD9200486
Probable space group: C 2/M
;
_chemical_formula_sum "Si O2"
_cell_formula_units_Z 52
_cell_length_a 18.730026
_cell_length_b 15.026563
_cell_length_c 14.258596
_cell_angle_alpha 90.000000
_cell_angle_beta 39.947697
_cell_angle_gamma 90.000000
_cell_volume 2576.732817
_symmetry_space_group_name_H-M "C 2/M"
_symmetry_group_IT_number 12
_symmetry_cell_setting 'monoclinic'
loop_
_space_group_symop_operation_xyz
x,y,z
-x,y,-z
-x,-y,-z
x,-y,z
1/2+x,1/2+y,z
1/2-x,1/2+y,-z
1/2-x,1/2-y,-z
1/2+x,1/2-y,z
loop_
_atom_site_type_symbol
_atom_site_label
_atom_site_fract_x
_atom_site_fract_y
_atom_site_fract_z
Si Si1 0.500000 0.254254 0.500000
Si Si2 0.508659 0.398429 0.655976
Si Si3 0.931958 0.402708 0.336924
Si Si4 0.976801 0.264082 0.125778
Si Si5 0.178807 0.829023 0.023239
Si Si6 0.627416 0.900381 0.293104
Si Si7 0.299649 0.663932 0.396768
O O1 0.516235 0.320438 0.571189
O O2 0.396864 0.186192 0.618872
O O3 0.513314 0.500000 0.615351
O O4 0.392756 0.381976 0.827351
O O5 0.610576 0.382858 0.625516
O O6 0.940621 0.500000 0.285583
O O7 0.952095 0.333737 0.233167
O O8 0.810806 0.392781 0.505462
O O9 0.026277 0.393688 0.320190
O O10 0.870928 0.197432 0.236434
O O11 0.086424 0.213021 0.048672
O O12 0.000000 0.301893 0.000000
O O13 0.250000 0.750000 0.000000
O O14 0.261663 0.887870 0.878570
O O15 0.624170 0.000000 0.339032
O O16 0.250000 0.750000 0.500000
#
# Coordination Sequence:
#
# PCOD9200486 Si02
#       7
#     4   8   8   8   8   8   8
#     4  12  22  38  58  88 128 150 200 264 312 356
#     4  11  23  39  63  90 121 164 207 253 309 371
#     4  10  20  37  58  83 117 156 198 245 298 367
#     4  10  21  36  61  89 115 153 201 249 306 357
#     4  11  20  42  63  83 120 169 203 248 306 373
#     4  11  23  39  62  89 119 164 210 252 309 375
#     4   9  19  38  59  82 115 161 201 238 303 366
#
# _framework density 20.180593999999999
#
# number of rings (size 3 to 8) (size 9 to 14) (size 15 to 20)
#    0.000    1.538    3.077    3.231    0.000    4.000 
#    0.000    0.000    0.000   17.538    0.000    0.000 
#    0.000    0.000    0.000    0.000    0.000    0.000 
#
# Total GULP energy -145133.196386 kJ/mol
# GULP energy per Si atom -5582.046015 kJ/mol
# Density = 2.013466 g / cm^3
# Si number density = 20.180594 Si / 1000 Ang^3
#
#
#
# Elastic Constant Matrix: (Units=GPa)
#
#
# Indices 1 2 3 4 5 6 
#
# 1 43.8466 24.1745 43.9843 0.0000 -10.2814 0.0000
# 2 24.1745 137.1132 50.2477 0.0000 1.7593 0.0000
# 3 43.9843 50.2477 135.6702 0.0000 -18.2480 0.0000
# 4 0.0000 0.0000 0.0000 18.8778 0.0000 1.4571
# 5 -10.2814 1.7593 -18.2480 0.0000 34.3581 0.0000
# 6 0.0000 0.0000 0.0000 1.4571 0.0000 19.8441
#
#
#
# Elastic Compliance Matrix: (Units=1/GPa)
#
#
# Indices 1 2 3 4 5 6 
#
# 1 0.035355 -0.002753 -0.009693 0.000000 0.005573 0.000000
# 2 -0.002753 0.008818 -0.002741 0.000000 -0.002731 0.000000
# 3 -0.009693 -0.002741 0.012015 0.000000 0.003621 0.000000
# 4 0.000000 0.000000 0.000000 0.053274 0.000000 -0.003912
# 5 0.005573 -0.002731 0.003621 0.000000 0.032836 0.000000
# 6 0.000000 0.000000 0.000000 -0.003912 0.000000 0.050680
#
#
# Mechanical properties :
#
#
# Convention : Reuss Voigt Hill
#
# Bulk Modulus (GPa) = 38.73696 61.49368 50.11532
# Shear Modulus (GPa) = 21.55580 27.83089 24.69335
#
# Velocity S-wave (km/s) = 3.27179 3.71764 3.50182
# Velocity P-wave (km/s) = 5.78875 6.99755 6.42166
#
# Compressibility (1/GPa) = 0.02581514
#
# Stress axis : x y z
#
# Youngs Moduli (GPa) = 28.28493 113.40395 83.22632
#
# Poissons Ratio (x) = 0.31217 0.80670
# Poissons Ratio (y) = 0.07786 0.22811
# Poissons Ratio (z) = 0.27416 0.31082
#
# Static dielectric constant tensor:
#      x y z
#    x 1.722520 0.000000 0.013240 
#    y 0.000000 1.757590 0.000000 
#    z 0.013240 0.000000 1.731890 
# 
# From -- ./inp_files/225632.got.cif
#   From: 2010.05.17/outbox.cif.g08.bks.cpg/sg12_113_cif.got.tgz:225632.got - 2010.06.03 13:09:07.
