data_PCOD9200945
_publ_section_title
;
Structure prediction by ZEFSAII (Michael W. Deem and Ramdas Pophale) SiO2 
 PCOD9200945
Probable space group: C 2/M
;
_chemical_formula_sum "Si O2"
_cell_formula_units_Z 42
_cell_length_a 8.373714
_cell_length_b 31.652186
_cell_length_c 8.641631
_cell_angle_alpha 90.000000
_cell_angle_beta 64.730712
_cell_angle_gamma 90.000000
_cell_volume 2071.264691
_symmetry_space_group_name_H-M "C 2/M"
_symmetry_group_IT_number 12
_symmetry_cell_setting 'monoclinic'
loop_
_space_group_symop_operation_xyz
x,y,z
-x,y,-z
-x,-y,-z
x,-y,z
1/2+x,1/2+y,z
1/2-x,1/2+y,-z
1/2-x,1/2-y,-z
1/2+x,1/2-y,z
loop_
_atom_site_type_symbol
_atom_site_label
_atom_site_fract_x
_atom_site_fract_y
_atom_site_fract_z
Si Si1 0.000000 0.000000 0.500000
Si Si2 0.874022 0.427861 0.917596
Si Si3 0.569553 0.000000 0.646409
Si Si4 0.699061 0.656046 0.971733
Si Si5 0.857944 0.191026 0.684952
Si Si6 0.610332 0.500000 0.112178
Si Si7 0.486500 0.772628 0.819859
O O1 0.778399 0.000000 0.592417
O O2 0.003663 0.000000 0.687595
O O3 0.777197 0.388192 0.881845
O O4 0.985169 0.458362 0.760863
O O5 0.731527 0.458554 0.054997
O O6 0.000000 0.410624 0.000000
O O7 0.500000 0.000000 0.500000
O O8 0.828298 0.693789 0.867234
O O9 0.500000 0.661969 0.000000
O O10 0.690333 0.657294 0.162821
O O11 0.672933 0.207439 0.692006
O O12 0.941358 0.230767 0.743871
O O13 0.000000 0.176760 0.500000
O O14 0.500000 0.500000 0.000000
O O15 0.500000 0.764626 0.000000
#
# Coordination Sequence:
#
# PCOD9200945 Si02
#       7
#     2   8   4   8   8   4   8
#     4  12  20  42  68 106 124 174 220 276 324 386
#     4  11  21  44  63  88 131 169 202 255 327 385
#     4  11  24  43  72 100 132 165 220 268 326 407
#     4  11  23  40  62  87 119 169 212 253 317 392
#     4  11  21  37  60  91 120 158 210 264 314 364
#     4  11  22  39  66  98 128 171 220 260 325 401
#     4  10  20  37  60  86 121 165 207 254 311 386
#
# _framework density 20.277467000000001
#
# number of rings (size 3 to 8) (size 9 to 14) (size 15 to 20)
#    0.000    1.143    1.905    8.571    0.000    0.000 
#    1.714    4.762    0.000    0.000    0.000    0.000 
#    0.000    0.000    0.000    0.000    0.000    0.000 
#
# Total GULP energy -117139.220430 kJ/mol
# GULP energy per Si atom -5578.058116 kJ/mol
# Density = 2.023131 g / cm^3
# Si number density = 20.277467 Si / 1000 Ang^3
#
#
#
# Elastic Constant Matrix: (Units=GPa)
#
#
# Indices 1 2 3 4 5 6 
#
# 1 127.3469 30.0253 21.6685 0.0000 -16.5023 0.0000
# 2 30.0253 78.4740 18.1780 0.0000 -8.4667 0.0000
# 3 21.6685 18.1780 112.1890 0.0000 -18.6721 0.0000
# 4 0.0000 0.0000 0.0000 1.2015 0.0000 -0.6902
# 5 -16.5023 -8.4667 -18.6721 0.0000 34.4312 0.0000
# 6 0.0000 0.0000 0.0000 -0.6902 0.0000 19.7269
#
#
#
# Elastic Compliance Matrix: (Units=1/GPa)
#
#
# Indices 1 2 3 4 5 6 
#
# 1 0.009095 -0.002960 -0.000739 0.000000 0.003230 0.000000
# 2 -0.002960 0.014371 -0.001544 0.000000 0.001278 0.000000
# 3 -0.000739 -0.001544 0.010096 0.000000 0.004741 0.000000
# 4 0.000000 0.000000 0.000000 0.849354 0.000000 0.029719
# 5 0.003230 0.001278 0.004741 0.000000 0.033477 0.000000
# 6 0.000000 0.000000 0.000000 0.029719 0.000000 0.051732
#
#
# Mechanical properties :
#
#
# Convention : Reuss Voigt Hill
#
# Bulk Modulus (GPa) = 43.33808 50.86150 47.09979
# Shear Modulus (GPa) = 5.06944 27.61446 16.34195
#
# Velocity S-wave (km/s) = 1.58287 3.69430 2.84195
# Velocity P-wave (km/s) = 4.97590 6.58288 5.83498
#
# Compressibility (1/GPa) = 0.02307440
#
# Stress axis : x y z
#
# Youngs Moduli (GPa) = 109.95215 69.58367 99.05334
#
# Poissons Ratio (x) = 0.20597 0.07324
# Poissons Ratio (y) = 0.32546 0.15296
# Poissons Ratio (z) = 0.08130 0.10745
#
# Static dielectric constant tensor:
#      x y z
#    x 1.813460 0.000000 0.022040 
#    y 0.000000 1.715990 0.000000 
#    z 0.022040 0.000000 1.720590 
# 
# From -- ./inp_files/42119.got.cif
#   From: 2010.05.17/outbox.cif.g08.bks.cpg/sg12_22_cif.got.tgz:42119.got - 2010.06.03 13:09:07.
