data_PCOD9200147
_publ_section_title
;
Structure prediction by ZEFSAII (Michael W. Deem and Ramdas Pophale) SiO2 
 PCOD9200147
Probable space group: C 2/M
;
_chemical_formula_sum "Si O2"
_cell_formula_units_Z 64
_cell_length_a 30.196866
_cell_length_b 9.372720
_cell_length_c 19.675091
_cell_angle_alpha 90.000000
_cell_angle_beta 142.615909
_cell_angle_gamma 90.000000
_cell_volume 3380.990956
_symmetry_space_group_name_H-M "C 2/M"
_symmetry_group_IT_number 12
_symmetry_cell_setting 'monoclinic'
loop_
_space_group_symop_operation_xyz
x,y,z
-x,y,-z
-x,-y,-z
x,-y,z
1/2+x,1/2+y,z
1/2-x,1/2+y,-z
1/2-x,1/2-y,-z
1/2+x,1/2-y,z
loop_
_atom_site_type_symbol
_atom_site_label
_atom_site_fract_x
_atom_site_fract_y
_atom_site_fract_z
Si Si1 0.103019 0.833941 0.193947
Si Si2 0.498268 0.171884 0.171518
Si Si3 0.238233 0.661525 0.551910
Si Si4 0.120074 0.832586 0.055899
Si Si5 0.938809 0.335355 0.367956
Si Si6 0.792131 0.661337 0.274569
Si Si7 0.350693 0.656988 0.464341
Si Si8 0.485678 0.336742 0.299555
O O1 0.189325 0.825877 0.314270
O O2 0.096588 0.802335 0.105771
O O3 0.059978 0.736126 0.195298
O O4 0.080852 0.000000 0.177733
O O5 0.497966 0.248299 0.245073
O O6 0.503704 0.000000 0.183121
O O7 0.423619 0.225543 0.045087
O O8 0.226024 0.500000 0.519328
O O9 0.250000 0.750000 0.500000
O O10 0.170089 0.727243 0.505965
O O11 0.207431 0.820596 0.152313
O O12 0.101571 0.000000 0.020307
O O13 0.958287 0.500000 0.375073
O O14 0.857145 0.334367 0.299099
O O15 0.938496 0.243507 0.298834
O O16 0.000000 0.291102 0.500000
O O17 0.796525 0.500000 0.311479
O O18 0.813572 0.786450 0.351636
O O19 0.323335 0.500000 0.450315
O O20 0.436904 0.652986 0.567477
O O21 0.462054 0.500000 0.255385
#
# Coordination Sequence:
#
# PCOD9200147 Si02
#       8
#     8   8   8   8   8   8   8   8
#     4  10  21  39  62  86 117 159 204 244 295 363
#     4  12  26  41  60  88 120 156 204 259 306 348
#     4  11  22  36  54  82 119 159 200 242 296 359
#     4  10  21  41  65  87 118 162 205 244 293 360
#     4  10  20  36  64  96 126 155 193 247 301 355
#     4  10  20  38  63  92 121 156 195 237 297 358
#     4  11  22  35  56  86 120 157 196 243 293 349
#     4  11  24  41  61  87 123 164 204 244 298 365
#
# _framework density 18.929361
#
# number of rings (size 3 to 8) (size 9 to 14) (size 15 to 20)
#    0.000    1.375    2.500    3.375    0.000    8.750 
#    0.000    0.625    0.000    0.000    0.000    0.000 
#    0.000    0.000    0.000    0.000    0.000    0.000 
#
# Total GULP energy -178499.999782 kJ/mol
# GULP energy per Si atom -5578.124993 kJ/mol
# Density = 1.888628 g / cm^3
# Si number density = 18.929361 Si / 1000 Ang^3
#
#
#
# Elastic Constant Matrix: (Units=GPa)
#
#
# Indices 1 2 3 4 5 6 
#
# 1 88.7336 41.5123 13.1255 0.0000 0.3240 0.0000
# 2 41.5123 120.2643 30.2803 0.0000 -13.4844 0.0000
# 3 13.1255 30.2803 34.2340 0.0000 -4.6531 0.0000
# 4 0.0000 0.0000 0.0000 30.7758 0.0000 -2.3576
# 5 0.3240 -13.4844 -4.6531 0.0000 22.2673 0.0000
# 6 0.0000 0.0000 0.0000 -2.3576 0.0000 29.4309
#
#
#
# Elastic Compliance Matrix: (Units=1/GPa)
#
#
# Indices 1 2 3 4 5 6 
#
# 1 0.013722 -0.004729 -0.001539 0.000000 -0.003385 0.000000
# 2 -0.004729 0.012812 -0.008703 0.000000 0.006009 0.000000
# 3 -0.001539 -0.008703 0.037860 0.000000 0.002664 0.000000
# 4 0.000000 0.000000 0.000000 0.032694 0.000000 0.002619
# 5 -0.003385 0.006009 0.002664 0.000000 0.049154 0.000000
# 6 0.000000 0.000000 0.000000 0.002619 0.000000 0.034188
#
#
# Mechanical properties :
#
#
# Convention : Reuss Voigt Hill
#
# Bulk Modulus (GPa) = 29.02379 45.89646 37.46013
# Shear Modulus (GPa) = 22.53734 27.04906 24.79320
#
# Velocity S-wave (km/s) = 3.45425 3.78424 3.62301
# Velocity P-wave (km/s) = 5.59242 6.58732 6.11015
#
# Compressibility (1/GPa) = 0.03445449
#
# Stress axis : x y z
#
# Youngs Moduli (GPa) = 72.87679 78.05093 26.41277
#
# Poissons Ratio (x) = 0.36907 0.04064
# Poissons Ratio (y) = 0.34460 0.22987
# Poissons Ratio (z) = 0.11213 0.67926
#
# Static dielectric constant tensor:
#      x y z
#    x 1.637690 0.000000 0.011800 
#    y 0.000000 1.668610 0.000000 
#    z 0.011800 0.000000 1.702070 
# 
# From -- ./inp_files/295770.got.cif
#   From: 2010.05.17/outbox.cif.g08.bks.cpg/sg12_148_cif.got.tgz:295770.got - 2010.06.03 13:09:07.
