data_PCOD9200833
_publ_section_title
;
Structure prediction by ZEFSAII (Michael W. Deem and Ramdas Pophale) SiO2 
 PCOD9200833
Probable space group: C 2/M
;
_chemical_formula_sum "Si O2"
_cell_formula_units_Z 64
_cell_length_a 18.464563
_cell_length_b 14.456925
_cell_length_c 18.993498
_cell_angle_alpha 90.000000
_cell_angle_beta 143.488400
_cell_angle_gamma 90.000000
_cell_volume 3016.659655
_symmetry_space_group_name_H-M "C 2/M"
_symmetry_group_IT_number 12
_symmetry_cell_setting 'monoclinic'
loop_
_space_group_symop_operation_xyz
x,y,z
-x,y,-z
-x,-y,-z
x,-y,z
1/2+x,1/2+y,z
1/2-x,1/2+y,-z
1/2-x,1/2-y,-z
1/2+x,1/2-y,z
loop_
_atom_site_type_symbol
_atom_site_label
_atom_site_fract_x
_atom_site_fract_y
_atom_site_fract_z
Si Si1 0.034463 0.887971 0.904706
Si Si2 0.038228 0.892039 0.455168
Si Si3 0.785285 0.388220 0.177920
Si Si4 0.687366 0.893825 0.287890
Si Si5 0.515411 0.107392 0.276423
Si Si6 0.499839 0.605718 0.274732
Si Si7 0.221295 0.793632 0.264880
Si Si8 0.231029 0.664050 0.538137
O O1 0.055717 0.855556 0.840429
O O2 0.911215 0.842038 0.836275
O O3 0.017590 0.000000 0.890392
O O4 0.151691 0.867924 0.043059
O O5 0.184780 0.895921 0.569770
O O6 0.989015 0.850293 0.343902
O O7 0.000000 0.849403 0.500000
O O8 0.996389 0.000000 0.424199
O O9 0.796188 0.500000 0.193863
O O10 0.796995 0.340315 0.262407
O O11 0.888052 0.354744 0.203745
O O12 0.583204 0.856808 0.259560
O O13 0.704393 0.816518 0.242125
O O14 0.664795 0.000000 0.247981
O O15 0.611825 0.115238 0.415234
O O16 0.496070 0.000000 0.245026
O O17 0.457148 0.500000 0.247162
O O18 0.644840 0.606341 0.372554
O O19 0.277838 0.808359 0.387026
O O20 0.250000 0.750000 0.500000
#
# Coordination Sequence:
#
# PCOD9200833 Si02
#       8
#     8   8   8   8   8   8   8   8
#     4   9  19  36  61  86 116 157 202 251 302 361
#     4   9  16  29  52  84 117 150 194 247 295 340
#     4  10  22  40  61  91 122 155 199 252 313 363
#     4  10  20  38  59  84 120 165 204 238 292 365
#     4  10  20  37  60  83 122 165 197 240 301 374
#     4   9  16  29  52  81 110 146 191 238 291 347
#     4  11  21  35  58  89 120 156 198 252 306 357
#     4  11  19  32  53  82 118 152 196 238 290 364
#
# _framework density 21.215519
#
# number of rings (size 3 to 8) (size 9 to 14) (size 15 to 20)
#    0.000    2.125    2.500    1.125    0.000    3.000 
#    4.500    1.875    0.000    3.000    0.000    4.375 
#    0.000    0.000    0.000    0.000    0.000    0.000 
#
# Total GULP energy -178524.465056 kJ/mol
# GULP energy per Si atom -5578.889533 kJ/mol
# Density = 2.116723 g / cm^3
# Si number density = 21.215519 Si / 1000 Ang^3
#
#
#
# Elastic Constant Matrix: (Units=GPa)
#
#
# Indices 1 2 3 4 5 6 
#
# 1 78.1719 12.3292 1.6249 0.0000 -13.4155 0.0000
# 2 12.3292 57.2277 2.8466 0.0000 -7.0472 0.0000
# 3 1.6249 2.8466 31.5578 0.0000 -8.6471 0.0000
# 4 0.0000 0.0000 0.0000 6.4891 0.0000 -8.5118
# 5 -13.4155 -7.0472 -8.6471 0.0000 25.1664 0.0000
# 6 0.0000 0.0000 0.0000 -8.5118 0.0000 21.8476
#
#
#
# Elastic Compliance Matrix: (Units=1/GPa)
#
#
# Indices 1 2 3 4 5 6 
#
# 1 0.014417 -0.002249 0.001539 0.000000 0.007584 0.000000
# 2 -0.002249 0.018451 -0.000509 0.000000 0.003793 0.000000
# 3 0.001539 -0.000509 0.035150 0.000000 0.012755 0.000000
# 4 0.000000 0.000000 0.000000 0.315169 0.000000 0.122790
# 5 0.007584 0.003793 0.012755 0.000000 0.049223 0.000000
# 6 0.000000 0.000000 0.000000 0.122790 0.000000 0.093610
#
#
# Mechanical properties :
#
#
# Convention : Reuss Voigt Hill
#
# Bulk Modulus (GPa) = 15.24886 22.28431 18.76659
# Shear Modulus (GPa) = 9.08566 20.71108 14.89837
#
# Velocity S-wave (km/s) = 2.07168 3.12785 2.65285
# Velocity P-wave (km/s) = 3.59523 4.85501 4.27182
#
# Compressibility (1/GPa) = 0.06557869
#
# Stress axis : x y z
#
# Youngs Moduli (GPa) = 69.36488 54.19792 28.44991
#
# Poissons Ratio (x) = 0.12186 -0.04377
# Poissons Ratio (y) = 0.15597 0.01449
# Poissons Ratio (z) = -0.10673 0.02760
#
# Static dielectric constant tensor:
#      x y z
#    x 1.807490 0.000000 -0.015990 
#    y 0.000000 1.814320 0.000000 
#    z -0.015990 0.000000 1.752980 
# 
# From -- ./inp_files/278176.got.cif
#   From: 2010.05.17/outbox.cif.g08.bks.cpg/sg12_140_cif.got.tgz:278176.got - 2010.06.03 13:09:07.
