data_PCOD9200269
_publ_section_title
;
Structure prediction by ZEFSAII (Michael W. Deem and Ramdas Pophale) SiO2 
 PCOD9200269
Probable space group: C 2/M
;
_chemical_formula_sum "Si O2"
_cell_formula_units_Z 36
_cell_length_a 9.387077
_cell_length_b 19.249574
_cell_length_c 15.728288
_cell_angle_alpha 90.000000
_cell_angle_beta 41.403193
_cell_angle_gamma 90.000000
_cell_volume 1879.605563
_symmetry_space_group_name_H-M "C 2/M"
_symmetry_group_IT_number 12
_symmetry_cell_setting 'monoclinic'
loop_
_space_group_symop_operation_xyz
x,y,z
-x,y,-z
-x,-y,-z
x,-y,z
1/2+x,1/2+y,z
1/2-x,1/2+y,-z
1/2-x,1/2-y,-z
1/2+x,1/2-y,z
loop_
_atom_site_type_symbol
_atom_site_label
_atom_site_fract_x
_atom_site_fract_y
_atom_site_fract_z
Si Si1 0.891944 0.000000 0.693469
Si Si2 0.907441 0.859042 0.447628
Si Si3 0.148212 0.114983 0.853071
Si Si4 0.447219 0.000000 0.804034
Si Si5 0.462240 0.790245 0.619034
Si Si6 0.646882 0.500000 0.097657
O O1 0.703646 0.000000 0.705575
O O2 0.037056 0.069032 0.621916
O O3 0.791787 0.000000 0.832096
O O4 0.659192 0.837415 0.563294
O O5 0.000000 0.866802 0.500000
O O6 0.015645 0.789359 0.360586
O O7 0.341872 0.066422 0.803605
O O8 0.247743 0.175631 0.751477
O O9 0.000348 0.065933 0.861022
O O10 0.000000 0.136642 0.000000
O O11 0.341866 0.000000 0.944554
O O12 0.500000 0.789740 0.500000
#
# Coordination Sequence:
#
# PCOD9200269 Si02
#       6
#     4   8   8   4   8   4
#     4  12  20  33  54  78 105 138 182 213 255 324
#     4  10  22  35  52  77 109 140 171 216 269 312
#     4   9  18  36  58  78 103 140 181 215 258 313
#     4   9  19  34  53  77 112 141 167 216 271 310
#     4  10  20  37  56  78 108 138 173 222 265 302
#     4   9  19  33  52  79 107 139 174 221 263 300
#
# _framework density 19.152954000000001
#
# number of rings (size 3 to 8) (size 9 to 14) (size 15 to 20)
#    0.000    2.222    0.000    4.667    0.000    1.778 
#    0.000    6.111    0.000   17.333    0.000    0.000 
#    0.000    0.000    0.000    0.000    0.000    0.000 
#
# Total GULP energy -100366.547533 kJ/mol
# GULP energy per Si atom -5575.919307 kJ/mol
# Density = 1.910936 g / cm^3
# Si number density = 19.152954 Si / 1000 Ang^3
#
#
#
# Elastic Constant Matrix: (Units=GPa)
#
#
# Indices 1 2 3 4 5 6 
#
# 1 65.4604 10.4641 2.3306 -0.0003 2.4151 0.0001
# 2 10.4641 131.6076 76.2193 -0.0002 -9.4394 0.0001
# 3 2.3306 76.2193 70.6320 -0.0007 1.5867 0.0001
# 4 -0.0003 -0.0002 -0.0007 17.2607 0.0002 -8.7362
# 5 2.4151 -9.4394 1.5867 0.0002 25.8810 0.0000
# 6 0.0001 0.0001 0.0001 -8.7362 0.0000 16.8561
#
#
#
# Elastic Compliance Matrix: (Units=1/GPa)
#
#
# Indices 1 2 3 4 5 6 
#
# 1 0.015782 -0.003177 0.002971 0.000000 -0.002814 0.000000
# 2 -0.003177 0.023088 -0.025040 -0.000001 0.010252 -0.000001
# 3 0.002971 -0.025040 0.041348 0.000002 -0.011945 0.000001
# 4 0.000000 -0.000001 0.000002 0.078537 -0.000001 0.040705
# 5 -0.002814 0.010252 -0.011945 -0.000001 0.043372 0.000000
# 6 0.000000 -0.000001 0.000001 0.040705 0.000000 0.080422
#
#
# Mechanical properties :
#
#
# Convention : Reuss Voigt Hill
#
# Bulk Modulus (GPa) = 33.63934 49.52530 41.58232
# Shear Modulus (GPa) = 14.57934 23.91195 19.24564
#
# Velocity S-wave (km/s) = 2.76199 3.53721 3.17336
# Velocity P-wave (km/s) = 5.27002 6.52659 5.93167
#
# Compressibility (1/GPa) = 0.02972710
#
# Stress axis : x y z
#
# Youngs Moduli (GPa) = 63.36184 43.31308 24.18470
#
# Poissons Ratio (x) = 0.13762 -0.07186
# Poissons Ratio (y) = 0.20133 0.60557
# Poissons Ratio (z) = -0.18826 1.08454
#
# Static dielectric constant tensor:
#      x y z
#    x 1.693270 0.000000 -0.012400 
#    y 0.000000 1.669900 0.000000 
#    z -0.012400 0.000000 1.657660 
# 
# From -- ./inp_files/118544.got.cif
#   From: 2010.05.17/outbox.cif.g08.bks.cpg/sg12_60_cif.got.tgz:118544.got - 2010.06.03 13:09:07.
