data_PCOD9200009
_publ_section_title
;
Structure prediction by ZEFSAII (Michael W. Deem and Ramdas Pophale) SiO2 
 PCOD9200009
Probable space group: C 2/M
;
_chemical_formula_sum "Si O2"
_cell_formula_units_Z 40
_cell_length_a 8.724658
_cell_length_b 25.456388
_cell_length_c 11.641035
_cell_angle_alpha 90.000000
_cell_angle_beta 39.624712
_cell_angle_gamma 90.000000
_cell_volume 1648.889365
_symmetry_space_group_name_H-M "C 2/M"
_symmetry_group_IT_number 12
_symmetry_cell_setting 'monoclinic'
loop_
_space_group_symop_operation_xyz
x,y,z
-x,y,-z
-x,-y,-z
x,-y,z
1/2+x,1/2+y,z
1/2-x,1/2+y,-z
1/2-x,1/2-y,-z
1/2+x,1/2-y,z
loop_
_atom_site_type_symbol
_atom_site_label
_atom_site_fract_x
_atom_site_fract_y
_atom_site_fract_z
Si Si1 0.669262 0.213156 0.293838
Si Si2 0.945111 0.704331 0.888133
Si Si3 0.417292 0.061371 0.914281
Si Si4 0.697975 0.438816 0.485539
Si Si5 0.029177 0.874106 0.176509
O O1 0.500000 0.218177 0.500000
O O2 0.516949 0.198849 0.270117
O O3 0.817511 0.268221 0.197826
O O4 0.857601 0.166037 0.209524
O O5 0.750000 0.750000 0.000000
O O6 0.791718 0.656224 0.028949
O O7 0.574247 0.082823 0.717386
O O8 0.461909 0.000000 0.876966
O O9 0.500000 0.070978 0.000000
O O10 0.137709 0.074088 0.056657
O O11 0.500000 0.441964 0.500000
O O12 0.728800 0.500000 0.511327
O O13 0.603567 0.397181 0.634709
#
# Coordination Sequence:
#
# PCOD9200009 Si02
#       5
#     8   8   8   8   8
#     4  11  25  47  71  97 133 179 227 284 340 403
#     4  10  23  46  68  94 133 176 219 281 339 403
#     4  10  20  36  62  97 141 183 222 278 336 390
#     4  10  20  38  62  99 143 179 224 279 332 393
#     4  11  22  37  66  97 131 174 223 275 337 399
#
# _framework density 24.258752999999999
#
# number of rings (size 3 to 8) (size 9 to 14) (size 15 to 20)
#    0.000    1.600    2.000    3.600    2.800    3.200 
#    0.000    0.000    0.000   12.000    0.000    0.000 
#    0.000    0.000    0.000    0.000    0.000    0.000 
#
# Total GULP energy -111450.726598 kJ/mol
# GULP energy per Si atom -5572.536330 kJ/mol
# Density = 2.420354 g / cm^3
# Si number density = 24.258753 Si / 1000 Ang^3
#
#
#
# Elastic Constant Matrix: (Units=GPa)
#
#
# Indices 1 2 3 4 5 6 
#
# 1 81.3388 33.5866 20.9817 0.0000 19.7311 0.0000
# 2 33.5866 58.4434 26.8314 0.0000 30.2184 0.0000
# 3 20.9817 26.8314 180.9540 0.0000 24.1690 0.0000
# 4 0.0000 0.0000 0.0000 -119.0085 0.0000 9.2349
# 5 19.7311 30.2184 24.1690 0.0000 30.5533 0.0000
# 6 0.0000 0.0000 0.0000 9.2349 0.0000 33.8487
#
#
#
# Elastic Compliance Matrix: (Units=1/GPa)
#
#
# Indices 1 2 3 4 5 6 
#
# 1 0.016243 -0.007963 -0.000395 0.000000 -0.002301 0.000000
# 2 -0.007963 0.038988 -0.000441 0.000000 -0.033069 0.000000
# 3 -0.000395 -0.000441 0.006200 0.000000 -0.004213 0.000000
# 4 0.000000 0.000000 0.000000 -0.008229 0.000000 0.002245
# 5 -0.002301 -0.033069 -0.004213 0.000000 0.070255 0.000000
# 6 0.000000 0.000000 0.000000 0.002245 0.000000 0.028931
#
#
# Mechanical properties :
#
#
# Convention : Reuss Voigt Hill
#
# Bulk Modulus (GPa) = 22.81447 53.72617 38.27032
# Shear Modulus (GPa) = 27.08596 5.03448 16.06022
#
# Velocity S-wave (km/s) = 3.34510 1.44216 2.57580
# Velocity P-wave (km/s) = 4.93403 4.99683 4.96553
#
# Compressibility (1/GPa) = 0.04383184
#
# Stress axis : x y z
#
# Youngs Moduli (GPa) = 61.56675 25.64895 161.28463
#
# Poissons Ratio (x) = 0.20425 0.06375
# Poissons Ratio (y) = 0.49028 0.07110
# Poissons Ratio (z) = 0.02433 0.01131
#
# Static dielectric constant tensor:
#      x y z
#    x 2.276400 0.000000 -0.214930 
#    y 0.000000 2.163290 0.000000 
#    z -0.214930 0.000000 2.185300 
# 
# From -- ./inp_files/125014.got.cif
#   From: 2010.05.17/outbox.cif.g08.bks.cpg/sg12_63_cif.got.tgz:125014.got - 2010.06.03 13:09:07.
