data_PCOD9200094
_publ_section_title
;
Structure prediction by ZEFSAII (Michael W. Deem and Ramdas Pophale) SiO2 
 PCOD9200094
Probable space group: C 2/M
;
_chemical_formula_sum "Si O2"
_cell_formula_units_Z 64
_cell_length_a 20.653745
_cell_length_b 14.013846
_cell_length_c 18.325373
_cell_angle_alpha 90.000000
_cell_angle_beta 33.497681
_cell_angle_gamma 90.000000
_cell_volume 2927.331550
_symmetry_space_group_name_H-M "C 2/M"
_symmetry_group_IT_number 12
_symmetry_cell_setting 'monoclinic'
loop_
_space_group_symop_operation_xyz
x,y,z
-x,y,-z
-x,-y,-z
x,-y,z
1/2+x,1/2+y,z
1/2-x,1/2+y,-z
1/2-x,1/2-y,-z
1/2+x,1/2-y,z
loop_
_atom_site_type_symbol
_atom_site_label
_atom_site_fract_x
_atom_site_fract_y
_atom_site_fract_z
Si Si1 0.355949 0.892735 0.246860
Si Si2 0.002758 0.896501 0.233002
Si Si3 0.667870 0.893638 0.409428
Si Si4 0.628752 0.689541 0.381757
Si Si5 0.761948 0.362630 0.490979
Si Si6 0.427763 0.764541 0.944330
Si Si7 0.212896 0.889022 0.151162
Si Si8 0.635468 0.398243 0.891151
O O1 0.230648 0.856684 0.335177
O O2 0.341204 0.893099 0.348535
O O3 0.462174 0.822449 0.126065
O O4 0.378678 0.000000 0.199491
O O5 0.017930 0.806294 0.166552
O O6 0.105043 0.888434 0.196402
O O7 0.872310 0.897301 0.388583
O O8 0.016810 0.000000 0.181520
O O9 0.611545 0.796978 0.430211
O O10 0.686027 0.888598 0.479015
O O11 0.793247 0.888826 0.250628
O O12 0.618237 0.000000 0.439205
O O13 0.500000 0.643141 0.500000
O O14 0.674992 0.672414 0.256771
O O15 0.750000 0.250000 0.500000
O O16 0.331221 0.840884 0.008565
O O17 0.359140 0.692729 0.062561
O O18 0.235131 0.000000 0.150395
O O19 0.675093 0.500000 0.887115
O O20 0.500000 0.404160 0.000000
#
# Coordination Sequence:
#
# PCOD9200094 Si02
#       8
#     8   8   8   8   8   8   8   8
#     4  12  26  42  67 100 134 176 224 273 334 402
#     4  11  23  42  68  97 131 176 229 277 328 394
#     4  11  23  42  67 100 134 170 220 278 336 391
#     4  12  25  44  69  93 132 178 225 272 331 394
#     4  12  22  42  68  98 133 172 222 278 334 388
#     4  12  23  42  69  97 137 170 217 277 345 396
#     4  11  26  44  64  95 136 181 225 270 326 400
#     4  10  20  36  63  96 128 165 214 268 326 395
#
# _framework density 21.862914
#
# number of rings (size 3 to 8) (size 9 to 14) (size 15 to 20)
#    0.000    0.625    3.750    4.875    0.000    3.250 
#    0.000    1.250    0.000    0.750    0.000    0.000 
#    0.000    0.000    0.000    0.000    0.000    0.000 
#
# Total GULP energy -178727.165481 kJ/mol
# GULP energy per Si atom -5585.223921 kJ/mol
# Density = 2.181315 g / cm^3
# Si number density = 21.862914 Si / 1000 Ang^3
#
#
#
# Elastic Constant Matrix: (Units=GPa)
#
#
# Indices 1 2 3 4 5 6 
#
# 1 66.0440 50.3680 21.2427 0.0000 -17.4190 0.0000
# 2 50.3680 158.2025 20.3060 0.0000 -8.8594 0.0000
# 3 21.2427 20.3060 71.4766 0.0000 -6.9502 0.0000
# 4 0.0000 0.0000 0.0000 7.3828 0.0000 21.4634
# 5 -17.4190 -8.8594 -6.9502 0.0000 28.5564 0.0000
# 6 0.0000 0.0000 0.0000 21.4634 0.0000 1.8356
#
#
#
# Elastic Compliance Matrix: (Units=1/GPa)
#
#
# Indices 1 2 3 4 5 6 
#
# 1 0.024770 -0.006662 -0.004303 0.000000 0.011995 0.000000
# 2 -0.006662 0.008426 -0.000568 0.000000 -0.001588 0.000000
# 3 -0.004303 -0.000568 0.015526 0.000000 0.000978 0.000000
# 4 0.000000 0.000000 0.000000 -0.004105 0.000000 0.048003
# 5 0.011995 -0.001588 0.000978 0.000000 0.042081 0.000000
# 6 0.000000 0.000000 0.000000 0.048003 0.000000 -0.016512
#
#
# Mechanical properties :
#
#
# Convention : Reuss Voigt Hill
#
# Bulk Modulus (GPa) = 38.97721 53.28406 46.13063
# Shear Modulus (GPa) = 49.11431 21.14206 35.12819
#
# Velocity S-wave (km/s) = 4.74483 3.11308 4.01277
# Velocity P-wave (km/s) = 6.91987 6.11118 6.52806
#
# Compressibility (1/GPa) = 0.02565602
#
# Stress axis : x y z
#
# Youngs Moduli (GPa) = 40.37156 118.67886 64.40886
#
# Poissons Ratio (x) = 0.79066 0.27712
# Poissons Ratio (y) = 0.26896 0.03660
# Poissons Ratio (z) = 0.17370 0.06744
#
# Static dielectric constant tensor:
#      x y z
#    x 1.789120 0.000000 0.009150 
#    y 0.000000 1.902480 0.000000 
#    z 0.009150 0.000000 1.804300 
# 
# From -- ./inp_files/278155.got.cif
#   From: 2010.05.17/outbox.cif.g08.bks.cpg/sg12_140_cif.got.tgz:278155.got - 2010.06.03 13:09:07.
