data_PCOD9200162
_publ_section_title
;
Structure prediction by ZEFSAII (Michael W. Deem and Ramdas Pophale) SiO2 
 PCOD9200162
Probable space group: C 2/M
;
_chemical_formula_sum "Si O2"
_cell_formula_units_Z 44
_cell_length_a 12.742315
_cell_length_b 19.353206
_cell_length_c 11.267927
_cell_angle_alpha 90.000000
_cell_angle_beta 135.056688
_cell_angle_gamma 90.000000
_cell_volume 1962.909018
_symmetry_space_group_name_H-M "C 2/M"
_symmetry_group_IT_number 12
_symmetry_cell_setting 'monoclinic'
loop_
_space_group_symop_operation_xyz
x,y,z
-x,y,-z
-x,-y,-z
x,-y,z
1/2+x,1/2+y,z
1/2-x,1/2+y,-z
1/2-x,1/2-y,-z
1/2+x,1/2-y,z
loop_
_atom_site_type_symbol
_atom_site_label
_atom_site_fract_x
_atom_site_fract_y
_atom_site_fract_z
Si Si1 0.056468 0.719463 0.348383
Si Si2 0.846768 0.311750 0.834574
Si Si3 0.223074 0.166635 0.098877
Si Si4 0.064419 0.131725 0.727597
Si Si5 0.640316 0.500000 0.410071
Si Si6 0.663590 0.898162 0.590503
O O1 0.138277 0.706680 0.290731
O O2 0.133256 0.678072 0.515299
O O3 0.893092 0.684923 0.202387
O O4 0.033372 0.798984 0.361027
O O5 0.837133 0.239789 0.901026
O O6 0.704094 0.357359 0.751944
O O7 0.000000 0.346737 0.000000
O O8 0.231722 0.111104 0.211391
O O9 0.132543 0.138498 0.915394
O O10 0.975085 0.061781 0.641756
O O11 0.754302 0.441197 0.443479
O O12 0.500000 0.923533 0.500000
#
# Coordination Sequence:
#
# PCOD9200162 Si02
#       6
#     8   8   8   8   4   8
#     4  10  20  41  68  92 123 166 217 263 306 370
#     4  11  18  35  67  94 125 158 206 266 310 362
#     4  10  20  36  65 103 124 148 213 268 317 367
#     4  11  23  39  64 100 128 162 211 266 318 366
#     4  12  27  43  60  92 140 164 209 260 320 384
#     4  10  24  43  66  92 126 170 207 255 322 385
#
# _framework density 22.415710000000001
#
# number of rings (size 3 to 8) (size 9 to 14) (size 15 to 20)
#    0.000    1.455    3.636    2.455    0.000    4.364 
#    0.000    5.909    0.000    0.000    0.000    0.000 
#    0.000    0.000    0.000    0.000    0.000    0.000 
#
# Total GULP energy -122670.395841 kJ/mol
# GULP energy per Si atom -5575.927084 kJ/mol
# Density = 2.236469 g / cm^3
# Si number density = 22.415710 Si / 1000 Ang^3
#
#
#
# Elastic Constant Matrix: (Units=GPa)
#
#
# Indices 1 2 3 4 5 6 
#
# 1 166.3269 40.7347 23.3886 0.0000 30.4697 0.0000
# 2 40.7347 135.2853 17.7190 0.0000 18.8365 0.0000
# 3 23.3886 17.7190 62.1004 0.0000 2.6623 0.0000
# 4 0.0000 0.0000 0.0000 -8.0356 0.0000 10.1126
# 5 30.4697 18.8365 2.6623 0.0000 38.1862 0.0000
# 6 0.0000 0.0000 0.0000 10.1126 0.0000 20.6717
#
#
#
# Elastic Compliance Matrix: (Units=1/GPa)
#
#
# Indices 1 2 3 4 5 6 
#
# 1 0.007610 -0.001256 -0.002281 0.000000 -0.005294 0.000000
# 2 -0.001256 0.008428 -0.001802 0.000000 -0.003030 0.000000
# 3 -0.002281 -0.001802 0.017412 0.000000 0.001495 0.000000
# 4 0.000000 0.000000 0.000000 -0.077026 0.000000 0.037681
# 5 -0.005294 -0.003030 0.001495 0.000000 0.031802 0.000000
# 6 0.000000 0.000000 0.000000 0.037681 0.000000 0.029942
#
#
# Mechanical properties :
#
#
# Convention : Reuss Voigt Hill
#
# Bulk Modulus (GPa) = 43.91149 58.59969 51.25559
# Shear Modulus (GPa) = 137.22555 28.95581 83.09068
#
# Velocity S-wave (km/s) = 7.83271 3.59801 6.09496
# Velocity P-wave (km/s) = 10.07144 6.59241 8.51158
#
# Compressibility (1/GPa) = 0.02277308
#
# Stress axis : x y z
#
# Youngs Moduli (GPa) = 131.39991 118.65634 57.43140
#
# Poissons Ratio (x) = 0.14899 0.13100
# Poissons Ratio (y) = 0.16499 0.10348
# Poissons Ratio (z) = 0.29973 0.21381
#
# Static dielectric constant tensor:
#      x y z
#    x 1.888000 0.000000 0.008920 
#    y 0.000000 1.775880 0.000000 
#    z 0.008920 0.000000 1.874280 
# 
# From -- ./inp_files/133496.got.cif
#   From: 2010.05.17/outbox.cif.g08.bks.cpg/sg12_67_cif.got.tgz:133496.got - 2010.06.03 13:09:07.
