data_PCOD9200594
_publ_section_title
;
Structure prediction by ZEFSAII (Michael W. Deem and Ramdas Pophale) SiO2 
 PCOD9200594
Probable space group: C 2/M
;
_chemical_formula_sum "Si O2"
_cell_formula_units_Z 64
_cell_length_a 32.271271
_cell_length_b 7.596231
_cell_length_c 12.353064
_cell_angle_alpha 90.000000
_cell_angle_beta 90.101244
_cell_angle_gamma 90.000000
_cell_volume 3028.225742
_symmetry_space_group_name_H-M "C 2/M"
_symmetry_group_IT_number 12
_symmetry_cell_setting 'monoclinic'
loop_
_space_group_symop_operation_xyz
x,y,z
-x,y,-z
-x,-y,-z
x,-y,z
1/2+x,1/2+y,z
1/2-x,1/2+y,-z
1/2-x,1/2-y,-z
1/2+x,1/2-y,z
loop_
_atom_site_type_symbol
_atom_site_label
_atom_site_fract_x
_atom_site_fract_y
_atom_site_fract_z
Si Si1 0.827938 0.215757 0.271843
Si Si2 0.952297 0.712790 0.002105
Si Si3 0.498149 0.289660 0.376806
Si Si4 0.421772 0.212827 0.768080
Si Si5 0.670609 0.202768 0.259711
Si Si6 0.201755 0.790860 0.492421
Si Si7 0.079543 0.794603 0.763897
Si Si8 0.750185 0.288249 0.872235
O O1 0.817678 0.267630 0.394525
O O2 0.874285 0.279904 0.247955
O O3 0.791355 0.274935 0.190256
O O4 0.827593 0.000000 0.266926
O O5 0.950490 0.500000 0.006519
O O6 0.932392 0.770475 0.889731
O O7 0.932129 0.781954 0.110748
O O8 0.000000 0.766374 0.000000
O O9 0.500000 0.220866 0.500000
O O10 0.492784 0.500000 0.383783
O O11 0.541119 0.261849 0.312857
O O12 0.458581 0.220065 0.307895
O O13 0.375573 0.280179 0.743712
O O14 0.421275 0.000000 0.765799
O O15 0.684527 0.206091 0.383952
O O16 0.707958 0.279680 0.186956
O O17 0.666422 0.000000 0.222891
O O18 0.250000 0.750000 0.500000
O O19 0.195421 0.000000 0.482614
O O20 0.082772 0.000000 0.733277
O O21 0.750381 0.500000 0.859281
O O22 0.750000 0.250000 0.000000
#
# Coordination Sequence:
#
# PCOD9200594 Si02
#       8
#     8   8   8   8   8   8   8   8
#     4   9  20  38  58  81 113 151 184 230 288 334
#     4  10  20  37  59  81 110 148 190 234 286 341
#     4  10  22  38  57  83 116 149 188 236 283 339
#     4  10  22  39  59  83 115 153 190 234 287 341
#     4  10  22  40  59  84 118 153 191 238 290 337
#     4  11  21  38  64  87 115 152 193 238 287 341
#     4  10  21  37  58  83 111 147 190 234 283 335
#     4  10  21  39  58  80 115 151 186 232 285 338
#
# _framework density 21.134487
#
# number of rings (size 3 to 8) (size 9 to 14) (size 15 to 20)
#    0.000    2.000    2.500    0.375    3.500    2.000 
#    0.000    1.250    0.000    0.000    0.000    0.000 
#    0.000    0.000    0.000    0.000    0.000    0.000 
#
# Total GULP energy -178666.284747 kJ/mol
# GULP energy per Si atom -5583.321398 kJ/mol
# Density = 2.108638 g / cm^3
# Si number density = 21.134487 Si / 1000 Ang^3
#
#
#
# Elastic Constant Matrix: (Units=GPa)
#
#
# Indices 1 2 3 4 5 6 
#
# 1 226.5368 3.1653 116.0868 0.0000 -3.2470 0.0000
# 2 3.1653 44.9379 -4.8180 0.0000 -0.6618 0.0000
# 3 116.0868 -4.8180 176.9447 0.0000 -1.8176 0.0000
# 4 0.0000 0.0000 0.0000 32.6923 0.0000 2.6172
# 5 -3.2470 -0.6618 -1.8176 0.0000 39.3746 0.0000
# 6 0.0000 0.0000 0.0000 2.6172 0.0000 12.2249
#
#
#
# Elastic Compliance Matrix: (Units=1/GPa)
#
#
# Indices 1 2 3 4 5 6 
#
# 1 0.006694 -0.000940 -0.004414 0.000000 0.000332 0.000000
# 2 -0.000940 0.022456 0.001232 0.000000 0.000357 0.000000
# 3 -0.004414 0.001232 0.008581 0.000000 0.000053 0.000000
# 4 0.000000 0.000000 0.000000 0.031122 0.000000 -0.006663
# 5 0.000332 0.000357 0.000053 0.000000 0.025433 0.000000
# 6 0.000000 0.000000 0.000000 -0.006663 0.000000 0.083226
#
#
# Mechanical properties :
#
#
# Convention : Reuss Voigt Hill
#
# Bulk Modulus (GPa) = 33.91232 75.25420 54.58326
# Shear Modulus (GPa) = 25.56418 39.12404 32.34411
#
# Velocity S-wave (km/s) = 3.48170 4.30722 3.91627
# Velocity P-wave (km/s) = 5.67836 7.77308 6.80678
#
# Compressibility (1/GPa) = 0.02948780
#
# Stress axis : x y z
#
# Youngs Moduli (GPa) = 149.38627 44.53067 116.53168
#
# Poissons Ratio (x) = 0.04185 0.51436
# Poissons Ratio (y) = 0.14040 -0.14354
# Poissons Ratio (z) = 0.65938 -0.05485
#
# Static dielectric constant tensor:
#      x y z
#    x 1.753970 0.000000 0.010150 
#    y 0.000000 1.818100 0.000000 
#    z 0.010150 0.000000 1.693780 
# 
# From -- ./inp_files/187552.got.cif
#   From: 2010.05.17/outbox.cif.g08.bks.cpg/sg12_94_cif.got.tgz:187552.got - 2010.06.03 13:09:07.
