data_PCOD9200174
_publ_section_title
;
Structure prediction by ZEFSAII (Michael W. Deem and Ramdas Pophale) SiO2 
 PCOD9200174
Probable space group: C 2/M
;
_chemical_formula_sum "Si O2"
_cell_formula_units_Z 56
_cell_length_a 22.188347
_cell_length_b 19.369258
_cell_length_c 15.105144
_cell_angle_alpha 90.000000
_cell_angle_beta 21.497740
_cell_angle_gamma 90.000000
_cell_volume 2379.001658
_symmetry_space_group_name_H-M "C 2/M"
_symmetry_group_IT_number 12
_symmetry_cell_setting 'monoclinic'
loop_
_space_group_symop_operation_xyz
x,y,z
-x,y,-z
-x,-y,-z
x,-y,z
1/2+x,1/2+y,z
1/2-x,1/2+y,-z
1/2-x,1/2-y,-z
1/2+x,1/2-y,z
loop_
_atom_site_type_symbol
_atom_site_label
_atom_site_fract_x
_atom_site_fract_y
_atom_site_fract_z
Si Si1 0.342324 0.850811 0.034785
Si Si2 0.845150 0.823237 0.871863
Si Si3 0.249516 0.580377 0.165177
Si Si4 0.597488 0.922377 0.553939
Si Si5 0.947008 0.243486 0.160194
Si Si6 0.279075 0.361855 0.613157
Si Si7 0.626407 0.400060 0.689470
O O1 0.187364 0.850246 0.182486
O O2 0.294951 0.886546 0.192037
O O3 0.483270 0.880494 0.777762
O O4 0.410697 0.775860 0.973593
O O5 0.761521 0.871722 0.061712
O O6 0.041336 0.826535 0.618204
O O7 0.750000 0.750000 0.000000
O O8 0.211232 0.500000 0.197616
O O9 0.435563 0.582237 0.948978
O O10 0.867624 0.604346 0.593432
O O11 0.769726 0.925987 0.370903
O O12 0.531545 0.000000 0.635831
O O13 0.847200 0.305056 0.251421
O O14 0.854732 0.183530 0.336703
O O15 0.000000 0.202236 0.000000
O O16 0.301123 0.418298 0.506181
#
# Coordination Sequence:
#
# PCOD9200174 Si02
#       7
#     8   8   8   8   8   8   8
#     4  11  23  42  61  94 134 175 217 277 333 404
#     4  11  25  44  66  99 132 177 229 280 337 408
#     4  10  23  44  67  95 134 178 224 279 342 407
#     4  11  24  40  65  96 131 174 226 280 333 400
#     4  10  20  36  65  97 135 169 212 274 342 399
#     4  10  22  40  64  94 138 172 215 273 339 405
#     4  11  20  37  65 100 131 171 220 275 341 406
#
# _framework density 23.539285
#
# number of rings (size 3 to 8) (size 9 to 14) (size 15 to 20)
#    0.000    1.429    1.429    4.286    2.000    3.429 
#    2.571    5.714    0.000    4.286    0.000    0.000 
#    0.000    0.000    0.000    0.000    0.000    0.000 
#
# Total GULP energy -156302.099748 kJ/mol
# GULP energy per Si atom -5582.217848 kJ/mol
# Density = 2.348571 g / cm^3
# Si number density = 23.539285 Si / 1000 Ang^3
#
#
#
# Elastic Constant Matrix: (Units=GPa)
#
#
# Indices 1 2 3 4 5 6 
#
# 1 175.1249 30.4912 53.0547 -0.0023 20.2790 0.0032
# 2 30.4912 69.0455 22.4542 -0.0117 8.5387 0.0081
# 3 53.0547 22.4542 100.6868 -0.0197 15.3765 0.0146
# 4 -0.0023 -0.0117 -0.0197 -31.8645 0.0066 34.3583
# 5 20.2790 8.5387 15.3765 0.0066 67.4012 -0.0057
# 6 0.0032 0.0081 0.0146 34.3583 -0.0057 -16.8285
#
#
#
# Elastic Compliance Matrix: (Units=1/GPa)
#
#
# Indices 1 2 3 4 5 6 
#
# 1 0.007145 -0.001988 -0.003141 0.000000 -0.001181 -0.000002
# 2 -0.001988 0.016267 -0.002442 -0.000001 -0.000906 0.000003
# 3 -0.003141 -0.002442 0.012371 -0.000003 -0.001568 0.000004
# 4 0.000000 -0.000001 -0.000003 0.026121 0.000003 0.053330
# 5 -0.001181 -0.000906 -0.001568 0.000003 0.015664 -0.000002
# 6 -0.000002 0.000003 0.000004 0.053330 -0.000002 0.049459
#
#
# Mechanical properties :
#
#
# Convention : Reuss Voigt Hill
#
# Bulk Modulus (GPa) = 48.44681 61.87307 55.15994
# Shear Modulus (GPa) = 33.54612 19.66545 26.60579
#
# Velocity S-wave (km/s) = 3.77916 2.89352 3.36560
# Velocity P-wave (km/s) = 6.29831 6.12416 6.21185
#
# Compressibility (1/GPa) = 0.02064119
#
# Stress axis : x y z
#
# Youngs Moduli (GPa) = 139.96490 61.47364 80.83454
#
# Poissons Ratio (x) = 0.12218 0.25391
# Poissons Ratio (y) = 0.27819 0.19741
# Poissons Ratio (z) = 0.43964 0.15013
#
# Static dielectric constant tensor:
#      x y z
#    x 1.953920 0.000000 0.046970 
#    y 0.000000 1.902190 0.000000 
#    z 0.046970 0.000000 1.994820 
# 
# From -- ./inp_files/290811.got.cif
#   From: 2010.05.17/outbox.cif.g08.bks.cpg/sg12_146_cif.got.tgz:290811.got - 2010.06.03 13:09:07.
