data_PCOD9200921
_publ_section_title
;
Structure prediction by ZEFSAII (Michael W. Deem and Ramdas Pophale) SiO2 
 PCOD9200921
Probable space group: C 2/M
;
_chemical_formula_sum "Si O2"
_cell_formula_units_Z 56
_cell_length_a 16.774627
_cell_length_b 7.658741
_cell_length_c 23.333547
_cell_angle_alpha 90.000000
_cell_angle_beta 122.591330
_cell_angle_gamma 90.000000
_cell_volume 2525.680484
_symmetry_space_group_name_H-M "C 2/M"
_symmetry_group_IT_number 12
_symmetry_cell_setting 'monoclinic'
loop_
_space_group_symop_operation_xyz
x,y,z
-x,y,-z
-x,-y,-z
x,-y,z
1/2+x,1/2+y,z
1/2-x,1/2+y,-z
1/2-x,1/2-y,-z
1/2+x,1/2-y,z
loop_
_atom_site_type_symbol
_atom_site_label
_atom_site_fract_x
_atom_site_fract_y
_atom_site_fract_z
Si Si1 0.436237 0.210733 0.421567
Si Si2 0.018154 0.713527 0.071580
Si Si3 0.215068 0.291516 0.346138
Si Si4 0.803016 0.713834 0.787502
Si Si5 0.380411 0.296417 0.219204
Si Si6 0.451166 0.799246 0.645871
Si Si7 0.161246 0.707952 0.925256
O O1 0.500000 0.264822 0.500000
O O2 0.327582 0.263603 0.389732
O O3 0.487787 0.276699 0.383359
O O4 0.434450 0.000000 0.418259
O O5 0.018462 0.500000 0.070862
O O6 0.932503 0.770421 0.078598
O O7 0.116556 0.770109 0.137244
O O8 0.000000 0.772373 0.000000
O O9 0.200259 0.500000 0.340804
O O10 0.179770 0.226377 0.270440
O O11 0.148784 0.221072 0.371685
O O12 0.802080 0.500000 0.787479
O O13 0.700712 0.772114 0.769746
O O14 0.396045 0.500000 0.236869
O O15 0.478857 0.204971 0.272080
O O16 0.340433 0.279665 0.139619
O O17 0.432732 0.000000 0.621987
O O18 0.156204 0.500000 0.917819
O O19 0.250000 0.750000 0.000000
#
# Coordination Sequence:
#
# PCOD9200921 Si02
#       7
#     8   8   8   8   8   8   8
#     4  10  22  40  60  87 125 160 192 244 311 364
#     4   9  17  31  52  76 103 141 189 234 281 339
#     4  10  20  37  60  86 115 156 207 248 286 351
#     4   9  17  31  53  80 108 141 188 241 285 337
#     4  11  21  35  58  85 114 148 191 243 298 353
#     4  10  21  38  61  87 119 157 199 243 296 358
#     4  11  22  36  55  79 110 148 192 242 299 356
#
# _framework density 22.172243000000002
#
# number of rings (size 3 to 8) (size 9 to 14) (size 15 to 20)
#    0.000    2.000    1.429    2.571    0.000    6.000 
#    0.000    0.000    0.000   10.286    0.000    0.000 
#    0.000    0.000    0.000    0.000    0.000    0.000 
#
# Total GULP energy -156390.054683 kJ/mol
# GULP energy per Si atom -5585.359096 kJ/mol
# Density = 2.212178 g / cm^3
# Si number density = 22.172243 Si / 1000 Ang^3
#
#
#
# Elastic Constant Matrix: (Units=GPa)
#
#
# Indices 1 2 3 4 5 6 
#
# 1 180.6457 5.3721 52.1350 0.0000 2.0930 0.0000
# 2 5.3721 47.0920 -6.1268 0.0000 -4.7152 0.0000
# 3 52.1350 -6.1268 108.9191 0.0000 3.0196 0.0000
# 4 0.0000 0.0000 0.0000 12.7842 0.0000 2.5812
# 5 2.0930 -4.7152 3.0196 0.0000 27.7713 0.0000
# 6 0.0000 0.0000 0.0000 2.5812 0.0000 14.8521
#
#
#
# Elastic Compliance Matrix: (Units=1/GPa)
#
#
# Indices 1 2 3 4 5 6 
#
# 1 0.006488 -0.001186 -0.003163 0.000000 -0.000347 0.000000
# 2 -0.001186 0.021955 0.001702 0.000000 0.003632 0.000000
# 3 -0.003163 0.001702 0.010809 0.000000 -0.000648 0.000000
# 4 0.000000 0.000000 0.000000 0.081066 0.000000 -0.014089
# 5 -0.000347 0.003632 -0.000648 0.000000 0.036722 0.000000
# 6 0.000000 0.000000 0.000000 -0.014089 0.000000 0.069779
#
#
# Mechanical properties :
#
#
# Convention : Reuss Voigt Hill
#
# Bulk Modulus (GPa) = 29.44770 48.82417 39.13594
# Shear Modulus (GPa) = 20.53964 30.09993 25.31978
#
# Velocity S-wave (km/s) = 3.04693 3.68849 3.38295
# Velocity P-wave (km/s) = 5.06839 6.34099 5.74007
#
# Compressibility (1/GPa) = 0.03395850
#
# Stress axis : x y z
#
# Youngs Moduli (GPa) = 154.13772 45.54671 92.51897
#
# Poissons Ratio (x) = 0.05403 0.29259
# Poissons Ratio (y) = 0.18284 -0.15748
# Poissons Ratio (z) = 0.48746 -0.07753
#
# Static dielectric constant tensor:
#      x y z
#    x 1.828390 0.000000 -0.018250 
#    y 0.000000 1.826410 0.000000 
#    z -0.018250 0.000000 1.842070 
# 
# From -- ./inp_files/339071.got.cif
#   From: 2010.05.17/outbox.cif.g08.bks.cpg/sg12_170_cif.got.tgz:339071.got - 2010.06.03 13:09:07.
