data_PCOD9200845
_publ_section_title
;
Structure prediction by ZEFSAII (Michael W. Deem and Ramdas Pophale) SiO2 
 PCOD9200845
Probable space group: C 2/M
;
_chemical_formula_sum "Si O2"
_cell_formula_units_Z 56
_cell_length_a 20.830408
_cell_length_b 8.526647
_cell_length_c 33.179323
_cell_angle_alpha 90.000000
_cell_angle_beta 150.890879
_cell_angle_gamma 90.000000
_cell_volume 2866.841187
_symmetry_space_group_name_H-M "C 2/M"
_symmetry_group_IT_number 12
_symmetry_cell_setting 'monoclinic'
loop_
_space_group_symop_operation_xyz
x,y,z
-x,y,-z
-x,-y,-z
x,-y,z
1/2+x,1/2+y,z
1/2-x,1/2+y,-z
1/2-x,1/2-y,-z
1/2+x,1/2-y,z
loop_
_atom_site_type_symbol
_atom_site_label
_atom_site_fract_x
_atom_site_fract_y
_atom_site_fract_z
Si Si1 0.665802 0.687979 0.343751
Si Si2 0.871197 0.190997 0.304891
Si Si3 0.110986 0.810751 0.029271
Si Si4 0.663772 0.688200 0.489958
Si Si5 0.392053 0.688215 0.064505
Si Si6 0.125400 0.189618 0.786032
Si Si7 0.849469 0.311956 0.753106
O O1 0.668418 0.500000 0.345940
O O2 0.771349 0.751318 0.433483
O O3 0.518495 0.738694 0.276896
O O4 0.689790 0.748423 0.312041
O O5 0.858125 0.242098 0.251360
O O6 0.752684 0.243075 0.268546
O O7 0.012847 0.239504 0.400227
O O8 0.870015 0.000000 0.303717
O O9 0.254386 0.752785 0.121640
O O10 0.111152 0.000000 0.030139
O O11 0.081871 0.761407 0.967474
O O12 0.000000 0.754888 0.000000
O O13 0.666499 0.500000 0.491047
O O14 0.750000 0.750000 0.500000
O O15 0.392648 0.500000 0.066533
O O16 0.505841 0.753245 0.155568
O O17 0.250000 0.750000 0.000000
O O18 0.129068 0.000000 0.788902
O O19 0.848311 0.500000 0.751546
#
# Coordination Sequence:
#
# PCOD9200845 Si02
#       7
#     8   8   8   8   8   8   8
#     4  11  23  40  61  88 123 156 197 247 297 355
#     4   9  20  39  61  86 120 159 197 244 300 361
#     4  10  22  38  56  83 117 149 188 243 299 347
#     4  11  21  39  64  91 122 157 201 246 299 356
#     4  11  23  40  61  85 119 159 200 246 299 358
#     4  10  20  37  60  84 112 152 198 241 289 350
#     4  11  23  40  62  88 119 157 202 247 301 360
#
# _framework density 19.533694000000001
#
# number of rings (size 3 to 8) (size 9 to 14) (size 15 to 20)
#    0.000    1.571    1.429    3.429    0.000    5.429 
#    0.000    6.429    0.000    0.000    0.000    0.000 
#    0.000    0.000    0.000    0.000    0.000    0.000 
#
# Total GULP energy -156549.495045 kJ/mol
# GULP energy per Si atom -5591.053394 kJ/mol
# Density = 1.948923 g / cm^3
# Si number density = 19.533694 Si / 1000 Ang^3
#
#
#
# Elastic Constant Matrix: (Units=GPa)
#
#
# Indices 1 2 3 4 5 6 
#
# 1 65.6895 10.5397 -11.2346 -0.0001 -11.6550 0.0002
# 2 10.5397 31.7727 10.0707 0.0003 -4.5924 -0.0003
# 3 -11.2346 10.0707 82.9070 -0.0001 -13.4788 0.0003
# 4 -0.0001 0.0003 -0.0001 34.7430 0.0000 -3.3717
# 5 -11.6550 -4.5924 -13.4788 0.0000 40.3054 0.0001
# 6 0.0002 -0.0003 0.0003 -3.3717 0.0001 27.3575
#
#
#
# Elastic Compliance Matrix: (Units=1/GPa)
#
#
# Indices 1 2 3 4 5 6 
#
# 1 0.018015 -0.006452 0.004180 0.000000 0.005872 0.000000
# 2 -0.006452 0.035292 -0.005087 0.000000 0.000454 0.000001
# 3 0.004180 -0.005087 0.014116 0.000000 0.005349 0.000000
# 4 0.000000 0.000000 0.000000 0.029131 0.000000 0.003590
# 5 0.005872 0.000454 0.005349 0.000000 0.028349 0.000000
# 6 0.000000 0.000001 0.000000 0.003590 0.000000 0.036995
#
#
# Mechanical properties :
#
#
# Convention : Reuss Voigt Hill
#
# Bulk Modulus (GPa) = 18.97423 22.12453 20.54938
# Shear Modulus (GPa) = 25.74852 31.88074 28.81463
#
# Velocity S-wave (km/s) = 3.63458 4.04430 3.84490
# Velocity P-wave (km/s) = 5.22956 5.75842 5.50035
#
# Compressibility (1/GPa) = 0.05270307
#
# Stress axis : x y z
#
# Youngs Moduli (GPa) = 55.50946 28.33503 70.84288
#
# Poissons Ratio (x) = 0.18282 -0.29609
# Poissons Ratio (y) = 0.35815 0.36040
# Poissons Ratio (z) = -0.23200 0.14415
#
# Static dielectric constant tensor:
#      x y z
#    x 1.677430 0.000000 0.000610 
#    y 0.000000 1.665650 0.000000 
#    z 0.000610 0.000000 1.638160 
# 
# From -- ./inp_files/281641.got.cif
#   From: 2010.05.17/outbox.cif.g08.bks.cpg/sg12_141_cif.got.tgz:281641.got - 2010.06.03 13:09:07.
