data_PCOD9200460
_publ_section_title
;
Structure prediction by ZEFSAII (Michael W. Deem and Ramdas Pophale) SiO2 
 PCOD9200460
Probable space group: C 2/M
;
_chemical_formula_sum "Si O2"
_cell_formula_units_Z 40
_cell_length_a 24.316359
_cell_length_b 7.485022
_cell_length_c 17.467705
_cell_angle_alpha 90.000000
_cell_angle_beta 146.224522
_cell_angle_gamma 90.000000
_cell_volume 1767.483346
_symmetry_space_group_name_H-M "C 2/M"
_symmetry_group_IT_number 12
_symmetry_cell_setting 'monoclinic'
loop_
_space_group_symop_operation_xyz
x,y,z
-x,y,-z
-x,-y,-z
x,-y,z
1/2+x,1/2+y,z
1/2-x,1/2+y,-z
1/2-x,1/2-y,-z
1/2+x,1/2-y,z
loop_
_atom_site_type_symbol
_atom_site_label
_atom_site_fract_x
_atom_site_fract_y
_atom_site_fract_z
Si Si1 0.408249 0.718266 0.842292
Si Si2 0.689205 0.213927 0.853006
Si Si3 0.032899 0.295020 0.414739
Si Si4 0.719250 0.781291 0.720004
Si Si5 0.633609 0.287566 0.373533
O O1 0.407339 0.500000 0.840324
O O2 0.305848 0.776323 0.763025
O O3 0.414689 0.775563 0.761781
O O4 0.500000 0.775034 0.000000
O O5 0.576236 0.283822 0.722047
O O6 0.737301 0.273403 0.828432
O O7 0.684079 0.000000 0.843347
O O8 0.750000 0.250000 0.000000
O O9 0.017938 0.500000 0.422319
O O10 0.112200 0.217980 0.566277
O O11 0.087495 0.294258 0.396093
O O12 0.718623 0.000000 0.716331
O O13 0.619654 0.500000 0.363955
O O14 0.750000 0.250000 0.500000
#
# Coordination Sequence:
#
# PCOD9200460 Si02
#       5
#     8   8   8   8   8
#     4   9  18  31  52  82 109 138 183 230 266 317
#     4  10  22  37  58  83 111 145 186 234 282 329
#     4  10  20  37  58  82 110 145 190 233 272 324
#     4   9  17  34  57  78 105 146 192 229 265 323
#     4  11  21  35  58  86 114 145 182 227 277 331
#
# _framework density 22.631048
#
# number of rings (size 3 to 8) (size 9 to 14) (size 15 to 20)
#    0.000    2.200    2.000    1.200    2.800    3.200 
#    0.000    1.000    0.000    4.800    0.000    0.000 
#    0.000    0.000    0.000    0.000    0.000    0.000 
#
# Total GULP energy -111754.929694 kJ/mol
# GULP energy per Si atom -5587.746485 kJ/mol
# Density = 2.257954 g / cm^3
# Si number density = 22.631048 Si / 1000 Ang^3
#
#
#
# Elastic Constant Matrix: (Units=GPa)
#
#
# Indices 1 2 3 4 5 6 
#
# 1 83.6040 -3.1696 26.3128 0.0000 -24.8156 0.0000
# 2 -3.1696 67.7614 0.8794 0.0000 -0.7720 0.0000
# 3 26.3128 0.8794 144.0595 0.0000 -28.8444 0.0000
# 4 0.0000 0.0000 0.0000 13.2372 0.0000 -5.0208
# 5 -24.8156 -0.7720 -28.8444 0.0000 46.0225 0.0000
# 6 0.0000 0.0000 0.0000 -5.0208 0.0000 12.5129
#
#
#
# Elastic Compliance Matrix: (Units=1/GPa)
#
#
# Indices 1 2 3 4 5 6 
#
# 1 0.014470 0.000773 -0.001238 0.000000 0.007039 0.000000
# 2 0.000773 0.014802 -0.000112 0.000000 0.000595 0.000000
# 3 -0.001238 -0.000112 0.008044 0.000000 0.004372 0.000000
# 4 0.000000 0.000000 0.000000 0.089106 0.000000 0.035754
# 5 0.007039 0.000595 0.004372 0.000000 0.028274 0.000000
# 6 0.000000 0.000000 0.000000 0.035754 0.000000 0.094264
#
#
# Mechanical properties :
#
#
# Convention : Reuss Voigt Hill
#
# Bulk Modulus (GPa) = 27.65481 38.16334 32.90908
# Shear Modulus (GPa) = 19.07176 32.44801 25.75988
#
# Velocity S-wave (km/s) = 2.90612 3.79064 3.37746
# Velocity P-wave (km/s) = 4.84841 6.00487 5.45736
#
# Compressibility (1/GPa) = 0.03616007
#
# Stress axis : x y z
#
# Youngs Moduli (GPa) = 69.11088 67.55812 124.31953
#
# Poissons Ratio (x) = -0.05223 0.15394
# Poissons Ratio (y) = -0.05343 0.01399
# Poissons Ratio (z) = 0.08557 0.00760
#
# Static dielectric constant tensor:
#      x y z
#    x 1.854950 0.000000 0.015910 
#    y 0.000000 1.879310 0.000000 
#    z 0.015910 0.000000 1.830670 
# 
# From -- ./inp_files/220553.got.cif
#   From: 2010.05.17/outbox.cif.g08.bks.cpg/sg12_111_cif.got.tgz:220553.got - 2010.06.03 13:09:07.
