data_PCOD9200965
_publ_section_title
;
Structure prediction by ZEFSAII (Michael W. Deem and Ramdas Pophale) SiO2 
 PCOD9200965
Probable space group: C 2/M
;
_chemical_formula_sum "Si O2"
_cell_formula_units_Z 40
_cell_length_a 8.221047
_cell_length_b 25.113198
_cell_length_c 11.480194
_cell_angle_alpha 90.000000
_cell_angle_beta 128.070367
_cell_angle_gamma 90.000000
_cell_volume 1865.921114
_symmetry_space_group_name_H-M "C 2/M"
_symmetry_group_IT_number 12
_symmetry_cell_setting 'monoclinic'
loop_
_space_group_symop_operation_xyz
x,y,z
-x,y,-z
-x,-y,-z
x,-y,z
1/2+x,1/2+y,z
1/2-x,1/2+y,-z
1/2-x,1/2-y,-z
1/2+x,1/2-y,z
loop_
_atom_site_type_symbol
_atom_site_label
_atom_site_fract_x
_atom_site_fract_y
_atom_site_fract_z
Si Si1 0.459629 0.559117 0.123345
Si Si2 0.761076 0.381592 0.422805
Si Si3 0.966991 0.783499 0.289607
Si Si4 0.197034 0.167737 0.997860
Si Si5 0.130767 0.326169 0.318554
O O1 0.383272 0.500000 0.118753
O O2 0.649949 0.573812 0.294500
O O3 0.500000 0.558515 0.000000
O O4 0.318757 0.610877 0.075814
O O5 0.645883 0.326302 0.342853
O O6 0.776065 0.376193 0.569891
O O7 0.000000 0.381186 0.500000
O O8 0.813871 0.804653 0.319541
O O9 0.057473 0.726026 0.358561
O O10 0.833161 0.786803 0.112284
O O11 0.416831 0.163384 0.157506
O O12 0.000000 0.171952 0.000000
#
# Coordination Sequence:
#
# PCOD9200965 Si02
#       5
#     8   8   8   8   8
#     4   9  19  38  63  89 114 145 192 250 305 355
#     4  11  22  37  58  86 119 154 195 244 293 348
#     4  11  23  37  57  85 124 166 199 234 287 352
#     4  10  20  37  60  87 119 156 200 246 290 346
#     4  12  22  37  57  86 123 160 201 241 290 347
#
# _framework density 21.437134
#
# number of rings (size 3 to 8) (size 9 to 14) (size 15 to 20)
#    0.000    1.400    0.000    8.400    0.000    0.400 
#    0.000    1.000    0.000   19.200    0.000    2.800 
#    0.000    0.000    0.000    0.000    0.000    0.000 
#
# Total GULP energy -111388.457337 kJ/mol
# GULP energy per Si atom -5569.422867 kJ/mol
# Density = 2.138834 g / cm^3
# Si number density = 21.437134 Si / 1000 Ang^3
#
#
#
# Elastic Constant Matrix: (Units=GPa)
#
#
# Indices 1 2 3 4 5 6 
#
# 1 69.1415 12.5548 17.2725 0.0000 -12.8327 0.0000
# 2 12.5548 58.1100 32.3989 0.0000 4.7486 0.0000
# 3 17.2725 32.3989 158.5363 0.0000 11.9058 0.0000
# 4 0.0000 0.0000 0.0000 17.2871 0.0000 1.8172
# 5 -12.8327 4.7486 11.9058 0.0000 26.2084 0.0000
# 6 0.0000 0.0000 0.0000 1.8172 0.0000 2.4362
#
#
#
# Elastic Compliance Matrix: (Units=1/GPa)
#
#
# Indices 1 2 3 4 5 6 
#
# 1 0.017453 -0.003512 -0.001940 0.000000 0.010063 0.000000
# 2 -0.003512 0.020208 -0.003461 0.000000 -0.003809 0.000000
# 3 -0.001940 -0.003461 0.007507 0.000000 -0.003733 0.000000
# 4 0.000000 0.000000 0.000000 0.062768 0.000000 -0.046820
# 5 0.010063 -0.003809 -0.003733 0.000000 0.045469 0.000000
# 6 0.000000 0.000000 0.000000 -0.046820 0.000000 0.445391
#
#
# Mechanical properties :
#
#
# Convention : Reuss Voigt Hill
#
# Bulk Modulus (GPa) = 36.57220 45.58225 41.07722
# Shear Modulus (GPa) = 7.99060 24.09046 16.04053
#
# Velocity S-wave (km/s) = 1.93276 3.35591 2.73840
# Velocity P-wave (km/s) = 4.69872 6.02707 5.40387
#
# Compressibility (1/GPa) = 0.02734317
#
# Stress axis : x y z
#
# Youngs Moduli (GPa) = 57.29674 49.48414 133.21466
#
# Poissons Ratio (x) = 0.17377 0.25838
# Poissons Ratio (y) = 0.20121 0.46109
# Poissons Ratio (z) = 0.11113 0.17128
#
# Static dielectric constant tensor:
#      x y z
#    x 1.822710 0.000000 -0.075780 
#    y 0.000000 1.773560 0.000000 
#    z -0.075780 0.000000 1.960690 
# 
# From -- ./inp_files/40348.got.cif
#   From: 2010.05.17/outbox.cif.g08.bks.cpg/sg12_21_cif.got.tgz:40348.got - 2010.06.03 13:09:07.
