data_PCOD9200663
_publ_section_title
;
Structure prediction by ZEFSAII (Michael W. Deem and Ramdas Pophale) SiO2 
 PCOD9200663
Probable space group: C 2/M
;
_chemical_formula_sum "Si O2"
_cell_formula_units_Z 36
_cell_length_a 12.747701
_cell_length_b 22.475777
_cell_length_c 5.210119
_cell_angle_alpha 90.000000
_cell_angle_beta 77.311433
_cell_angle_gamma 90.000000
_cell_volume 1456.318609
_symmetry_space_group_name_H-M "C 2/M"
_symmetry_group_IT_number 12
_symmetry_cell_setting 'monoclinic'
loop_
_space_group_symop_operation_xyz
x,y,z
-x,y,-z
-x,-y,-z
x,-y,z
1/2+x,1/2+y,z
1/2-x,1/2+y,-z
1/2-x,1/2-y,-z
1/2+x,1/2-y,z
loop_
_atom_site_type_symbol
_atom_site_label
_atom_site_fract_x
_atom_site_fract_y
_atom_site_fract_z
Si Si1 0.845404 0.764794 0.244562
Si Si2 0.500000 0.646555 0.000000
Si Si3 0.276208 0.845922 0.096523
Si Si4 0.617295 0.568705 0.305353
Si Si5 0.431421 0.068038 0.774653
O O1 0.750000 0.750000 0.500000
O O2 0.869803 0.697072 0.152607
O O3 0.798207 0.800796 0.024832
O O4 0.948284 0.807403 0.237091
O O5 0.588566 0.599358 0.049936
O O6 0.210010 0.885024 0.341136
O O7 0.328420 0.892932 0.880470
O O8 0.500000 0.570502 0.500000
O O9 0.652335 0.500000 0.280487
O O10 0.500000 0.090903 0.500000
O O11 0.400871 0.000000 0.731758
O O12 0.500000 0.067784 0.000000
#
# Coordination Sequence:
#
# PCOD9200663 Si02
#       5
#     8   4   8   8   8
#     4  10  22  37  56  86 119 155 205 246 302 366
#     4  10  21  36  56  82 115 150 190 246 292 358
#     4  10  22  37  59  87 118 160 200 253 306 363
#     4  10  20  37  59  84 115 150 195 243 300 359
#     4  10  23  42  64  94 126 161 208 257 310 371
#
# _framework density 24.719867000000001
#
# number of rings (size 3 to 8) (size 9 to 14) (size 15 to 20)
#    0.000    2.000    0.000    2.333    4.667    0.000 
#    0.000    2.222    0.000    0.000    0.000    0.000 
#    0.000    0.000    0.000    0.000    0.000    0.000 
#
# Total GULP energy -100260.799220 kJ/mol
# GULP energy per Si atom -5570.044401 kJ/mol
# Density = 2.466360 g / cm^3
# Si number density = 24.719867 Si / 1000 Ang^3
#
#
#
# Elastic Constant Matrix: (Units=GPa)
#
#
# Indices 1 2 3 4 5 6 
#
# 1 49.5945 44.2147 17.5241 0.0000 -19.7647 0.0000
# 2 44.2147 178.4878 38.1895 0.0000 -29.9201 0.0000
# 3 17.5241 38.1895 103.5349 0.0000 -33.1194 0.0000
# 4 0.0000 0.0000 0.0000 32.5079 0.0000 -29.5859
# 5 -19.7647 -29.9201 -33.1194 0.0000 41.3070 0.0000
# 6 0.0000 0.0000 0.0000 -29.5859 0.0000 29.7190
#
#
#
# Elastic Compliance Matrix: (Units=1/GPa)
#
#
# Indices 1 2 3 4 5 6 
#
# 1 0.029050 -0.005575 0.000395 0.000000 0.010179 0.000000
# 2 -0.005575 0.007555 -0.001272 0.000000 0.001785 0.000000
# 3 0.000395 -0.001272 0.013216 0.000000 0.009864 0.000000
# 4 0.000000 0.000000 0.000000 0.327385 0.000000 0.325920
# 5 0.010179 0.001785 0.009864 0.000000 0.038282 0.000000
# 6 0.000000 0.000000 0.000000 0.325920 0.000000 0.358109
#
#
# Mechanical properties :
#
#
# Convention : Reuss Voigt Hill
#
# Bulk Modulus (GPa) = 27.08616 59.05263 43.06940
# Shear Modulus (GPa) = 6.25934 36.15270 21.20602
#
# Velocity S-wave (km/s) = 1.59299 3.82841 2.93209
# Velocity P-wave (km/s) = 3.79005 6.59415 5.37807
#
# Compressibility (1/GPa) = 0.03691922
#
# Stress axis : x y z
#
# Youngs Moduli (GPa) = 34.42292 132.36357 75.66355
#
# Poissons Ratio (x) = 0.73787 -0.02992
# Poissons Ratio (y) = 0.19189 0.09626
# Poissons Ratio (z) = -0.01361 0.16839
#
# Static dielectric constant tensor:
#      x y z
#    x 2.206600 0.000000 -0.000670 
#    y 0.000000 1.957180 0.000000 
#    z -0.000670 0.000000 1.997580 
# 
# From -- ./inp_files/10732.got.cif
#   From: 2010.05.17/outbox.cif.g08.bks.cpg/sg12_6_cif.got.tgz:10732.got - 2010.06.03 13:09:07.
