data_PCOD9200505
_publ_section_title
;
Structure prediction by ZEFSAII (Michael W. Deem and Ramdas Pophale) SiO2 
 PCOD9200505
Probable space group: C 2/M
;
_chemical_formula_sum "Si O2"
_cell_formula_units_Z 52
_cell_length_a 17.386012
_cell_length_b 8.737331
_cell_length_c 22.221264
_cell_angle_alpha 90.000000
_cell_angle_beta 54.623552
_cell_angle_gamma 90.000000
_cell_volume 2752.327051
_symmetry_space_group_name_H-M "C 2/M"
_symmetry_group_IT_number 12
_symmetry_cell_setting 'monoclinic'
loop_
_space_group_symop_operation_xyz
x,y,z
-x,y,-z
-x,-y,-z
x,-y,z
1/2+x,1/2+y,z
1/2-x,1/2+y,-z
1/2-x,1/2-y,-z
1/2+x,1/2-y,z
loop_
_atom_site_type_symbol
_atom_site_label
_atom_site_fract_x
_atom_site_fract_y
_atom_site_fract_z
Si Si1 0.570896 0.815525 0.019547
Si Si2 0.957068 0.316106 0.832665
Si Si3 0.711072 0.500000 0.423565
Si Si4 0.753470 0.320121 0.880131
Si Si5 0.604225 0.500000 0.596903
Si Si6 0.849204 0.233160 0.320468
Si Si7 0.389195 0.500000 0.652012
Si Si8 0.714750 0.174077 0.270938
O O1 0.542716 0.759446 0.098610
O O2 0.566046 0.000000 0.022480
O O3 0.500000 0.758863 0.000000
O O4 0.675792 0.767105 0.953740
O O5 0.953154 0.500000 0.836380
O O6 0.859782 0.264380 0.845578
O O7 0.050996 0.277230 0.754059
O O8 0.670421 0.500000 0.508604
O O9 0.779491 0.360821 0.377360
O O10 0.627310 0.500000 0.412368
O O11 0.748121 0.500000 0.898248
O O12 0.737037 0.306630 0.816106
O O13 0.625781 0.637810 0.632066
O O14 0.496746 0.500000 0.623712
O O15 0.788518 0.166683 0.292308
O O16 0.343323 0.335140 0.693958
O O17 0.668107 0.000000 0.289915
#
# Coordination Sequence:
#
# PCOD9200505 Si02
#       8
#     8   8   4   8   4   8   4   8
#     4  10  21  36  55  81 116 154 206 253 300 367
#     4  10  20  37  58  84 117 160 206 250 306 370
#     4  10  23  42  68  88 124 171 196 254 325 384
#     4  10  21  36  56  84 122 159 202 257 306 359
#     4  12  23  40  62 101 125 149 215 261 311 382
#     4  11  21  40  65  89 125 160 207 258 312 375
#     4  10  23  40  68  91 128 174 202 259 321 374
#     4  10  21  40  62  93 128 167 215 257 309 377
#
# _framework density 18.893101999999999
#
# number of rings (size 3 to 8) (size 9 to 14) (size 15 to 20)
#    0.000    1.692    1.538    3.000    1.077    0.308 
#    4.154    0.000    0.000    1.846    0.000    0.000 
#    0.000    0.000    0.000    0.000    0.000    0.000 
#
# Total GULP energy -144857.766319 kJ/mol
# GULP energy per Si atom -5571.452551 kJ/mol
# Density = 1.885010 g / cm^3
# Si number density = 18.893102 Si / 1000 Ang^3
#
#
#
# Elastic Constant Matrix: (Units=GPa)
#
#
# Indices 1 2 3 4 5 6 
#
# 1 99.5972 32.2709 49.3947 0.0000 5.3920 0.0001
# 2 32.2709 53.0412 30.8612 0.0000 2.6676 0.0003
# 3 49.3947 30.8612 137.6309 0.0000 16.9860 0.0000
# 4 0.0000 0.0000 0.0000 27.8521 0.0000 10.4832
# 5 5.3920 2.6676 16.9860 0.0000 34.3473 0.0000
# 6 0.0001 0.0003 0.0000 10.4832 0.0000 15.9320
#
#
#
# Elastic Compliance Matrix: (Units=1/GPa)
#
#
# Indices 1 2 3 4 5 6 
#
# 1 0.013864 -0.006369 -0.003557 0.000000 0.000077 0.000000
# 2 -0.006369 0.024627 -0.003327 0.000000 0.000732 -0.000001
# 3 -0.003557 -0.003327 0.009785 0.000000 -0.004022 0.000000
# 4 0.000000 0.000000 0.000000 0.047723 0.000000 -0.031402
# 5 0.000077 0.000732 -0.004022 0.000000 0.031034 0.000000
# 6 0.000000 -0.000001 0.000000 -0.031402 0.000000 0.083429
#
#
# Mechanical properties :
#
#
# Convention : Reuss Voigt Hill
#
# Bulk Modulus (GPa) = 45.93498 57.25810 51.59654
# Shear Modulus (GPa) = 20.47283 27.47577 23.97430
#
# Velocity S-wave (km/s) = 3.29540 3.81763 3.56609
# Velocity P-wave (km/s) = 6.23261 7.05724 6.65770
#
# Compressibility (1/GPa) = 0.02176990
#
# Stress axis : x y z
#
# Youngs Moduli (GPa) = 72.12857 40.60548 102.19984
#
# Poissons Ratio (x) = 0.25863 0.36353
# Poissons Ratio (y) = 0.45941 0.33998
# Poissons Ratio (z) = 0.25657 0.13508
#
# Static dielectric constant tensor:
#      x y z
#    x 1.657930 0.000000 0.013780 
#    y 0.000000 1.658690 0.000000 
#    z 0.013780 0.000000 1.606620 
# 
# From -- ./inp_files/314708.got.cif
#   From: 2010.05.17/outbox.cif.g08.bks.cpg/sg12_158_cif.got.tgz:314708.got - 2010.06.03 13:09:07.
