data_PCOD9200844
_publ_section_title
;
Structure prediction by ZEFSAII (Michael W. Deem and Ramdas Pophale) SiO2 
 PCOD9200844
Probable space group: C 2/M
;
_chemical_formula_sum "Si O2"
_cell_formula_units_Z 64
_cell_length_a 30.757199
_cell_length_b 7.666631
_cell_length_c 24.052134
_cell_angle_alpha 90.000000
_cell_angle_beta 149.059788
_cell_angle_gamma 90.000000
_cell_volume 2916.011115
_symmetry_space_group_name_H-M "C 2/M"
_symmetry_group_IT_number 12
_symmetry_cell_setting 'monoclinic'
loop_
_space_group_symop_operation_xyz
x,y,z
-x,y,-z
-x,-y,-z
x,-y,z
1/2+x,1/2+y,z
1/2-x,1/2+y,-z
1/2-x,1/2-y,-z
1/2+x,1/2-y,z
loop_
_atom_site_type_symbol
_atom_site_label
_atom_site_fract_x
_atom_site_fract_y
_atom_site_fract_z
Si Si1 0.515851 0.714176 0.260517
Si Si2 0.737872 0.204303 0.668481
Si Si3 0.698438 0.292512 0.499073
Si Si4 0.094433 0.213780 0.085315
Si Si5 0.758988 0.292004 0.944802
Si Si6 0.920699 0.800294 0.054960
Si Si7 0.049730 0.791436 0.499891
Si Si8 0.924531 0.212705 0.267882
O O1 0.516518 0.500000 0.259153
O O2 0.604327 0.773269 0.382612
O O3 0.493126 0.778024 0.174032
O O4 0.445941 0.767774 0.228753
O O5 0.732572 0.230141 0.595987
O O6 0.825186 0.276944 0.790433
O O7 0.649705 0.263214 0.600440
O O8 0.740187 0.000000 0.681325
O O9 0.693368 0.500000 0.499040
O O10 0.750000 0.250000 0.500000
O O11 0.096530 0.000000 0.090231
O O12 0.101381 0.274351 0.029046
O O13 0.000000 0.265804 0.000000
O O14 0.768992 0.500000 0.949405
O O15 0.669984 0.235993 0.819858
O O16 0.750000 0.250000 0.000000
O O17 0.837685 0.202658 0.002008
O O18 0.946898 0.000000 0.072707
O O19 0.000000 0.724833 0.500000
O O20 0.997199 0.725814 0.389000
O O21 0.039636 0.000000 0.489522
O O22 0.925825 0.000000 0.268985
#
# Coordination Sequence:
#
# PCOD9200844 Si02
#       8
#     8   8   8   8   8   8   8   8
#     4   9  17  33  59  84 110 147 193 240 288 350
#     4  11  23  40  62  92 125 156 198 254 305 355
#     4  11  23  40  64  92 119 153 195 244 301 361
#     4   9  21  40  63  86 114 159 210 248 291 357
#     4  11  21  34  54  82 117 151 187 234 287 348
#     4  10  20  37  60  84 112 151 200 247 289 343
#     4  10  21  38  61  84 114 163 208 241 292 363
#     4   9  17  33  53  78 110 149 196 236 280 351
#
# _framework density 21.947787999999999
#
# number of rings (size 3 to 8) (size 9 to 14) (size 15 to 20)
#    0.000    2.000    2.500    1.125    3.500    0.250 
#    0.000    4.375    0.000    1.875    0.000    0.000 
#    0.000    0.000    0.000    0.000    0.000    0.000 
#
# Total GULP energy -178572.836008 kJ/mol
# GULP energy per Si atom -5580.401125 kJ/mol
# Density = 2.189783 g / cm^3
# Si number density = 21.947788 Si / 1000 Ang^3
#
#
#
# Elastic Constant Matrix: (Units=GPa)
#
#
# Indices 1 2 3 4 5 6 
#
# 1 125.6832 -13.9021 71.3581 0.0000 -15.2757 0.0000
# 2 -13.9021 39.9383 -2.8123 0.0001 -2.0425 0.0000
# 3 71.3581 -2.8123 191.3891 0.0000 -22.7322 0.0000
# 4 0.0000 0.0001 0.0000 15.6774 0.0000 4.3664
# 5 -15.2757 -2.0425 -22.7322 0.0000 27.7403 0.0000
# 6 0.0000 0.0000 0.0000 4.3664 0.0000 19.0662
#
#
#
# Elastic Compliance Matrix: (Units=1/GPa)
#
#
# Indices 1 2 3 4 5 6 
#
# 1 0.010795 0.003673 -0.003581 0.000000 0.003280 0.000000
# 2 0.003673 0.026457 -0.000564 0.000000 0.003508 0.000000
# 3 -0.003581 -0.000564 0.006993 0.000000 0.003717 0.000000
# 4 0.000000 0.000000 0.000000 0.068132 0.000000 -0.015603
# 5 0.003280 0.003508 0.003717 0.000000 0.041159 0.000000
# 6 0.000000 0.000000 0.000000 -0.015603 0.000000 0.056022
#
#
# Mechanical properties :
#
#
# Convention : Reuss Voigt Hill
#
# Bulk Modulus (GPa) = 23.09419 51.81087 37.45253
# Shear Modulus (GPa) = 22.22853 32.65459 27.44156
#
# Velocity S-wave (km/s) = 3.18589 3.86143 3.53981
# Velocity P-wave (km/s) = 4.90697 6.59837 5.81450
#
# Compressibility (1/GPa) = 0.04330094
#
# Stress axis : x y z
#
# Youngs Moduli (GPa) = 92.63790 37.79727 142.99190
#
# Poissons Ratio (x) = -0.13883 0.51208
# Poissons Ratio (y) = -0.34027 0.08065
# Poissons Ratio (z) = 0.33175 0.02132
#
# Static dielectric constant tensor:
#      x y z
#    x 1.794270 0.000000 0.002720 
#    y 0.000000 1.880280 0.000000 
#    z 0.002720 0.000000 1.836630 
# 
# From -- ./inp_files/353542.got.cif
#   From: 2010.05.17/outbox.cif.g08.bks.cpg/sg12_177_cif.got.tgz:353542.got - 2010.06.03 13:09:07.
