data_PCOD9200757
_publ_section_title
;
Structure prediction by ZEFSAII (Michael W. Deem and Ramdas Pophale) SiO2 
 PCOD9200757
Probable space group: C 2/M
;
_chemical_formula_sum "Si O2"
_cell_formula_units_Z 44
_cell_length_a 28.059224
_cell_length_b 7.795894
_cell_length_c 12.645657
_cell_angle_alpha 90.000000
_cell_angle_beta 127.642043
_cell_angle_gamma 90.000000
_cell_volume 2190.389531
_symmetry_space_group_name_H-M "C 2/M"
_symmetry_group_IT_number 12
_symmetry_cell_setting 'monoclinic'
loop_
_space_group_symop_operation_xyz
x,y,z
-x,y,-z
-x,-y,-z
x,-y,z
1/2+x,1/2+y,z
1/2-x,1/2+y,-z
1/2-x,1/2-y,-z
1/2+x,1/2-y,z
loop_
_atom_site_type_symbol
_atom_site_label
_atom_site_fract_x
_atom_site_fract_y
_atom_site_fract_z
Si Si1 0.685435 0.194463 0.957478
Si Si2 0.903940 0.000000 0.212989
Si Si3 0.977749 0.000000 0.755488
Si Si4 0.594444 0.194850 0.253192
Si Si5 0.894573 0.000000 0.434209
Si Si6 0.314469 0.705080 0.801641
Si Si7 0.179051 0.301573 0.573017
O O1 0.636763 0.331901 0.854650
O O2 0.672164 0.000000 0.906694
O O3 0.750000 0.250000 0.000000
O O4 0.687352 0.207982 0.086943
O O5 0.926364 0.000000 0.364248
O O6 0.954118 0.000000 0.190464
O O7 0.956901 0.166713 0.792286
O O8 0.939753 0.000000 0.594361
O O9 0.630772 0.231851 0.195697
O O10 0.643783 0.214018 0.414409
O O11 0.571879 0.000000 0.224623
O O12 0.852293 0.167077 0.391207
O O13 0.319872 0.500000 0.823311
O O14 0.249761 0.738060 0.659115
O O15 0.173568 0.500000 0.601206
#
# Coordination Sequence:
#
# PCOD9200757 Si02
#       7
#     8   4   4   8   4   8   8
#     4  12  25  43  63  91 125 157 199 252 304 360
#     4  12  25  43  66  89 119 165 208 250 305 363
#     4  10  23  43  62  89 125 158 207 255 295 364
#     4  10  20  37  59  89 126 162 201 252 302 358
#     4  10  21  38  64  90 120 161 200 251 310 359
#     4  11  20  36  60  90 125 165 203 248 305 363
#     4   9  20  33  56  92 128 157 196 247 309 369
#
# _framework density 20.087751999999998
#
# number of rings (size 3 to 8) (size 9 to 14) (size 15 to 20)
#    0.000    1.455    2.727    2.455    2.545    2.909 
#    0.000    1.818    0.000    7.636    0.000    0.000 
#    0.000    0.000    0.000    0.000    0.000    0.000 
#
# Total GULP energy -123001.110237 kJ/mol
# GULP energy per Si atom -5590.959556 kJ/mol
# Density = 2.004203 g / cm^3
# Si number density = 20.087752 Si / 1000 Ang^3
#
#
#
# Elastic Constant Matrix: (Units=GPa)
#
#
# Indices 1 2 3 4 5 6 
#
# 1 155.0293 64.0989 30.2445 0.0000 -12.2889 0.0000
# 2 64.0989 138.7627 26.5538 0.0000 1.4494 0.0000
# 3 30.2445 26.5538 19.8153 0.0000 -9.9836 0.0000
# 4 0.0000 0.0000 0.0000 12.8395 0.0000 -2.0987
# 5 -12.2889 1.4494 -9.9836 0.0000 31.0140 0.0000
# 6 0.0000 0.0000 0.0000 -2.0987 0.0000 19.3667
#
#
#
# Elastic Compliance Matrix: (Units=1/GPa)
#
#
# Indices 1 2 3 4 5 6 
#
# 1 0.009664 -0.002233 -0.011669 0.000000 0.000177 0.000000
# 2 -0.002233 0.011074 -0.014487 0.000000 -0.006066 0.000000
# 3 -0.011669 -0.014487 0.102293 0.000000 0.028982 0.000000
# 4 0.000000 0.000000 0.000000 0.079289 0.000000 0.008592
# 5 0.000177 -0.006066 0.028982 0.000000 0.041927 0.000000
# 6 0.000000 0.000000 0.000000 0.008592 0.000000 0.052566
#
#
# Mechanical properties :
#
#
# Convention : Reuss Voigt Hill
#
# Bulk Modulus (GPa) = 15.09387 61.71129 38.40258
# Shear Modulus (GPa) = 13.30937 25.49139 19.40038
#
# Velocity S-wave (km/s) = 2.57682 3.56617 3.11107
# Velocity P-wave (km/s) = 4.04767 6.90972 5.66250
#
# Compressibility (1/GPa) = 0.06625208
#
# Stress axis : x y z
#
# Youngs Moduli (GPa) = 103.47440 90.30345 9.77587
#
# Poissons Ratio (x) = 0.20166 0.11407
# Poissons Ratio (y) = 0.23107 0.14163
# Poissons Ratio (z) = 1.20742 1.30826
#
# Static dielectric constant tensor:
#      x y z
#    x 1.663740 0.000000 -0.005630 
#    y 0.000000 1.653650 0.000000 
#    z -0.005630 0.000000 1.726190 
# 
# From -- ./inp_files/172553.got.cif
#   From: 2010.05.17/outbox.cif.g08.bks.cpg/sg12_87_cif.got.tgz:172553.got - 2010.06.03 13:09:07.
