data_PCOD9200745
_publ_section_title
;
Structure prediction by ZEFSAII (Michael W. Deem and Ramdas Pophale) SiO2 
 PCOD9200745
Probable space group: C 2/M
;
_chemical_formula_sum "Si O2"
_cell_formula_units_Z 40
_cell_length_a 23.681143
_cell_length_b 12.571143
_cell_length_c 6.048123
_cell_angle_alpha 90.000000
_cell_angle_beta 76.146860
_cell_angle_gamma 90.000000
_cell_volume 1748.147979
_symmetry_space_group_name_H-M "C 2/M"
_symmetry_group_IT_number 12
_symmetry_cell_setting 'monoclinic'
loop_
_space_group_symop_operation_xyz
x,y,z
-x,y,-z
-x,-y,-z
x,-y,z
1/2+x,1/2+y,z
1/2-x,1/2+y,-z
1/2-x,1/2-y,-z
1/2+x,1/2-y,z
loop_
_atom_site_type_symbol
_atom_site_label
_atom_site_fract_x
_atom_site_fract_y
_atom_site_fract_z
Si Si1 0.809249 0.819320 0.184050
Si Si2 0.012133 0.678926 0.228565
Si Si3 0.571710 0.617425 0.689228
Si Si4 0.872566 0.228910 0.734661
Si Si5 0.193621 0.380096 0.530953
O O1 0.870170 0.865152 0.219715
O O2 0.802331 0.696356 0.262792
O O3 0.755060 0.877596 0.344334
O O4 0.817761 0.817215 0.915496
O O5 0.079690 0.711492 0.163315
O O6 0.000000 0.639142 0.500000
O O7 0.973413 0.786301 0.247180
O O8 0.000000 0.622760 0.000000
O O9 0.547665 0.500000 0.748271
O O10 0.595268 0.633434 0.418710
O O11 0.851397 0.316448 0.580153
O O12 0.176137 0.500000 0.594902
#
# Coordination Sequence:
#
# PCOD9200745 Si02
#       5
#     8   8   8   8   8
#     4  10  20  39  59  84 120 156 195 252 307 363
#     4  10  20  37  59  88 124 168 201 248 306 367
#     4  10  21  35  56  90 124 158 198 245 304 372
#     4  10  21  37  58  83 120 159 197 247 303 366
#     4  10  22  38  59  86 115 154 203 252 306 365
#
# _framework density 22.881357999999999
#
# number of rings (size 3 to 8) (size 9 to 14) (size 15 to 20)
#    0.000    2.000    2.000    1.200    0.000    6.400 
#    0.000    0.000    0.000   15.600    0.000    0.000 
#    0.000    0.000    0.000    0.000    0.000    0.000 
#
# Total GULP energy -111537.504072 kJ/mol
# GULP energy per Si atom -5576.875204 kJ/mol
# Density = 2.282928 g / cm^3
# Si number density = 22.881358 Si / 1000 Ang^3
#
#
#
# Elastic Constant Matrix: (Units=GPa)
#
#
# Indices 1 2 3 4 5 6 
#
# 1 85.3008 -4.5970 0.7684 0.0000 8.2657 0.0000
# 2 -4.5970 97.6618 7.6051 0.0000 -0.6633 0.0000
# 3 0.7684 7.6051 111.5939 0.0000 -7.6129 0.0000
# 4 0.0000 0.0000 0.0000 -27.5835 0.0000 -18.8858
# 5 8.2657 -0.6633 -7.6129 0.0000 43.6322 0.0000
# 6 0.0000 0.0000 0.0000 -18.8858 0.0000 -13.6792
#
#
#
# Elastic Compliance Matrix: (Units=1/GPa)
#
#
# Indices 1 2 3 4 5 6 
#
# 1 0.011980 0.000570 -0.000279 0.000000 -0.002310 0.000000
# 2 0.000570 0.010321 -0.000712 0.000000 -0.000075 0.000000
# 3 -0.000279 -0.000712 0.009123 0.000000 0.001634 0.000000
# 4 0.000000 0.000000 0.000000 -0.662595 0.000000 0.914795
# 5 -0.002310 -0.000075 0.001634 0.000000 0.023640 0.000000
# 6 0.000000 0.000000 0.000000 0.914795 0.000000 -1.336091
#
#
# Mechanical properties :
#
#
# Convention : Reuss Voigt Hill
#
# Bulk Modulus (GPa) = 32.69934 33.56772 33.13353
# Shear Modulus (GPa) = -2.58721 19.85924 8.63602
#
# Velocity S-wave (km/s) = -1.06450 2.94925 1.94485
# Velocity P-wave (km/s) = 3.57924 5.12831 4.42214
#
# Compressibility (1/GPa) = 0.03058166
#
# Stress axis : x y z
#
# Youngs Moduli (GPa) = 83.47076 96.88782 109.61314
#
# Poissons Ratio (x) = -0.05522 0.03057
# Poissons Ratio (y) = -0.04757 0.07809
# Poissons Ratio (z) = 0.02328 0.06903
#
# Static dielectric constant tensor:
#      x y z
#    x 1.865500 0.000000 0.033760 
#    y 0.000000 1.790110 0.000000 
#    z 0.033760 0.000000 1.965230 
# 
# From -- ./inp_files/27386.got.cif
#   From: 2010.05.17/outbox.cif.g08.bks.cpg/sg12_14_cif.got.tgz:27386.got - 2010.06.03 13:09:07.
