data_PCOD9200587
_publ_section_title
;
Structure prediction by ZEFSAII (Michael W. Deem and Ramdas Pophale) SiO2 
 PCOD9200587
Probable space group: C 2/M
;
_chemical_formula_sum "Si O2"
_cell_formula_units_Z 56
_cell_length_a 14.445251
_cell_length_b 7.785142
_cell_length_c 23.630577
_cell_angle_alpha 90.000000
_cell_angle_beta 111.138600
_cell_angle_gamma 90.000000
_cell_volume 2478.637181
_symmetry_space_group_name_H-M "C 2/M"
_symmetry_group_IT_number 12
_symmetry_cell_setting 'monoclinic'
loop_
_space_group_symop_operation_xyz
x,y,z
-x,y,-z
-x,-y,-z
x,-y,z
1/2+x,1/2+y,z
1/2-x,1/2+y,-z
1/2-x,1/2-y,-z
1/2+x,1/2-y,z
loop_
_atom_site_type_symbol
_atom_site_label
_atom_site_fract_x
_atom_site_fract_y
_atom_site_fract_z
Si Si1 0.828597 0.801764 0.778110
Si Si2 0.474108 0.800367 0.117685
Si Si3 0.344226 0.209878 0.449394
Si Si4 0.149015 0.294152 0.011545
Si Si5 0.777786 0.200739 0.138036
Si Si6 0.349412 0.294208 0.656103
Si Si7 0.533153 0.794030 0.418478
O O1 0.748434 0.719261 0.802299
O O2 0.840834 0.726905 0.717873
O O3 0.935546 0.790238 0.831691
O O4 0.799169 0.000000 0.766566
O O5 0.439363 0.730318 0.048388
O O6 0.376041 0.790855 0.135871
O O7 0.503194 0.000000 0.117091
O O8 0.240594 0.273367 0.402427
O O9 0.381630 0.270351 0.519057
O O10 0.429610 0.259094 0.423471
O O11 0.340916 0.000000 0.450719
O O12 0.134784 0.500000 0.010194
O O13 0.250000 0.250000 0.000000
O O14 0.180440 0.236558 0.081114
O O15 0.791490 0.000000 0.127550
O O16 0.340792 0.500000 0.657797
O O17 0.447190 0.257961 0.641282
O O18 0.534994 0.000000 0.421092
#
# Coordination Sequence:
#
# PCOD9200587 Si02
#       7
#     8   8   8   8   8   8   8
#     4  11  24  38  51  75 110 151 193 225 260 315
#     4  10  20  37  59  81 107 140 178 225 278 329
#     4   8  16  33  55  79 106 136 168 209 262 317
#     4   8  16  31  54  81 105 132 170 218 276 331
#     4  10  20  37  59  82 109 139 175 225 277 329
#     4  10  21  36  52  73 107 143 175 215 261 306
#     4   9  17  32  57  83 104 131 172 214 259 317
#
# _framework density 22.593060999999999
#
# number of rings (size 3 to 8) (size 9 to 14) (size 15 to 20)
#    0.000    2.571    0.000    2.571    0.000    4.000 
#    0.000    6.429    0.000    0.000    0.000    0.000 
#    0.000    0.000    0.000    0.000    0.000    0.000 
#
# Total GULP energy -156281.537424 kJ/mol
# GULP energy per Si atom -5581.483479 kJ/mol
# Density = 2.254164 g / cm^3
# Si number density = 22.593061 Si / 1000 Ang^3
#
#
#
# Elastic Constant Matrix: (Units=GPa)
#
#
# Indices 1 2 3 4 5 6 
#
# 1 59.6941 -6.7030 36.8683 0.0000 -19.6954 0.0000
# 2 -6.7030 34.4358 -3.0169 0.0000 -1.2399 0.0000
# 3 36.8683 -3.0169 65.7237 0.0000 -42.1225 0.0000
# 4 0.0000 0.0000 0.0000 17.7524 0.0000 -4.5262
# 5 -19.6954 -1.2399 -42.1225 0.0000 38.1464 0.0000
# 6 0.0000 0.0000 0.0000 -4.5262 0.0000 15.0833
#
#
#
# Elastic Compliance Matrix: (Units=1/GPa)
#
#
# Indices 1 2 3 4 5 6 
#
# 1 0.026902 0.003135 -0.020458 0.000000 -0.008599 0.000000
# 2 0.003135 0.030311 0.004453 0.000000 0.007521 0.000000
# 3 -0.020458 0.004453 0.069173 0.000000 0.065965 0.000000
# 4 0.000000 0.000000 0.000000 0.060997 0.000000 0.018304
# 5 -0.008599 0.007521 0.065965 0.000000 0.094860 0.000000
# 6 0.000000 0.000000 0.000000 0.018304 0.000000 0.071791
#
#
# Mechanical properties :
#
#
# Convention : Reuss Voigt Hill
#
# Bulk Modulus (GPa) = 9.93589 23.79448 16.86518
# Shear Modulus (GPa) = 12.09707 23.04344 17.57026
#
# Velocity S-wave (km/s) = 2.31645 3.19711 2.79172
# Velocity P-wave (km/s) = 3.40028 4.91765 4.22760
#
# Compressibility (1/GPa) = 0.10064526
#
# Stress axis : x y z
#
# Youngs Moduli (GPa) = 37.17146 32.99173 14.45656
#
# Poissons Ratio (x) = -0.10342 0.29575
# Poissons Ratio (y) = -0.11652 -0.06438
# Poissons Ratio (z) = 0.76046 -0.14692
#
# Static dielectric constant tensor:
#      x y z
#    x 1.839960 0.000000 -0.007150 
#    y 0.000000 1.846790 0.000000 
#    z -0.007150 0.000000 1.866400 
# 
# From -- ./inp_files/338163.got.cif
#   From: 2010.05.17/outbox.cif.g08.bks.cpg/sg12_170_cif.got.tgz:338163.got - 2010.06.03 13:09:07.
