data_PCOD9200394
_publ_section_title
;
Structure prediction by ZEFSAII (Michael W. Deem and Ramdas Pophale) SiO2 
 PCOD9200394
Probable space group: C 2/M
;
_chemical_formula_sum "Si O2"
_cell_formula_units_Z 30
_cell_length_a 9.681015
_cell_length_b 25.850213
_cell_length_c 7.122600
_cell_angle_alpha 90.000000
_cell_angle_beta 49.853237
_cell_angle_gamma 90.000000
_cell_volume 1362.516148
_symmetry_space_group_name_H-M "C 2/M"
_symmetry_group_IT_number 12
_symmetry_cell_setting 'monoclinic'
loop_
_space_group_symop_operation_xyz
x,y,z
-x,y,-z
-x,-y,-z
x,-y,z
1/2+x,1/2+y,z
1/2-x,1/2+y,-z
1/2-x,1/2-y,-z
1/2+x,1/2-y,z
loop_
_atom_site_type_symbol
_atom_site_label
_atom_site_fract_x
_atom_site_fract_y
_atom_site_fract_z
Si Si1 0.500000 0.380161 0.000000
Si Si2 0.500000 0.000000 0.000000
Si Si3 0.703849 0.802676 0.287958
Si Si4 0.714112 0.190932 0.836140
Si Si5 0.665030 0.421454 0.232421
O O1 0.353680 0.342373 0.230090
O O2 0.600000 0.413310 0.073354
O O3 0.344810 0.044763 0.090968
O O4 0.500000 0.820961 0.500000
O O5 0.715745 0.742122 0.329498
O O6 0.747681 0.803478 0.028368
O O7 0.792677 0.135427 0.719454
O O8 0.500000 0.190682 0.000000
O O9 0.500000 0.442721 0.500000
#
# Coordination Sequence:
#
# PCOD9200394 Si02
#       5
#     4   2   8   8   8
#     4  10  24  42  64 100 130 162 216 250 304 394
#     4  12  26  48  70  96 120 154 226 268 318 396
#     4  10  21  35  58  91 131 171 205 247 301 367
#     4  10  20  37  57  91 128 164 214 250 296 379
#     4  11  25  45  68  93 127 166 206 269 323 366
#
# _framework density 22.018089
#
# number of rings (size 3 to 8) (size 9 to 14) (size 15 to 20)
#    0.000    1.600    2.667    1.200    3.733    1.600 
#    0.000    1.333    0.000    0.000    0.000    0.000 
#    0.000    0.000    0.000    0.000    0.000    0.000 
#
# Total GULP energy -83522.317769 kJ/mol
# GULP energy per Si atom -5568.154518 kJ/mol
# Density = 2.196797 g / cm^3
# Si number density = 22.018089 Si / 1000 Ang^3
#
#
#
# Elastic Constant Matrix: (Units=GPa)
#
#
# Indices 1 2 3 4 5 6 
#
# 1 157.5624 74.9780 64.4492 0.0000 -30.9006 0.0000
# 2 74.9780 146.1023 54.1010 0.0000 -19.3794 0.0000
# 3 64.4492 54.1010 84.9072 0.0000 -26.5792 0.0000
# 4 0.0000 0.0000 0.0000 6.8018 0.0000 -19.8444
# 5 -30.9006 -19.3794 -26.5792 0.0000 61.5858 0.0000
# 6 0.0000 0.0000 0.0000 -19.8444 0.0000 29.1763
#
#
#
# Elastic Compliance Matrix: (Units=1/GPa)
#
#
# Indices 1 2 3 4 5 6 
#
# 1 0.010366 -0.003107 -0.005280 0.000000 0.001945 0.000000
# 2 -0.003107 0.009898 -0.004002 0.000000 -0.000171 0.000000
# 3 -0.005280 -0.004002 0.019785 0.000000 0.004630 0.000000
# 4 0.000000 0.000000 0.000000 -0.149354 0.000000 -0.101584
# 5 0.001945 -0.000171 0.004630 0.000000 0.019158 0.000000
# 6 0.000000 0.000000 0.000000 -0.101584 0.000000 -0.034819
#
#
# Mechanical properties :
#
#
# Convention : Reuss Voigt Hill
#
# Bulk Modulus (GPa) = 65.48383 86.18095 75.83239
# Shear Modulus (GPa) = -52.57808 32.51569 -10.03119
#
# Velocity S-wave (km/s) = -4.89197 3.84705 -2.13677
# Velocity P-wave (km/s) = 1.45016 7.67848 5.33179
#
# Compressibility (1/GPa) = 0.01527095
#
# Stress axis : x y z
#
# Youngs Moduli (GPa) = 96.46671 101.02897 50.54264
#
# Poissons Ratio (x) = 0.31386 0.26688
# Poissons Ratio (y) = 0.29968 0.20230
# Poissons Ratio (z) = 0.50937 0.40437
#
# Static dielectric constant tensor:
#      x y z
#    x 1.886900 0.000000 0.072960 
#    y 0.000000 1.854500 0.000000 
#    z 0.072960 0.000000 1.830350 
# 
# From -- ./inp_files/50297.got.cif
#   From: 2010.05.17/outbox.cif.g08.bks.cpg/sg12_26_cif.got.tgz:50297.got - 2010.06.03 13:09:07.
