data_PCOD9200908
_publ_section_title
;
Structure prediction by ZEFSAII (Michael W. Deem and Ramdas Pophale) SiO2 
 PCOD9200908
Probable space group: C 2/M
;
_chemical_formula_sum "Si O2"
_cell_formula_units_Z 56
_cell_length_a 23.080989
_cell_length_b 17.657038
_cell_length_c 21.729786
_cell_angle_alpha 90.000000
_cell_angle_beta 18.083238
_cell_angle_gamma 90.000000
_cell_volume 2748.825091
_symmetry_space_group_name_H-M "C 2/M"
_symmetry_group_IT_number 12
_symmetry_cell_setting 'monoclinic'
loop_
_space_group_symop_operation_xyz
x,y,z
-x,y,-z
-x,-y,-z
x,-y,z
1/2+x,1/2+y,z
1/2-x,1/2+y,-z
1/2-x,1/2-y,-z
1/2+x,1/2-y,z
loop_
_atom_site_type_symbol
_atom_site_label
_atom_site_fract_x
_atom_site_fract_y
_atom_site_fract_z
Si Si1 0.046571 0.872388 0.022823
Si Si2 0.989606 0.799837 0.441506
Si Si3 0.553683 0.194643 0.875396
Si Si4 0.738431 0.585308 0.585470
Si Si5 0.374714 0.840755 0.767956
Si Si6 0.892199 0.090010 0.863698
Si Si7 0.757813 0.412345 0.122615
O O1 0.260139 0.883439 0.828931
O O2 0.000000 0.892750 0.000000
O O3 0.007242 0.782188 0.070375
O O4 0.905074 0.912133 0.212376
O O5 0.774151 0.810140 0.643501
O O6 0.000000 0.766377 0.500000
O O7 0.089860 0.743467 0.292699
O O8 0.106195 0.876951 0.322082
O O9 0.500000 0.174105 0.000000
O O10 0.440740 0.138919 0.945438
O O11 0.798775 0.500000 0.510991
O O12 0.921995 0.629981 0.418691
O O13 0.606639 0.611652 0.662179
O O14 0.239512 0.856629 0.962093
O O15 0.871940 0.000000 0.902052
O O16 0.831959 0.094963 0.854247
O O17 0.797678 0.500000 0.094419
#
# Coordination Sequence:
#
# PCOD9200908 Si02
#       7
#     8   8   8   8   8   8   8
#     4  10  20  37  60  85 125 168 202 252 315 372
#     4  12  23  41  66  95 128 164 204 257 319 375
#     4  11  21  41  64  92 128 165 202 253 314 377
#     4  10  21  37  59  89 121 163 212 258 310 366
#     4  11  21  37  67  90 120 169 210 251 306 368
#     4   9  22  44  63  87 130 170 206 257 314 365
#     4  11  25  44  66  93 125 165 209 260 316 374
#
# _framework density 20.372340000000001
#
# number of rings (size 3 to 8) (size 9 to 14) (size 15 to 20)
#    0.000    1.429    4.286    1.286    0.000    3.714 
#    0.000    5.000    0.000    0.000    0.000    0.000 
#    0.000    0.000    0.000    0.000    0.000    0.000 
#
# Total GULP energy -156310.251847 kJ/mol
# GULP energy per Si atom -5582.508995 kJ/mol
# Density = 2.032597 g / cm^3
# Si number density = 20.372340 Si / 1000 Ang^3
#
#
#
# Elastic Constant Matrix: (Units=GPa)
#
#
# Indices 1 2 3 4 5 6 
#
# 1 52.1146 21.2699 16.7101 -0.0317 -26.3528 0.0187
# 2 21.2699 56.6922 18.8494 0.0573 -8.8902 -0.0420
# 3 16.7101 18.8494 103.5655 0.1049 -37.8018 -0.0644
# 4 -0.0317 0.0573 0.1049 30.6084 0.0114 -11.7589
# 5 -26.3528 -8.8902 -37.8018 0.0114 37.8231 -0.0043
# 6 0.0187 -0.0420 -0.0644 -11.7589 -0.0043 32.7832
#
#
#
# Elastic Compliance Matrix: (Units=1/GPa)
#
#
# Indices 1 2 3 4 5 6 
#
# 1 0.036771 -0.011451 0.007116 0.000020 0.030040 -0.000011
# 2 -0.011451 0.022401 -0.005069 -0.000028 -0.007779 0.000014
# 3 0.007116 -0.005069 0.017010 -0.000046 0.020767 0.000009
# 4 0.000020 -0.000028 -0.000046 0.037892 -0.000048 0.013591
# 5 0.030040 -0.007779 0.020767 -0.000048 0.066296 0.000005
# 6 -0.000011 0.000014 0.000009 0.013591 0.000005 0.035378
#
#
# Mechanical properties :
#
#
# Convention : Reuss Voigt Hill
#
# Bulk Modulus (GPa) = 17.42942 36.22566 26.82754
# Shear Modulus (GPa) = 19.70976 30.61246 25.16111
#
# Velocity S-wave (km/s) = 3.11380 3.88061 3.51816
# Velocity P-wave (km/s) = 4.63699 6.15623 5.44981
#
# Compressibility (1/GPa) = 0.05737424
#
# Stress axis : x y z
#
# Youngs Moduli (GPa) = 27.19554 44.64127 58.78774
#
# Poissons Ratio (x) = 0.51119 -0.41833
# Poissons Ratio (y) = 0.31142 0.29798
# Poissons Ratio (z) = -0.19352 0.22628
#
# Static dielectric constant tensor:
#      x y z
#    x 1.746670 -0.000010 -0.020860 
#    y -0.000010 1.737910 0.000020 
#    z -0.020860 0.000020 1.703000 
# 
# From -- ./inp_files/322618.got.cif
#   From: 2010.05.17/outbox.cif.g08.bks.cpg/sg12_162_cif.got.tgz:322618.got - 2010.06.03 13:09:07.
