data_PCOD9200330
_publ_section_title
;
Structure prediction by ZEFSAII (Michael W. Deem and Ramdas Pophale) SiO2 
 PCOD9200330
Probable space group: C 2/M
;
_chemical_formula_sum "Si O2"
_cell_formula_units_Z 56
_cell_length_a 12.846745
_cell_length_b 20.711280
_cell_length_c 11.456085
_cell_angle_alpha 90.000000
_cell_angle_beta 95.783697
_cell_angle_gamma 90.000000
_cell_volume 3032.632712
_symmetry_space_group_name_H-M "C 2/M"
_symmetry_group_IT_number 12
_symmetry_cell_setting 'monoclinic'
loop_
_space_group_symop_operation_xyz
x,y,z
-x,y,-z
-x,-y,-z
x,-y,z
1/2+x,1/2+y,z
1/2-x,1/2+y,-z
1/2-x,1/2-y,-z
1/2+x,1/2-y,z
loop_
_atom_site_type_symbol
_atom_site_label
_atom_site_fract_x
_atom_site_fract_y
_atom_site_fract_z
Si Si1 0.838846 0.840481 0.257488
Si Si2 0.260869 0.213941 0.124798
Si Si3 0.565321 0.306753 0.241548
Si Si4 0.380466 0.074374 0.518153
Si Si5 0.986451 0.679262 0.127609
Si Si6 0.352355 0.073203 0.795191
Si Si7 0.205100 0.822358 0.481671
O O1 0.788401 0.771327 0.218422
O O2 0.759519 0.893285 0.198645
O O3 0.840774 0.843446 0.398054
O O4 0.955232 0.843160 0.219579
O O5 0.154077 0.181446 0.154350
O O6 0.363637 0.169590 0.134098
O O7 0.250000 0.250000 0.000000
O O8 0.532888 0.231246 0.223521
O O9 0.618936 0.320688 0.371093
O O10 0.500000 0.090641 0.500000
O O11 0.370422 0.074952 0.657399
O O12 0.298129 0.127074 0.462754
O O13 0.359906 0.000000 0.476857
O O14 0.056668 0.616176 0.139691
O O15 0.000000 0.709127 0.000000
O O16 0.354484 0.000000 0.835840
O O17 0.250000 0.750000 0.500000
#
# Coordination Sequence:
#
# PCOD9200330 Si02
#       7
#     8   8   8   8   8   8   8
#     4  10  21  36  53  80 114 147 187 224 284 335
#     4  11  20  35  55  82 116 145 182 228 283 341
#     4  11  21  34  55  82 114 146 175 234 283 335
#     4   9  20  36  55  79 112 151 185 229 288 341
#     4  11  21  36  55  83 116 143 186 228 285 337
#     4  10  20  37  57  80 109 148 194 231 271 333
#     4  11  20  34  52  85 115 146 189 235 284 338
#
# _framework density 18.465803999999999
#
# number of rings (size 3 to 8) (size 9 to 14) (size 15 to 20)
#    0.000    1.571    4.286    1.286    2.000    1.429 
#    0.000    0.714    0.000    4.286    0.000    4.000 
#    0.000    0.000    0.000    0.000    0.000    0.000 
#
# Total GULP energy -156269.057935 kJ/mol
# GULP energy per Si atom -5581.037783 kJ/mol
# Density = 1.842378 g / cm^3
# Si number density = 18.465804 Si / 1000 Ang^3
#
#
#
# Elastic Constant Matrix: (Units=GPa)
#
#
# Indices 1 2 3 4 5 6 
#
# 1 199.2706 66.3655 32.6328 0.0000 -0.2686 0.0000
# 2 66.3655 92.5536 20.0588 0.0000 16.7682 0.0000
# 3 32.6328 20.0588 54.4416 0.0000 6.8141 0.0000
# 4 0.0000 0.0000 0.0000 14.3937 0.0000 3.4120
# 5 -0.2686 16.7682 6.8141 0.0000 26.5990 0.0000
# 6 0.0000 0.0000 0.0000 3.4120 0.0000 26.4816
#
#
#
# Elastic Compliance Matrix: (Units=1/GPa)
#
#
# Indices 1 2 3 4 5 6 
#
# 1 0.007284 -0.005350 -0.002920 0.000000 0.004194 0.000000
# 2 -0.005350 0.016872 -0.001727 0.000000 -0.010248 0.000000
# 3 -0.002920 -0.001727 0.021305 0.000000 -0.004399 0.000000
# 4 0.000000 0.000000 0.000000 0.071664 0.000000 -0.009233
# 5 0.004194 -0.010248 -0.004399 0.000000 0.045225 0.000000
# 6 0.000000 0.000000 0.000000 -0.009233 0.000000 0.038952
#
#
# Mechanical properties :
#
#
# Convention : Reuss Voigt Hill
#
# Bulk Modulus (GPa) = 39.26568 64.93111 52.09840
# Shear Modulus (GPa) = 21.75964 28.64212 25.20088
#
# Velocity S-wave (km/s) = 3.43647 3.94266 3.69824
# Velocity P-wave (km/s) = 6.08736 7.48100 6.81987
#
# Compressibility (1/GPa) = 0.02546753
#
# Stress axis : x y z
#
# Youngs Moduli (GPa) = 137.28964 59.27128 46.93668
#
# Poissons Ratio (x) = 0.31710 0.13705
# Poissons Ratio (y) = 0.73450 0.08105
# Poissons Ratio (z) = 0.40086 0.10235
#
# Static dielectric constant tensor:
#      x y z
#    x 1.657450 0.000000 -0.018640 
#    y 0.000000 1.623310 0.000000 
#    z -0.018640 0.000000 1.668830 
# 
# From -- ./inp_files/133179.got.cif
#   From: 2010.05.17/outbox.cif.g08.bks.cpg/sg12_67_cif.got.tgz:133179.got - 2010.06.03 13:09:07.
