data_PCOD9200039
_publ_section_title
;
Structure prediction by ZEFSAII (Michael W. Deem and Ramdas Pophale) SiO2 
 PCOD9200039
Probable space group: C 2/M
;
_chemical_formula_sum "Si O2"
_cell_formula_units_Z 36
_cell_length_a 11.054522
_cell_length_b 25.209265
_cell_length_c 5.911086
_cell_angle_alpha 90.000000
_cell_angle_beta 80.699087
_cell_angle_gamma 90.000000
_cell_volume 1625.623458
_symmetry_space_group_name_H-M "C 2/M"
_symmetry_group_IT_number 12
_symmetry_cell_setting 'monoclinic'
loop_
_space_group_symop_operation_xyz
x,y,z
-x,y,-z
-x,-y,-z
x,-y,z
1/2+x,1/2+y,z
1/2-x,1/2+y,-z
1/2-x,1/2-y,-z
1/2+x,1/2-y,z
loop_
_atom_site_type_symbol
_atom_site_label
_atom_site_fract_x
_atom_site_fract_y
_atom_site_fract_z
Si Si1 0.384445 0.370921 0.384281
Si Si2 0.158536 0.645359 0.796102
Si Si3 0.225577 0.441102 0.147924
Si Si4 0.112518 0.246781 0.650240
Si Si5 0.000000 0.414043 0.500000
O O1 0.500000 0.384521 0.500000
O O2 0.273179 0.360012 0.591166
O O3 0.345716 0.418219 0.232780
O O4 0.404916 0.313564 0.260484
O O5 0.124269 0.707098 0.835237
O O6 0.045979 0.621680 0.690895
O O7 0.188113 0.605830 0.989470
O O8 0.239438 0.500000 0.042820
O O9 0.117229 0.444099 0.367107
O O10 0.250000 0.250000 0.500000
O O11 0.000000 0.255915 0.500000
#
# Coordination Sequence:
#
# PCOD9200039 Si02
#       5
#     8   8   8   8   4
#     4   9  21  40  61  87 124 159 203 254 311 362
#     4  10  20  36  63  90 120 156 204 251 312 370
#     4  11  24  39  60  90 122 162 212 254 301 369
#     4   9  17  35  63  90 124 160 200 260 313 376
#     4  10  21  40  60  86 124 156 197 258 316 358
#
# _framework density 22.145347999999998
#
# number of rings (size 3 to 8) (size 9 to 14) (size 15 to 20)
#    0.000    2.222    1.111    1.000    0.000    7.556 
#    0.000    1.111    4.889    0.000    0.000    0.000 
#    0.000    0.000    0.000    0.000    0.000    0.000 
#
# Total GULP energy -100339.781783 kJ/mol
# GULP energy per Si atom -5574.432321 kJ/mol
# Density = 2.209494 g / cm^3
# Si number density = 22.145348 Si / 1000 Ang^3
#
#
#
# Elastic Constant Matrix: (Units=GPa)
#
#
# Indices 1 2 3 4 5 6 
#
# 1 103.8243 42.4752 14.4368 0.0000 34.8408 0.0000
# 2 42.4752 156.0924 52.5179 0.0000 15.7870 0.0000
# 3 14.4368 52.5179 42.9052 0.0000 10.8612 0.0000
# 4 0.0000 0.0000 0.0000 36.9593 0.0000 13.9185
# 5 34.8408 15.7870 10.8612 0.0000 32.9794 0.0000
# 6 0.0000 0.0000 0.0000 13.9185 0.0000 15.1425
#
#
#
# Elastic Compliance Matrix: (Units=1/GPa)
#
#
# Indices 1 2 3 4 5 6 
#
# 1 0.016287 -0.003953 0.003529 0.000000 -0.016477 0.000000
# 2 -0.003953 0.011876 -0.013991 0.000000 0.003099 0.000000
# 3 0.003529 -0.013991 0.041995 0.000000 -0.010861 0.000000
# 4 0.000000 0.000000 0.000000 0.041381 0.000000 -0.038036
# 5 -0.016477 0.003099 -0.010861 0.000000 0.049822 0.000000
# 6 0.000000 0.000000 0.000000 -0.038036 0.000000 0.101001
#
#
# Mechanical properties :
#
#
# Convention : Reuss Voigt Hill
#
# Bulk Modulus (GPa) = 24.19645 57.96466 41.08056
# Shear Modulus (GPa) = 16.39515 29.90902 23.15209
#
# Velocity S-wave (km/s) = 2.72388 3.67901 3.23687
# Velocity P-wave (km/s) = 4.56537 6.65419 5.70617
#
# Compressibility (1/GPa) = 0.04132837
#
# Stress axis : x y z
#
# Youngs Moduli (GPa) = 61.39780 84.20228 23.81228
#
# Poissons Ratio (x) = 0.33285 -0.08404
# Poissons Ratio (y) = 0.24271 0.33317
# Poissons Ratio (z) = -0.21669 1.17810
#
# Static dielectric constant tensor:
#      x y z
#    x 2.628980 0.000000 -0.231340 
#    y 0.000000 1.854280 0.000000 
#    z -0.231340 0.000000 1.899070 
# 
# From -- ./inp_files/7076.got.cif
#   From: 2010.05.17/outbox.cif.g08.bks.cpg/sg12_4_cif.got.tgz:7076.got - 2010.06.03 13:09:07.
