data_PCOD9200233
_publ_section_title
;
Structure prediction by ZEFSAII (Michael W. Deem and Ramdas Pophale) SiO2 
 PCOD9200233
Probable space group: C 2/M
;
_chemical_formula_sum "Si O2"
_cell_formula_units_Z 20
_cell_length_a 20.391654
_cell_length_b 10.149959
_cell_length_c 14.250275
_cell_angle_alpha 90.000000
_cell_angle_beta 162.154174
_cell_angle_gamma 90.000000
_cell_volume 903.876626
_symmetry_space_group_name_H-M "C 2/M"
_symmetry_group_IT_number 12
_symmetry_cell_setting 'monoclinic'
loop_
_space_group_symop_operation_xyz
x,y,z
-x,y,-z
-x,-y,-z
x,-y,z
1/2+x,1/2+y,z
1/2-x,1/2+y,-z
1/2-x,1/2-y,-z
1/2+x,1/2-y,z
loop_
_atom_site_type_symbol
_atom_site_label
_atom_site_fract_x
_atom_site_fract_y
_atom_site_fract_z
Si Si1 0.964544 0.000000 0.245512
Si Si2 0.679869 0.500000 0.163210
Si Si3 0.282597 0.210137 0.763316
Si Si4 0.252053 0.000000 0.870784
O O1 0.106385 0.874129 0.468269
O O2 0.755158 0.000000 0.027237
O O3 0.923297 0.000000 0.080084
O O4 0.500000 0.500000 0.000000
O O5 0.794256 0.359131 0.326738
O O6 0.334217 0.130489 0.930033
O O7 0.500000 0.210574 0.000000
O O8 0.000000 0.000000 0.500000
#
# Coordination Sequence:
#
# PCOD9200233 Si02
#       4
#     4   4   8   4
#     4  10  20  37  55  74 109 140 165 218 263 295
#     4  10  22  34  52  82 106 132 178 216 252 310
#     4   9  18  35  56  78 104 136 175 212 254 311
#     4   8  16  33  55  76 103 138 171 208 259 309
#
# _framework density 22.126912999999998
#
# number of rings (size 3 to 8) (size 9 to 14) (size 15 to 20)
#    0.000    3.200    0.000    2.400    0.000    8.000 
#    0.000   13.000    0.000    0.000    0.000    0.000 
#    0.000    0.000    0.000    0.000    0.000    0.000 
#
# Total GULP energy -55794.799163 kJ/mol
# GULP energy per Si atom -5579.479916 kJ/mol
# Density = 2.207655 g / cm^3
# Si number density = 22.126913 Si / 1000 Ang^3
#
#
#
# Elastic Constant Matrix: (Units=GPa)
#
#
# Indices 1 2 3 4 5 6 
#
# 1 171.4879 55.0083 36.3345 0.0000 -13.4684 0.0000
# 2 55.0083 241.3338 45.9206 0.0000 -11.4207 0.0000
# 3 36.3345 45.9206 40.0973 0.0000 -10.6546 0.0000
# 4 0.0000 0.0000 0.0000 -27.8290 0.0000 -40.7055
# 5 -13.4684 -11.4207 -10.6546 0.0000 31.1375 0.0000
# 6 0.0000 0.0000 0.0000 -40.7055 0.0000 -28.5203
#
#
#
# Elastic Compliance Matrix: (Units=1/GPa)
#
#
# Indices 1 2 3 4 5 6 
#
# 1 0.007295 -0.000522 -0.005748 0.000000 0.000997 0.000000
# 2 -0.000522 0.005336 -0.005696 0.000000 -0.000218 0.000000
# 3 -0.005748 -0.005696 0.039001 0.000000 0.008770 0.000000
# 4 0.000000 0.000000 0.000000 0.033038 0.000000 -0.047154
# 5 0.000997 -0.000218 0.008770 0.000000 0.035468 0.000000
# 6 0.000000 0.000000 0.000000 -0.047154 0.000000 0.032238
#
#
# Mechanical properties :
#
#
# Convention : Reuss Voigt Hill
#
# Bulk Modulus (GPa) = 36.09959 80.82731 58.46345
# Shear Modulus (GPa) = 26.94823 16.00134 21.47479
#
# Velocity S-wave (km/s) = 3.49362 2.69208 3.11871
# Velocity P-wave (km/s) = 5.71175 6.80230 6.28074
#
# Compressibility (1/GPa) = 0.02770115
#
# Stress axis : x y z
#
# Youngs Moduli (GPa) = 137.08318 187.40203 25.64027
#
# Poissons Ratio (x) = 0.09781 0.14737
# Poissons Ratio (y) = 0.07154 0.14605
# Poissons Ratio (z) = 0.78790 1.06744
#
# Static dielectric constant tensor:
#      x y z
#    x 1.877340 0.000000 -0.013120 
#    y 0.000000 1.852740 0.000000 
#    z -0.013120 0.000000 1.812740 
# 
# From -- ./inp_files/55225.got.cif
#   From: 2010.05.17/outbox.cif.g08.bks.cpg/sg12_28_cif.got.tgz:55225.got - 2010.06.03 13:09:07.
