data_PCOD9200635
_publ_section_title
;
Structure prediction by ZEFSAII (Michael W. Deem and Ramdas Pophale) SiO2 
 PCOD9200635
Probable space group: C 2/M
;
_chemical_formula_sum "Si O2"
_cell_formula_units_Z 56
_cell_length_a 30.136520
_cell_length_b 8.778914
_cell_length_c 22.325752
_cell_angle_alpha 90.000000
_cell_angle_beta 30.681364
_cell_angle_gamma 90.000000
_cell_volume 3013.937578
_symmetry_space_group_name_H-M "C 2/M"
_symmetry_group_IT_number 12
_symmetry_cell_setting 'monoclinic'
loop_
_space_group_symop_operation_xyz
x,y,z
-x,y,-z
-x,-y,-z
x,-y,z
1/2+x,1/2+y,z
1/2-x,1/2+y,-z
1/2-x,1/2-y,-z
1/2+x,1/2-y,z
loop_
_atom_site_type_symbol
_atom_site_label
_atom_site_fract_x
_atom_site_fract_y
_atom_site_fract_z
Si Si1 0.979672 0.684164 0.620840
Si Si2 0.623433 0.680699 0.783084
Si Si3 0.337483 0.315527 0.128816
Si Si4 0.861972 0.315242 0.645688
Si Si5 0.028877 0.319283 0.118719
Si Si6 0.292315 0.819328 0.510652
Si Si7 0.016853 0.818874 0.701635
O O1 0.980379 0.500000 0.625770
O O2 0.071629 0.731853 0.483812
O O3 0.970073 0.758401 0.696420
O O4 0.906088 0.726106 0.657772
O O5 0.602961 0.500000 0.801658
O O6 0.619716 0.724430 0.856927
O O7 0.557438 0.770260 0.817653
O O8 0.721651 0.701017 0.645193
O O9 0.339400 0.500000 0.122136
O O10 0.236967 0.264703 0.245700
O O11 0.391016 0.244572 0.012638
O O12 0.861313 0.500000 0.644336
O O13 0.032760 0.500000 0.118978
O O14 0.023402 0.247021 0.190768
O O15 0.250000 0.750000 0.500000
O O16 0.383844 0.740685 0.416552
O O17 0.306461 0.000000 0.486413
O O18 0.016212 0.000000 0.704641
#
# Coordination Sequence:
#
# PCOD9200635 Si02
#       7
#     8   8   8   8   8   8   8
#     4   9  17  35  63  92 117 144 184 228 279 341
#     4  10  21  37  59  84 113 149 187 228 281 341
#     4  10  20  37  59  83 112 149 189 229 279 339
#     4   8  16  34  63  92 116 145 181 228 282 341
#     4  12  25  39  55  77 110 152 196 241 282 330
#     4  11  21  35  57  85 115 148 185 228 277 332
#     4  12  24  38  56  82 116 154 192 232 286 338
#
# _framework density 18.580345000000001
#
# number of rings (size 3 to 8) (size 9 to 14) (size 15 to 20)
#    0.000    1.714    1.429    5.143    0.000    5.143 
#    0.000    5.000    0.000    0.000    0.000    0.000 
#    0.000    0.000    0.000    0.000    0.000    0.000 
#
# Total GULP energy -156466.479581 kJ/mol
# GULP energy per Si atom -5588.088556 kJ/mol
# Density = 1.853806 g / cm^3
# Si number density = 18.580345 Si / 1000 Ang^3
#
#
#
# Elastic Constant Matrix: (Units=GPa)
#
#
# Indices 1 2 3 4 5 6 
#
# 1 105.9287 42.6418 50.7944 0.0046 36.6666 -0.0017
# 2 42.6418 73.2529 38.5660 0.0053 17.7351 -0.0008
# 3 50.7944 38.5660 80.0710 0.0073 25.0305 -0.0042
# 4 0.0046 0.0053 0.0073 24.5443 -0.0054 3.2495
# 5 36.6666 17.7351 25.0305 -0.0054 22.5382 0.0023
# 6 -0.0017 -0.0008 -0.0042 3.2495 0.0023 26.6032
#
#
#
# Elastic Compliance Matrix: (Units=1/GPa)
#
#
# Indices 1 2 3 4 5 6 
#
# 1 0.023601 -0.004565 -0.002900 -0.000010 -0.031582 0.000005
# 2 -0.004565 0.019936 -0.006317 -0.000002 -0.001245 0.000000
# 3 -0.002900 -0.006317 0.021970 -0.000009 -0.014711 0.000005
# 4 -0.000010 -0.000002 -0.000009 0.041412 0.000038 -0.005058
# 5 -0.031582 -0.001245 -0.014711 0.000038 0.113065 -0.000019
# 6 0.000005 0.000000 0.000005 -0.005058 -0.000019 0.038207
#
#
# Mechanical properties :
#
#
# Convention : Reuss Voigt Hill
#
# Bulk Modulus (GPa) = 26.35611 58.13966 42.24788
# Shear Modulus (GPa) = 16.75587 23.22050 19.98819
#
# Velocity S-wave (km/s) = 3.00627 3.53899 3.28345
# Velocity P-wave (km/s) = 5.12503 6.93240 6.09607
#
# Compressibility (1/GPa) = 0.03794187
#
# Stress axis : x y z
#
# Youngs Moduli (GPa) = 42.37187 50.16057 45.51751
#
# Poissons Ratio (x) = 0.22900 0.13200
# Poissons Ratio (y) = 0.19344 0.28753
# Poissons Ratio (z) = 0.12287 0.31686
#
# Static dielectric constant tensor:
#      x y z
#    x 1.631230 0.000000 -0.002260 
#    y 0.000000 1.624300 0.000000 
#    z -0.002260 0.000000 1.638210 
# 
# From -- ./inp_files/329552.got.cif
#   From: 2010.05.17/outbox.cif.g08.bks.cpg/sg12_165_cif.got.tgz:329552.got - 2010.06.03 13:09:07.
