data_PCOD9200370
_publ_section_title
;
Structure prediction by ZEFSAII (Michael W. Deem and Ramdas Pophale) SiO2 
 PCOD9200370
Probable space group: C 2/M
;
_chemical_formula_sum "Si O2"
_cell_formula_units_Z 64
_cell_length_a 24.258636
_cell_length_b 9.773445
_cell_length_c 31.156406
_cell_angle_alpha 90.000000
_cell_angle_beta 28.140056
_cell_angle_gamma 90.000000
_cell_volume 3483.865807
_symmetry_space_group_name_H-M "C 2/M"
_symmetry_group_IT_number 12
_symmetry_cell_setting 'monoclinic'
loop_
_space_group_symop_operation_xyz
x,y,z
-x,y,-z
-x,-y,-z
x,-y,z
1/2+x,1/2+y,z
1/2-x,1/2+y,-z
1/2-x,1/2-y,-z
1/2+x,1/2-y,z
loop_
_atom_site_type_symbol
_atom_site_label
_atom_site_fract_x
_atom_site_fract_y
_atom_site_fract_z
Si Si1 0.578402 0.159098 0.488567
Si Si2 0.815770 0.840594 0.812129
Si Si3 0.503107 0.653209 0.758927
Si Si4 0.420468 0.156799 0.977035
Si Si5 0.649459 0.346435 0.051591
Si Si6 0.690103 0.839253 0.670177
Si Si7 0.175933 0.344695 0.780368
Si Si8 0.362978 0.838793 0.697282
O O1 0.500000 0.182852 0.500000
O O2 0.686795 0.260782 0.415661
O O3 0.490806 0.176563 0.588619
O O4 0.618105 0.000000 0.459687
O O5 0.900501 0.816911 0.795024
O O6 0.850968 0.739388 0.750303
O O7 0.830868 0.000000 0.789136
O O8 0.679372 0.823900 0.918786
O O9 0.549409 0.500000 0.717130
O O10 0.443500 0.646243 0.846463
O O11 0.602952 0.765560 0.696727
O O12 0.398450 0.272539 0.957224
O O13 0.559174 0.164602 0.889702
O O14 0.400574 0.000000 0.974023
O O15 0.690965 0.500000 0.013799
O O16 0.750000 0.250000 0.000000
O O17 0.646608 0.828318 0.749872
O O18 0.701438 0.000000 0.653147
O O19 0.222713 0.500000 0.753140
O O20 0.269626 0.233526 0.730058
O O21 0.338552 0.000000 0.717876
#
# Coordination Sequence:
#
# PCOD9200370 Si02
#       8
#     8   8   8   8   8   8   8   8
#     4  10  21  40  64  88 117 151 187 238 303 362
#     4  10  22  41  61  81 116 165 206 239 283 346
#     4  10  21  37  58  84 119 162 198 236 294 352
#     4  10  20  37  57  84 120 158 201 239 290 348
#     4  11  20  31  52  82 115 152 198 246 288 335
#     4  11  22  35  60  96 124 147 186 247 299 345
#     4  10  21  36  58  88 122 155 189 239 296 350
#     4  11  24  41  62  86 115 153 198 245 293 353
#
# _framework density 18.370397000000001
#
# number of rings (size 3 to 8) (size 9 to 14) (size 15 to 20)
#    0.000    1.625    3.750    1.125    0.000    4.250 
#    0.000    3.125    0.000    0.000    0.000    0.000 
#    0.000    0.000    0.000    0.000    0.000    0.000 
#
# Total GULP energy -178505.411175 kJ/mol
# GULP energy per Si atom -5578.294099 kJ/mol
# Density = 1.832859 g / cm^3
# Si number density = 18.370397 Si / 1000 Ang^3
#
#
#
# Elastic Constant Matrix: (Units=GPa)
#
#
# Indices 1 2 3 4 5 6 
#
# 1 27.8678 30.5568 18.6445 -0.0003 2.1592 0.0002
# 2 30.5568 124.9800 64.2808 -0.0007 -8.2373 0.0015
# 3 18.6445 64.2808 89.2385 0.0003 -6.4603 0.0001
# 4 -0.0003 -0.0007 0.0003 31.7205 0.0001 -0.7850
# 5 2.1592 -8.2373 -6.4603 0.0001 27.4224 -0.0003
# 6 0.0002 0.0015 0.0001 -0.7850 -0.0003 29.2117
#
#
#
# Elastic Compliance Matrix: (Units=1/GPa)
#
#
# Indices 1 2 3 4 5 6 
#
# 1 0.051131 -0.011503 -0.002989 0.000000 -0.008186 0.000000
# 2 -0.011503 0.015376 -0.008416 0.000000 0.003542 -0.000001
# 3 -0.002989 -0.008416 0.018034 0.000000 0.001956 0.000000
# 4 0.000000 0.000000 0.000000 0.031546 0.000000 0.000848
# 5 -0.008186 0.003542 0.001956 0.000000 0.038636 0.000000
# 6 0.000000 -0.000001 0.000000 0.000848 0.000000 0.034256
#
#
# Mechanical properties :
#
#
# Convention : Reuss Voigt Hill
#
# Bulk Modulus (GPa) = 25.82352 52.11672 38.97012
# Shear Modulus (GPa) = 20.18547 26.24454 23.21500
#
# Velocity S-wave (km/s) = 3.31842 3.78383 3.55874
# Velocity P-wave (km/s) = 5.36378 6.89357 6.17622
#
# Compressibility (1/GPa) = 0.03872439
#
# Stress axis : x y z
#
# Youngs Moduli (GPa) = 19.55758 65.03810 55.45052
#
# Poissons Ratio (x) = 0.74815 0.16576
# Poissons Ratio (y) = 0.22498 0.46665
# Poissons Ratio (z) = 0.05846 0.54734
#
# Static dielectric constant tensor:
#      x y z
#    x 1.657130 0.000000 -0.003340 
#    y 0.000000 1.619250 0.000000 
#    z -0.003340 0.000000 1.636470 
# 
# From -- ./inp_files/382242.got.cif
#   From: 2010.05.17/outbox.cif.g08.bks.cpg/sg12_192_cif.got.tgz:382242.got - 2010.06.03 13:09:07.
