data_PCOD9200279
_publ_section_title
;
Structure prediction by ZEFSAII (Michael W. Deem and Ramdas Pophale) SiO2 
 PCOD9200279
Probable space group: C 2/M
;
_chemical_formula_sum "Si O2"
_cell_formula_units_Z 56
_cell_length_a 30.017432
_cell_length_b 9.616327
_cell_length_c 11.240122
_cell_angle_alpha 90.000000
_cell_angle_beta 67.511147
_cell_angle_gamma 90.000000
_cell_volume 2997.810096
_symmetry_space_group_name_H-M "C 2/M"
_symmetry_group_IT_number 12
_symmetry_cell_setting 'monoclinic'
loop_
_space_group_symop_operation_xyz
x,y,z
-x,y,-z
-x,-y,-z
x,-y,z
1/2+x,1/2+y,z
1/2-x,1/2+y,-z
1/2-x,1/2-y,-z
1/2+x,1/2-y,z
loop_
_atom_site_type_symbol
_atom_site_label
_atom_site_fract_x
_atom_site_fract_y
_atom_site_fract_z
Si Si1 0.789823 0.166339 0.034346
Si Si2 0.376591 0.661142 0.778843
Si Si3 0.526166 0.167840 0.347804
Si Si4 0.626050 0.839653 0.661915
Si Si5 0.722182 0.837946 0.718349
Si Si6 0.524418 0.831483 0.852140
Si Si7 0.669856 0.659361 0.426787
O O1 0.786524 0.229576 0.168217
O O2 0.781373 0.000000 0.038166
O O3 0.750000 0.250000 0.000000
O O4 0.842746 0.193390 0.925520
O O5 0.392679 0.500000 0.769860
O O6 0.421800 0.760385 0.714072
O O7 0.341327 0.671613 0.701083
O O8 0.500000 0.206442 0.500000
O O9 0.498651 0.207928 0.252546
O O10 0.530460 0.000000 0.343850
O O11 0.676514 0.830989 0.679116
O O12 0.580777 0.792785 0.786774
O O13 0.632960 0.752648 0.536370
O O14 0.617008 0.000000 0.639356
O O15 0.774218 0.805134 0.608855
O O16 0.725817 0.000000 0.757559
O O17 0.521201 0.000000 0.860103
O O18 0.500000 0.779862 0.000000
O O19 0.662791 0.500000 0.470238
#
# Coordination Sequence:
#
# PCOD9200279 Si02
#       7
#     8   8   8   8   8   8   8
#     4  11  22  38  58  83 117 153 191 237 285 341
#     4  10  22  38  57  83 117 153 187 232 290 346
#     4  10  21  37  60  88 114 145 196 252 289 338
#     4  10  21  36  59  85 111 147 194 237 279 340
#     4  10  21  37  57  84 117 151 190 233 281 341
#     4   9  19  36  56  82 115 148 187 242 297 337
#     4  10  20  37  56  80 119 152 180 230 288 342
#
# _framework density 18.680304
#
# number of rings (size 3 to 8) (size 9 to 14) (size 15 to 20)
#    0.000    2.000    1.429    1.714    2.000    4.286 
#    0.000    0.714    0.000    0.857    0.000    0.000 
#    0.000    0.000    0.000    0.000    0.000    0.000 
#
# Total GULP energy -156158.501293 kJ/mol
# GULP energy per Si atom -5577.089332 kJ/mol
# Density = 1.863779 g / cm^3
# Si number density = 18.680304 Si / 1000 Ang^3
#
#
#
# Elastic Constant Matrix: (Units=GPa)
#
#
# Indices 1 2 3 4 5 6 
#
# 1 71.9109 19.3355 28.7216 0.0000 -17.2412 0.0000
# 2 19.3355 42.1441 49.7328 0.0000 -10.7535 0.0000
# 3 28.7216 49.7328 126.9494 0.0000 -18.6113 0.0000
# 4 0.0000 0.0000 0.0000 28.6741 0.0000 -2.8578
# 5 -17.2412 -10.7535 -18.6113 0.0000 29.8137 0.0000
# 6 0.0000 0.0000 0.0000 -2.8578 0.0000 24.6900
#
#
#
# Elastic Compliance Matrix: (Units=1/GPa)
#
#
# Indices 1 2 3 4 5 6 
#
# 1 0.017455 -0.005042 -0.000837 0.000000 0.007753 0.000000
# 2 -0.005042 0.046464 -0.016546 0.000000 0.003514 0.000000
# 3 -0.000837 -0.016546 0.014973 0.000000 0.002895 0.000000
# 4 0.000000 0.000000 0.000000 0.035282 0.000000 0.004084
# 5 0.007753 0.003514 0.002895 0.000000 0.041100 0.000000
# 6 0.000000 0.000000 0.000000 0.004084 0.000000 0.040975
#
#
# Mechanical properties :
#
#
# Convention : Reuss Voigt Hill
#
# Bulk Modulus (GPa) = 29.37675 48.50937 38.94306
# Shear Modulus (GPa) = 19.80617 26.18319 22.99468
#
# Velocity S-wave (km/s) = 3.25971 3.74792 3.51231
# Velocity P-wave (km/s) = 5.47063 6.68983 6.11071
#
# Compressibility (1/GPa) = 0.03404053
#
# Stress axis : x y z
#
# Youngs Moduli (GPa) = 57.29002 21.52207 66.78655
#
# Poissons Ratio (x) = 0.10851 0.05592
# Poissons Ratio (y) = 0.28886 1.10508
# Poissons Ratio (z) = 0.04797 0.35611
#
# Static dielectric constant tensor:
#      x y z
#    x 1.657220 0.000000 0.013660 
#    y 0.000000 1.628680 0.000000 
#    z 0.013660 0.000000 1.642840 
# 
# From -- ./inp_files/180732.got.cif
#   From: 2010.05.17/outbox.cif.g08.bks.cpg/sg12_91_cif.got.tgz:180732.got - 2010.06.03 13:09:07.
