data_PCOD9200374
_publ_section_title
;
Structure prediction by ZEFSAII (Michael W. Deem and Ramdas Pophale) SiO2 
 PCOD9200374
Probable space group: C 2/M
;
_chemical_formula_sum "Si O2"
_cell_formula_units_Z 48
_cell_length_a 28.793857
_cell_length_b 20.142309
_cell_length_c 13.001102
_cell_angle_alpha 90.000000
_cell_angle_beta 161.278249
_cell_angle_gamma 90.000000
_cell_volume 2420.232902
_symmetry_space_group_name_H-M "C 2/M"
_symmetry_group_IT_number 12
_symmetry_cell_setting 'monoclinic'
loop_
_space_group_symop_operation_xyz
x,y,z
-x,y,-z
-x,-y,-z
x,-y,z
1/2+x,1/2+y,z
1/2-x,1/2+y,-z
1/2-x,1/2-y,-z
1/2+x,1/2-y,z
loop_
_atom_site_type_symbol
_atom_site_label
_atom_site_fract_x
_atom_site_fract_y
_atom_site_fract_z
Si Si1 0.804742 0.693774 0.787580
Si Si2 0.026386 0.819985 0.934420
Si Si3 0.470398 0.074218 0.058521
Si Si4 0.834511 0.148220 0.120230
Si Si5 0.713739 0.578825 0.193551
Si Si6 0.862598 0.700793 0.137494
O O1 0.632739 0.697903 0.443231
O O2 0.844803 0.626635 0.813328
O O3 0.885498 0.687884 0.066400
O O4 0.868804 0.756613 0.861387
O O5 0.000000 0.834016 0.000000
O O6 0.101856 0.879027 0.028479
O O7 0.622132 0.095032 0.428181
O O8 0.433050 0.000000 0.017097
O O9 0.500000 0.071371 0.000000
O O10 0.803702 0.223497 0.016077
O O11 0.000000 0.142651 0.500000
O O12 0.802067 0.099467 0.958821
O O13 0.742581 0.146775 0.031939
O O14 0.692492 0.500000 0.162875
O O15 0.000000 0.700951 0.500000
#
# Coordination Sequence:
#
# PCOD9200374 Si02
#       6
#     8   8   8   8   8   8
#     4  12  23  39  64  91 123 158 200 261 297 359
#     4  12  25  40  61  92 124 159 206 252 305 357
#     4  10  22  41  63  87 120 163 203 243 303 366
#     4  10  20  37  57  85 117 155 197 240 298 356
#     4  11  23  41  64  88 124 164 202 249 302 363
#     4  10  21  34  61  86 117 153 195 246 296 358
#
# _framework density 19.832802000000001
#
# number of rings (size 3 to 8) (size 9 to 14) (size 15 to 20)
#    0.000    1.167    1.667    5.000    4.667    1.333 
#    0.000    0.833    0.000    3.000    0.000    0.000 
#    0.000    0.000    0.000    0.000    0.000    0.000 
#
# Total GULP energy -134041.384400 kJ/mol
# GULP energy per Si atom -5585.057683 kJ/mol
# Density = 1.978766 g / cm^3
# Si number density = 19.832802 Si / 1000 Ang^3
#
#
#
# Elastic Constant Matrix: (Units=GPa)
#
#
# Indices 1 2 3 4 5 6 
#
# 1 64.8625 20.5057 -4.1590 0.0000 -5.1183 0.0000
# 2 20.5057 76.6919 27.1698 0.0000 21.7992 0.0000
# 3 -4.1590 27.1698 79.9369 0.0000 5.5011 0.0000
# 4 0.0000 0.0000 0.0000 13.5952 0.0000 6.7512
# 5 -5.1183 21.7992 5.5011 0.0000 37.7963 0.0000
# 6 0.0000 0.0000 0.0000 6.7512 0.0000 35.6473
#
#
#
# Elastic Compliance Matrix: (Units=1/GPa)
#
#
# Indices 1 2 3 4 5 6 
#
# 1 0.018703 -0.008059 0.003251 0.000000 0.006708 0.000000
# 2 -0.008059 0.021065 -0.006735 0.000000 -0.012260 0.000000
# 3 0.003251 -0.006735 0.014819 0.000000 0.002168 0.000000
# 4 0.000000 0.000000 0.000000 0.081191 0.000000 -0.015377
# 5 0.006708 -0.012260 0.002168 0.000000 0.034122 0.000000
# 6 0.000000 0.000000 0.000000 -0.015377 0.000000 0.030965
#
#
# Mechanical properties :
#
#
# Convention : Reuss Voigt Hill
#
# Bulk Modulus (GPa) = 31.74647 34.28048 33.01348
# Shear Modulus (GPa) = 21.32635 29.27274 25.29954
#
# Velocity S-wave (km/s) = 3.28274 3.84601 3.57549
# Velocity P-wave (km/s) = 5.51456 6.08643 5.80754
#
# Compressibility (1/GPa) = 0.03149956
#
# Stress axis : x y z
#
# Youngs Moduli (GPa) = 53.46822 47.47206 67.48064
#
# Poissons Ratio (x) = 0.38257 -0.21935
# Poissons Ratio (y) = 0.43089 0.45451
# Poissons Ratio (z) = -0.17380 0.31974
#
# Static dielectric constant tensor:
#      x y z
#    x 1.659530 0.000000 0.028140 
#    y 0.000000 1.692820 0.000000 
#    z 0.028140 0.000000 1.751990 
# 
# From -- ./inp_files/184827.got.cif
#   From: 2010.05.17/outbox.cif.g08.bks.cpg/sg12_93_cif.got.tgz:184827.got - 2010.06.03 13:09:07.
