data_PCOD9200617
_publ_section_title
;
Structure prediction by ZEFSAII (Michael W. Deem and Ramdas Pophale) SiO2 
 PCOD9200617
Probable space group: C 2/M
;
_chemical_formula_sum "Si O2"
_cell_formula_units_Z 56
_cell_length_a 28.478451
_cell_length_b 7.835944
_cell_length_c 12.285380
_cell_angle_alpha 90.000000
_cell_angle_beta 105.156364
_cell_angle_gamma 90.000000
_cell_volume 2646.188312
_symmetry_space_group_name_H-M "C 2/M"
_symmetry_group_IT_number 12
_symmetry_cell_setting 'monoclinic'
loop_
_space_group_symop_operation_xyz
x,y,z
-x,y,-z
-x,-y,-z
x,-y,z
1/2+x,1/2+y,z
1/2-x,1/2+y,-z
1/2-x,1/2-y,-z
1/2+x,1/2-y,z
loop_
_atom_site_type_symbol
_atom_site_label
_atom_site_fract_x
_atom_site_fract_y
_atom_site_fract_z
Si Si1 0.806814 0.295296 0.033888
Si Si2 0.353097 0.210752 0.834270
Si Si3 0.992044 0.793645 0.667416
Si Si4 0.729677 0.805442 0.371037
Si Si5 0.180912 0.700730 0.718126
Si Si6 0.036387 0.701502 0.111857
Si Si7 0.079125 0.206239 0.563463
O O1 0.811698 0.500000 0.034690
O O2 0.827287 0.235897 0.163157
O O3 0.750000 0.250000 0.000000
O O4 0.832128 0.232885 0.938886
O O5 0.317582 0.274444 0.716140
O O6 0.408564 0.269118 0.855172
O O7 0.351958 0.000000 0.832555
O O8 0.986771 0.724100 0.784127
O O9 0.946463 0.740173 0.564413
O O10 0.041291 0.741516 0.635241
O O11 0.991939 0.000000 0.670735
O O12 0.750000 0.750000 0.500000
O O13 0.773508 0.789769 0.311165
O O14 0.716167 0.000000 0.380037
O O15 0.192734 0.500000 0.729718
O O16 0.132375 0.725618 0.619007
O O17 0.041296 0.500000 0.091238
O O18 0.000000 0.776267 0.000000
O O19 0.081450 0.000000 0.564814
#
# Coordination Sequence:
#
# PCOD9200617 Si02
#       7
#     8   8   8   8   8   8   8
#     4  10  20  37  59  82 114 149 191 238 283 342
#     4   9  20  39  59  82 115 157 193 237 293 344
#     4   9  20  40  61  83 114 151 195 241 290 349
#     4  11  23  40  61  84 121 161 200 244 292 350
#     4  11  23  36  59  92 119 147 194 244 291 352
#     4  10  22  38  60  86 117 155 195 239 294 350
#     4   9  20  39  61  84 115 154 190 236 297 350
#
# _framework density 21.162514999999999
#
# number of rings (size 3 to 8) (size 9 to 14) (size 15 to 20)
#    0.000    2.143    1.429    1.714    4.000    2.000 
#    0.000    2.857    0.000    0.000    0.000    0.000 
#    0.000    0.000    0.000    0.000    0.000    0.000 
#
# Total GULP energy -156346.116600 kJ/mol
# GULP energy per Si atom -5583.789879 kJ/mol
# Density = 2.111435 g / cm^3
# Si number density = 21.162515 Si / 1000 Ang^3
#
#
#
# Elastic Constant Matrix: (Units=GPa)
#
#
# Indices 1 2 3 4 5 6 
#
# 1 75.9610 -4.8852 60.6327 0.0000 23.6523 0.0000
# 2 -4.8852 16.5039 4.4741 0.0000 0.2585 0.0000
# 3 60.6327 4.4741 158.7894 0.0000 6.6680 0.0000
# 4 0.0000 0.0000 0.0000 19.1918 0.0000 -10.2464
# 5 23.6523 0.2585 6.6680 0.0000 34.7597 0.0000
# 6 0.0000 0.0000 0.0000 -10.2464 0.0000 8.8602
#
#
#
# Elastic Compliance Matrix: (Units=1/GPa)
#
#
# Indices 1 2 3 4 5 6 
#
# 1 0.026882 0.010894 -0.009880 0.000000 -0.016478 0.000000
# 2 0.010894 0.065473 -0.005719 0.000000 -0.006802 0.000000
# 3 -0.009880 -0.005719 0.010028 0.000000 0.004842 0.000000
# 4 0.000000 0.000000 0.000000 0.136198 0.000000 0.157506
# 5 -0.016478 -0.006802 0.004842 0.000000 0.039103 0.000000
# 6 0.000000 0.000000 0.000000 0.157506 0.000000 0.295012
#
#
# Mechanical properties :
#
#
# Convention : Reuss Voigt Hill
#
# Bulk Modulus (GPa) = 10.75577 41.29972 26.02775
# Shear Modulus (GPa) = 8.15531 25.29785 16.72658
#
# Velocity S-wave (km/s) = 1.96520 3.46122 2.81443
# Velocity P-wave (km/s) = 3.20045 5.96081 4.78404
#
# Compressibility (1/GPa) = 0.09297332
#
# Stress axis : x y z
#
# Youngs Moduli (GPa) = 37.19946 15.27344 99.72083
#
# Poissons Ratio (x) = -0.16638 0.98522
# Poissons Ratio (y) = -0.40523 0.57028
# Poissons Ratio (z) = 0.36752 0.08735
#
# Static dielectric constant tensor:
#      x y z
#    x 1.719470 0.000000 0.018140 
#    y 0.000000 1.768440 0.000000 
#    z 0.018140 0.000000 1.779610 
# 
# From -- ./inp_files/181076.got.cif
#   From: 2010.05.17/outbox.cif.g08.bks.cpg/sg12_91_cif.got.tgz:181076.got - 2010.06.03 13:09:07.
