data_PCOD9200381
_publ_section_title
;
Structure prediction by ZEFSAII (Michael W. Deem and Ramdas Pophale) SiO2 
 PCOD9200381
Probable space group: C 2/M
;
_chemical_formula_sum "Si O2"
_cell_formula_units_Z 48
_cell_length_a 8.212401
_cell_length_b 29.678919
_cell_length_c 10.848583
_cell_angle_alpha 90.000000
_cell_angle_beta 66.814364
_cell_angle_gamma 90.000000
_cell_volume 2430.621610
_symmetry_space_group_name_H-M "C 2/M"
_symmetry_group_IT_number 12
_symmetry_cell_setting 'monoclinic'
loop_
_space_group_symop_operation_xyz
x,y,z
-x,y,-z
-x,-y,-z
x,-y,z
1/2+x,1/2+y,z
1/2-x,1/2+y,-z
1/2-x,1/2-y,-z
1/2+x,1/2-y,z
loop_
_atom_site_type_symbol
_atom_site_label
_atom_site_fract_x
_atom_site_fract_y
_atom_site_fract_z
Si Si1 0.691665 0.369065 0.897629
Si Si2 0.805483 0.776519 0.361919
Si Si3 0.520840 0.803942 0.249013
Si Si4 0.074458 0.449044 0.115941
Si Si5 0.783650 0.608094 0.343949
Si Si6 0.908650 0.124582 0.352534
O O1 0.832274 0.328970 0.878077
O O2 0.762091 0.414699 0.936127
O O3 0.673556 0.380516 0.757862
O O4 0.500000 0.355242 0.000000
O O5 0.750000 0.750000 0.500000
O O6 0.633134 0.791893 0.337897
O O7 0.910655 0.821213 0.369137
O O8 0.922537 0.742260 0.244787
O O9 0.376063 0.842843 0.312544
O O10 0.118726 0.500000 0.140287
O O11 0.927937 0.427070 0.250786
O O12 0.000000 0.450092 0.000000
O O13 0.608463 0.607549 0.310952
O O14 0.712348 0.602920 0.504645
#
# Coordination Sequence:
#
# PCOD9200381 Si02
#       6
#     8   8   8   8   8   8
#     4  10  22  40  60  85 120 160 202 249 304 367
#     4  11  19  29  52  83 117 154 207 253 284 339
#     4  10  21  32  52  82 116 156 202 251 297 337
#     4  10  22  41  67  92 117 151 195 245 305 378
#     4  10  20  37  57  87 121 156 196 251 303 357
#     4  10  21  35  58  87 122 160 205 244 297 354
#
# _framework density 19.748034000000001
#
# number of rings (size 3 to 8) (size 9 to 14) (size 15 to 20)
#    0.000    1.833    1.667    2.500    4.667    2.333 
#    0.000    7.500    0.000   10.000    0.000    0.000 
#    0.000    0.000    0.000    0.000    0.000    0.000 
#
# Total GULP energy -133925.618666 kJ/mol
# GULP energy per Si atom -5580.234111 kJ/mol
# Density = 1.970309 g / cm^3
# Si number density = 19.748034 Si / 1000 Ang^3
#
#
#
# Elastic Constant Matrix: (Units=GPa)
#
#
# Indices 1 2 3 4 5 6 
#
# 1 45.5859 -2.7347 7.0491 0.0000 -12.3664 0.0000
# 2 -2.7347 75.2331 16.6721 0.0000 -4.0602 0.0000
# 3 7.0491 16.6721 44.5967 0.0000 -15.4623 0.0000
# 4 0.0000 0.0000 0.0000 8.3878 0.0000 11.0675
# 5 -12.3664 -4.0602 -15.4623 0.0000 36.9352 0.0000
# 6 0.0000 0.0000 0.0000 11.0675 0.0000 20.9606
#
#
#
# Elastic Compliance Matrix: (Units=1/GPa)
#
#
# Indices 1 2 3 4 5 6 
#
# 1 0.024381 0.001709 -0.001868 0.000000 0.007569 0.000000
# 2 0.001709 0.014632 -0.005830 0.000000 -0.000260 0.000000
# 3 -0.001868 -0.005830 0.028612 0.000000 0.010711 0.000000
# 4 0.000000 0.000000 0.000000 0.393087 0.000000 -0.207557
# 5 0.007569 -0.000260 0.010711 0.000000 0.034064 0.000000
# 6 0.000000 0.000000 0.000000 -0.207557 0.000000 0.157302
#
#
# Mechanical properties :
#
#
# Convention : Reuss Voigt Hill
#
# Bulk Modulus (GPa) = 17.97092 23.04320 20.50706
# Shear Modulus (GPa) = 7.32486 22.88532 15.10509
#
# Velocity S-wave (km/s) = 1.92801 3.40791 2.76867
# Velocity P-wave (km/s) = 3.75182 5.21335 4.54176
#
# Compressibility (1/GPa) = 0.05564546
#
# Stress axis : x y z
#
# Youngs Moduli (GPa) = 41.01504 68.34269 34.95041
#
# Poissons Ratio (x) = -0.11678 0.06530
# Poissons Ratio (y) = -0.07008 0.20378
# Poissons Ratio (z) = 0.07663 0.39847
#
# Static dielectric constant tensor:
#      x y z
#    x 1.699880 0.000000 -0.016870 
#    y 0.000000 1.690630 0.000000 
#    z -0.016870 0.000000 1.728450 
# 
# From -- ./inp_files/123496.got.cif
#   From: 2010.05.17/outbox.cif.g08.bks.cpg/sg12_62_cif.got.tgz:123496.got - 2010.06.03 13:09:07.
