data_PCOD9200270
_publ_section_title
;
Structure prediction by ZEFSAII (Michael W. Deem and Ramdas Pophale) SiO2 
 PCOD9200270
Probable space group: C 2/M
;
_chemical_formula_sum "Si O2"
_cell_formula_units_Z 56
_cell_length_a 29.461415
_cell_length_b 8.729523
_cell_length_c 14.641881
_cell_angle_alpha 90.000000
_cell_angle_beta 60.075331
_cell_angle_gamma 90.000000
_cell_volume 3263.629019
_symmetry_space_group_name_H-M "C 2/M"
_symmetry_group_IT_number 12
_symmetry_cell_setting 'monoclinic'
loop_
_space_group_symop_operation_xyz
x,y,z
-x,y,-z
-x,-y,-z
x,-y,z
1/2+x,1/2+y,z
1/2-x,1/2+y,-z
1/2-x,1/2-y,-z
1/2+x,1/2-y,z
loop_
_atom_site_type_symbol
_atom_site_label
_atom_site_fract_x
_atom_site_fract_y
_atom_site_fract_z
Si Si1 0.450005 0.186256 0.611007
Si Si2 0.861881 0.319773 0.567197
Si Si3 0.255946 0.680488 0.596017
Si Si4 0.652191 0.678141 0.764139
Si Si5 0.916088 0.823564 0.346582
Si Si6 0.974236 0.316235 0.794641
Si Si7 0.944216 0.814524 0.009795
O O1 0.500000 0.239041 0.500000
O O2 0.395300 0.236310 0.620559
O O3 0.455082 0.227048 0.712130
O O4 0.450628 0.000000 0.605385
O O5 0.851770 0.500000 0.586465
O O6 0.808238 0.238483 0.593587
O O7 0.900914 0.287867 0.443610
O O8 0.258961 0.500000 0.581869
O O9 0.250000 0.750000 0.500000
O O10 0.205342 0.727396 0.705931
O O11 0.664246 0.500000 0.772281
O O12 0.627509 0.683957 0.687673
O O13 0.605748 0.728993 0.878349
O O14 0.970344 0.768555 0.249928
O O15 0.919696 0.000000 0.374470
O O16 0.980338 0.500000 0.791607
O O17 0.940343 0.259144 0.913762
O O18 0.944947 0.000000 0.002679
O O19 0.000000 0.769007 0.000000
#
# Coordination Sequence:
#
# PCOD9200270 Si02
#       7
#     8   8   8   8   8   8   8
#     4   9  18  34  54  79 111 146 181 221 274 327
#     4  11  21  36  57  79 109 148 186 223 271 328
#     4  12  24  37  55  81 114 145 182 227 273 324
#     4  10  21  37  56  77 110 150 185 221 271 327
#     4  11  20  32  52  80 114 147 182 223 267 322
#     4  11  21  34  54  81 113 147 186 225 267 326
#     4  10  20  37  56  78 111 147 180 223 276 326
#
# _framework density 17.158812999999999
#
# number of rings (size 3 to 8) (size 9 to 14) (size 15 to 20)
#    0.000    1.429    4.286    2.571    0.000    1.429 
#    0.000    3.571    0.000    0.857    0.000    0.000 
#    0.000    0.000    0.000    0.000    0.000    0.000 
#
# Total GULP energy -156269.455443 kJ/mol
# GULP energy per Si atom -5581.051980 kJ/mol
# Density = 1.711976 g / cm^3
# Si number density = 17.158813 Si / 1000 Ang^3
#
#
#
# Elastic Constant Matrix: (Units=GPa)
#
#
# Indices 1 2 3 4 5 6 
#
# 1 103.0396 36.2372 39.3545 0.0000 -2.1190 0.0000
# 2 36.2372 48.8923 17.7591 0.0000 -4.2066 0.0000
# 3 39.3545 17.7591 85.5003 0.0000 2.2549 0.0000
# 4 0.0000 0.0000 0.0000 20.7584 0.0000 -2.0668
# 5 -2.1190 -4.2066 2.2549 0.0000 26.9649 0.0000
# 6 0.0000 0.0000 0.0000 -2.0668 0.0000 21.3275
#
#
#
# Elastic Compliance Matrix: (Units=1/GPa)
#
#
# Indices 1 2 3 4 5 6 
#
# 1 0.014815 -0.009182 -0.004915 0.000000 0.000143 0.000000
# 2 -0.009182 0.028218 -0.001736 0.000000 0.003826 0.000000
# 3 -0.004915 -0.001736 0.014368 0.000000 -0.001859 0.000000
# 4 0.000000 0.000000 0.000000 0.048643 0.000000 0.004714
# 5 0.000143 0.003826 -0.001859 0.000000 0.037849 0.000000
# 6 0.000000 0.000000 0.000000 0.004714 0.000000 0.047345
#
#
# Mechanical properties :
#
#
# Convention : Reuss Voigt Hill
#
# Bulk Modulus (GPa) = 38.85901 47.12597 42.99249
# Shear Modulus (GPa) = 21.60000 23.41557 22.50779
#
# Velocity S-wave (km/s) = 3.55185 3.69811 3.62572
# Velocity P-wave (km/s) = 6.28623 6.76453 6.52976
#
# Compressibility (1/GPa) = 0.02573406
#
# Stress axis : x y z
#
# Youngs Moduli (GPa) = 67.50108 35.43800 69.59971
#
# Poissons Ratio (x) = 0.32540 0.34211
# Poissons Ratio (y) = 0.61982 0.12080
# Poissons Ratio (z) = 0.33180 0.06151
#
# Static dielectric constant tensor:
#      x y z
#    x 1.584210 0.000000 0.001270 
#    y 0.000000 1.585260 0.000000 
#    z 0.001270 0.000000 1.577620 
# 
# From -- ./inp_files/243623.got.cif
#   From: 2010.05.17/outbox.cif.g08.bks.cpg/sg12_122_cif.got.tgz:243623.got - 2010.06.03 13:09:07.
