data_PCOD9200750
_publ_section_title
;
Structure prediction by ZEFSAII (Michael W. Deem and Ramdas Pophale) SiO2 
 PCOD9200750
Probable space group: C 2/M
;
_chemical_formula_sum "Si O2"
_cell_formula_units_Z 56
_cell_length_a 9.399493
_cell_length_b 17.427393
_cell_length_c 30.670104
_cell_angle_alpha 90.000000
_cell_angle_beta 151.187004
_cell_angle_gamma 90.000000
_cell_volume 2421.342780
_symmetry_space_group_name_H-M "C 2/M"
_symmetry_group_IT_number 12
_symmetry_cell_setting 'monoclinic'
loop_
_space_group_symop_operation_xyz
x,y,z
-x,y,-z
-x,-y,-z
x,-y,z
1/2+x,1/2+y,z
1/2-x,1/2+y,-z
1/2-x,1/2-y,-z
1/2+x,1/2-y,z
loop_
_atom_site_type_symbol
_atom_site_label
_atom_site_fract_x
_atom_site_fract_y
_atom_site_fract_z
Si Si1 0.963493 0.087370 0.712833
Si Si2 0.550258 0.851755 0.915523
Si Si3 0.657497 0.368243 0.414548
Si Si4 0.370432 0.730753 0.134026
Si Si5 0.167089 0.083068 0.930204
Si Si6 0.086246 0.707112 0.663003
Si Si7 0.191900 0.916001 0.595605
O O1 0.005063 0.102708 0.672829
O O2 0.719619 0.148769 0.663297
O O3 0.263029 0.102237 0.820794
O O4 0.866156 0.000000 0.693755
O O5 0.666503 0.802783 0.906745
O O6 0.415904 0.792854 0.915442
O O7 0.783545 0.901045 0.005357
O O8 0.614106 0.276331 0.407279
O O9 0.519002 0.405878 0.419848
O O10 0.000000 0.386949 0.500000
O O11 0.631876 0.744525 0.238058
O O12 0.461019 0.656389 0.129173
O O13 0.024100 0.000000 0.884137
O O14 0.500000 0.078254 0.000000
O O15 0.914189 0.654659 0.651368
O O16 0.000000 0.912720 0.500000
O O17 0.337363 0.000000 0.636525
#
# Coordination Sequence:
#
# PCOD9200750 Si02
#       7
#     8   8   8   8   8   8   8
#     4  11  23  39  62  91 122 161 208 256 306 359
#     4  10  20  37  59  89 121 162 201 254 299 361
#     4  12  25  42  64  89 122 161 204 253 307 371
#     4  10  21  35  61  86 120 159 204 248 301 362
#     4   9  18  34  58  89 122 158 204 251 301 353
#     4  11  23  40  62  89 121 160 206 253 303 366
#     4  11  25  43  63  89 122 160 201 253 313 367
#
# _framework density 23.127663999999999
#
# number of rings (size 3 to 8) (size 9 to 14) (size 15 to 20)
#    0.000    1.429    1.429    3.857    2.000    8.000 
#    0.000    0.000    0.000    2.571    0.000    0.000 
#    0.000    0.000    0.000    0.000    0.000    0.000 
#
# Total GULP energy -156700.828249 kJ/mol
# GULP energy per Si atom -5596.458152 kJ/mol
# Density = 2.307502 g / cm^3
# Si number density = 23.127664 Si / 1000 Ang^3
#
#
#
# Elastic Constant Matrix: (Units=GPa)
#
#
# Indices 1 2 3 4 5 6 
#
# 1 98.1216 17.9061 18.7717 0.0006 -27.7198 0.0005
# 2 17.9061 89.8285 -8.0198 0.0015 -6.9654 0.0000
# 3 18.7717 -8.0198 38.6033 0.0056 -12.2599 0.0006
# 4 0.0006 0.0015 0.0056 -31.9737 0.0012 -25.5927
# 5 -27.7198 -6.9654 -12.2599 0.0012 32.3172 0.0010
# 6 0.0005 0.0000 0.0006 -25.5927 0.0010 -14.6893
#
#
#
# Elastic Compliance Matrix: (Units=1/GPa)
#
#
# Indices 1 2 3 4 5 6 
#
# 1 0.014315 -0.002447 -0.004249 0.000003 0.010139 -0.000004
# 2 -0.002447 0.012186 0.004422 -0.000003 0.002205 0.000005
# 3 -0.004249 0.004422 0.031875 -0.000012 0.009400 0.000022
# 4 0.000003 -0.000003 -0.000012 0.079267 -0.000001 -0.138104
# 5 0.010139 0.002205 0.009400 -0.000001 0.043682 0.000006
# 6 -0.000004 0.000005 0.000022 -0.138104 0.000006 0.172538
#
#
# Mechanical properties :
#
#
# Convention : Reuss Voigt Hill
#
# Bulk Modulus (GPa) = 18.57791 31.54105 25.05948
# Shear Modulus (GPa) = 13.28539 10.32387 11.80463
#
# Velocity S-wave (km/s) = 2.39934 2.11508 2.26168
# Velocity P-wave (km/s) = 3.96560 4.43082 4.20465
#
# Compressibility (1/GPa) = 0.05382737
#
# Stress axis : x y z
#
# Youngs Moduli (GPa) = 69.85521 82.06273 31.37272
#
# Poissons Ratio (x) = 0.20078 0.13331
# Poissons Ratio (y) = 0.17092 -0.13872
# Poissons Ratio (z) = 0.29683 -0.36286
#
# Static dielectric constant tensor:
#      x y z
#    x 1.851310 0.000000 -0.009970 
#    y 0.000000 1.881450 0.000000 
#    z -0.009970 0.000000 1.851380 
# 
# From -- ./inp_files/356739.got.cif
#   From: 2010.05.17/outbox.cif.g08.bks.cpg/sg12_179_cif.got.tgz:356739.got - 2010.06.03 13:09:07.
