data_PCOD9200960
_publ_section_title
;
Structure prediction by ZEFSAII (Michael W. Deem and Ramdas Pophale) SiO2 
 PCOD9200960
Probable space group: C 2/M
;
_chemical_formula_sum "Si O2"
_cell_formula_units_Z 64
_cell_length_a 19.295309
_cell_length_b 8.882898
_cell_length_c 31.684723
_cell_angle_alpha 90.000000
_cell_angle_beta 36.788668
_cell_angle_gamma 90.000000
_cell_volume 3252.261197
_symmetry_space_group_name_H-M "C 2/M"
_symmetry_group_IT_number 12
_symmetry_cell_setting 'monoclinic'
loop_
_space_group_symop_operation_xyz
x,y,z
-x,y,-z
-x,-y,-z
x,-y,z
1/2+x,1/2+y,z
1/2-x,1/2+y,-z
1/2-x,1/2-y,-z
1/2+x,1/2-y,z
loop_
_atom_site_type_symbol
_atom_site_label
_atom_site_fract_x
_atom_site_fract_y
_atom_site_fract_z
Si Si1 0.788395 0.820518 0.437357
Si Si2 0.458224 0.318385 0.716710
Si Si3 0.044983 0.319942 0.523885
Si Si4 0.915284 0.678682 0.828814
Si Si5 0.141502 0.820453 0.324410
Si Si6 0.320733 0.178154 0.062522
Si Si7 0.926223 0.321295 0.100609
Si Si8 0.383694 0.678891 0.211865
O O1 0.750000 0.750000 0.500000
O O2 0.912316 0.770755 0.360115
O O3 0.681103 0.787001 0.459338
O O4 0.796797 0.000000 0.438803
O O5 0.455966 0.500000 0.724203
O O6 0.428045 0.237889 0.774729
O O7 0.376882 0.284674 0.716277
O O8 0.030073 0.500000 0.537410
O O9 0.970946 0.236122 0.595543
O O10 0.000000 0.278213 0.500000
O O11 0.924990 0.500000 0.826169
O O12 0.786345 0.731856 0.904189
O O13 0.015037 0.751715 0.808815
O O14 0.256967 0.742418 0.285311
O O15 0.151035 0.000000 0.323486
O O16 0.348826 0.220436 0.097581
O O17 0.293079 0.000000 0.075977
O O18 0.440693 0.197555 0.978966
O O19 0.906902 0.500000 0.118150
O O20 0.903242 0.229746 0.153970
O O21 0.384831 0.500000 0.215339
#
# Coordination Sequence:
#
# PCOD9200960 Si02
#       8
#     8   8   8   8   8   8   8   8
#     4  10  20  37  60  87 118 153 198 246 301 360
#     4  10  22  40  62  87 120 161 199 245 304 361
#     4  10  22  38  59  88 120 158 201 248 301 358
#     4  12  26  41  60  90 123 159 204 252 298 353
#     4  11  23  41  63  88 119 158 204 250 301 360
#     4   9  19  39  67  95 125 162 198 241 296 353
#     4   9  19  39  67  96 125 159 201 243 291 354
#     4  12  26  42  61  86 122 163 202 248 307 359
#
# _framework density 19.678616000000002
#
# number of rings (size 3 to 8) (size 9 to 14) (size 15 to 20)
#    0.000    1.625    1.250    4.125    1.750    6.250 
#    0.000    1.250    0.000    0.000    0.000    0.000 
#    0.000    0.000    0.000    0.000    0.000    0.000 
#
# Total GULP energy -178872.399930 kJ/mol
# GULP energy per Si atom -5589.762498 kJ/mol
# Density = 1.963383 g / cm^3
# Si number density = 19.678616 Si / 1000 Ang^3
#
#
#
# Elastic Constant Matrix: (Units=GPa)
#
#
# Indices 1 2 3 4 5 6 
#
# 1 98.6503 47.5970 19.7361 0.0008 -26.2458 0.0141
# 2 47.5970 69.3986 26.5866 0.0006 -12.6737 0.0025
# 3 19.7361 26.5866 53.1812 0.0003 -15.9155 0.0001
# 4 0.0008 0.0006 0.0003 33.6026 -0.0007 1.6348
# 5 -26.2458 -12.6737 -15.9155 -0.0007 35.2896 -0.0002
# 6 0.0141 0.0025 0.0001 1.6348 -0.0002 25.7228
#
#
#
# Elastic Compliance Matrix: (Units=1/GPa)
#
#
# Indices 1 2 3 4 5 6 
#
# 1 0.017802 -0.011119 0.001987 0.000000 0.010143 -0.000009
# 2 -0.011119 0.025002 -0.009434 0.000000 -0.003545 0.000004
# 3 0.001987 -0.009434 0.025676 0.000000 0.009670 0.000000
# 4 0.000000 0.000000 0.000000 0.029852 0.000001 -0.001897
# 5 0.010143 -0.003545 0.009670 0.000001 0.038969 -0.000005
# 6 -0.000009 0.000004 0.000000 -0.001897 -0.000005 0.038997
#
#
# Mechanical properties :
#
#
# Convention : Reuss Voigt Hill
#
# Bulk Modulus (GPa) = 31.89733 45.45216 38.67475
# Shear Modulus (GPa) = 22.33355 27.41034 24.87194
#
# Velocity S-wave (km/s) = 3.37250 3.73621 3.55900
# Velocity P-wave (km/s) = 5.60441 6.46217 6.04851
#
# Compressibility (1/GPa) = 0.03135059
#
# Stress axis : x y z
#
# Youngs Moduli (GPa) = 56.17198 39.99673 38.94663
#
# Poissons Ratio (x) = 0.44472 -0.07741
# Poissons Ratio (y) = 0.62457 0.36741
# Poissons Ratio (z) = -0.11164 0.37732
#
# Static dielectric constant tensor:
#      x y z
#    x 1.689500 0.000000 -0.019230 
#    y 0.000000 1.657160 0.000000 
#    z -0.019230 0.000000 1.705440 
# 
# From -- ./inp_files/378035.got.cif
#   From: 2010.05.17/outbox.cif.g08.bks.cpg/sg12_190_cif.got.tgz:378035.got - 2010.06.03 13:09:07.
