data_PCOD9200988
_publ_section_title
;
Structure prediction by ZEFSAII (Michael W. Deem and Ramdas Pophale) SiO2 
 PCOD9200988
Probable space group: C 2/M
;
_chemical_formula_sum "Si O2"
_cell_formula_units_Z 58
_cell_length_a 7.773278
_cell_length_b 21.723367
_cell_length_c 17.054861
_cell_angle_alpha 90.000000
_cell_angle_beta 72.529395
_cell_angle_gamma 90.000000
_cell_volume 2747.066760
_symmetry_space_group_name_H-M "C 2/M"
_symmetry_group_IT_number 12
_symmetry_cell_setting 'monoclinic'
loop_
_space_group_symop_operation_xyz
x,y,z
-x,y,-z
-x,-y,-z
x,-y,z
1/2+x,1/2+y,z
1/2-x,1/2+y,-z
1/2-x,1/2-y,-z
1/2+x,1/2-y,z
loop_
_atom_site_type_symbol
_atom_site_label
_atom_site_fract_x
_atom_site_fract_y
_atom_site_fract_z
Si Si1 0.500000 0.500000 0.000000
Si Si2 0.291876 0.068534 0.097422
Si Si3 0.708080 0.320256 0.989596
Si Si4 0.018383 0.177748 0.403892
Si Si5 0.676191 0.082401 0.118091
Si Si6 0.419932 0.431377 0.710792
Si Si7 0.153735 0.432987 0.304883
Si Si8 0.610966 0.184302 0.404420
O O1 0.635809 0.552828 0.937959
O O2 0.258563 0.128874 0.049296
O O3 0.502429 0.063028 0.090524
O O4 0.186601 0.076615 0.193289
O O5 0.226107 0.000000 0.072936
O O6 0.500000 0.322731 0.000000
O O7 0.750000 0.250000 0.000000
O O8 0.809946 0.344935 0.898801
O O9 0.817270 0.176868 0.399048
O O10 0.000000 0.169480 0.500000
O O11 0.118901 0.122384 0.345876
O O12 0.090082 0.246203 0.376367
O O13 0.641832 0.068464 0.212738
O O14 0.376189 0.500000 0.686405
O O15 0.632699 0.430833 0.703326
O O16 0.084834 0.500000 0.342162
O O17 0.063641 0.372766 0.354841
O O18 0.500000 0.180678 0.500000
#
# Coordination Sequence:
#
# PCOD9200988 Si02
#       8
#     2   8   8   8   8   8   8   8
#     4  12  24  40  70 100 124 172 218 264 332 378
#     4  11  24  41  66  96 127 162 220 266 313 391
#     4  12  27  45  63  89 125 164 207 263 326 382
#     4  10  20  37  60  88 122 159 205 251 308 378
#     4  12  24  41  67  96 127 167 217 264 324 385
#     4   9  21  38  60  88 120 163 204 257 317 371
#     4  10  21  40  61  88 124 159 209 259 313 375
#     4  10  21  37  61  89 119 164 205 251 309 376
#
# _framework density 21.113429
#
# number of rings (size 3 to 8) (size 9 to 14) (size 15 to 20)
#    0.000    1.379    2.069    3.724    0.966    4.690 
#    0.000    2.759    0.000    0.000    0.000    0.000 
#    0.000    0.000    0.000    0.000    0.000    0.000 
#
# Total GULP energy -161723.327119 kJ/mol
# GULP energy per Si atom -5576.666452 kJ/mol
# Density = 2.106537 g / cm^3
# Si number density = 21.113429 Si / 1000 Ang^3
#
#
#
# Elastic Constant Matrix: (Units=GPa)
#
#
# Indices 1 2 3 4 5 6 
#
# 1 70.4681 41.8811 8.9722 0.0000 6.5274 0.0000
# 2 41.8811 242.6233 93.7074 0.0000 12.8262 0.0000
# 3 8.9722 93.7074 88.2842 0.0000 7.1574 0.0000
# 4 0.0000 0.0000 0.0000 31.7720 0.0000 -6.0328
# 5 6.5274 12.8262 7.1574 0.0000 27.6957 0.0000
# 6 0.0000 0.0000 0.0000 -6.0328 0.0000 -0.0604
#
#
#
# Elastic Compliance Matrix: (Units=1/GPa)
#
#
# Indices 1 2 3 4 5 6 
#
# 1 0.016273 -0.003576 0.002368 0.000000 -0.002791 0.000000
# 2 -0.003576 0.007821 -0.007877 0.000000 -0.000743 0.000000
# 3 0.002368 -0.007877 0.019608 0.000000 -0.001977 0.000000
# 4 0.000000 0.000000 0.000000 0.001577 0.000000 -0.157458
# 5 -0.002791 -0.000743 -0.001977 0.000000 0.037620 0.000000
# 6 0.000000 0.000000 0.000000 -0.157458 0.000000 -0.829262
#
#
# Mechanical properties :
#
#
# Convention : Reuss Voigt Hill
#
# Bulk Modulus (GPa) = 39.16745 76.72189 57.94467
# Shear Modulus (GPa) = -6.94750 29.00246 11.02748
#
# Velocity S-wave (km/s) = -1.81596 3.71030 2.28786
# Velocity P-wave (km/s) = 3.76753 7.40081 5.87223
#
# Compressibility (1/GPa) = 0.02553141
#
# Stress axis : x y z
#
# Youngs Moduli (GPa) = 61.45049 127.86619 50.99972
#
# Poissons Ratio (x) = 0.45728 -0.12079
# Poissons Ratio (y) = 0.21976 0.40174
# Poissons Ratio (z) = -0.14554 1.00725
#
# Static dielectric constant tensor:
#      x y z
#    x 1.352560 0.000000 -0.057420 
#    y 0.000000 1.853560 0.000000 
#    z -0.057420 0.000000 1.751740 
# 
# From -- ./inp_files/258049.got.cif
#   From: 2010.05.17/outbox.cif.g08.bks.cpg/sg12_130_cif.got.tgz:258049.got - 2010.06.03 13:09:07.
