data_PCOD9200516
_publ_section_title
;
Structure prediction by ZEFSAII (Michael W. Deem and Ramdas Pophale) SiO2 
 PCOD9200516
Probable space group: C 2/M
;
_chemical_formula_sum "Si O2"
_cell_formula_units_Z 56
_cell_length_a 23.866601
_cell_length_b 11.003514
_cell_length_c 11.379318
_cell_angle_alpha 90.000000
_cell_angle_beta 71.318893
_cell_angle_gamma 90.000000
_cell_volume 2830.955582
_symmetry_space_group_name_H-M "C 2/M"
_symmetry_group_IT_number 12
_symmetry_cell_setting 'monoclinic'
loop_
_space_group_symop_operation_xyz
x,y,z
-x,y,-z
-x,-y,-z
x,-y,z
1/2+x,1/2+y,z
1/2-x,1/2+y,-z
1/2-x,1/2-y,-z
1/2+x,1/2-y,z
loop_
_atom_site_type_symbol
_atom_site_label
_atom_site_fract_x
_atom_site_fract_y
_atom_site_fract_z
Si Si1 0.047387 0.361030 0.672481
Si Si2 0.826638 0.364868 0.445883
Si Si3 0.331332 0.639959 0.784935
Si Si4 0.261518 0.702915 0.297464
Si Si5 0.430251 0.135223 0.070309
Si Si6 0.854180 0.863795 0.041426
Si Si7 0.530474 0.639240 0.351386
O O1 0.025881 0.500000 0.662397
O O2 0.106654 0.334240 0.557878
O O3 0.072546 0.359762 0.787409
O O4 0.000664 0.252928 0.691763
O O5 0.828974 0.500000 0.394235
O O6 0.782055 0.366356 0.584958
O O7 0.802318 0.277158 0.361574
O O8 0.318612 0.500000 0.766763
O O9 0.282820 0.716690 0.750171
O O10 0.399146 0.661600 0.698746
O O11 0.329052 0.655772 0.927289
O O12 0.304332 0.638337 0.175959
O O13 0.397023 0.250213 0.038508
O O14 0.409341 0.000000 0.044406
O O15 0.500000 0.141987 0.000000
O O16 0.881887 0.000000 0.023124
O O17 0.500000 0.638831 0.500000
O O18 0.521575 0.500000 0.309384
#
# Coordination Sequence:
#
# PCOD9200516 Si02
#       7
#     8   8   8   8   8   8   8
#     4  10  20  37  58  85 115 149 194 243 298 352
#     4  10  21  37  59  86 117 152 199 254 301 353
#     4  10  22  39  60  86 121 161 201 244 300 361
#     4  11  21  38  60  85 118 159 201 246 300 358
#     4  10  21  38  60  86 116 154 201 246 294 358
#     4  11  23  39  59  89 124 157 200 250 298 360
#     4  10  21  38  59  87 118 153 200 246 294 357
#
# _framework density 19.781305
#
# number of rings (size 3 to 8) (size 9 to 14) (size 15 to 20)
#    0.000    1.714    1.429    3.000    0.000    1.714 
#    0.000    3.571    0.000    0.000    0.000    0.000 
#    0.000    0.000    0.000    0.000    0.000    0.000 
#
# Total GULP energy -156099.570163 kJ/mol
# GULP energy per Si atom -5574.984649 kJ/mol
# Density = 1.973628 g / cm^3
# Si number density = 19.781305 Si / 1000 Ang^3
#
#
#
# Elastic Constant Matrix: (Units=GPa)
#
#
# Indices 1 2 3 4 5 6 
#
# 1 54.2417 68.9959 5.8871 0.0000 -4.1509 0.0000
# 2 68.9959 157.1935 15.6621 0.0000 15.0602 0.0000
# 3 5.8871 15.6621 86.2669 0.0000 -11.0079 0.0000
# 4 0.0000 0.0000 0.0000 0.3605 0.0000 -7.4105
# 5 -4.1509 15.0602 -11.0079 0.0000 28.2640 0.0000
# 6 0.0000 0.0000 0.0000 -7.4105 0.0000 -21.1466
#
#
#
# Elastic Compliance Matrix: (Units=1/GPa)
#
#
# Indices 1 2 3 4 5 6 
#
# 1 0.052130 -0.025458 0.003970 0.000000 0.022767 0.000000
# 2 -0.025458 0.019400 -0.003768 0.000000 -0.015544 0.000000
# 3 0.003970 -0.003768 0.012981 0.000000 0.007647 0.000000
# 4 0.000000 0.000000 0.000000 0.338140 0.000000 -0.118496
# 5 0.022767 -0.015544 0.007647 0.000000 0.049985 0.000000
# 6 0.000000 0.000000 0.000000 -0.118496 0.000000 -0.005764
#
#
# Mechanical properties :
#
#
# Convention : Reuss Voigt Hill
#
# Bulk Modulus (GPa) = 29.41338 53.19916 41.30627
# Shear Modulus (GPa) = 9.45684 15.30604 12.38144
#
# Velocity S-wave (km/s) = 2.18885 2.78468 2.50455
# Velocity P-wave (km/s) = 4.61407 6.10666 5.41207
#
# Compressibility (1/GPa) = 0.03399813
#
# Stress axis : x y z
#
# Youngs Moduli (GPa) = 19.18281 51.54564 77.03622
#
# Poissons Ratio (x) = 1.31224 -0.30580
# Poissons Ratio (y) = 0.48835 0.29030
# Poissons Ratio (z) = -0.07615 0.19424
#
# Static dielectric constant tensor:
#      x y z
#    x 1.709310 0.000000 -0.072520 
#    y 0.000000 1.704720 0.000000 
#    z -0.072520 0.000000 1.773810 
# 
# From -- ./inp_files/180804.got.cif
#   From: 2010.05.17/outbox.cif.g08.bks.cpg/sg12_91_cif.got.tgz:180804.got - 2010.06.03 13:09:07.
