data_PCOD9200837
_publ_section_title
;
Structure prediction by ZEFSAII (Michael W. Deem and Ramdas Pophale) SiO2 
 PCOD9200837
Probable space group: C 2/M
;
_chemical_formula_sum "Si O2"
_cell_formula_units_Z 64
_cell_length_a 19.103004
_cell_length_b 20.314507
_cell_length_c 9.796674
_cell_angle_alpha 90.000000
_cell_angle_beta 49.987141
_cell_angle_gamma 90.000000
_cell_volume 2911.781427
_symmetry_space_group_name_H-M "C 2/M"
_symmetry_group_IT_number 12
_symmetry_cell_setting 'monoclinic'
loop_
_space_group_symop_operation_xyz
x,y,z
-x,y,-z
-x,-y,-z
x,-y,z
1/2+x,1/2+y,z
1/2-x,1/2+y,-z
1/2-x,1/2-y,-z
1/2+x,1/2-y,z
loop_
_atom_site_type_symbol
_atom_site_label
_atom_site_fract_x
_atom_site_fract_y
_atom_site_fract_z
Si Si1 0.079249 0.076017 0.598909
Si Si2 0.144715 0.718356 0.273505
Si Si3 0.355638 0.319580 0.262967
Si Si4 0.343918 0.696036 0.976027
Si Si5 0.978578 0.425906 0.183964
Si Si6 0.637647 0.804648 0.572713
Si Si7 0.132793 0.075434 0.229291
Si Si8 0.905635 0.429307 0.705633
O O1 0.103017 0.125642 0.689387
O O2 0.133247 0.090827 0.390113
O O3 0.972675 0.078706 0.689531
O O4 0.099058 0.000000 0.611713
O O5 0.252313 0.735201 0.134511
O O6 0.106936 0.731334 0.470874
O O7 0.139351 0.639632 0.271173
O O8 0.103445 0.756517 0.195978
O O9 0.385442 0.325537 0.068039
O O10 0.378957 0.246873 0.286621
O O11 0.244876 0.321875 0.418640
O O12 0.319565 0.631390 0.918651
O O13 0.938870 0.500000 0.241040
O O14 0.914446 0.371327 0.329771
O O15 0.067613 0.427133 0.168579
O O16 0.000000 0.411522 0.000000
O O17 0.164170 0.000000 0.171069
O O18 0.859786 0.500000 0.733040
O O19 0.000000 0.429795 0.500000
#
# Coordination Sequence:
#
# PCOD9200837 Si02
#       8
#     8   8   8   8   8   8   8   8
#     4   9  19  38  60  81 110 148 188 228 279 343
#     4  10  21  38  58  81 114 154 189 230 283 336
#     4  10  22  37  57  85 113 148 190 233 283 337
#     4  10  22  37  56  85 117 145 188 241 281 331
#     4  10  22  39  58  84 116 148 187 237 286 333
#     4  10  21  39  58  78 116 155 186 231 282 339
#     4   9  19  38  60  81 110 146 185 233 281 335
#     4  10  20  37  60  84 110 146 193 234 275 337
#
# _framework density 21.979672000000001
#
# number of rings (size 3 to 8) (size 9 to 14) (size 15 to 20)
#    0.000    2.250    1.250    1.500    1.750    4.000 
#    2.250    3.750    0.000    0.000    0.000    0.000 
#    0.000    0.000    0.000    0.000    0.000    0.000 
#
# Total GULP energy -178619.671633 kJ/mol
# GULP energy per Si atom -5581.864739 kJ/mol
# Density = 2.192965 g / cm^3
# Si number density = 21.979672 Si / 1000 Ang^3
#
#
#
# Elastic Constant Matrix: (Units=GPa)
#
#
# Indices 1 2 3 4 5 6 
#
# 1 36.7525 17.6763 23.1556 0.0000 18.2303 0.0000
# 2 17.6763 98.5534 34.6728 0.0000 13.1475 0.0000
# 3 23.1556 34.6728 101.3785 0.0000 23.9213 0.0000
# 4 0.0000 0.0000 0.0000 11.2136 0.0000 11.2080
# 5 18.2303 13.1475 23.9213 0.0000 35.5455 0.0000
# 6 0.0000 0.0000 0.0000 11.2080 0.0000 35.2711
#
#
#
# Elastic Compliance Matrix: (Units=1/GPa)
#
#
# Indices 1 2 3 4 5 6 
#
# 1 0.039473 -0.003510 -0.003976 0.000000 -0.016270 0.000000
# 2 -0.003510 0.011958 -0.003173 0.000000 -0.000487 0.000000
# 3 -0.003976 -0.003173 0.013195 0.000000 -0.005667 0.000000
# 4 0.000000 0.000000 0.000000 0.130685 0.000000 -0.041528
# 5 -0.016270 -0.000487 -0.005667 0.000000 0.040471 0.000000
# 6 0.000000 0.000000 0.000000 -0.041528 0.000000 0.041548
#
#
# Mechanical properties :
#
#
# Convention : Reuss Voigt Hill
#
# Bulk Modulus (GPa) = 23.09133 43.07708 33.08420
# Shear Modulus (GPa) = 15.97016 27.15133 21.56074
#
# Velocity S-wave (km/s) = 2.69845 3.51849 3.13539
# Velocity P-wave (km/s) = 4.49860 6.01228 5.30966
#
# Compressibility (1/GPa) = 0.04330630
#
# Stress axis : x y z
#
# Youngs Moduli (GPa) = 25.33369 83.62821 75.78902
#
# Poissons Ratio (x) = 0.29357 0.30135
# Poissons Ratio (y) = 0.08893 0.24047
# Poissons Ratio (z) = 0.10073 0.26535
#
# Static dielectric constant tensor:
#      x y z
#    x 1.871940 0.000000 0.001360 
#    y 0.000000 1.800060 0.000000 
#    z 0.001360 0.000000 1.836830 
# 
# From -- ./inp_files/98838.got.cif
#   From: 2010.05.17/outbox.cif.g08.bks.cpg/sg12_50_cif.got.tgz:98838.got - 2010.06.03 13:09:07.
