data_PCOD9200749
_publ_section_title
;
Structure prediction by ZEFSAII (Michael W. Deem and Ramdas Pophale) SiO2 
 PCOD9200749
Probable space group: C 2/M
;
_chemical_formula_sum "Si O2"
_cell_formula_units_Z 44
_cell_length_a 23.401246
_cell_length_b 10.988538
_cell_length_c 24.705099
_cell_angle_alpha 90.000000
_cell_angle_beta 19.587488
_cell_angle_gamma 90.000000
_cell_volume 2129.751298
_symmetry_space_group_name_H-M "C 2/M"
_symmetry_group_IT_number 12
_symmetry_cell_setting 'monoclinic'
loop_
_space_group_symop_operation_xyz
x,y,z
-x,y,-z
-x,-y,-z
x,-y,z
1/2+x,1/2+y,z
1/2-x,1/2+y,-z
1/2-x,1/2-y,-z
1/2+x,1/2-y,z
loop_
_atom_site_type_symbol
_atom_site_label
_atom_site_fract_x
_atom_site_fract_y
_atom_site_fract_z
Si Si1 0.132601 0.133645 0.206605
Si Si2 0.863503 0.869327 0.011038
Si Si3 0.904295 0.866661 0.302743
Si Si4 0.500000 0.285691 0.000000
Si Si5 0.719547 0.636102 0.427303
Si Si6 0.695198 0.357118 0.324155
O O1 0.250503 0.249270 0.107196
O O2 0.032356 0.140846 0.239009
O O3 0.984429 0.136512 0.383764
O O4 0.218607 0.000000 0.132456
O O5 0.961955 0.860424 0.979854
O O6 0.769405 0.000000 0.093361
O O7 0.988849 0.867988 0.848045
O O8 0.790624 0.746436 0.399276
O O9 0.816120 0.000000 0.385849
O O10 0.330872 0.207197 0.164383
O O11 0.777431 0.500000 0.392586
O O12 0.762076 0.652863 0.326335
O O13 0.500000 0.309271 0.500000
O O14 0.686505 0.500000 0.317949
#
# Coordination Sequence:
#
# PCOD9200749 Si02
#       6
#     8   8   8   4   8   8
#     4  10  22  39  63  90 120 156 200 250 308 368
#     4  11  24  40  60  87 123 160 203 252 301 362
#     4  10  21  39  60  88 122 159 198 246 304 368
#     4  12  22  40  64  84 125 168 209 250 317 356
#     4  10  20  37  59  89 121 154 199 253 304 365
#     4  10  21  37  59  90 125 161 208 258 305 366
#
# _framework density 20.659687999999999
#
# number of rings (size 3 to 8) (size 9 to 14) (size 15 to 20)
#    0.000    1.636    1.818    2.727    0.000    5.091 
#    0.000    0.000    0.000    2.727    0.000    0.000 
#    0.000    0.000    0.000    0.000    0.000    0.000 
#
# Total GULP energy -122826.386369 kJ/mol
# GULP energy per Si atom -5583.017562 kJ/mol
# Density = 2.061267 g / cm^3
# Si number density = 20.659688 Si / 1000 Ang^3
#
#
#
# Elastic Constant Matrix: (Units=GPa)
#
#
# Indices 1 2 3 4 5 6 
#
# 1 61.8563 23.7298 14.6697 0.0003 15.6116 0.0043
# 2 23.7298 180.3295 37.8312 0.0048 -25.9231 0.0103
# 3 14.6697 37.8312 73.5631 0.0020 11.7604 0.0043
# 4 0.0003 0.0048 0.0020 34.9419 -0.0009 -20.0289
# 5 15.6116 -25.9231 11.7604 -0.0009 35.3923 -0.0004
# 6 0.0043 0.0103 0.0043 -20.0289 -0.0004 -38.6418
#
#
#
# Elastic Compliance Matrix: (Units=1/GPa)
#
#
# Indices 1 2 3 4 5 6 
#
# 1 0.021142 -0.004677 0.000241 0.000001 -0.012832 0.000001
# 2 -0.004677 0.008705 -0.005168 0.000000 0.010156 0.000001
# 3 0.000241 -0.005168 0.017769 0.000000 -0.009796 0.000001
# 4 0.000001 0.000000 0.000000 0.022064 0.000000 -0.011436
# 5 -0.012832 0.010156 -0.009796 0.000000 0.044609 0.000000
# 6 0.000001 0.000001 0.000001 -0.011436 0.000000 -0.019951
#
#
# Mechanical properties :
#
#
# Convention : Reuss Voigt Hill
#
# Bulk Modulus (GPa) = 35.20118 52.02339 43.61228
# Shear Modulus (GPa) = 40.64507 22.30635 31.47571
#
# Velocity S-wave (km/s) = 4.44031 3.28945 3.90748
# Velocity P-wave (km/s) = 6.58513 6.29786 6.44310
#
# Compressibility (1/GPa) = 0.02840814
#
# Stress axis : x y z
#
# Youngs Moduli (GPa) = 47.29854 114.87620 56.27654
#
# Poissons Ratio (x) = 0.53730 -0.01354
# Poissons Ratio (y) = 0.22123 0.29082
# Poissons Ratio (z) = -0.01138 0.59364
#
# Static dielectric constant tensor:
#      x y z
#    x 1.747790 0.000000 0.001440 
#    y 0.000000 1.764220 0.000000 
#    z 0.001440 0.000000 1.726670 
# 
# From -- ./inp_files/369001.got.cif
#   From: 2010.05.17/outbox.cif.g08.bks.cpg/sg12_185_cif.got.tgz:369001.got - 2010.06.03 13:09:07.
