data_PCOD9200889
_publ_section_title
;
Structure prediction by ZEFSAII (Michael W. Deem and Ramdas Pophale) SiO2 
 PCOD9200889
Probable space group: C 2/M
;
_chemical_formula_sum "Si O2"
_cell_formula_units_Z 56
_cell_length_a 30.838078
_cell_length_b 9.006315
_cell_length_c 11.917651
_cell_angle_alpha 90.000000
_cell_angle_beta 115.279795
_cell_angle_gamma 90.000000
_cell_volume 2992.991933
_symmetry_space_group_name_H-M "C 2/M"
_symmetry_group_IT_number 12
_symmetry_cell_setting 'monoclinic'
loop_
_space_group_symop_operation_xyz
x,y,z
-x,y,-z
-x,-y,-z
x,-y,z
1/2+x,1/2+y,z
1/2-x,1/2+y,-z
1/2-x,1/2-y,-z
1/2+x,1/2-y,z
loop_
_atom_site_type_symbol
_atom_site_label
_atom_site_fract_x
_atom_site_fract_y
_atom_site_fract_z
Si Si1 0.548881 0.325225 0.125514
Si Si2 0.480191 0.823440 0.675333
Si Si3 0.597610 0.676007 0.552978
Si Si4 0.279026 0.175734 0.691199
Si Si5 0.317210 0.174819 0.483452
Si Si6 0.593505 0.823024 0.781405
Si Si7 0.631027 0.178370 0.066247
O O1 0.556216 0.500000 0.155088
O O2 0.541882 0.239618 0.234195
O O3 0.592328 0.259107 0.101644
O O4 0.500000 0.307627 0.000000
O O5 0.452343 0.747373 0.542572
O O6 0.536918 0.792793 0.737114
O O7 0.473277 0.000000 0.661713
O O8 0.594554 0.500000 0.547694
O O9 0.637967 0.734007 0.512141
O O10 0.609764 0.735245 0.690033
O O11 0.306916 0.199449 0.604066
O O12 0.230826 0.270665 0.632407
O O13 0.315823 0.212753 0.830830
O O14 0.266911 0.000000 0.682949
O O15 0.325455 0.000000 0.475172
O O16 0.598809 0.000000 0.768094
O O17 0.621038 0.783299 0.926014
O O18 0.624092 0.000000 0.070478
#
# Coordination Sequence:
#
# PCOD9200889 Si02
#       7
#     8   8   8   8   8   8   8
#     4  11  22  34  53  84 121 153 187 235 284 332
#     4  11  22  38  60  83 112 152 198 240 284 341
#     4  12  25  39  58  83 114 150 192 241 291 340
#     4   9  19  36  61  90 116 143 181 233 288 338
#     4  10  20  37  61  88 117 148 185 230 283 344
#     4  10  22  39  58  81 112 153 198 239 280 339
#     4  10  20  37  60  85 115 155 196 234 284 344
#
# _framework density 18.710374999999999
#
# number of rings (size 3 to 8) (size 9 to 14) (size 15 to 20)
#    0.000    1.571    1.429    3.857    0.000    6.286 
#    0.000    0.714    0.000    0.000    0.000    0.000 
#    0.000    0.000    0.000    0.000    0.000    0.000 
#
# Total GULP energy -156538.449914 kJ/mol
# GULP energy per Si atom -5590.658926 kJ/mol
# Density = 1.866779 g / cm^3
# Si number density = 18.710375 Si / 1000 Ang^3
#
#
#
# Elastic Constant Matrix: (Units=GPa)
#
#
# Indices 1 2 3 4 5 6 
#
# 1 26.7783 22.9759 23.5339 0.0000 6.3430 0.0000
# 2 22.9759 52.3296 39.1053 0.0000 5.1270 0.0000
# 3 23.5339 39.1053 105.4650 0.0000 17.8123 0.0000
# 4 0.0000 0.0000 0.0000 18.1839 0.0000 6.1936
# 5 6.3430 5.1270 17.8123 0.0000 24.1533 0.0000
# 6 0.0000 0.0000 0.0000 6.1936 0.0000 26.3801
#
#
#
# Elastic Compliance Matrix: (Units=1/GPa)
#
#
# Indices 1 2 3 4 5 6 
#
# 1 0.063478 -0.024255 -0.003684 0.000000 -0.008805 0.000000
# 2 -0.024255 0.035774 -0.008733 0.000000 0.005216 0.000000
# 3 -0.003684 -0.008733 0.014925 0.000000 -0.008185 0.000000
# 4 0.000000 0.000000 0.000000 0.059774 0.000000 -0.014034
# 5 -0.008805 0.005216 -0.008185 0.000000 0.048643 0.000000
# 6 0.000000 0.000000 0.000000 -0.014034 0.000000 0.041202
#
#
# Mechanical properties :
#
#
# Convention : Reuss Voigt Hill
#
# Bulk Modulus (GPa) = 24.49074 39.53367 32.01221
# Shear Modulus (GPa) = 14.25511 20.34065 17.29788
#
# Velocity S-wave (km/s) = 2.76322 3.30075 3.04387
# Velocity P-wave (km/s) = 4.82683 5.97509 5.43139
#
# Compressibility (1/GPa) = 0.04083175
#
# Stress axis : x y z
#
# Youngs Moduli (GPa) = 15.75354 27.95305 67.00358
#
# Poissons Ratio (x) = 0.67799 0.24686
# Poissons Ratio (y) = 0.38210 0.58517
# Poissons Ratio (z) = 0.05804 0.24413
#
# Static dielectric constant tensor:
#      x y z
#    x 1.618060 0.000000 0.006370 
#    y 0.000000 1.621460 0.000000 
#    z 0.006370 0.000000 1.652780 
# 
# From -- ./inp_files/187233.got.cif
#   From: 2010.05.17/outbox.cif.g08.bks.cpg/sg12_94_cif.got.tgz:187233.got - 2010.06.03 13:09:07.
