data_PCOD9200719
_publ_section_title
;
Structure prediction by ZEFSAII (Michael W. Deem and Ramdas Pophale) SiO2 
 PCOD9200719
Probable space group: C 2/M
;
_chemical_formula_sum "Si O2"
_cell_formula_units_Z 56
_cell_length_a 19.922606
_cell_length_b 16.751177
_cell_length_c 19.834038
_cell_angle_alpha 90.000000
_cell_angle_beta 156.420375
_cell_angle_gamma 90.000000
_cell_volume 2647.815547
_symmetry_space_group_name_H-M "C 2/M"
_symmetry_group_IT_number 12
_symmetry_cell_setting 'monoclinic'
loop_
_space_group_symop_operation_xyz
x,y,z
-x,y,-z
-x,-y,-z
x,-y,z
1/2+x,1/2+y,z
1/2-x,1/2+y,-z
1/2-x,1/2-y,-z
1/2+x,1/2-y,z
loop_
_atom_site_type_symbol
_atom_site_label
_atom_site_fract_x
_atom_site_fract_y
_atom_site_fract_z
Si Si1 0.964351 0.902693 0.891293
Si Si2 0.693644 0.408890 0.979793
Si Si3 0.061869 0.141445 0.722185
Si Si4 0.924873 0.596211 0.003377
Si Si5 0.707145 0.906329 0.375853
Si Si6 0.508897 0.821825 0.301846
Si Si7 0.909508 0.403931 0.485664
O O1 0.782690 0.877625 0.698277
O O2 0.099378 0.879868 0.959860
O O3 0.964577 0.000000 0.893277
O O4 0.000000 0.875017 0.000000
O O5 0.750454 0.500000 0.042503
O O6 0.578779 0.406154 0.808273
O O7 0.850883 0.352562 0.113572
O O8 0.017861 0.230977 0.703642
O O9 0.900683 0.108131 0.533866
O O10 0.243074 0.133887 0.853002
O O11 0.898055 0.500000 0.979243
O O12 0.071167 0.612512 0.192795
O O13 0.000000 0.619399 0.000000
O O14 0.666293 0.849737 0.402122
O O15 0.685530 0.000000 0.374281
O O16 0.511450 0.869248 0.374500
O O17 0.916076 0.500000 0.495347
O O18 0.000000 0.379673 0.500000
#
# Coordination Sequence:
#
# PCOD9200719 Si02
#       7
#     8   8   8   8   8   8   8
#     4   9  18  33  56  87 118 157 212 269 320 373
#     4  11  21  37  64  90 122 169 221 270 323 396
#     4  12  25  43  65  98 140 171 218 281 345 399
#     4  10  23  46  73 100 128 170 230 286 335 397
#     4  11  23  42  72 100 129 175 225 274 329 400
#     4  12  24  40  62  96 136 172 214 269 337 400
#     4  10  20  37  59  86 124 169 222 272 316 388
#
# _framework density 21.149509999999999
#
# number of rings (size 3 to 8) (size 9 to 14) (size 15 to 20)
#    0.000    1.286    1.429    5.143    0.000    4.000 
#    2.571    2.857    0.000    0.000    0.000    0.000 
#    0.000    0.000    0.000    0.000    0.000    0.000 
#
# Total GULP energy -156479.610341 kJ/mol
# GULP energy per Si atom -5588.557512 kJ/mol
# Density = 2.110137 g / cm^3
# Si number density = 21.149510 Si / 1000 Ang^3
#
#
#
# Elastic Constant Matrix: (Units=GPa)
#
#
# Indices 1 2 3 4 5 6 
#
# 1 129.7319 28.3397 51.9573 0.0014 7.2368 -0.0043
# 2 28.3397 59.7844 31.8312 -0.0014 5.8600 -0.0035
# 3 51.9573 31.8312 128.0695 -0.0017 20.3789 -0.0004
# 4 0.0014 -0.0014 -0.0017 36.3055 0.0000 21.4311
# 5 7.2368 5.8600 20.3789 0.0000 31.9803 -0.0033
# 6 -0.0043 -0.0035 -0.0004 21.4311 -0.0033 21.1170
#
#
#
# Elastic Compliance Matrix: (Units=1/GPa)
#
#
# Indices 1 2 3 4 5 6 
#
# 1 0.009614 -0.002866 -0.003256 -0.000004 0.000424 0.000005
# 2 -0.002866 0.020140 -0.003738 -0.000002 -0.000660 0.000005
# 3 -0.003256 -0.003738 0.010941 0.000004 -0.005551 -0.000006
# 4 -0.000004 -0.000002 0.000004 0.068703 -0.000009 -0.069725
# 5 0.000424 -0.000660 -0.005551 -0.000009 0.034831 0.000014
# 6 0.000005 0.000005 -0.000006 -0.069725 0.000014 0.118117
#
#
# Mechanical properties :
#
#
# Convention : Reuss Voigt Hill
#
# Bulk Modulus (GPa) = 47.67156 60.20469 53.93812
# Shear Modulus (GPa) = 17.29754 31.57773 24.43764
#
# Velocity S-wave (km/s) = 2.86294 3.86822 3.40291
# Velocity P-wave (km/s) = 5.78946 6.96268 6.40299
#
# Compressibility (1/GPa) = 0.02097687
#
# Stress axis : x y z
#
# Youngs Moduli (GPa) = 104.00981 49.65197 91.39557
#
# Poissons Ratio (x) = 0.14228 0.29757
# Poissons Ratio (y) = 0.29806 0.34165
# Poissons Ratio (z) = 0.33863 0.18561
#
# Static dielectric constant tensor:
#      x y z
#    x 1.766270 0.000000 0.026290 
#    y 0.000000 1.769440 -0.000010 
#    z 0.026290 -0.000010 1.799210 
# 
# From -- ./inp_files/322726.got.cif
#   From: 2010.05.17/outbox.cif.g08.bks.cpg/sg12_162_cif.got.tgz:322726.got - 2010.06.03 13:09:07.
