data_PCOD9200742
_publ_section_title
;
Structure prediction by ZEFSAII (Michael W. Deem and Ramdas Pophale) SiO2 
 PCOD9200742
Probable space group: C 2/M
;
_chemical_formula_sum "Si O2"
_cell_formula_units_Z 40
_cell_length_a 12.787621
_cell_length_b 27.146741
_cell_length_c 10.044494
_cell_angle_alpha 90.000000
_cell_angle_beta 146.961848
_cell_angle_gamma 90.000000
_cell_volume 1901.031305
_symmetry_space_group_name_H-M "C 2/M"
_symmetry_group_IT_number 12
_symmetry_cell_setting 'monoclinic'
loop_
_space_group_symop_operation_xyz
x,y,z
-x,y,-z
-x,-y,-z
x,-y,z
1/2+x,1/2+y,z
1/2-x,1/2+y,-z
1/2-x,1/2-y,-z
1/2+x,1/2-y,z
loop_
_atom_site_type_symbol
_atom_site_label
_atom_site_fract_x
_atom_site_fract_y
_atom_site_fract_z
Si Si1 0.446048 0.162948 0.244501
Si Si2 0.781683 0.077576 0.317885
Si Si3 0.729865 0.688472 0.740853
Si Si4 0.712625 0.701771 0.249658
Si Si5 0.997410 0.446648 0.223820
O O1 0.328570 0.186295 0.241294
O O2 0.663415 0.181587 0.495811
O O3 0.456096 0.103435 0.259709
O O4 0.335171 0.181480 0.995238
O O5 0.735553 0.135567 0.288156
O O6 0.706455 0.055065 0.375371
O O7 0.000000 0.071952 0.500000
O O8 0.650893 0.057377 0.058515
O O9 0.500000 0.693245 0.500000
O O10 0.796949 0.739265 0.749159
O O11 0.500000 0.681975 0.000000
O O12 0.972679 0.500000 0.263625
#
# Coordination Sequence:
#
# PCOD9200742 Si02
#       5
#     8   8   8   8   8
#     4  10  23  42  56  85 124 151 203 244 281 355
#     4   9  19  34  56  89 123 144 185 235 295 365
#     4  10  20  37  59  88 124 158 183 232 299 358
#     4  11  24  38  59  83 118 163 201 237 287 339
#     4  10  21  37  59  83 113 155 195 242 295 336
#
# _framework density 21.04121
#
# number of rings (size 3 to 8) (size 9 to 14) (size 15 to 20)
#    0.000    2.000    2.000    1.800    5.600    7.200 
#    0.000    2.000    0.000    1.200    0.000    0.000 
#    0.000    0.000    0.000    0.000    0.000    0.000 
#
# Total GULP energy -111601.498038 kJ/mol
# GULP energy per Si atom -5580.074902 kJ/mol
# Density = 2.099332 g / cm^3
# Si number density = 21.041210 Si / 1000 Ang^3
#
#
#
# Elastic Constant Matrix: (Units=GPa)
#
#
# Indices 1 2 3 4 5 6 
#
# 1 40.7211 13.4254 27.7160 0.0000 10.2373 0.0000
# 2 13.4254 151.4746 31.8592 0.0000 -8.1225 0.0000
# 3 27.7160 31.8592 155.0417 0.0000 15.7100 0.0000
# 4 0.0000 0.0000 0.0000 8.0961 0.0000 3.1258
# 5 10.2373 -8.1225 15.7100 0.0000 33.6320 0.0000
# 6 0.0000 0.0000 0.0000 3.1258 0.0000 14.6469
#
#
#
# Elastic Compliance Matrix: (Units=1/GPa)
#
#
# Indices 1 2 3 4 5 6 
#
# 1 0.030046 -0.002210 -0.004132 0.000000 -0.007749 0.000000
# 2 -0.002210 0.007259 -0.001409 0.000000 0.003084 0.000000
# 3 -0.004132 -0.001409 0.007752 0.000000 -0.002704 0.000000
# 4 0.000000 0.000000 0.000000 0.134607 0.000000 -0.028727
# 5 -0.007749 0.003084 -0.002704 0.000000 0.034100 0.000000
# 6 0.000000 0.000000 0.000000 -0.028727 0.000000 0.074404
#
#
# Mechanical properties :
#
#
# Convention : Reuss Voigt Hill
#
# Bulk Modulus (GPa) = 33.83374 54.80430 44.31902
# Shear Modulus (GPa) = 15.94781 29.55745 22.75263
#
# Velocity S-wave (km/s) = 2.75604 3.75205 3.29194
# Velocity P-wave (km/s) = 5.12273 6.69875 5.96304
#
# Compressibility (1/GPa) = 0.02955630
#
# Stress axis : x y z
#
# Youngs Moduli (GPa) = 33.28196 137.75298 128.99779
#
# Poissons Ratio (x) = 0.30437 0.53302
# Poissons Ratio (y) = 0.07354 0.18179
# Poissons Ratio (z) = 0.13752 0.19413
#
# Static dielectric constant tensor:
#      x y z
#    x 1.793820 0.000000 0.031290 
#    y 0.000000 1.774350 0.000000 
#    z 0.031290 0.000000 1.779680 
# 
# From -- ./inp_files/149348.got.cif
#   From: 2010.05.17/outbox.cif.g08.bks.cpg/sg12_75_cif.got.tgz:149348.got - 2010.06.03 13:09:07.
