data_PCOD9200716
_publ_section_title
;
Structure prediction by ZEFSAII (Michael W. Deem and Ramdas Pophale) SiO2 
 PCOD9200716
Probable space group: C 2/M
;
_chemical_formula_sum "Si O2"
_cell_formula_units_Z 58
_cell_length_a 14.598173
_cell_length_b 22.471236
_cell_length_c 9.871694
_cell_angle_alpha 90.000000
_cell_angle_beta 99.594215
_cell_angle_gamma 90.000000
_cell_volume 3193.006006
_symmetry_space_group_name_H-M "C 2/M"
_symmetry_group_IT_number 12
_symmetry_cell_setting 'monoclinic'
loop_
_space_group_symop_operation_xyz
x,y,z
-x,y,-z
-x,-y,-z
x,-y,z
1/2+x,1/2+y,z
1/2-x,1/2+y,-z
1/2-x,1/2-y,-z
1/2+x,1/2-y,z
loop_
_atom_site_type_symbol
_atom_site_label
_atom_site_fract_x
_atom_site_fract_y
_atom_site_fract_z
Si Si1 0.500000 0.500000 0.000000
Si Si2 0.077106 0.429158 0.406561
Si Si3 0.481441 0.159340 0.838404
Si Si4 0.642183 0.272856 0.125498
Si Si5 0.573922 0.398876 0.207461
Si Si6 0.423800 0.644719 0.365489
Si Si7 0.289926 0.429734 0.515874
Si Si8 0.144716 0.741030 0.809874
O O1 0.562028 0.447895 0.090761
O O2 0.070251 0.500000 0.378191
O O3 0.059048 0.391963 0.265966
O O4 0.180378 0.417103 0.488604
O O5 0.000000 0.413772 0.500000
O O6 0.411617 0.215817 0.828609
O O7 0.576309 0.184757 0.796378
O O8 0.500000 0.141691 0.000000
O O9 0.592164 0.333279 0.154687
O O10 0.749170 0.274318 0.197324
O O11 0.641639 0.265589 0.963237
O O12 0.477876 0.395177 0.268660
O O13 0.656477 0.414510 0.332213
O O14 0.500000 0.656821 0.500000
O O15 0.339958 0.608656 0.412045
O O16 0.390980 0.706454 0.294188
O O17 0.302977 0.500000 0.492399
#
# Coordination Sequence:
#
# PCOD9200716 Si02
#       8
#     2   8   8   8   8   8   8   8
#     4  12  24  36  66  88 126 162 206 242 308 380
#     4  10  23  43  66  88 121 167 209 259 312 364
#     4  10  21  39  63  92 122 162 205 258 312 366
#     4  10  21  38  60  86 124 159 195 256 308 359
#     4  11  22  38  59  92 122 160 201 254 303 373
#     4  10  21  36  59  86 120 157 199 253 306 371
#     4  10  22  41  60  83 123 160 204 252 310 365
#     4  10  20  37  59  86 121 159 198 248 310 361
#
# _framework density 18.1647
#
# number of rings (size 3 to 8) (size 9 to 14) (size 15 to 20)
#    0.000    1.793    2.069    1.655    3.862    1.655 
#    0.000    2.069    0.000    0.000    0.000    0.000 
#    0.000    0.000    0.000    0.000    0.000    0.000 
#
# Total GULP energy -161686.104410 kJ/mol
# GULP energy per Si atom -5575.382911 kJ/mol
# Density = 1.812336 g / cm^3
# Si number density = 18.164700 Si / 1000 Ang^3
#
#
#
# Elastic Constant Matrix: (Units=GPa)
#
#
# Indices 1 2 3 4 5 6 
#
# 1 120.9104 41.0700 38.3098 0.0000 2.6731 0.0000
# 2 41.0700 84.1965 52.4200 0.0000 1.0576 0.0000
# 3 38.3098 52.4200 57.8496 0.0000 5.8122 0.0000
# 4 0.0000 0.0000 0.0000 19.8932 0.0000 4.6345
# 5 2.6731 1.0576 5.8122 0.0000 17.1856 0.0000
# 6 0.0000 0.0000 0.0000 4.6345 0.0000 20.7716
#
#
#
# Elastic Compliance Matrix: (Units=1/GPa)
#
#
# Indices 1 2 3 4 5 6 
#
# 1 0.010590 -0.001801 -0.005411 0.000000 0.000294 0.000000
# 2 -0.001801 0.028373 -0.025227 0.000000 0.007066 0.000000
# 3 -0.005411 -0.025227 0.045018 0.000000 -0.012831 0.000000
# 4 0.000000 0.000000 0.000000 0.053025 0.000000 -0.011831
# 5 0.000294 0.007066 -0.012831 0.000000 0.062047 0.000000
# 6 0.000000 0.000000 0.000000 -0.011831 0.000000 0.050782
#
#
# Mechanical properties :
#
#
# Convention : Reuss Voigt Hill
#
# Bulk Modulus (GPa) = 52.34686 58.50622 55.42654
# Shear Modulus (GPa) = 15.57236 20.31386 17.94311
#
# Velocity S-wave (km/s) = 2.93112 3.34775 3.14634
# Velocity P-wave (km/s) = 6.35104 6.87182 6.61656
#
# Compressibility (1/GPa) = 0.01910334
#
# Stress axis : x y z
#
# Youngs Moduli (GPa) = 94.42722 35.24493 22.21313
#
# Poissons Ratio (x) = 0.06346 0.12020
# Poissons Ratio (y) = 0.17002 0.56038
# Poissons Ratio (z) = 0.51095 0.88914
#
# Static dielectric constant tensor:
#      x y z
#    x 1.632300 0.000000 -0.004200 
#    y 0.000000 1.586330 0.000000 
#    z -0.004200 0.000000 1.621040 
# 
# From -- ./inp_files/65396.got.cif
#   From: 2010.05.17/outbox.cif.g08.bks.cpg/sg12_33_cif.got.tgz:65396.got - 2010.06.03 13:09:07.
