data_PCOD9200658
_publ_section_title
;
Structure prediction by ZEFSAII (Michael W. Deem and Ramdas Pophale) SiO2 
 PCOD9200658
Probable space group: C 2/M
;
_chemical_formula_sum "Si O2"
_cell_formula_units_Z 48
_cell_length_a 28.043477
_cell_length_b 23.734735
_cell_length_c 9.700516
_cell_angle_alpha 90.000000
_cell_angle_beta 153.045094
_cell_angle_gamma 90.000000
_cell_volume 2926.754946
_symmetry_space_group_name_H-M "C 2/M"
_symmetry_group_IT_number 12
_symmetry_cell_setting 'monoclinic'
loop_
_space_group_symop_operation_xyz
x,y,z
-x,y,-z
-x,-y,-z
x,-y,z
1/2+x,1/2+y,z
1/2-x,1/2+y,-z
1/2-x,1/2-y,-z
1/2+x,1/2-y,z
loop_
_atom_site_type_symbol
_atom_site_label
_atom_site_fract_x
_atom_site_fract_y
_atom_site_fract_z
Si Si1 0.691791 0.231611 0.208558
Si Si2 0.391292 0.434336 0.135724
Si Si3 0.973106 0.064027 0.770283
Si Si4 0.754181 0.830049 0.863397
Si Si5 0.661045 0.672222 0.613730
Si Si6 0.529452 0.782947 0.234859
O O1 0.750000 0.250000 0.500000
O O2 0.696170 0.284577 0.114884
O O3 0.757122 0.183592 0.298004
O O4 0.574761 0.212065 0.942807
O O5 0.500000 0.422960 0.500000
O O6 0.363881 0.500000 0.087644
O O7 0.425464 0.426263 0.064832
O O8 0.301820 0.390748 0.948108
O O9 0.887350 0.110454 0.513658
O O10 0.937677 0.000000 0.649077
O O11 0.000000 0.068558 0.000000
O O12 0.628727 0.822038 0.527838
O O13 0.787907 0.816893 0.106265
O O14 0.570675 0.718849 0.357843
O O15 0.500000 0.792242 0.000000
#
# Coordination Sequence:
#
# PCOD9200658 Si02
#       6
#     8   8   8   8   8   8
#     4  11  22  36  56  79 106 153 187 224 281 335
#     4  10  20  37  59  84 113 147 184 227 282 336
#     4  10  21  34  55  85 115 145 183 233 281 329
#     4  11  23  35  55  85 111 145 186 234 275 334
#     4  11  22  35  55  81 114 146 183 229 279 332
#     4  11  21  36  53  79 110 144 188 227 273 331
#
# _framework density 16.400417000000001
#
# number of rings (size 3 to 8) (size 9 to 14) (size 15 to 20)
#    0.000    1.333    5.000    3.500    2.333    2.000 
#    0.000    0.000    0.000    1.500    0.000    2.333 
#    0.000    0.000    0.000    0.000    0.000    0.000 
#
# Total GULP energy -133955.751258 kJ/mol
# GULP energy per Si atom -5581.489636 kJ/mol
# Density = 1.636309 g / cm^3
# Si number density = 16.400417 Si / 1000 Ang^3
#
#
#
# Elastic Constant Matrix: (Units=GPa)
#
#
# Indices 1 2 3 4 5 6 
#
# 1 113.6706 40.0345 39.4075 0.0000 7.0075 0.0000
# 2 40.0345 93.2587 46.8920 0.0000 17.5403 0.0000
# 3 39.4075 46.8920 76.6764 0.0000 2.1711 0.0000
# 4 0.0000 0.0000 0.0000 16.5039 0.0000 -3.3993
# 5 7.0075 17.5403 2.1711 0.0000 39.5411 0.0000
# 6 0.0000 0.0000 0.0000 -3.3993 0.0000 19.0041
#
#
#
# Elastic Compliance Matrix: (Units=1/GPa)
#
#
# Indices 1 2 3 4 5 6 
#
# 1 0.011188 -0.002610 -0.004137 0.000000 -0.000598 0.000000
# 2 -0.002610 0.017873 -0.009392 0.000000 -0.006950 0.000000
# 3 -0.004137 -0.009392 0.020805 0.000000 0.003757 0.000000
# 4 0.000000 0.000000 0.000000 0.062910 0.000000 0.011253
# 5 -0.000598 -0.006950 0.003757 0.000000 0.028273 0.000000
# 6 0.000000 0.000000 0.000000 0.011253 0.000000 0.054633
#
#
# Mechanical properties :
#
#
# Convention : Reuss Voigt Hill
#
# Bulk Modulus (GPa) = 56.85685 59.58597 58.22141
# Shear Modulus (GPa) = 21.38378 25.49459 23.43919
#
# Velocity S-wave (km/s) = 3.61481 3.94700 3.78455
# Velocity P-wave (km/s) = 7.22258 7.56192 7.39420
#
# Compressibility (1/GPa) = 0.01758803
#
# Stress axis : x y z
#
# Youngs Moduli (GPa) = 89.38465 55.94987 48.06491
#
# Poissons Ratio (x) = 0.14605 0.19882
# Poissons Ratio (y) = 0.23332 0.45143
# Poissons Ratio (z) = 0.36974 0.52549
#
# Static dielectric constant tensor:
#      x y z
#    x 1.569100 0.000000 -0.016360 
#    y 0.000000 1.546380 0.000000 
#    z -0.016360 0.000000 1.547390 
# 
# From -- ./inp_files/106819.got.cif
#   From: 2010.05.17/outbox.cif.g08.bks.cpg/sg12_54_cif.got.tgz:106819.got - 2010.06.03 13:09:07.
