data_PCOD9200680
_publ_section_title
;
Structure prediction by ZEFSAII (Michael W. Deem and Ramdas Pophale) SiO2 
 PCOD9200680
Probable space group: C 2/M
;
_chemical_formula_sum "Si O2"
_cell_formula_units_Z 40
_cell_length_a 15.412094
_cell_length_b 15.746616
_cell_length_c 7.085932
_cell_angle_alpha 90.000000
_cell_angle_beta 100.524194
_cell_angle_gamma 90.000000
_cell_volume 1690.744410
_symmetry_space_group_name_H-M "C 2/M"
_symmetry_group_IT_number 12
_symmetry_cell_setting 'monoclinic'
loop_
_space_group_symop_operation_xyz
x,y,z
-x,y,-z
-x,-y,-z
x,-y,z
1/2+x,1/2+y,z
1/2-x,1/2+y,-z
1/2-x,1/2-y,-z
1/2+x,1/2-y,z
loop_
_atom_site_type_symbol
_atom_site_label
_atom_site_fract_x
_atom_site_fract_y
_atom_site_fract_z
Si Si1 0.999503 0.408119 0.771495
Si Si2 0.659811 0.660679 0.332053
Si Si3 0.174403 0.093646 0.925850
Si Si4 0.026951 0.221744 0.786388
Si Si5 0.802573 0.359103 0.691656
O O1 0.034250 0.500000 0.721670
O O2 0.896733 0.397069 0.675404
O O3 0.042733 0.318687 0.728868
O O4 0.000000 0.408745 0.000000
O O5 0.557126 0.676000 0.341801
O O6 0.724529 0.622758 0.513677
O O7 0.689487 0.757230 0.296230
O O8 0.668408 0.606766 0.146033
O O9 0.113674 0.165951 0.810689
O O10 0.271768 0.106332 0.881698
O O11 0.142018 0.000000 0.863398
O O12 0.000000 0.225200 0.000000
#
# Coordination Sequence:
#
# PCOD9200680 Si02
#       5
#     8   8   8   8   8
#     4   9  17  32  56  81 107 144 187 232 283 334
#     4   9  20  37  57  80 115 154 186 230 283 335
#     4  11  22  35  57  87 117 150 187 230 279 336
#     4   8  17  34  52  78 114 150 185 224 278 339
#     4  10  20  37  59  85 111 146 193 237 283 334
#
# _framework density 23.658218999999999
#
# number of rings (size 3 to 8) (size 9 to 14) (size 15 to 20)
#    0.000    2.600    0.000    2.400    0.000    6.000 
#    0.000    1.000    0.000    3.600    0.000   25.200 
#    0.000    0.000    0.000    0.000    0.000    0.000 
#
# Total GULP energy -111836.550632 kJ/mol
# GULP energy per Si atom -5591.827532 kJ/mol
# Density = 2.360437 g / cm^3
# Si number density = 23.658219 Si / 1000 Ang^3
#
#
#
# Elastic Constant Matrix: (Units=GPa)
#
#
# Indices 1 2 3 4 5 6 
#
# 1 49.7979 28.6465 18.7652 0.0000 4.5581 0.0000
# 2 28.6465 114.7602 5.7905 0.0000 -6.4709 0.0000
# 3 18.7652 5.7905 77.0726 0.0000 11.1919 0.0000
# 4 0.0000 0.0000 0.0000 -18.3440 0.0000 -0.0164
# 5 4.5581 -6.4709 11.1919 0.0000 32.6172 0.0000
# 6 0.0000 0.0000 0.0000 -0.0164 0.0000 8.4797
#
#
#
# Elastic Compliance Matrix: (Units=1/GPa)
#
#
# Indices 1 2 3 4 5 6 
#
# 1 0.026095 -0.006412 -0.005428 0.000000 -0.003056 0.000000
# 2 -0.006412 0.010457 0.000362 0.000000 0.002846 0.000000
# 3 -0.005428 0.000362 0.014890 0.000000 -0.004279 0.000000
# 4 0.000000 0.000000 0.000000 -0.054514 0.000000 -0.000105
# 5 -0.003056 0.002846 -0.004279 0.000000 0.033119 0.000000
# 6 0.000000 0.000000 0.000000 -0.000105 0.000000 0.117929
#
#
# Mechanical properties :
#
#
# Convention : Reuss Voigt Hill
#
# Bulk Modulus (GPa) = 35.10454 38.67058 36.88756
# Shear Modulus (GPa) = 27.71197 17.11248 22.41223
#
# Velocity S-wave (km/s) = 3.42621 2.69238 3.08122
# Velocity P-wave (km/s) = 5.52470 5.10355 5.31829
#
# Compressibility (1/GPa) = 0.02848634
#
# Stress axis : x y z
#
# Youngs Moduli (GPa) = 38.32152 95.63263 67.15706
#
# Poissons Ratio (x) = 0.61323 0.36452
# Poissons Ratio (y) = 0.24573 -0.02433
# Poissons Ratio (z) = 0.20801 -0.03465
#
# Static dielectric constant tensor:
#      x y z
#    x 1.849390 0.000000 0.008240 
#    y 0.000000 1.861280 0.000000 
#    z 0.008240 0.000000 1.946190 
# 
# From -- ./inp_files/59200.got.cif
#   From: 2010.05.17/outbox.cif.g08.bks.cpg/sg12_30_cif.got.tgz:59200.got - 2010.06.03 13:09:07.
