data_PCOD9200967
_publ_section_title
;
Structure prediction by ZEFSAII (Michael W. Deem and Ramdas Pophale) SiO2 
 PCOD9200967
Probable space group: C 2/M
;
_chemical_formula_sum "Si O2"
_cell_formula_units_Z 56
_cell_length_a 26.043942
_cell_length_b 7.866917
_cell_length_c 14.881744
_cell_angle_alpha 90.000000
_cell_angle_beta 121.408285
_cell_angle_gamma 90.000000
_cell_volume 2602.292742
_symmetry_space_group_name_H-M "C 2/M"
_symmetry_group_IT_number 12
_symmetry_cell_setting 'monoclinic'
loop_
_space_group_symop_operation_xyz
x,y,z
-x,y,-z
-x,-y,-z
x,-y,z
1/2+x,1/2+y,z
1/2-x,1/2+y,-z
1/2-x,1/2-y,-z
1/2+x,1/2-y,z
loop_
_atom_site_type_symbol
_atom_site_label
_atom_site_fract_x
_atom_site_fract_y
_atom_site_fract_z
Si Si1 0.749828 0.209035 0.774466
Si Si2 0.996893 0.705666 0.392665
Si Si3 0.529336 0.198344 0.934673
Si Si4 0.429511 0.699803 0.704091
Si Si5 0.794934 0.204783 0.621020
Si Si6 0.635113 0.198822 0.770129
Si Si7 0.658499 0.303420 0.988356
O O1 0.770609 0.265798 0.695213
O O2 0.683799 0.268390 0.744597
O O3 0.749924 0.000000 0.774131
O O4 0.796589 0.262847 0.894421
O O5 0.999939 0.500000 0.388177
O O6 0.932380 0.769248 0.296621
O O7 0.000000 0.750474 0.500000
O O8 0.050225 0.775603 0.380016
O O9 0.479900 0.213326 0.811661
O O10 0.590618 0.289470 0.963235
O O11 0.544705 0.000000 0.961636
O O12 0.500000 0.264193 0.000000
O O13 0.431124 0.500000 0.727469
O O14 0.362670 0.766052 0.662951
O O15 0.750000 0.250000 0.500000
O O16 0.797854 0.000000 0.628146
O O17 0.660372 0.214169 0.893756
O O18 0.628605 0.000000 0.742446
O O19 0.673508 0.500000 0.985806
#
# Coordination Sequence:
#
# PCOD9200967 Si02
#       7
#     8   8   8   8   8   8   8
#     4   9  20  38  60  85 118 160 200 239 291 355
#     4  10  22  38  61  91 119 158 203 243 297 358
#     4  11  23  38  59  87 119 157 200 245 293 351
#     4  11  23  40  62  90 123 156 194 246 301 353
#     4  10  23  42  63  88 117 154 199 244 292 350
#     4  10  20  37  60  87 120 156 198 245 289 350
#     4  11  21  36  59  88 121 157 194 240 302 358
#
# _framework density 21.519487000000002
#
# number of rings (size 3 to 8) (size 9 to 14) (size 15 to 20)
#    0.000    1.714    1.429    2.571    2.000    3.714 
#    0.000    2.857    0.000    0.000    0.000    0.000 
#    0.000    0.000    0.000    0.000    0.000    0.000 
#
# Total GULP energy -156525.106836 kJ/mol
# GULP energy per Si atom -5590.182387 kJ/mol
# Density = 2.147051 g / cm^3
# Si number density = 21.519487 Si / 1000 Ang^3
#
#
#
# Elastic Constant Matrix: (Units=GPa)
#
#
# Indices 1 2 3 4 5 6 
#
# 1 160.8854 -0.2126 32.1622 0.0000 -14.7050 0.0000
# 2 -0.2126 23.8766 -6.8691 0.0000 3.4276 0.0000
# 3 32.1622 -6.8691 68.0434 0.0000 -11.1134 0.0000
# 4 0.0000 0.0000 0.0000 19.7369 0.0000 -5.6915
# 5 -14.7050 3.4276 -11.1134 0.0000 34.3997 0.0000
# 6 0.0000 0.0000 0.0000 -5.6915 0.0000 10.8714
#
#
#
# Elastic Compliance Matrix: (Units=1/GPa)
#
#
# Indices 1 2 3 4 5 6 
#
# 1 0.007025 -0.001130 -0.003089 0.000000 0.002118 0.000000
# 2 -0.001130 0.043622 0.004380 0.000000 -0.003414 0.000000
# 3 -0.003089 0.004380 0.017220 0.000000 0.003807 0.000000
# 4 0.000000 0.000000 0.000000 0.059676 0.000000 0.031243
# 5 0.002118 -0.003414 0.003807 0.000000 0.031545 0.000000
# 6 0.000000 0.000000 0.000000 0.031243 0.000000 0.108341
#
#
# Mechanical properties :
#
#
# Convention : Reuss Voigt Hill
#
# Bulk Modulus (GPa) = 14.66476 33.66292 24.16384
# Shear Modulus (GPa) = 17.25102 28.18325 22.71713
#
# Velocity S-wave (km/s) = 2.83441 3.62285 3.25261
# Velocity P-wave (km/s) = 4.18823 5.75995 5.03579
#
# Compressibility (1/GPa) = 0.06819066
#
# Stress axis : x y z
#
# Youngs Moduli (GPa) = 142.34571 22.92403 58.07064
#
# Poissons Ratio (x) = 0.02591 0.17937
# Poissons Ratio (y) = 0.16086 -0.25436
# Poissons Ratio (z) = 0.43968 -0.10041
#
# Static dielectric constant tensor:
#      x y z
#    x 1.773870 0.000000 0.001450 
#    y 0.000000 1.805890 0.000000 
#    z 0.001450 0.000000 1.745240 
# 
# From -- ./inp_files/238895.got.cif
#   From: 2010.05.17/outbox.cif.g08.bks.cpg/sg12_120_cif.got.tgz:238895.got - 2010.06.03 13:09:07.
