data_PCOD9200823
_publ_section_title
;
Structure prediction by ZEFSAII (Michael W. Deem and Ramdas Pophale) SiO2 
 PCOD9200823
Probable space group: C 2/M
;
_chemical_formula_sum "Si O2"
_cell_formula_units_Z 56
_cell_length_a 14.861761
_cell_length_b 9.189790
_cell_length_c 24.385961
_cell_angle_alpha 90.000000
_cell_angle_beta 116.536189
_cell_angle_gamma 90.000000
_cell_volume 2979.682878
_symmetry_space_group_name_H-M "C 2/M"
_symmetry_group_IT_number 12
_symmetry_cell_setting 'monoclinic'
loop_
_space_group_symop_operation_xyz
x,y,z
-x,y,-z
-x,-y,-z
x,-y,z
1/2+x,1/2+y,z
1/2-x,1/2+y,-z
1/2-x,1/2-y,-z
1/2+x,1/2-y,z
loop_
_atom_site_type_symbol
_atom_site_label
_atom_site_fract_x
_atom_site_fract_y
_atom_site_fract_z
Si Si1 0.410395 0.669312 0.932390
Si Si2 0.882931 0.834183 0.487619
Si Si3 0.946705 0.327347 0.610142
Si Si4 0.769138 0.826659 0.063415
Si Si5 0.007511 0.828633 0.839530
Si Si6 0.325329 0.826739 0.364315
Si Si7 0.625555 0.826610 0.286312
O O1 0.380097 0.500000 0.931959
O O2 0.318731 0.773882 0.920731
O O3 0.451218 0.686892 0.882329
O O4 0.500000 0.697415 0.000000
O O5 0.828614 0.739937 0.426443
O O6 0.000000 0.837688 0.500000
O O7 0.885081 0.761271 0.547743
O O8 0.845058 0.000000 0.478221
O O9 0.933029 0.500000 0.596417
O O10 0.065549 0.296367 0.633011
O O11 0.913383 0.294178 0.662689
O O12 0.877276 0.786403 0.117709
O O13 0.768448 0.000000 0.055264
O O14 0.750000 0.750000 0.000000
O O15 0.953090 0.735034 0.778729
O O16 0.004624 0.000000 0.823637
O O17 0.233120 0.750954 0.308520
O O18 0.311913 0.000000 0.362567
O O19 0.636188 0.000000 0.284160
#
# Coordination Sequence:
#
# PCOD9200823 Si02
#       7
#     8   8   8   8   8   8   8
#     4  10  20  39  63  88 119 154 189 233 290 345
#     4   9  17  31  55  87 116 145 188 243 294 338
#     4   9  20  38  58  81 113 153 194 237 288 347
#     4  11  22  38  62  92 121 152 191 236 288 345
#     4  10  23  42  60  82 119 157 192 234 290 352
#     4  10  20  37  60  83 113 153 195 237 292 351
#     4  11  24  40  58  83 115 151 197 244 285 339
#
# _framework density 18.793945999999998
#
# number of rings (size 3 to 8) (size 9 to 14) (size 15 to 20)
#    0.000    2.000    1.429    1.714    0.000    7.143 
#    0.000    4.286    0.000    0.000    0.000    0.000 
#    0.000    0.000    0.000    0.000    0.000    0.000 
#
# Total GULP energy -156463.163861 kJ/mol
# GULP energy per Si atom -5587.970138 kJ/mol
# Density = 1.875117 g / cm^3
# Si number density = 18.793946 Si / 1000 Ang^3
#
#
#
# Elastic Constant Matrix: (Units=GPa)
#
#
# Indices 1 2 3 4 5 6 
#
# 1 62.7575 32.5606 23.3529 0.0000 15.5730 0.0000
# 2 32.5606 58.0566 41.4167 0.0000 13.3935 0.0000
# 3 23.3529 41.4167 83.3732 0.0000 18.3869 0.0000
# 4 0.0000 0.0000 0.0000 38.4892 0.0000 0.7937
# 5 15.5730 13.3935 18.3869 0.0000 28.9653 0.0000
# 6 0.0000 0.0000 0.0000 0.7937 0.0000 28.2312
#
#
#
# Elastic Compliance Matrix: (Units=1/GPa)
#
#
# Indices 1 2 3 4 5 6 
#
# 1 0.023896 -0.012468 0.001235 0.000000 -0.007866 0.000000
# 2 -0.012468 0.033714 -0.013134 0.000000 -0.000548 0.000000
# 3 0.001235 -0.013134 0.019744 0.000000 -0.007124 0.000000
# 4 0.000000 0.000000 0.000000 0.025996 0.000000 -0.000731
# 5 -0.007866 -0.000548 -0.007124 0.000000 0.043529 0.000000
# 6 0.000000 0.000000 0.000000 -0.000731 0.000000 0.035442
#
#
# Mechanical properties :
#
#
# Convention : Reuss Voigt Hill
#
# Bulk Modulus (GPa) = 34.94223 44.31642 39.62933
# Shear Modulus (GPa) = 20.78180 26.26096 23.52138
#
# Velocity S-wave (km/s) = 3.32892 3.74212 3.54155
# Velocity P-wave (km/s) = 5.77999 6.50404 6.15268
#
# Compressibility (1/GPa) = 0.02861867
#
# Stress axis : x y z
#
# Youngs Moduli (GPa) = 41.84888 29.66157 50.64803
#
# Poissons Ratio (x) = 0.36983 -0.06257
# Poissons Ratio (y) = 0.52178 0.66524
# Poissons Ratio (z) = -0.05170 0.38959
#
# Static dielectric constant tensor:
#      x y z
#    x 1.664450 0.000000 0.007690 
#    y 0.000000 1.628330 0.000000 
#    z 0.007690 0.000000 1.616280 
# 
# From -- ./inp_files/309027.got.cif
#   From: 2010.05.17/outbox.cif.g08.bks.cpg/sg12_155_cif.got.tgz:309027.got - 2010.06.03 13:09:07.
