data_PCOD9200779
_publ_section_title
;
Structure prediction by ZEFSAII (Michael W. Deem and Ramdas Pophale) SiO2 
 PCOD9200779
Probable space group: C 2/M
;
_chemical_formula_sum "Si O2"
_cell_formula_units_Z 56
_cell_length_a 19.640962
_cell_length_b 7.766422
_cell_length_c 24.998112
_cell_angle_alpha 90.000000
_cell_angle_beta 43.527647
_cell_angle_gamma 90.000000
_cell_volume 2626.176299
_symmetry_space_group_name_H-M "C 2/M"
_symmetry_group_IT_number 12
_symmetry_cell_setting 'monoclinic'
loop_
_space_group_symop_operation_xyz
x,y,z
-x,y,-z
-x,-y,-z
x,-y,z
1/2+x,1/2+y,z
1/2-x,1/2+y,-z
1/2-x,1/2-y,-z
1/2+x,1/2-y,z
loop_
_atom_site_type_symbol
_atom_site_label
_atom_site_fract_x
_atom_site_fract_y
_atom_site_fract_z
Si Si1 0.452289 0.711666 0.813448
Si Si2 0.649492 0.704118 0.025445
Si Si3 0.256607 0.295337 0.862663
Si Si4 0.025847 0.202507 0.426692
Si Si5 0.317444 0.205305 0.511928
Si Si6 0.331260 0.704682 0.315031
Si Si7 0.766144 0.791172 0.737670
O O1 0.451305 0.500000 0.813416
O O2 0.433987 0.766372 0.885668
O O3 0.358969 0.770670 0.831174
O O4 0.559541 0.770645 0.733080
O O5 0.640762 0.500000 0.027078
O O6 0.750000 0.750000 0.000000
O O7 0.667643 0.767849 0.955194
O O8 0.269900 0.500000 0.850950
O O9 0.242141 0.228405 0.811047
O O10 0.927606 0.221486 0.447471
O O11 0.000000 0.278331 0.500000
O O12 0.124815 0.271370 0.342866
O O13 0.044863 0.000000 0.423813
O O14 0.250000 0.250000 0.500000
O O15 0.258051 0.273781 0.597786
O O16 0.327712 0.000000 0.509864
O O17 0.333019 0.500000 0.323576
O O18 0.308135 0.735549 0.266334
O O19 0.766219 0.000000 0.738583
#
# Coordination Sequence:
#
# PCOD9200779 Si02
#       7
#     8   8   8   8   8   8   8
#     4   8  16  32  54  77 101 136 177 215 259 312
#     4   9  16  30  53  78 106 136 174 219 264 315
#     4   9  18  33  55  79 105 137 178 219 261 319
#     4  10  20  37  60  80 106 145 185 222 268 324
#     4  11  24  38  57  82 111 143 181 228 273 322
#     4  10  21  37  56  77 106 142 179 220 266 319
#     4  10  21  36  56  80 108 144 179 219 269 321
#
# _framework density 21.323778000000001
#
# number of rings (size 3 to 8) (size 9 to 14) (size 15 to 20)
#    0.000    2.429    1.429    1.714    2.000    2.000 
#    0.000    4.286    0.000    4.286    0.000    0.000 
#    0.000    0.000    0.000    0.000    0.000    0.000 
#
# Total GULP energy -156191.387522 kJ/mol
# GULP energy per Si atom -5578.263840 kJ/mol
# Density = 2.127524 g / cm^3
# Si number density = 21.323778 Si / 1000 Ang^3
#
#
#
# Elastic Constant Matrix: (Units=GPa)
#
#
# Indices 1 2 3 4 5 6 
#
# 1 47.7074 -12.9273 -9.3099 0.0000 11.8155 0.0004
# 2 -12.9273 24.6775 1.5902 0.0004 -0.6386 0.0019
# 3 -9.3099 1.5902 33.5132 -0.0001 14.0248 0.0000
# 4 0.0000 0.0004 -0.0001 14.2838 -0.0001 2.2266
# 5 11.8155 -0.6386 14.0248 -0.0001 38.8016 0.0001
# 6 0.0004 0.0019 0.0000 2.2266 0.0001 21.2523
#
#
#
# Elastic Compliance Matrix: (Units=1/GPa)
#
#
# Indices 1 2 3 4 5 6 
#
# 1 0.031355 0.015152 0.014001 0.000000 -0.014359 -0.000002
# 2 0.015152 0.048054 0.004158 -0.000001 -0.005326 -0.000004
# 3 0.014001 0.004158 0.041575 0.000000 -0.019222 -0.000001
# 4 0.000000 -0.000001 0.000000 0.071172 0.000000 -0.007457
# 5 -0.014359 -0.005326 -0.019222 0.000000 0.037005 0.000001
# 6 -0.000002 -0.000004 -0.000001 -0.007457 0.000001 0.047835
#
#
# Mechanical properties :
#
#
# Convention : Reuss Voigt Hill
#
# Bulk Modulus (GPa) = 5.33036 7.17822 6.25429
# Shear Modulus (GPa) = 18.32097 23.30389 20.81243
#
# Velocity S-wave (km/s) = 2.93436 3.30943 3.12752
# Velocity P-wave (km/s) = 3.73975 4.23989 3.99765
#
# Compressibility (1/GPa) = 0.18760463
#
# Stress axis : x y z
#
# Youngs Moduli (GPa) = 31.89268 20.80981 24.05277
#
# Poissons Ratio (x) = -0.31530 -0.33675
# Poissons Ratio (y) = -0.48323 -0.10001
# Poissons Ratio (z) = -0.44651 -0.08652
#
# Static dielectric constant tensor:
#      x y z
#    x 1.749370 0.000000 0.012530 
#    y 0.000000 1.801980 0.000000 
#    z 0.012530 0.000000 1.824330 
# 
# From -- ./inp_files/342246.got.cif
#   From: 2010.05.17/outbox.cif.g08.bks.cpg/sg12_172_cif.got.tgz:342246.got - 2010.06.03 13:09:07.
