data_PCOD9200543
_publ_section_title
;
Structure prediction by ZEFSAII (Michael W. Deem and Ramdas Pophale) SiO2 
 PCOD9200543
Probable space group: C 2/M
;
_chemical_formula_sum "Si O2"
_cell_formula_units_Z 56
_cell_length_a 12.151168
_cell_length_b 15.042818
_cell_length_c 14.041720
_cell_angle_alpha 90.000000
_cell_angle_beta 92.550174
_cell_angle_gamma 90.000000
_cell_volume 2564.113319
_symmetry_space_group_name_H-M "C 2/M"
_symmetry_group_IT_number 12
_symmetry_cell_setting 'monoclinic'
loop_
_space_group_symop_operation_xyz
x,y,z
-x,y,-z
-x,-y,-z
x,-y,z
1/2+x,1/2+y,z
1/2-x,1/2+y,-z
1/2-x,1/2-y,-z
1/2+x,1/2-y,z
loop_
_atom_site_type_symbol
_atom_site_label
_atom_site_fract_x
_atom_site_fract_y
_atom_site_fract_z
Si Si1 0.677864 0.337736 0.495880
Si Si2 0.634440 0.903088 0.380796
Si Si3 0.232432 0.396079 0.173279
Si Si4 0.062587 0.763368 0.839079
Si Si5 0.991107 0.770655 0.627212
Si Si6 0.346318 0.102102 0.033879
Si Si7 0.591083 0.403088 0.087075
O O1 0.750000 0.250000 0.500000
O O2 0.763133 0.407054 0.541929
O O3 0.584086 0.319797 0.570415
O O4 0.614370 0.337033 0.391996
O O5 0.680638 0.880670 0.275844
O O6 0.554950 0.824166 0.409103
O O7 0.581062 0.000000 0.373416
O O8 0.268224 0.500000 0.172266
O O9 0.335083 0.332167 0.156403
O O10 0.150372 0.385167 0.080314
O O11 0.092353 0.679711 0.906268
O O12 0.043234 0.743599 0.728639
O O13 0.951202 0.816693 0.860557
O O14 0.215822 0.107348 0.055684
O O15 0.381841 0.000000 0.057035
O O16 0.585056 0.500000 0.136832
O O17 0.500000 0.407422 0.000000
#
# Coordination Sequence:
#
# PCOD9200543 Si02
#       7
#     8   8   8   8   8   8   8
#     4   9  19  41  62  84 115 153 188 238 300 359
#     4  10  21  39  63  89 121 158 198 246 305 362
#     4  10  20  37  58  87 122 160 202 251 298 350
#     4  12  22  34  63  89 118 161 210 245 306 364
#     4  10  22  37  61  89 119 152 198 245 299 363
#     4  10  23  40  57  84 127 165 205 257 299 349
#     4  10  21  37  57  83 116 157 207 257 299 350
#
# _framework density 21.839908000000001
#
# number of rings (size 3 to 8) (size 9 to 14) (size 15 to 20)
#    0.000    1.857    2.857    0.857    2.000    0.571 
#    0.000    8.571    0.000    6.429    0.000    0.000 
#    0.000    0.000    0.000    0.000    0.000    0.000 
#
# Total GULP energy -156055.752291 kJ/mol
# GULP energy per Si atom -5573.419725 kJ/mol
# Density = 2.179020 g / cm^3
# Si number density = 21.839908 Si / 1000 Ang^3
#
#
#
# Elastic Constant Matrix: (Units=GPa)
#
#
# Indices 1 2 3 4 5 6 
#
# 1 68.7282 36.4550 14.6886 0.0000 10.9081 0.0000
# 2 36.4550 112.4858 33.4616 0.0000 7.6333 0.0000
# 3 14.6886 33.4616 78.4864 0.0000 29.8527 0.0000
# 4 0.0000 0.0000 0.0000 15.7779 0.0000 -1.7242
# 5 10.9081 7.6333 29.8527 0.0000 27.3994 0.0000
# 6 0.0000 0.0000 0.0000 -1.7242 0.0000 13.8168
#
#
#
# Elastic Compliance Matrix: (Units=1/GPa)
#
#
# Indices 1 2 3 4 5 6 
#
# 1 0.018625 -0.006147 0.002227 0.000000 -0.008128 0.000000
# 2 -0.006147 0.012380 -0.006398 0.000000 0.005969 0.000000
# 3 0.002227 -0.006398 0.025122 0.000000 -0.026476 0.000000
# 4 0.000000 0.000000 0.000000 0.064256 0.000000 0.008018
# 5 -0.008128 0.005969 -0.026476 0.000000 0.066916 0.000000
# 6 0.000000 0.000000 0.000000 0.008018 0.000000 0.073376
#
#
# Mechanical properties :
#
#
# Convention : Reuss Voigt Hill
#
# Bulk Modulus (GPa) = 28.17649 47.65676 37.91663
# Shear Modulus (GPa) = 17.05654 23.07183 20.06418
#
# Velocity S-wave (km/s) = 2.79763 3.25377 3.03428
# Velocity P-wave (km/s) = 4.83374 5.99869 5.44745
#
# Compressibility (1/GPa) = 0.03549058
#
# Stress axis : x y z
#
# Youngs Moduli (GPa) = 53.69236 80.77338 39.80539
#
# Poissons Ratio (x) = 0.49649 -0.08863
# Poissons Ratio (y) = 0.33003 0.25468
# Poissons Ratio (z) = -0.11955 0.51680
#
# Static dielectric constant tensor:
#      x y z
#    x 1.744620 0.000000 -0.011000 
#    y 0.000000 1.787310 0.000000 
#    z -0.011000 0.000000 1.900370 
# 
# From -- ./inp_files/204995.got.cif
#   From: 2010.05.17/outbox.cif.g08.bks.cpg/sg12_103_cif.got.tgz:204995.got - 2010.06.03 13:09:07.
