data_PCOD9200943
_publ_section_title
;
Structure prediction by ZEFSAII (Michael W. Deem and Ramdas Pophale) SiO2 
 PCOD9200943
Probable space group: C 2/M
;
_chemical_formula_sum "Si O2"
_cell_formula_units_Z 50
_cell_length_a 19.887847
_cell_length_b 7.420367
_cell_length_c 16.489799
_cell_angle_alpha 90.000000
_cell_angle_beta 65.875961
_cell_angle_gamma 90.000000
_cell_volume 2220.950382
_symmetry_space_group_name_H-M "C 2/M"
_symmetry_group_IT_number 12
_symmetry_cell_setting 'monoclinic'
loop_
_space_group_symop_operation_xyz
x,y,z
-x,y,-z
-x,-y,-z
x,-y,z
1/2+x,1/2+y,z
1/2-x,1/2+y,-z
1/2-x,1/2-y,-z
1/2+x,1/2-y,z
loop_
_atom_site_type_symbol
_atom_site_label
_atom_site_fract_x
_atom_site_fract_y
_atom_site_fract_z
Si Si1 0.939740 0.205830 0.424116
Si Si2 0.800860 0.214222 0.397736
Si Si3 0.912045 0.720222 0.742844
Si Si4 0.500000 0.000000 0.500000
Si Si5 0.960502 0.280855 0.896642
Si Si6 0.261232 0.209609 0.738899
Si Si7 0.388867 0.217695 0.100615
O O1 0.882139 0.273432 0.384553
O O2 0.942531 0.342332 0.496994
O O3 0.020221 0.215704 0.344752
O O4 0.921967 0.000000 0.455853
O O5 0.750000 0.250000 0.500000
O O6 0.765289 0.290639 0.333573
O O7 0.807360 0.000000 0.381921
O O8 0.914704 0.500000 0.738907
O O9 0.927176 0.777170 0.827790
O O10 0.834301 0.783344 0.745387
O O11 0.960726 0.500000 0.896447
O O12 0.044966 0.224416 0.871748
O O13 0.913220 0.225256 0.998439
O O14 0.190522 0.218889 0.832132
O O15 0.278704 0.000000 0.715175
O O16 0.387713 0.000000 0.101914
#
# Coordination Sequence:
#
# PCOD9200943 Si02
#       7
#     8   8   8   2   8   8   8
#     4  11  25  43  66  96 124 162 211 256 307 379
#     4  10  24  41  61  88 121 157 204 258 311 374
#     4  10  20  37  60  86 120 166 204 250 314 369
#     4  12  26  44  72  90 128 166 200 262 324 360
#     4   8  16  32  57  84 114 155 206 251 302 369
#     4  10  22  37  55  83 122 157 197 253 313 370
#     4   9  17  33  56  83 113 154 205 255 301 360
#
# _framework density 22.512882999999999
#
# number of rings (size 3 to 8) (size 9 to 14) (size 15 to 20)
#    0.000    2.240    0.800    2.160    3.360    1.920 
#    0.000    2.400    0.000    0.000    0.000    0.000 
#    0.000    0.000    0.000    0.000    0.000    0.000 
#
# Total GULP energy -139474.422523 kJ/mol
# GULP energy per Si atom -5578.976901 kJ/mol
# Density = 2.246164 g / cm^3
# Si number density = 22.512883 Si / 1000 Ang^3
#
#
#
# Elastic Constant Matrix: (Units=GPa)
#
#
# Indices 1 2 3 4 5 6 
#
# 1 201.2234 24.5701 65.0673 0.0001 -2.3802 0.0005
# 2 24.5701 95.6959 -2.8345 0.0005 19.6916 0.0034
# 3 65.0673 -2.8345 70.5996 0.0000 -8.6106 -0.0001
# 4 0.0001 0.0005 0.0000 19.7874 0.0000 -3.4944
# 5 -2.3802 19.6916 -8.6106 0.0000 36.3987 -0.0002
# 6 0.0005 0.0034 -0.0001 -3.4944 -0.0002 -15.6349
#
#
#
# Elastic Compliance Matrix: (Units=1/GPa)
#
#
# Indices 1 2 3 4 5 6 
#
# 1 0.007489 -0.002127 -0.006989 0.000000 -0.000013 0.000000
# 2 -0.002127 0.012370 0.001672 0.000000 -0.006435 0.000003
# 3 -0.006989 0.001672 0.021116 0.000000 0.003634 0.000000
# 4 0.000000 0.000000 0.000000 0.048618 0.000000 -0.010866
# 5 -0.000013 -0.006435 0.003634 0.000000 0.031814 -0.000002
# 6 0.000000 0.000003 0.000000 -0.010866 -0.000002 -0.061531
#
#
# Mechanical properties :
#
#
# Convention : Reuss Voigt Hill
#
# Bulk Modulus (GPa) = 38.33372 60.12497 49.22935
# Shear Modulus (GPa) = 59.90838 26.82464 43.36651
#
# Velocity S-wave (km/s) = 5.16415 3.45559 4.39372
# Velocity P-wave (km/s) = 7.25413 6.53348 6.90322
#
# Compressibility (1/GPa) = 0.02608669
#
# Stress axis : x y z
#
# Youngs Moduli (GPa) = 133.52441 80.84252 47.35667
#
# Poissons Ratio (x) = 0.17197 0.33099
# Poissons Ratio (y) = 0.28404 -0.07919
# Poissons Ratio (z) = 0.93325 -0.13519
#
# Static dielectric constant tensor:
#      x y z
#    x 1.835660 0.000000 0.034190 
#    y 0.000000 1.997360 0.000000 
#    z 0.034190 0.000000 1.813840 
# 
# From -- ./inp_files/274965.got.cif
#   From: 2010.05.17/outbox.cif.g08.bks.cpg/sg12_138_cif.got.tgz:274965.got - 2010.06.03 13:09:07.
