data_PCOD9200304
_publ_section_title
;
Structure prediction by ZEFSAII (Michael W. Deem and Ramdas Pophale) SiO2 
 PCOD9200304
Probable space group: C 2/M
;
_chemical_formula_sum "Si O2"
_cell_formula_units_Z 64
_cell_length_a 15.041519
_cell_length_b 20.263678
_cell_length_c 9.505125
_cell_angle_alpha 90.000000
_cell_angle_beta 90.739079
_cell_angle_gamma 90.000000
_cell_volume 2896.887781
_symmetry_space_group_name_H-M "C 2/M"
_symmetry_group_IT_number 12
_symmetry_cell_setting 'monoclinic'
loop_
_space_group_symop_operation_xyz
x,y,z
-x,y,-z
-x,-y,-z
x,-y,z
1/2+x,1/2+y,z
1/2-x,1/2+y,-z
1/2-x,1/2-y,-z
1/2+x,1/2-y,z
loop_
_atom_site_type_symbol
_atom_site_label
_atom_site_fract_x
_atom_site_fract_y
_atom_site_fract_z
Si Si1 0.580425 0.302406 0.808715
Si Si2 0.147761 0.195943 0.503645
Si Si3 0.109720 0.577867 0.607705
Si Si4 0.428485 0.848574 0.112859
Si Si5 0.469738 0.428668 0.839686
Si Si6 0.820049 0.071679 0.648335
Si Si7 0.845583 0.324037 0.625910
Si Si8 0.764755 0.323352 0.935500
O O1 0.611332 0.285521 0.653241
O O2 0.558886 0.231045 0.873267
O O3 0.507661 0.358573 0.794430
O O4 0.663196 0.338306 0.890842
O O5 0.127532 0.124575 0.442821
O O6 0.114061 0.251555 0.395770
O O7 0.253467 0.186749 0.537019
O O8 0.086038 0.500000 0.596540
O O9 0.063098 0.616017 0.736185
O O10 0.214810 0.580765 0.649230
O O11 0.104978 0.617837 0.458744
O O12 0.500000 0.872690 0.000000
O O13 0.328709 0.858468 0.049099
O O14 0.499899 0.500000 0.776049
O O15 0.365160 0.426140 0.802280
O O16 0.500000 0.432119 0.000000
O O17 0.834614 0.000000 0.584664
O O18 0.819352 0.330146 0.788694
O O19 0.750000 0.250000 0.000000
#
# Coordination Sequence:
#
# PCOD9200304 Si02
#       8
#     8   8   8   8   8   8   8   8
#     4  10  20  37  56  87 118 161 204 250 301 363
#     4   9  17  30  58  82 115 153 200 250 291 353
#     4  10  21  40  67  88 119 165 210 259 318 378
#     4  11  23  40  59  89 125 154 207 267 318 377
#     4  10  22  37  53  80 125 166 198 239 293 361
#     4   9  20  35  56  88 120 158 200 242 296 361
#     4   9  17  35  58  89 115 153 207 256 298 361
#     4   9  21  36  61  91 122 160 199 251 310 363
#
# _framework density 22.092673999999999
#
# number of rings (size 3 to 8) (size 9 to 14) (size 15 to 20)
#    0.000    2.375    1.250    0.375    7.000    3.250 
#    0.000    4.375    0.000    0.750    0.000    0.000 
#    0.000    0.000    0.000    0.000    0.000    0.000 
#
# Total GULP energy -178183.371253 kJ/mol
# GULP energy per Si atom -5568.230352 kJ/mol
# Density = 2.204239 g / cm^3
# Si number density = 22.092674 Si / 1000 Ang^3
#
#
#
# Elastic Constant Matrix: (Units=GPa)
#
#
# Indices 1 2 3 4 5 6 
#
# 1 68.9753 23.7383 23.3017 0.0000 15.1016 0.0000
# 2 23.7383 123.6842 52.8487 0.0000 -19.9012 0.0000
# 3 23.3017 52.8487 90.3035 0.0000 -0.6809 0.0000
# 4 0.0000 0.0000 0.0000 19.7803 0.0000 6.4105
# 5 15.1016 -19.9012 -0.6809 0.0000 39.7360 0.0000
# 6 0.0000 0.0000 0.0000 6.4105 0.0000 2.3223
#
#
#
# Elastic Compliance Matrix: (Units=1/GPa)
#
#
# Indices 1 2 3 4 5 6 
#
# 1 0.018739 -0.003965 -0.002584 0.000000 -0.009152 0.000000
# 2 -0.003965 0.012861 -0.006444 0.000000 0.007838 0.000000
# 3 -0.002584 -0.006444 0.015497 0.000000 -0.001980 0.000000
# 4 0.000000 0.000000 0.000000 0.479671 0.000000 -1.324077
# 5 -0.009152 0.007838 -0.001980 0.000000 0.032536 0.000000
# 6 0.000000 0.000000 0.000000 -1.324077 0.000000 4.085571
#
#
# Mechanical properties :
#
#
# Convention : Reuss Voigt Hill
#
# Bulk Modulus (GPa) = 47.37011 53.63785 50.50398
# Shear Modulus (GPa) = 1.06886 24.57269 12.82077
#
# Velocity S-wave (km/s) = 0.69632 3.33867 2.41159
# Velocity P-wave (km/s) = 4.70474 6.26047 5.53751
#
# Compressibility (1/GPa) = 0.02111036
#
# Stress axis : x y z
#
# Youngs Moduli (GPa) = 53.36407 77.75570 64.52842
#
# Poissons Ratio (x) = 0.30830 0.16674
# Poissons Ratio (y) = 0.21159 0.41584
# Poissons Ratio (z) = 0.13789 0.50109
#
# Static dielectric constant tensor:
#      x y z
#    x 1.889610 0.000000 0.025780 
#    y 0.000000 1.929950 0.000000 
#    z 0.025780 0.000000 1.822190 
# 
# From -- ./inp_files/77487.got.cif
#   From: 2010.05.17/outbox.cif.g08.bks.cpg/sg12_39_cif.got.tgz:77487.got - 2010.06.03 13:09:07.
