data_PCOD9200910
_publ_section_title
;
Structure prediction by ZEFSAII (Michael W. Deem and Ramdas Pophale) SiO2 
 PCOD9200910
Probable space group: C 2/M
;
_chemical_formula_sum "Si O2"
_cell_formula_units_Z 56
_cell_length_a 11.554249
_cell_length_b 16.180173
_cell_length_c 26.523562
_cell_angle_alpha 90.000000
_cell_angle_beta 33.176326
_cell_angle_gamma 90.000000
_cell_volume 2713.417720
_symmetry_space_group_name_H-M "C 2/M"
_symmetry_group_IT_number 12
_symmetry_cell_setting 'monoclinic'
loop_
_space_group_symop_operation_xyz
x,y,z
-x,y,-z
-x,-y,-z
x,-y,z
1/2+x,1/2+y,z
1/2-x,1/2+y,-z
1/2-x,1/2-y,-z
1/2+x,1/2-y,z
loop_
_atom_site_type_symbol
_atom_site_label
_atom_site_fract_x
_atom_site_fract_y
_atom_site_fract_z
Si Si1 0.484244 0.598754 0.375833
Si Si2 0.491194 0.750600 0.894435
Si Si3 0.574171 0.823000 0.756823
Si Si4 0.845621 0.407579 0.104114
Si Si5 0.478979 0.902992 0.446732
Si Si6 0.427165 0.656062 0.281563
Si Si7 0.354034 0.406291 0.103056
O O1 0.498189 0.500000 0.377072
O O2 0.691817 0.640775 0.322997
O O3 0.256433 0.626800 0.481192
O O4 0.468365 0.617100 0.321751
O O5 0.520395 0.767426 0.825239
O O6 0.591894 0.831681 0.883377
O O7 0.586947 0.665246 0.879376
O O8 0.250000 0.750000 0.000000
O O9 0.549481 0.754811 0.722259
O O10 0.392099 0.891654 0.820364
O O11 0.867496 0.500000 0.118251
O O12 0.599707 0.389036 0.183430
O O13 0.000000 0.403741 0.000000
O O14 0.500000 0.896362 0.500000
O O15 0.688188 0.859381 0.350309
O O16 0.492538 0.000000 0.429358
O O17 0.390525 0.500000 0.107277
O O18 0.500000 0.393498 0.000000
#
# Coordination Sequence:
#
# PCOD9200910 Si02
#       7
#     8   8   8   8   8   8   8
#     4  10  20  37  60  86 112 147 196 240 286 343
#     4  12  23  39  58  79 119 151 195 240 284 339
#     4  12  22  35  59  84 115 153 188 241 291 336
#     4  11  22  36  57  84 115 152 191 233 286 342
#     4   8  16  32  56  83 113 147 185 236 290 341
#     4  11  20  35  57  83 119 150 187 236 290 338
#     4  11  23  40  58  79 110 154 199 240 286 337
#
# _framework density 20.638179999999998
#
# number of rings (size 3 to 8) (size 9 to 14) (size 15 to 20)
#    0.000    1.286    4.286    3.857    0.000    1.714 
#    0.000    2.143    0.000    0.000    0.000    0.000 
#    0.000   17.143    0.000    0.000    0.000    0.000 
#
# Total GULP energy -156302.548522 kJ/mol
# GULP energy per Si atom -5582.233876 kJ/mol
# Density = 2.059121 g / cm^3
# Si number density = 20.638180 Si / 1000 Ang^3
#
#
#
# Elastic Constant Matrix: (Units=GPa)
#
#
# Indices 1 2 3 4 5 6 
#
# 1 26.4796 19.6683 7.9779 -0.0004 -16.6072 -0.0003
# 2 19.6683 113.8544 24.6736 -0.0010 -10.1888 -0.0002
# 3 7.9779 24.6736 140.7549 -0.0045 -43.5150 -0.0016
# 4 -0.0004 -0.0010 -0.0045 31.6730 -0.0012 -9.8568
# 5 -16.6072 -10.1888 -43.5150 -0.0012 33.3114 0.0000
# 6 -0.0003 -0.0002 -0.0016 -9.8568 0.0000 17.5461
#
#
#
# Elastic Compliance Matrix: (Units=1/GPa)
#
#
# Indices 1 2 3 4 5 6 
#
# 1 0.074177 -0.011172 0.013638 0.000006 0.051379 0.000006
# 2 -0.011172 0.010840 -0.003294 -0.000001 -0.006557 -0.000001
# 3 0.013638 -0.003294 0.014593 0.000004 0.024854 0.000004
# 4 0.000006 -0.000001 0.000004 0.038262 0.000010 0.021494
# 5 0.051379 -0.006557 0.024854 0.000010 0.086096 0.000009
# 6 0.000006 -0.000001 0.000004 0.021494 0.000009 0.069067
#
#
# Mechanical properties :
#
#
# Convention : Reuss Voigt Hill
#
# Bulk Modulus (GPa) = 10.20879 42.85872 26.53375
# Shear Modulus (GPa) = 15.27449 31.75739 23.51594
#
# Velocity S-wave (km/s) = 2.72344 3.92697 3.37922
# Velocity P-wave (km/s) = 3.85316 6.43220 5.30189
#
# Compressibility (1/GPa) = 0.09795484
#
# Stress axis : x y z
#
# Youngs Moduli (GPa) = 13.48119 92.24966 68.52668
#
# Poissons Ratio (x) = 1.03059 -0.93458
# Poissons Ratio (y) = 0.15061 0.22574
# Poissons Ratio (z) = -0.18386 0.30389
#
# Static dielectric constant tensor:
#      x y z
#    x 1.712820 -0.000030 0.007450 
#    y -0.000030 1.776230 0.000010 
#    z 0.007450 0.000010 1.830110 
# 
# From -- ./inp_files/204998.got.cif
#   From: 2010.05.17/outbox.cif.g08.bks.cpg/sg12_103_cif.got.tgz:204998.got - 2010.06.03 13:09:07.
