data_PCOD9200552
_publ_section_title
;
Structure prediction by ZEFSAII (Michael W. Deem and Ramdas Pophale) SiO2 
 PCOD9200552
Probable space group: C 2/M
;
_chemical_formula_sum "Si O2"
_cell_formula_units_Z 50
_cell_length_a 10.048008
_cell_length_b 16.405256
_cell_length_c 27.679932
_cell_angle_alpha 90.000000
_cell_angle_beta 145.781089
_cell_angle_gamma 90.000000
_cell_volume 2565.899210
_symmetry_space_group_name_H-M "C 2/M"
_symmetry_group_IT_number 12
_symmetry_cell_setting 'monoclinic'
loop_
_space_group_symop_operation_xyz
x,y,z
-x,y,-z
-x,-y,-z
x,-y,z
1/2+x,1/2+y,z
1/2-x,1/2+y,-z
1/2-x,1/2-y,-z
1/2+x,1/2-y,z
loop_
_atom_site_type_symbol
_atom_site_label
_atom_site_fract_x
_atom_site_fract_y
_atom_site_fract_z
Si Si1 0.310763 0.843725 0.602554
Si Si2 0.581921 0.337364 0.799697
Si Si3 0.000000 0.000000 0.500000
Si Si4 0.290748 0.406042 0.796336
Si Si5 0.296782 0.096837 0.765419
Si Si6 0.123177 0.772207 0.638295
Si Si7 0.308619 0.323819 0.901175
O O1 0.201493 0.928300 0.552907
O O2 0.545602 0.864777 0.705421
O O3 0.130939 0.801909 0.586008
O O4 0.407752 0.783014 0.591229
O O5 0.477258 0.396191 0.809086
O O6 0.694951 0.381363 0.787626
O O7 0.357608 0.283373 0.715165
O O8 0.755711 0.271396 0.876017
O O9 0.244541 0.500000 0.793388
O O10 0.380592 0.360828 0.871058
O O11 0.152743 0.149519 0.682380
O O12 0.564238 0.130656 0.841879
O O13 0.286259 0.000000 0.753053
O O14 0.500000 0.335861 0.000000
#
# Coordination Sequence:
#
# PCOD9200552 Si02
#       7
#     8   8   2   8   8   8   8
#     4  11  22  42  65  95 126 162 207 244 312 368
#     4  10  20  37  58  89 116 162 209 250 309 366
#     4  12  28  40  72 102 124 164 206 256 298 380
#     4  11  21  37  61  87 120 158 199 258 309 363
#     4  11  21  35  60  94 120 162 213 260 307 360
#     4  10  20  39  65  89 127 165 199 254 302 375
#     4  11  23  38  58  85 121 166 215 257 307 370
#
# _framework density 19.486345
#
# number of rings (size 3 to 8) (size 9 to 14) (size 15 to 20)
#    0.000    1.280    5.600    2.880    1.120    4.480 
#    0.000    0.000    0.000    3.840    0.000    0.000 
#    0.000    0.000    0.000    0.000    0.000    0.000 
#
# Total GULP energy -139441.800996 kJ/mol
# GULP energy per Si atom -5577.672040 kJ/mol
# Density = 1.944199 g / cm^3
# Si number density = 19.486345 Si / 1000 Ang^3
#
#
#
# Elastic Constant Matrix: (Units=GPa)
#
#
# Indices 1 2 3 4 5 6 
#
# 1 133.2950 47.4848 28.2683 0.0001 0.1929 0.0000
# 2 47.4848 134.8891 33.5975 0.0000 5.2201 0.0000
# 3 28.2683 33.5975 53.9993 -0.0001 -8.9170 0.0000
# 4 0.0001 0.0000 -0.0001 11.4845 0.0000 2.3707
# 5 0.1929 5.2201 -8.9170 0.0000 15.5821 0.0000
# 6 0.0000 0.0000 0.0000 2.3707 0.0000 23.9786
#
#
#
# Elastic Compliance Matrix: (Units=1/GPa)
#
#
# Indices 1 2 3 4 5 6 
#
# 1 0.009063 -0.002244 -0.003581 0.000000 -0.001410 0.000000
# 2 -0.002244 0.010010 -0.006187 0.000000 -0.006867 0.000000
# 3 -0.003581 -0.006187 0.027159 0.000000 0.017659 0.000000
# 4 0.000000 0.000000 0.000000 0.088888 0.000000 -0.008788
# 5 -0.001410 -0.006867 0.017659 0.000000 0.076599 0.000000
# 6 0.000000 0.000000 0.000000 -0.008788 0.000000 0.042573
#
#
# Mechanical properties :
#
#
# Convention : Reuss Voigt Hill
#
# Bulk Modulus (GPa) = 45.02956 60.09828 52.56392
# Shear Modulus (GPa) = 17.49962 24.39789 20.94876
#
# Velocity S-wave (km/s) = 2.99999 3.54227 3.28235
# Velocity P-wave (km/s) = 5.92945 6.90206 6.43416
#
# Compressibility (1/GPa) = 0.02220763
#
# Stress axis : x y z
#
# Youngs Moduli (GPa) = 110.33841 99.89725 36.81992
#
# Poissons Ratio (x) = 0.22416 0.13186
# Poissons Ratio (y) = 0.24759 0.22782
# Poissons Ratio (z) = 0.39513 0.61811
#
# Static dielectric constant tensor:
#      x y z
#    x 1.681300 0.000000 -0.004180 
#    y 0.000000 1.653720 0.000000 
#    z -0.004180 0.000000 1.707080 
# 
# From -- ./inp_files/257268.got.cif
#   From: 2010.05.17/outbox.cif.g08.bks.cpg/sg12_129_cif.got.tgz:257268.got - 2010.06.03 13:09:07.
