data_PCOD9200153
_publ_section_title
;
Structure prediction by ZEFSAII (Michael W. Deem and Ramdas Pophale) SiO2 
 PCOD9200153
Probable space group: C 2/M
;
_chemical_formula_sum "Si O2"
_cell_formula_units_Z 64
_cell_length_a 15.303818
_cell_length_b 18.096641
_cell_length_c 18.900595
_cell_angle_alpha 90.000000
_cell_angle_beta 146.296187
_cell_angle_gamma 90.000000
_cell_volume 2904.609822
_symmetry_space_group_name_H-M "C 2/M"
_symmetry_group_IT_number 12
_symmetry_cell_setting 'monoclinic'
loop_
_space_group_symop_operation_xyz
x,y,z
-x,y,-z
-x,-y,-z
x,-y,z
1/2+x,1/2+y,z
1/2-x,1/2+y,-z
1/2-x,1/2-y,-z
1/2+x,1/2-y,z
loop_
_atom_site_type_symbol
_atom_site_label
_atom_site_fract_x
_atom_site_fract_y
_atom_site_fract_z
Si Si1 0.835561 0.085746 0.671681
Si Si2 0.321962 0.814409 0.849244
Si Si3 0.488976 0.801639 0.672893
Si Si4 0.351580 0.343959 0.530605
Si Si5 0.238655 0.918638 0.661209
Si Si6 0.085634 0.420029 0.833074
Si Si7 0.864223 0.689990 0.359500
Si Si8 0.190072 0.916046 0.883181
O O1 0.822873 0.105011 0.579536
O O2 0.736341 0.138204 0.656564
O O3 0.022903 0.097940 0.808174
O O4 0.797064 0.000000 0.657784
O O5 0.290672 0.869313 0.762202
O O6 0.255043 0.738631 0.769030
O O7 0.235090 0.855636 0.855792
O O8 0.500000 0.805731 0.000000
O O9 0.478118 0.718171 0.635978
O O10 0.316854 0.804125 0.592410
O O11 0.604847 0.842174 0.805256
O O12 0.526280 0.848130 0.626842
O O13 0.381620 0.386311 0.478302
O O14 0.400797 0.925153 0.725363
O O15 0.191682 0.000000 0.653444
O O16 0.130258 0.500000 0.828840
O O17 0.177785 0.415972 0.968121
O O18 0.000000 0.728167 0.500000
O O19 0.181851 0.000000 0.846980
#
# Coordination Sequence:
#
# PCOD9200153 Si02
#       8
#     8   8   8   8   8   8   8   8
#     4  11  25  44  69  96 130 177 228 283 337 396
#     4  12  25  41  67 104 137 174 225 276 335 408
#     4  10  21  38  66  90 126 174 213 269 327 391
#     4  10  20  39  66  95 129 166 215 271 334 396
#     4  10  20  36  64  97 131 167 209 267 330 398
#     4   9  19  36  63  96 128 165 213 264 329 398
#     4  12  26  46  64  96 136 179 226 279 337 396
#     4  10  22  43  67  97 137 176 218 277 343 403
#
# _framework density 22.033939
#
# number of rings (size 3 to 8) (size 9 to 14) (size 15 to 20)
#    0.000    1.500    2.500    2.250    3.500    2.750 
#    0.000    1.875    0.000    6.375    0.000    0.000 
#    0.000    0.000    0.000    0.000    0.000    0.000 
#
# Total GULP energy -178154.068061 kJ/mol
# GULP energy per Si atom -5567.314627 kJ/mol
# Density = 2.198379 g / cm^3
# Si number density = 22.033939 Si / 1000 Ang^3
#
#
#
# Elastic Constant Matrix: (Units=GPa)
#
#
# Indices 1 2 3 4 5 6 
#
# 1 95.1760 54.4000 32.6945 -0.0015 -6.9973 0.0003
# 2 54.4000 116.3574 87.1334 -0.0015 -6.8708 0.0010
# 3 32.6945 87.1334 109.5487 -0.0057 -11.8987 -0.0009
# 4 -0.0015 -0.0015 -0.0057 78.3687 -0.0026 -19.6456
# 5 -6.9973 -6.8708 -11.8987 -0.0026 29.7287 -0.0003
# 6 0.0003 0.0010 -0.0009 -19.6456 -0.0003 26.8887
#
#
#
# Elastic Compliance Matrix: (Units=1/GPa)
#
#
# Indices 1 2 3 4 5 6 
#
# 1 0.014838 -0.009099 0.003094 0.000001 0.002628 0.000001
# 2 -0.009099 0.026940 -0.019099 -0.000002 -0.003560 -0.000003
# 3 0.003094 -0.019099 0.024040 0.000002 0.005936 0.000003
# 4 0.000001 -0.000002 0.000002 0.015621 0.000002 0.011413
# 5 0.002628 -0.003560 0.005936 0.000002 0.035809 0.000002
# 6 0.000001 -0.000003 0.000003 0.011413 0.000002 0.045529
#
#
# Mechanical properties :
#
#
# Convention : Reuss Voigt Hill
#
# Bulk Modulus (GPa) = 64.05522 74.39311 69.22417
# Shear Modulus (GPa) = 22.91590 36.78749 29.85170
#
# Velocity S-wave (km/s) = 3.22844 4.09049 3.68476
# Velocity P-wave (km/s) = 6.55983 7.49304 7.04191
#
# Compressibility (1/GPa) = 0.01561153
#
# Stress axis : x y z
#
# Youngs Moduli (GPa) = 67.39503 37.11944 41.59650
#
# Poissons Ratio (x) = 0.33776 -0.12872
# Poissons Ratio (y) = 0.61324 0.79444
# Poissons Ratio (z) = -0.20855 0.70893
#
# Static dielectric constant tensor:
#      x y z
#    x 1.868590 0.000000 0.043410 
#    y 0.000000 1.901670 0.000000 
#    z 0.043410 0.000000 1.840880 
# 
# From -- ./inp_files/271745.got.cif
#   From: 2010.05.17/outbox.cif.g08.bks.cpg/sg12_136_cif.got.tgz:271745.got - 2010.06.03 13:09:07.
