data_PCOD9200557
_publ_section_title
;
Structure prediction by ZEFSAII (Michael W. Deem and Ramdas Pophale) SiO2 
 PCOD9200557
Probable space group: C 2/M
;
_chemical_formula_sum "Si O2"
_cell_formula_units_Z 48
_cell_length_a 15.822836
_cell_length_b 28.208639
_cell_length_c 7.499963
_cell_angle_alpha 90.000000
_cell_angle_beta 144.524987
_cell_angle_gamma 90.000000
_cell_volume 1942.736806
_symmetry_space_group_name_H-M "C 2/M"
_symmetry_group_IT_number 12
_symmetry_cell_setting 'monoclinic'
loop_
_space_group_symop_operation_xyz
x,y,z
-x,y,-z
-x,-y,-z
x,-y,z
1/2+x,1/2+y,z
1/2-x,1/2+y,-z
1/2-x,1/2-y,-z
1/2+x,1/2-y,z
loop_
_atom_site_type_symbol
_atom_site_label
_atom_site_fract_x
_atom_site_fract_y
_atom_site_fract_z
Si Si1 0.815090 0.687849 0.870179
Si Si2 0.579399 0.631119 0.939740
Si Si3 0.980368 0.768663 0.750955
Si Si4 0.613636 0.093714 0.850304
Si Si5 0.660726 0.109810 0.390692
Si Si6 0.358029 0.553175 0.460003
O O1 0.681796 0.723024 0.599515
O O2 0.833375 0.659200 0.712808
O O3 0.803357 0.644111 0.985951
O O4 0.945353 0.719542 0.170174
O O5 0.560521 0.683328 0.827806
O O6 0.488268 0.591016 0.681903
O O7 0.500000 0.633145 0.000000
O O8 0.744148 0.619020 0.268043
O O9 0.000000 0.767523 0.000000
O O10 0.500000 0.085898 0.500000
O O11 0.499419 0.095332 0.821200
O O12 0.743397 0.056898 0.100939
O O13 0.754692 0.070579 0.446114
O O14 0.411715 0.500000 0.574561
#
# Coordination Sequence:
#
# PCOD9200557 Si02
#       6
#     8   8   8   8   8   8
#     4  11  21  34  58  87 116 155 194 243 286 338
#     4   9  17  33  56  89 121 142 183 241 292 345
#     4  11  18  30  56  90 119 143 191 241 290 337
#     4  11  24  41  56  79 124 160 196 238 285 345
#     4  10  20  37  58  90 119 147 191 239 291 343
#     4  10  20  39  66  90 114 146 189 245 300 347
#
# _framework density 24.707412999999999
#
# number of rings (size 3 to 8) (size 9 to 14) (size 15 to 20)
#    0.000    1.667    6.667    3.500    2.333    4.667 
#    0.000    1.667    0.000    1.000    0.000    0.000 
#    0.000    0.000    0.000    0.000    0.000    0.000 
#
# Total GULP energy -134068.162300 kJ/mol
# GULP energy per Si atom -5586.173429 kJ/mol
# Density = 2.465118 g / cm^3
# Si number density = 24.707413 Si / 1000 Ang^3
#
#
#
# Elastic Constant Matrix: (Units=GPa)
#
#
# Indices 1 2 3 4 5 6 
#
# 1 54.6855 -3.1008 -1.7891 0.0000 -4.7950 0.0000
# 2 -3.1008 141.2233 16.3061 0.0000 -1.3681 0.0000
# 3 -1.7891 16.3061 104.4263 0.0000 -8.0997 0.0000
# 4 0.0000 0.0000 0.0000 26.1949 0.0000 1.8197
# 5 -4.7950 -1.3681 -8.0997 0.0000 34.6448 0.0000
# 6 0.0000 0.0000 0.0000 1.8197 0.0000 -8.6819
#
#
#
# Elastic Compliance Matrix: (Units=1/GPa)
#
#
# Indices 1 2 3 4 5 6 
#
# 1 0.018559 0.000380 0.000468 0.000000 0.002693 0.000000
# 2 0.000380 0.007219 -0.001115 0.000000 0.000077 0.000000
# 3 0.000468 -0.001115 0.009940 0.000000 0.002345 0.000000
# 4 0.000000 0.000000 0.000000 0.037628 0.000000 0.007887
# 5 0.002693 0.000077 0.002345 0.000000 0.029788 0.000000
# 6 0.000000 0.000000 0.000000 0.007887 0.000000 -0.113529
#
#
# Mechanical properties :
#
#
# Convention : Reuss Voigt Hill
#
# Bulk Modulus (GPa) = 28.42275 35.90750 32.16513
# Shear Modulus (GPa) = 2677.55986 29.69281 1353.62634
#
# Velocity S-wave (km/s) = 32.95542 3.47043 23.43185
# Velocity P-wave (km/s) = 38.20482 5.53382 27.29681
#
# Compressibility (1/GPa) = 0.03518308
#
# Stress axis : x y z
#
# Youngs Moduli (GPa) = 53.88119 138.52761 100.60294
#
# Poissons Ratio (x) = -0.05259 -0.04704
# Poissons Ratio (y) = -0.02045 0.11215
# Poissons Ratio (z) = -0.02519 0.15442
#
# Static dielectric constant tensor:
#      x y z
#    x 2.143740 0.000000 -0.069280 
#    y 0.000000 1.880890 0.000000 
#    z -0.069280 0.000000 2.012730 
# 
# From -- ./inp_files/91268.got.cif
#   From: 2010.05.17/outbox.cif.g08.bks.cpg/sg12_46_cif.got.tgz:91268.got - 2010.06.03 13:09:07.
