data_PCOD9200098
_publ_section_title
;
Structure prediction by ZEFSAII (Michael W. Deem and Ramdas Pophale) SiO2 
 PCOD9200098
Probable space group: C 2/M
;
_chemical_formula_sum "Si O2"
_cell_formula_units_Z 42
_cell_length_a 5.072682
_cell_length_b 22.608727
_cell_length_c 19.139884
_cell_angle_alpha 90.000000
_cell_angle_beta 108.191505
_cell_angle_gamma 90.000000
_cell_volume 2085.379225
_symmetry_space_group_name_H-M "C 2/M"
_symmetry_group_IT_number 12
_symmetry_cell_setting 'monoclinic'
loop_
_space_group_symop_operation_xyz
x,y,z
-x,y,-z
-x,-y,-z
x,-y,z
1/2+x,1/2+y,z
1/2-x,1/2+y,-z
1/2-x,1/2-y,-z
1/2+x,1/2-y,z
loop_
_atom_site_type_symbol
_atom_site_label
_atom_site_fract_x
_atom_site_fract_y
_atom_site_fract_z
Si Si1 0.263160 0.387646 0.564917
Si Si2 0.820035 0.211877 0.362169
Si Si3 0.500000 0.500000 0.500000
Si Si4 0.336838 0.132964 0.778701
Si Si5 0.369762 0.789713 0.914605
Si Si6 0.732140 0.430192 0.280569
O O1 0.513154 0.340895 0.587419
O O2 0.368599 0.448156 0.539597
O O3 0.176580 0.403195 0.637322
O O4 0.000000 0.365697 0.500000
O O5 0.538461 0.234473 0.373541
O O6 0.750424 0.187330 0.279087
O O7 0.371816 0.158334 0.858646
O O8 0.605333 0.103396 0.766903
O O9 0.090895 0.085288 0.753455
O O10 0.564962 0.736780 0.902056
O O11 0.500000 0.807308 0.000000
O O12 0.785301 0.500000 0.284194
#
# Coordination Sequence:
#
# PCOD9200098 Si02
#       6
#     8   8   2   8   8   8
#     4  11  27  41  66  89 118 163 209 273 321 364
#     4  11  24  42  62  89 124 159 200 244 312 385
#     4  12  26  44  68  86 120 156 216 280 318 372
#     4  11  22  39  65  90 126 166 202 252 310 365
#     4  10  20  36  63  97 129 162 203 251 303 367
#     4  11  24  41  63  91 120 159 215 263 307 367
#
# _framework density 20.140221
#
# number of rings (size 3 to 8) (size 9 to 14) (size 15 to 20)
#    0.000    1.143    0.952    5.429    8.000    0.762 
#    0.000    0.000    0.000    3.429    0.000    0.000 
#    0.000    0.000    0.000    0.000    0.000    0.000 
#
# Total GULP energy -117320.285569 kJ/mol
# GULP energy per Si atom -5586.680265 kJ/mol
# Density = 2.009438 g / cm^3
# Si number density = 20.140221 Si / 1000 Ang^3
#
#
#
# Elastic Constant Matrix: (Units=GPa)
#
#
# Indices 1 2 3 4 5 6 
#
# 1 37.2393 -6.6367 -4.9410 0.0000 -14.3510 0.0000
# 2 -6.6367 78.7568 13.2665 0.0000 -2.7374 0.0000
# 3 -4.9410 13.2665 71.6605 0.0000 -17.2889 0.0000
# 4 0.0000 0.0000 0.0000 16.9643 0.0000 -14.7556
# 5 -14.3510 -2.7374 -17.2889 0.0000 25.1785 0.0000
# 6 0.0000 0.0000 0.0000 -14.7556 0.0000 30.6576
#
#
#
# Elastic Compliance Matrix: (Units=1/GPa)
#
#
# Indices 1 2 3 4 5 6 
#
# 1 0.039969 0.002818 0.009354 0.000000 0.029511 0.000000
# 2 0.002818 0.013306 -0.001837 0.000000 0.001792 0.000000
# 3 0.009354 -0.001837 0.019390 0.000000 0.018446 0.000000
# 4 0.000000 0.000000 0.000000 0.101395 0.000000 0.048802
# 5 0.029511 0.001792 0.018446 0.000000 0.069398 0.000000
# 6 0.000000 0.000000 0.000000 0.048802 0.000000 0.056107
#
#
# Mechanical properties :
#
#
# Convention : Reuss Voigt Hill
#
# Bulk Modulus (GPa) = 10.71390 21.22601 15.96995
# Shear Modulus (GPa) = 16.12866 26.95794 21.54330
#
# Velocity S-wave (km/s) = 2.83294 3.66254 3.27412
# Velocity P-wave (km/s) = 4.00399 5.33363 4.71591
#
# Compressibility (1/GPa) = 0.09333674
#
# Stress axis : x y z
#
# Youngs Moduli (GPa) = 25.01913 75.15132 51.57279
#
# Poissons Ratio (x) = -0.21179 -0.48241
# Poissons Ratio (y) = -0.07051 0.09473
# Poissons Ratio (z) = -0.23403 0.13804
#
# Static dielectric constant tensor:
#      x y z
#    x 1.724880 0.000000 -0.003200 
#    y 0.000000 1.682860 0.000000 
#    z -0.003200 0.000000 1.701610 
# 
# From -- ./inp_files/252876.got.cif
#   From: 2010.05.17/outbox.cif.g08.bks.cpg/sg12_127_cif.got.tgz:252876.got - 2010.06.03 13:09:07.
