data_PCOD9200458
_publ_section_title
;
Structure prediction by ZEFSAII (Michael W. Deem and Ramdas Pophale) SiO2 
 PCOD9200458
Probable space group: C 2/M
;
_chemical_formula_sum "Si O2"
_cell_formula_units_Z 48
_cell_length_a 13.699022
_cell_length_b 30.751857
_cell_length_c 5.336956
_cell_angle_alpha 90.000000
_cell_angle_beta 57.049273
_cell_angle_gamma 90.000000
_cell_volume 1886.636571
_symmetry_space_group_name_H-M "C 2/M"
_symmetry_group_IT_number 12
_symmetry_cell_setting 'monoclinic'
loop_
_space_group_symop_operation_xyz
x,y,z
-x,y,-z
-x,-y,-z
x,-y,z
1/2+x,1/2+y,z
1/2-x,1/2+y,-z
1/2-x,1/2-y,-z
1/2+x,1/2-y,z
loop_
_atom_site_type_symbol
_atom_site_label
_atom_site_fract_x
_atom_site_fract_y
_atom_site_fract_z
Si Si1 0.784238 0.687884 0.808882
Si Si2 0.621496 0.729829 0.452334
Si Si3 0.865720 0.951785 0.448116
Si Si4 0.211970 0.547552 0.160110
Si Si5 0.844836 0.138431 0.381464
Si Si6 0.107791 0.624853 0.032821
O O1 0.823172 0.723372 0.546786
O O2 0.709950 0.646835 0.814244
O O3 0.893117 0.668292 0.802273
O O4 0.703060 0.711811 0.118895
O O5 0.500000 0.741250 0.500000
O O6 0.602367 0.686252 0.641733
O O7 0.770377 0.949575 0.353873
O O8 0.922719 0.903996 0.329207
O O9 0.922841 0.000000 0.341095
O O10 0.810700 0.951791 0.802855
O O11 0.156186 0.500000 0.223121
O O12 0.123475 0.584342 0.196368
O O13 0.727944 0.130554 0.708582
O O14 0.000000 0.620126 0.000000
#
# Coordination Sequence:
#
# PCOD9200458 Si02
#       6
#     8   8   8   8   8   8
#     4  10  21  40  57  83 116 152 198 244 295 369
#     4  10  23  39  59  87 114 150 197 250 307 352
#     4   9  17  32  58  84 117 159 200 247 304 361
#     4   9  17  32  51  80 118 161 206 248 296 358
#     4  10  20  37  58  81 117 151 199 246 297 363
#     4  10  21  33  52  83 116 160 201 246 299 353
#
# _framework density 25.442105000000002
#
# number of rings (size 3 to 8) (size 9 to 14) (size 15 to 20)
#    0.000    2.333    1.667    0.500    2.333    1.000 
#    0.000    0.000    0.000    5.500    0.000    1.167 
#    0.000    0.000    0.000    0.000    0.000    0.000 
#
# Total GULP energy -133851.903891 kJ/mol
# GULP energy per Si atom -5577.162662 kJ/mol
# Density = 2.538420 g / cm^3
# Si number density = 25.442105 Si / 1000 Ang^3
#
#
#
# Elastic Constant Matrix: (Units=GPa)
#
#
# Indices 1 2 3 4 5 6 
#
# 1 72.8701 34.2609 13.4571 0.0000 21.9754 0.0000
# 2 34.2609 187.5446 5.6439 0.0000 7.6771 0.0000
# 3 13.4571 5.6439 86.7661 0.0000 4.1333 0.0000
# 4 0.0000 0.0000 0.0000 26.5271 0.0000 22.6662
# 5 21.9754 7.6771 4.1333 0.0000 33.4640 0.0000
# 6 0.0000 0.0000 0.0000 22.6662 0.0000 19.8884
#
#
#
# Elastic Compliance Matrix: (Units=1/GPa)
#
#
# Indices 1 2 3 4 5 6 
#
# 1 0.018982 -0.002930 -0.002205 0.000000 -0.011521 0.000000
# 2 -0.002930 0.005842 0.000047 0.000000 0.000578 0.000000
# 3 -0.002205 0.000047 0.011865 0.000000 -0.000029 0.000000
# 4 0.000000 0.000000 0.000000 1.438592 0.000000 -1.639519
# 5 -0.011521 0.000578 -0.000029 0.000000 0.037319 0.000000
# 6 0.000000 0.000000 0.000000 -1.639519 0.000000 1.918791
#
#
# Mechanical properties :
#
#
# Convention : Reuss Voigt Hill
#
# Bulk Modulus (GPa) = 37.71503 50.43384 44.07443
# Shear Modulus (GPa) = 1.44911 35.56382 18.50646
#
# Velocity S-wave (km/s) = 0.75552 3.74282 2.69995
# Velocity P-wave (km/s) = 3.95185 6.20840 5.20391
#
# Compressibility (1/GPa) = 0.02651463
#
# Stress axis : x y z
#
# Youngs Moduli (GPa) = 52.68163 171.16825 84.27807
#
# Poissons Ratio (x) = 0.50147 0.18580
# Poissons Ratio (y) = 0.15434 -0.00395
# Poissons Ratio (z) = 0.11614 -0.00802
#
# Static dielectric constant tensor:
#      x y z
#    x 2.035990 0.000000 0.012420 
#    y 0.000000 2.138140 0.000000 
#    z 0.012420 0.000000 2.035990 
# 
# From -- ./inp_files/12787.got.cif
#   From: 2010.05.17/outbox.cif.g08.bks.cpg/sg12_7_cif.got.tgz:12787.got - 2010.06.03 13:09:07.
