data_PCOD9200634
_publ_section_title
;
Structure prediction by ZEFSAII (Michael W. Deem and Ramdas Pophale) SiO2 
 PCOD9200634
Probable space group: C 2/M
;
_chemical_formula_sum "Si O2"
_cell_formula_units_Z 64
_cell_length_a 25.159267
_cell_length_b 8.842206
_cell_length_c 15.436804
_cell_angle_alpha 90.000000
_cell_angle_beta 91.474599
_cell_angle_gamma 90.000000
_cell_volume 3432.986964
_symmetry_space_group_name_H-M "C 2/M"
_symmetry_group_IT_number 12
_symmetry_cell_setting 'monoclinic'
loop_
_space_group_symop_operation_xyz
x,y,z
-x,y,-z
-x,-y,-z
x,-y,z
1/2+x,1/2+y,z
1/2-x,1/2+y,-z
1/2-x,1/2-y,-z
1/2+x,1/2-y,z
loop_
_atom_site_type_symbol
_atom_site_label
_atom_site_fract_x
_atom_site_fract_y
_atom_site_fract_z
Si Si1 0.026547 0.182225 0.093660
Si Si2 0.445811 0.681839 0.241000
Si Si3 0.227758 0.818935 0.180350
Si Si4 0.166015 0.319537 0.531597
Si Si5 0.651362 0.818467 0.859785
Si Si6 0.050542 0.182921 0.560221
Si Si7 0.263294 0.819768 0.634736
Si Si8 0.362650 0.181119 0.941855
O O1 0.083681 0.258908 0.099178
O O2 0.989028 0.230615 0.171363
O O3 0.032375 0.000000 0.096838
O O4 0.000000 0.220928 0.000000
O O5 0.443618 0.500000 0.237783
O O6 0.389340 0.745748 0.208765
O O7 0.458679 0.726030 0.339766
O O8 0.288056 0.777720 0.157753
O O9 0.217979 0.754635 0.275571
O O10 0.187367 0.749375 0.109984
O O11 0.223037 0.000000 0.180120
O O12 0.164135 0.500000 0.544380
O O13 0.107007 0.252053 0.534003
O O14 0.206262 0.247573 0.603500
O O15 0.194820 0.288605 0.440752
O O16 0.646603 0.000000 0.854392
O O17 0.637414 0.771152 0.957257
O O18 0.000000 0.229044 0.500000
O O19 0.054743 0.000000 0.555566
O O20 0.258542 0.000000 0.644111
O O21 0.360321 0.000000 0.938937
#
# Coordination Sequence:
#
# PCOD9200634 Si02
#       8
#     8   8   8   8   8   8   8   8
#     4  10  20  37  59  83 112 148 194 242 285 340
#     4  10  21  37  60  86 112 150 195 239 290 345
#     4  11  23  38  57  84 118 154 193 236 288 345
#     4  10  21  38  61  87 116 150 192 238 289 345
#     4  10  22  38  57  83 115 150 191 239 289 343
#     4  10  22  39  58  84 118 154 194 240 292 347
#     4  10  21  38  60  87 117 151 191 236 288 345
#     4  11  23  38  57  83 116 153 192 238 292 344
#
# _framework density 18.642658999999998
#
# number of rings (size 3 to 8) (size 9 to 14) (size 15 to 20)
#    0.000    1.750    1.250    2.625    0.000    7.500 
#    0.000    1.250    0.000    0.000    0.000    0.000 
#    0.000    0.000    0.000    0.000    0.000    0.000 
#
# Total GULP energy -178820.238780 kJ/mol
# GULP energy per Si atom -5588.132462 kJ/mol
# Density = 1.860023 g / cm^3
# Si number density = 18.642659 Si / 1000 Ang^3
#
#
#
# Elastic Constant Matrix: (Units=GPa)
#
#
# Indices 1 2 3 4 5 6 
#
# 1 112.6415 42.7974 93.6340 0.0000 3.6371 0.0000
# 2 42.7974 25.2255 35.4575 0.0000 0.5789 0.0000
# 3 93.6340 35.4575 110.0191 0.0000 20.1878 0.0000
# 4 0.0000 0.0000 0.0000 19.7620 0.0000 3.5277
# 5 3.6371 0.5789 20.1878 0.0000 29.6153 0.0000
# 6 0.0000 0.0000 0.0000 3.5277 0.0000 36.2533
#
#
#
# Elastic Compliance Matrix: (Units=1/GPa)
#
#
# Indices 1 2 3 4 5 6 
#
# 1 0.053807 -0.041179 -0.035954 0.000000 0.018706 0.000000
# 2 -0.041179 0.111887 -0.001760 0.000000 0.004070 0.000000
# 3 -0.035954 -0.001760 0.045078 0.000000 -0.026278 0.000000
# 4 0.000000 0.000000 0.000000 0.051497 0.000000 -0.005011
# 5 0.018706 0.004070 -0.026278 0.000000 0.049302 0.000000
# 6 0.000000 0.000000 0.000000 -0.005011 0.000000 0.028071
#
#
# Mechanical properties :
#
#
# Convention : Reuss Voigt Hill
#
# Bulk Modulus (GPa) = 18.87327 65.74043 42.30685
# Shear Modulus (GPa) = 9.70702 22.19259 15.94981
#
# Velocity S-wave (km/s) = 2.28434 3.45399 2.92816
# Velocity P-wave (km/s) = 4.13561 7.15868 5.84594
#
# Compressibility (1/GPa) = 0.05298499
#
# Stress axis : x y z
#
# Youngs Moduli (GPa) = 18.58497 8.93760 22.18373
#
# Poissons Ratio (x) = 0.36804 0.79760
# Poissons Ratio (y) = 0.76532 0.03904
# Poissons Ratio (z) = 0.66821 0.01573
#
# Static dielectric constant tensor:
#      x y z
#    x 1.609880 0.000000 -0.019840 
#    y 0.000000 1.624030 0.000000 
#    z -0.019840 0.000000 1.645570 
# 
# From -- ./inp_files/238696.got.cif
#   From: 2010.05.17/outbox.cif.g08.bks.cpg/sg12_120_cif.got.tgz:238696.got - 2010.06.03 13:09:07.
