data_PCOD9200624
_publ_section_title
;
Structure prediction by ZEFSAII (Michael W. Deem and Ramdas Pophale) SiO2 
 PCOD9200624
Probable space group: C 2/M
;
_chemical_formula_sum "Si O2"
_cell_formula_units_Z 64
_cell_length_a 12.145163
_cell_length_b 24.768029
_cell_length_c 11.818389
_cell_angle_alpha 90.000000
_cell_angle_beta 110.486743
_cell_angle_gamma 90.000000
_cell_volume 3330.260903
_symmetry_space_group_name_H-M "C 2/M"
_symmetry_group_IT_number 12
_symmetry_cell_setting 'monoclinic'
loop_
_space_group_symop_operation_xyz
x,y,z
-x,y,-z
-x,-y,-z
x,-y,z
1/2+x,1/2+y,z
1/2-x,1/2+y,-z
1/2-x,1/2-y,-z
1/2+x,1/2-y,z
loop_
_atom_site_type_symbol
_atom_site_label
_atom_site_fract_x
_atom_site_fract_y
_atom_site_fract_z
Si Si1 0.561815 0.635052 0.339223
Si Si2 0.717327 0.794054 0.583421
Si Si3 0.928977 0.390684 0.578363
Si Si4 0.185173 0.060493 0.561767
Si Si5 0.701654 0.155495 0.078761
Si Si6 0.874324 0.937697 0.193065
Si Si7 0.507247 0.168488 0.819226
Si Si8 0.893295 0.229505 0.250081
O O1 0.672393 0.669812 0.337719
O O2 0.609437 0.602609 0.463554
O O3 0.500169 0.592498 0.232637
O O4 0.462069 0.679130 0.328218
O O5 0.750000 0.750000 0.500000
O O6 0.627453 0.836001 0.494080
O O7 0.664975 0.763349 0.671178
O O8 0.820979 0.426105 0.585081
O O9 0.000000 0.416463 0.500000
O O10 0.007018 0.371262 0.711841
O O11 0.157839 0.063533 0.684534
O O12 0.156105 0.000000 0.512474
O O13 0.775981 0.100214 0.101710
O O14 0.611993 0.157838 0.153340
O O15 0.795451 0.203493 0.132576
O O16 0.618848 0.160502 0.940454
O O17 0.876130 0.000000 0.157192
O O18 0.517736 0.230175 0.781005
#
# Coordination Sequence:
#
# PCOD9200624 Si02
#       8
#     8   8   8   8   8   8   8   8
#     4  10  22  32  54  84 116 150 182 228 287 339
#     4  11  23  31  51  84 119 153 188 227 273 342
#     4  11  21  37  55  81 113 151 187 230 280 344
#     4  10  21  36  56  83 114 146 189 237 289 337
#     4  10  22  37  59  83 114 149 192 243 275 338
#     4  10  20  37  59  83 110 143 191 248 293 328
#     4  11  21  39  55  81 119 153 188 231 284 332
#     4  11  21  36  56  82 118 153 191 225 281 342
#
# _framework density 19.217714000000001
#
# number of rings (size 3 to 8) (size 9 to 14) (size 15 to 20)
#    0.000    1.500    2.500    3.375    7.000    1.250 
#    0.000    1.875    0.000    0.000    0.000    0.875 
#    0.000    0.000    0.000    0.000    0.000    0.000 
#
# Total GULP energy -178750.992982 kJ/mol
# GULP energy per Si atom -5585.968531 kJ/mol
# Density = 1.917397 g / cm^3
# Si number density = 19.217714 Si / 1000 Ang^3
#
#
#
# Elastic Constant Matrix: (Units=GPa)
#
#
# Indices 1 2 3 4 5 6 
#
# 1 58.7787 21.3812 22.0142 0.0000 10.3070 0.0000
# 2 21.3812 103.4767 22.4479 0.0000 5.9250 0.0000
# 3 22.0142 22.4479 61.9106 0.0000 8.9196 0.0000
# 4 0.0000 0.0000 0.0000 18.9004 0.0000 0.0515
# 5 10.3070 5.9250 8.9196 0.0000 19.4098 0.0000
# 6 0.0000 0.0000 0.0000 0.0515 0.0000 18.8864
#
#
#
# Elastic Compliance Matrix: (Units=1/GPa)
#
#
# Indices 1 2 3 4 5 6 
#
# 1 0.021488 -0.002793 -0.005469 0.000000 -0.008045 0.000000
# 2 -0.002793 0.010896 -0.002883 0.000000 -0.000518 0.000000
# 3 -0.005469 -0.002883 0.019916 0.000000 -0.005368 0.000000
# 4 0.000000 0.000000 0.000000 0.052909 0.000000 -0.000144
# 5 -0.008045 -0.000518 -0.005368 0.000000 0.058417 0.000000
# 6 0.000000 0.000000 0.000000 -0.000144 0.000000 0.052949
#
#
# Mechanical properties :
#
#
# Convention : Reuss Voigt Hill
#
# Bulk Modulus (GPa) = 33.32239 39.53919 36.43079
# Shear Modulus (GPa) = 20.09097 21.99417 21.04257
#
# Velocity S-wave (km/s) = 3.23683 3.38668 3.31260
# Velocity P-wave (km/s) = 5.59880 5.99264 5.79907
#
# Compressibility (1/GPa) = 0.03000985
#
# Stress axis : x y z
#
# Youngs Moduli (GPa) = 46.53794 91.77502 50.21167
#
# Poissons Ratio (x) = 0.25632 0.27461
# Poissons Ratio (y) = 0.12998 0.14476
# Poissons Ratio (z) = 0.25451 0.26459
#
# Static dielectric constant tensor:
#      x y z
#    x 1.705750 0.000000 0.009420 
#    y 0.000000 1.670000 0.000000 
#    z 0.009420 0.000000 1.653170 
# 
# From -- ./inp_files/135962.got.cif
#   From: 2010.05.17/outbox.cif.g08.bks.cpg/sg12_68_cif.got.tgz:135962.got - 2010.06.03 13:09:07.
