data_PCOD9200449
_publ_section_title
;
Structure prediction by ZEFSAII (Michael W. Deem and Ramdas Pophale) SiO2 
 PCOD9200449
Probable space group: C 2/M
;
_chemical_formula_sum "Si O2"
_cell_formula_units_Z 64
_cell_length_a 8.908979
_cell_length_b 10.722194
_cell_length_c 33.269152
_cell_angle_alpha 90.000000
_cell_angle_beta 98.711994
_cell_angle_gamma 90.000000
_cell_volume 3141.328784
_symmetry_space_group_name_H-M "C 2/M"
_symmetry_group_IT_number 12
_symmetry_cell_setting 'monoclinic'
loop_
_space_group_symop_operation_xyz
x,y,z
-x,y,-z
-x,-y,-z
x,-y,z
1/2+x,1/2+y,z
1/2-x,1/2+y,-z
1/2-x,1/2-y,-z
1/2+x,1/2-y,z
loop_
_atom_site_type_symbol
_atom_site_label
_atom_site_fract_x
_atom_site_fract_y
_atom_site_fract_z
Si Si1 0.782376 0.639056 0.639218
Si Si2 0.032366 0.644164 0.272435
Si Si3 0.198155 0.140498 0.236158
Si Si4 0.478980 0.778959 0.413286
Si Si5 0.151637 0.862671 0.979734
Si Si6 0.684686 0.139828 0.850572
Si Si7 0.235407 0.860539 0.467314
Si Si8 0.980633 0.859101 0.114365
O O1 0.721549 0.500000 0.642071
O O2 0.879989 0.669630 0.682571
O O3 0.643859 0.728635 0.623397
O O4 0.896155 0.643230 0.605820
O O5 0.065139 0.500000 0.261408
O O6 0.087684 0.747928 0.243359
O O7 0.851012 0.652034 0.268930
O O8 0.256900 0.149452 0.192801
O O9 0.134457 0.000000 0.239145
O O10 0.378876 0.847126 0.443040
O O11 0.578456 0.668574 0.437458
O O12 0.102558 0.845359 0.931536
O O13 0.226086 0.000000 0.986440
O O14 0.250000 0.750000 0.000000
O O15 0.000000 0.865497 0.000000
O O16 0.575083 0.250804 0.858541
O O17 0.838056 0.149607 0.883193
O O18 0.619402 0.000000 0.853190
O O19 0.250000 0.750000 0.500000
O O20 0.233167 0.000000 0.484443
O O21 0.950317 0.000000 0.128718
#
# Coordination Sequence:
#
# PCOD9200449 Si02
#       8
#     8   8   8   8   8   8   8   8
#     4  10  20  37  58  81 112 147 183 226 273 322
#     4  10  21  36  57  85 114 146 185 227 273 325
#     4  10  21  37  56  82 114 147 185 227 273 326
#     4  10  22  38  59  83 112 147 186 227 273 326
#     4  10  21  37  56  79 109 143 180 225 275 329
#     4  10  21  37  57  80 110 147 184 226 275 325
#     4  11  24  40  60  86 114 147 187 229 276 329
#     4  10  21  36  55  81 109 141 184 228 273 327
#
# _framework density 20.373545
#
# number of rings (size 3 to 8) (size 9 to 14) (size 15 to 20)
#    0.000    1.875    0.000    3.375    0.000    7.250 
#    0.000    3.125    0.000    0.000    0.000    0.000 
#    0.000    0.000    0.000    0.000    0.000    0.000 
#
# Total GULP energy -178688.433670 kJ/mol
# GULP energy per Si atom -5584.013552 kJ/mol
# Density = 2.032717 g / cm^3
# Si number density = 20.373545 Si / 1000 Ang^3
#
#
#
# Elastic Constant Matrix: (Units=GPa)
#
#
# Indices 1 2 3 4 5 6 
#
# 1 52.5101 33.3225 -1.9345 0.0000 6.0394 0.0000
# 2 33.3225 131.2152 32.3885 0.0000 -8.4345 0.0000
# 3 -1.9345 32.3885 47.5342 0.0000 4.6534 0.0000
# 4 0.0000 0.0000 0.0000 28.4545 0.0000 -6.2580
# 5 6.0394 -8.4345 4.6534 0.0000 30.9605 0.0000
# 6 0.0000 0.0000 0.0000 -6.2580 0.0000 11.6931
#
#
#
# Elastic Compliance Matrix: (Units=1/GPa)
#
#
# Indices 1 2 3 4 5 6 
#
# 1 0.026260 -0.009280 0.008262 0.000000 -0.008892 0.000000
# 2 -0.009280 0.012828 -0.009781 0.000000 0.006775 0.000000
# 3 0.008262 -0.009781 0.028882 0.000000 -0.008617 0.000000
# 4 0.000000 0.000000 0.000000 0.039832 0.000000 0.021318
# 5 -0.008892 0.006775 -0.008617 0.000000 0.037175 0.000000
# 6 0.000000 0.000000 0.000000 0.021318 0.000000 0.096929
#
#
# Mechanical properties :
#
#
# Convention : Reuss Voigt Hill
#
# Bulk Modulus (GPa) = 21.56473 39.86807 30.71640
# Shear Modulus (GPa) = 17.92365 25.38716 21.65541
#
# Velocity S-wave (km/s) = 2.96928 3.53382 3.26378
# Velocity P-wave (km/s) = 4.72897 6.02176 5.41409
#
# Compressibility (1/GPa) = 0.04637201
#
# Stress axis : x y z
#
# Youngs Moduli (GPa) = 38.08066 77.95709 34.62359
#
# Poissons Ratio (x) = 0.72343 -0.28607
# Poissons Ratio (y) = 0.35338 0.33866
# Poissons Ratio (z) = -0.31463 0.76252
#
# Static dielectric constant tensor:
#      x y z
#    x 1.695420 0.000000 0.026450 
#    y 0.000000 1.733330 0.000000 
#    z 0.026450 0.000000 1.742260 
# 
# From -- ./inp_files/372162.got.cif
#   From: 2010.05.17/outbox.cif.g08.bks.cpg/sg12_187_cif.got.tgz:372162.got - 2010.06.03 13:09:07.
