data_PCOD9200972
_publ_section_title
;
Structure prediction by ZEFSAII (Michael W. Deem and Ramdas Pophale) SiO2 
 PCOD9200972
Probable space group: C 2/M
;
_chemical_formula_sum "Si O2"
_cell_formula_units_Z 56
_cell_length_a 18.766896
_cell_length_b 8.704114
_cell_length_c 18.320863
_cell_angle_alpha 90.000000
_cell_angle_beta 111.468921
_cell_angle_gamma 90.000000
_cell_volume 2785.053669
_symmetry_space_group_name_H-M "C 2/M"
_symmetry_group_IT_number 12
_symmetry_cell_setting 'monoclinic'
loop_
_space_group_symop_operation_xyz
x,y,z
-x,y,-z
-x,-y,-z
x,-y,z
1/2+x,1/2+y,z
1/2-x,1/2+y,-z
1/2-x,1/2-y,-z
1/2+x,1/2-y,z
loop_
_atom_site_type_symbol
_atom_site_label
_atom_site_fract_x
_atom_site_fract_y
_atom_site_fract_z
Si Si1 0.073333 0.815534 0.477364
Si Si2 0.614524 0.182701 0.338492
Si Si3 0.669437 0.685531 0.757928
Si Si4 0.284597 0.817076 0.380392
Si Si5 0.478595 0.317781 0.203696
Si Si6 0.269233 0.822617 0.930150
Si Si7 0.559933 0.180740 0.965389
O O1 0.074637 0.741192 0.397946
O O2 0.152279 0.762382 0.544458
O O3 0.000000 0.771186 0.500000
O O4 0.071831 0.000000 0.469685
O O5 0.698683 0.256991 0.362924
O O6 0.557695 0.233796 0.252309
O O7 0.622674 0.000000 0.342657
O O8 0.677487 0.500000 0.749715
O O9 0.690053 0.770365 0.691608
O O10 0.584609 0.714243 0.757388
O O11 0.726713 0.739981 0.843517
O O12 0.286810 0.000000 0.391566
O O13 0.491425 0.500000 0.207096
O O14 0.443543 0.264376 0.113404
O O15 0.245123 0.000000 0.924735
O O16 0.250000 0.750000 0.000000
O O17 0.360019 0.812333 0.962517
O O18 0.543399 0.000000 0.945056
O O19 0.500000 0.246514 0.000000
#
# Coordination Sequence:
#
# PCOD9200972 Si02
#       7
#     8   8   8   8   8   8   8
#     4  11  24  45  72 100 132 169 207 252 308 370
#     4  12  26  44  67  94 130 169 209 260 315 372
#     4  10  22  40  62  90 127 169 210 260 319 376
#     4  12  26  43  66  98 131 166 211 259 310 372
#     4  11  23  41  63  91 126 166 214 264 317 377
#     4  10  20  37  60  87 121 162 210 261 319 377
#     4  10  22  38  59  88 122 165 214 264 319 378
#
# _framework density 20.107333000000001
#
# number of rings (size 3 to 8) (size 9 to 14) (size 15 to 20)
#    0.000    1.143    1.429    4.714    2.000    6.571 
#    0.000    0.000    0.000    0.000    0.000    0.000 
#    0.000    0.000    0.000    0.000    0.000    0.000 
#
# Total GULP energy -156531.368716 kJ/mol
# GULP energy per Si atom -5590.406026 kJ/mol
# Density = 2.006157 g / cm^3
# Si number density = 20.107333 Si / 1000 Ang^3
#
#
#
# Elastic Constant Matrix: (Units=GPa)
#
#
# Indices 1 2 3 4 5 6 
#
# 1 69.5150 30.0655 4.1637 0.0000 -5.8754 0.0000
# 2 30.0655 57.0990 -1.5425 0.0000 4.9409 0.0000
# 3 4.1637 -1.5425 68.4684 0.0000 16.4008 0.0000
# 4 0.0000 0.0000 0.0000 29.9017 0.0000 -1.8593
# 5 -5.8754 4.9409 16.4008 0.0000 29.7261 0.0000
# 6 0.0000 0.0000 0.0000 -1.8593 0.0000 26.5080
#
#
#
# Elastic Compliance Matrix: (Units=1/GPa)
#
#
# Indices 1 2 3 4 5 6 
#
# 1 0.020153 -0.011369 -0.003328 0.000000 0.007709 0.000000
# 2 -0.011369 0.024280 0.003161 0.000000 -0.008027 0.000000
# 3 -0.003328 0.003161 0.017471 0.000000 -0.010823 0.000000
# 4 0.000000 0.000000 0.000000 0.033589 0.000000 0.002356
# 5 0.007709 -0.008027 -0.010823 0.000000 0.042470 0.000000
# 6 0.000000 0.000000 0.000000 0.002356 0.000000 0.037890
#
#
# Mechanical properties :
#
#
# Convention : Reuss Voigt Hill
#
# Bulk Modulus (GPa) = 25.75185 28.93954 27.34570
# Shear Modulus (GPa) = 23.59940 28.05352 25.82646
#
# Velocity S-wave (km/s) = 3.42961 3.73927 3.58778
# Velocity P-wave (km/s) = 5.34022 5.75036 5.54908
#
# Compressibility (1/GPa) = 0.03883216
#
# Stress axis : x y z
#
# Youngs Moduli (GPa) = 49.61937 41.18669 57.23643
#
# Poissons Ratio (x) = 0.46824 0.19051
# Poissons Ratio (y) = 0.56411 -0.18093
# Poissons Ratio (z) = 0.16515 -0.13019
#
# Static dielectric constant tensor:
#      x y z
#    x 1.719990 0.000000 0.031340 
#    y 0.000000 1.688190 0.000000 
#    z 0.031340 0.000000 1.722390 
# 
# From -- ./inp_files/275622.got.cif
#   From: 2010.05.17/outbox.cif.g08.bks.cpg/sg12_138_cif.got.tgz:275622.got - 2010.06.03 13:09:07.
