data_PCOD9200525
_publ_section_title
;
Structure prediction by ZEFSAII (Michael W. Deem and Ramdas Pophale) SiO2 
 PCOD9200525
Probable space group: C 2/M
;
_chemical_formula_sum "Si O2"
_cell_formula_units_Z 52
_cell_length_a 14.018501
_cell_length_b 19.171015
_cell_length_c 10.897577
_cell_angle_alpha 90.000000
_cell_angle_beta 123.555676
_cell_angle_gamma 90.000000
_cell_volume 2440.639290
_symmetry_space_group_name_H-M "C 2/M"
_symmetry_group_IT_number 12
_symmetry_cell_setting 'monoclinic'
loop_
_space_group_symop_operation_xyz
x,y,z
-x,y,-z
-x,-y,-z
x,-y,z
1/2+x,1/2+y,z
1/2-x,1/2+y,-z
1/2-x,1/2-y,-z
1/2+x,1/2-y,z
loop_
_atom_site_type_symbol
_atom_site_label
_atom_site_fract_x
_atom_site_fract_y
_atom_site_fract_z
Si Si1 0.182070 0.000000 0.909651
Si Si2 0.075030 0.351851 0.179073
Si Si3 0.555795 0.500000 0.405776
Si Si4 0.014757 0.715148 0.639964
Si Si5 0.771471 0.224208 0.761724
Si Si6 0.606974 0.652577 0.365178
Si Si7 0.410837 0.375705 0.031924
Si Si8 0.877647 0.500000 0.844627
O O1 0.184157 0.929995 0.991136
O O2 0.276509 0.000000 0.872040
O O3 0.053720 0.000000 0.762876
O O4 0.178464 0.298818 0.235664
O O5 0.122980 0.429077 0.230351
O O6 0.010111 0.326399 0.253855
O O7 0.000000 0.349128 0.000000
O O8 0.500000 0.500000 0.500000
O O9 0.618782 0.574584 0.428408
O O10 0.148011 0.733028 0.731696
O O11 0.000000 0.675486 0.500000
O O12 0.928670 0.782365 0.573871
O O13 0.790408 0.176451 0.652480
O O14 0.853328 0.187931 0.920439
O O15 0.492114 0.649380 0.198991
O O16 0.500000 0.410826 0.000000
O O17 0.000000 0.500000 0.000000
#
# Coordination Sequence:
#
# PCOD9200525 Si02
#       8
#     4   8   4   8   8   8   8   4
#     4  10  21  34  58  87 120 162 193 240 316 346
#     4  10  23  42  63  90 122 154 201 253 297 353
#     4  10  20  37  58  85 122 155 198 244 298 366
#     4  11  24  41  61  87 121 163 204 243 295 361
#     4  10  21  36  63  87 118 157 196 246 305 349
#     4   9  20  37  57  91 121 149 195 251 297 352
#     4   9  18  34  58  93 119 147 194 252 302 353
#     4  10  24  41  57  86 122 158 199 249 295 361
#
# _framework density 21.305893000000001
#
# number of rings (size 3 to 8) (size 9 to 14) (size 15 to 20)
#    0.000    2.154    0.000    3.000    8.615    5.538 
#    2.769    1.154    0.000    0.000    0.000    0.000 
#    0.000    0.000    0.000    0.000    0.000    0.000 
#
# Total GULP energy -145143.574844 kJ/mol
# GULP energy per Si atom -5582.445186 kJ/mol
# Density = 2.125740 g / cm^3
# Si number density = 21.305893 Si / 1000 Ang^3
#
#
#
# Elastic Constant Matrix: (Units=GPa)
#
#
# Indices 1 2 3 4 5 6 
#
# 1 156.5419 75.0872 22.1291 0.0000 -20.4322 0.0000
# 2 75.0872 170.5734 22.3144 0.0000 -26.3008 0.0000
# 3 22.1291 22.3144 59.1663 0.0000 -22.6208 0.0000
# 4 0.0000 0.0000 0.0000 -4.5458 0.0000 -14.0878
# 5 -20.4322 -26.3008 -22.6208 0.0000 30.8745 0.0000
# 6 0.0000 0.0000 0.0000 -14.0878 0.0000 -5.0930
#
#
#
# Elastic Compliance Matrix: (Units=1/GPa)
#
#
# Indices 1 2 3 4 5 6 
#
# 1 0.008352 -0.003227 -0.001173 0.000000 0.001919 0.000000
# 2 -0.003227 0.008006 -0.000030 0.000000 0.004662 0.000000
# 3 -0.001173 -0.000030 0.023677 0.000000 0.016546 0.000000
# 4 0.000000 0.000000 0.000000 0.029051 0.000000 -0.080357
# 5 0.001919 0.004662 0.016546 0.000000 0.049753 0.000000
# 6 0.000000 0.000000 0.000000 -0.080357 0.000000 0.025929
#
#
# Mechanical properties :
#
#
# Convention : Reuss Voigt Hill
#
# Bulk Modulus (GPa) = 32.07693 69.48258 50.77975
# Shear Modulus (GPa) = 30.48376 22.03053 26.25714
#
# Velocity S-wave (km/s) = 3.78665 3.21909 3.51435
# Velocity P-wave (km/s) = 5.84862 6.81905 6.35240
#
# Compressibility (1/GPa) = 0.03117506
#
# Stress axis : x y z
#
# Youngs Moduli (GPa) = 119.72565 124.90438 42.23425
#
# Poissons Ratio (x) = 0.40313 0.04955
# Poissons Ratio (y) = 0.38641 0.00126
# Poissons Ratio (z) = 0.14046 0.00373
#
# Static dielectric constant tensor:
#      x y z
#    x 1.755130 0.000000 -0.002500 
#    y 0.000000 1.798280 0.000000 
#    z -0.002500 0.000000 1.835730 
# 
# From -- ./inp_files/133390.got.cif
#   From: 2010.05.17/outbox.cif.g08.bks.cpg/sg12_67_cif.got.tgz:133390.got - 2010.06.03 13:09:07.
