data_PCOD9200251
_publ_section_title
;
Structure prediction by ZEFSAII (Michael W. Deem and Ramdas Pophale) SiO2 
 PCOD9200251
Probable space group: C 2/M
;
_chemical_formula_sum "Si O2"
_cell_formula_units_Z 48
_cell_length_a 25.715403
_cell_length_b 7.480215
_cell_length_c 19.096307
_cell_angle_alpha 90.000000
_cell_angle_beta 47.205591
_cell_angle_gamma 90.000000
_cell_volume 2695.455953
_symmetry_space_group_name_H-M "C 2/M"
_symmetry_group_IT_number 12
_symmetry_cell_setting 'monoclinic'
loop_
_space_group_symop_operation_xyz
x,y,z
-x,y,-z
-x,-y,-z
x,-y,z
1/2+x,1/2+y,z
1/2-x,1/2+y,-z
1/2-x,1/2-y,-z
1/2+x,1/2-y,z
loop_
_atom_site_type_symbol
_atom_site_label
_atom_site_fract_x
_atom_site_fract_y
_atom_site_fract_z
Si Si1 0.005642 0.217110 0.606692
Si Si2 0.880486 0.500000 0.112598
Si Si3 0.195060 0.212412 0.611468
Si Si4 0.776558 0.206607 0.258076
Si Si5 0.614821 0.716413 0.391216
Si Si6 0.494217 0.000000 0.887296
Si Si7 0.032713 0.216673 0.739905
O O1 0.075482 0.273571 0.499150
O O2 0.005378 0.268635 0.687776
O O3 0.937426 0.272398 0.623879
O O4 0.006818 0.000000 0.604662
O O5 0.829319 0.329100 0.165771
O O6 0.936002 0.500000 0.126795
O O7 0.927400 0.500000 0.999982
O O8 0.250000 0.250000 0.500000
O O9 0.219068 0.277251 0.665720
O O10 0.115615 0.270647 0.666771
O O11 0.191650 0.000000 0.620384
O O12 0.694577 0.218261 0.311595
O O13 0.799271 0.000000 0.234811
O O14 0.617066 0.500000 0.389390
O O15 0.496297 0.173343 0.835242
O O16 0.026929 0.000000 0.753370
#
# Coordination Sequence:
#
# PCOD9200251 Si02
#       7
#     8   4   8   8   8   4   8
#     4   8  16  31  55  85 118 158 188 220 273 327
#     4  11  24  42  62  81 108 142 190 242 287 337
#     4  10  21  31  50  80 114 151 178 212 269 331
#     4  11  22  37  55  83 114 146 187 231 283 328
#     4   9  16  32  56  83 118 158 191 220 265 335
#     4  11  24  40  64  85 100 146 194 232 293 339
#     4  10  20  37  55  83 117 143 183 232 279 328
#
# _framework density 17.807749000000001
#
# number of rings (size 3 to 8) (size 9 to 14) (size 15 to 20)
#    0.000    2.167    2.500    2.000    2.333    2.000 
#    3.000    2.500    0.000    1.000    0.000    0.000 
#    0.000    0.000    0.000    0.000    0.000    0.000 
#
# Total GULP energy -133941.876501 kJ/mol
# GULP energy per Si atom -5580.911521 kJ/mol
# Density = 1.776722 g / cm^3
# Si number density = 17.807749 Si / 1000 Ang^3
#
#
#
# Elastic Constant Matrix: (Units=GPa)
#
#
# Indices 1 2 3 4 5 6 
#
# 1 95.0137 29.0896 73.7438 -0.0055 2.7149 0.0006
# 2 29.0896 87.1674 52.2586 -0.0228 1.5725 -0.0063
# 3 73.7438 52.2586 158.0741 -0.0083 2.3954 0.0046
# 4 -0.0055 -0.0228 -0.0083 16.3431 0.0069 5.6327
# 5 2.7149 1.5725 2.3954 0.0069 25.6182 -0.0037
# 6 0.0006 -0.0063 0.0046 5.6327 -0.0037 12.9061
#
#
#
# Elastic Compliance Matrix: (Units=1/GPa)
#
#
# Indices 1 2 3 4 5 6 
#
# 1 0.016611 -0.001108 -0.007368 0.000001 -0.001003 0.000001
# 2 -0.001108 0.014387 -0.004234 0.000017 -0.000370 0.000001
# 3 -0.007368 -0.004234 0.011163 -0.000001 -0.000003 -0.000005
# 4 0.000001 0.000017 -0.000001 0.072022 -0.000025 -0.031433
# 5 -0.001003 -0.000370 -0.000003 -0.000025 0.039164 0.000022
# 6 0.000001 0.000001 -0.000005 -0.031433 0.000022 0.091202
#
#
# Mechanical properties :
#
#
# Convention : Reuss Voigt Hill
#
# Bulk Modulus (GPa) = 59.73100 72.27102 66.00101
# Shear Modulus (GPa) = 18.14564 23.31768 20.73166
#
# Velocity S-wave (km/s) = 3.19560 3.62251 3.41573
# Velocity P-wave (km/s) = 6.87247 7.62685 7.25946
#
# Compressibility (1/GPa) = 0.01674172
#
# Stress axis : x y z
#
# Youngs Moduli (GPa) = 60.20038 69.50796 89.58192
#
# Poissons Ratio (x) = 0.07704 0.66002
# Poissons Ratio (y) = 0.06672 0.37925
# Poissons Ratio (z) = 0.44354 0.29427
#
# Static dielectric constant tensor:
#      x y z
#    x 1.617220 0.000000 0.011170 
#    y 0.000000 1.638580 0.000010 
#    z 0.011170 0.000010 1.583290 
# 
# From -- ./inp_files/287289.got.cif
#   From: 2010.05.17/outbox.cif.g08.bks.cpg/sg12_144_cif.got.tgz:287289.got - 2010.06.03 13:09:07.
