data_PCOD9200093
_publ_section_title
;
Structure prediction by ZEFSAII (Michael W. Deem and Ramdas Pophale) SiO2 
 PCOD9200093
Probable space group: C 2/M
;
_chemical_formula_sum "Si O2"
_cell_formula_units_Z 36
_cell_length_a 11.636600
_cell_length_b 17.065151
_cell_length_c 8.508983
_cell_angle_alpha 90.000000
_cell_angle_beta 99.148754
_cell_angle_gamma 90.000000
_cell_volume 1668.221598
_symmetry_space_group_name_H-M "C 2/M"
_symmetry_group_IT_number 12
_symmetry_cell_setting 'monoclinic'
loop_
_space_group_symop_operation_xyz
x,y,z
-x,y,-z
-x,-y,-z
x,-y,z
1/2+x,1/2+y,z
1/2-x,1/2+y,-z
1/2-x,1/2-y,-z
1/2+x,1/2-y,z
loop_
_atom_site_type_symbol
_atom_site_label
_atom_site_fract_x
_atom_site_fract_y
_atom_site_fract_z
Si Si1 0.031809 0.694040 0.682647
Si Si2 0.569136 0.380450 0.672492
Si Si3 0.500000 0.391355 0.000000
Si Si4 0.832679 0.590464 0.788405
Si Si5 0.247004 0.335152 0.920176
O O1 0.933853 0.651796 0.766187
O O2 0.000000 0.672486 0.500000
O O3 0.038142 0.788493 0.694121
O O4 0.160291 0.665842 0.756403
O O5 0.500000 0.405276 0.500000
O O6 0.539803 0.420912 0.833887
O O7 0.708428 0.389670 0.679184
O O8 0.380551 0.351815 0.920013
O O9 0.864307 0.500000 0.763750
O O10 0.804932 0.604055 0.965718
O O11 0.250000 0.250000 0.000000
#
# Coordination Sequence:
#
# PCOD9200093 Si02
#       5
#     8   8   4   8   8
#     4  11  24  38  67 100 132 174 229 274 330 403
#     4  10  23  39  68 100 136 179 228 277 331 402
#     4  10  20  36  63  96 127 168 226 276 324 382
#     4  11  25  44  66  98 136 175 220 276 346 400
#     4  11  21  39  66  95 131 177 221 275 329 398
#
# _framework density 21.579867
#
# number of rings (size 3 to 8) (size 9 to 14) (size 15 to 20)
#    0.000    1.333    4.444    2.000    3.111    4.444 
#    0.000    8.889    0.000    0.000    0.000    0.000 
#    0.000    0.000    0.000    0.000    0.000    0.000 
#
# Total GULP energy -100326.920358 kJ/mol
# GULP energy per Si atom -5573.717798 kJ/mol
# Density = 2.153075 g / cm^3
# Si number density = 21.579867 Si / 1000 Ang^3
#
#
#
# Elastic Constant Matrix: (Units=GPa)
#
#
# Indices 1 2 3 4 5 6 
#
# 1 151.7911 49.5134 47.8803 0.0000 26.3210 0.0000
# 2 49.5134 114.6983 6.7635 0.0000 4.7250 0.0000
# 3 47.8803 6.7635 135.3369 0.0000 45.6715 0.0000
# 4 0.0000 0.0000 0.0000 -113.6316 0.0000 -0.7394
# 5 26.3210 4.7250 45.6715 0.0000 49.5372 0.0000
# 6 0.0000 0.0000 0.0000 -0.7394 0.0000 -8.6005
#
#
#
# Elastic Compliance Matrix: (Units=1/GPa)
#
#
# Indices 1 2 3 4 5 6 
#
# 1 0.008851 -0.003596 -0.002149 0.000000 -0.002379 0.000000
# 2 -0.003596 0.010219 0.000647 0.000000 0.000340 0.000000
# 3 -0.002149 0.000647 0.011254 0.000000 -0.009295 0.000000
# 4 0.000000 0.000000 0.000000 -0.008805 0.000000 0.000757
# 5 -0.002379 0.000340 -0.009295 0.000000 0.029988 0.000000
# 6 0.000000 0.000000 0.000000 0.000757 0.000000 -0.116337
#
#
# Mechanical properties :
#
#
# Convention : Reuss Voigt Hill
#
# Bulk Modulus (GPa) = 49.68340 67.79340 58.73840
# Shear Modulus (GPa) = -104.33251 5.30562 -49.51344
#
# Velocity S-wave (km/s) = -6.96075 1.56969 -4.79521
# Velocity P-wave (km/s) = 6.44436 5.89649 1.83865
#
# Compressibility (1/GPa) = 0.02012745
#
# Stress axis : x y z
#
# Youngs Moduli (GPa) = 112.97566 97.85832 88.85866
#
# Poissons Ratio (x) = 0.35193 0.19096
# Poissons Ratio (y) = 0.40630 -0.05749
# Poissons Ratio (z) = 0.24279 -0.06332
#
# Static dielectric constant tensor:
#      x y z
#    x 1.916650 0.000000 -0.010030 
#    y 0.000000 1.807390 0.000000 
#    z -0.010030 0.000000 1.798740 
# 
# From -- ./inp_files/46574.got.cif
#   From: 2010.05.17/outbox.cif.g08.bks.cpg/sg12_24_cif.got.tgz:46574.got - 2010.06.03 13:09:07.
