data_PCOD9200393
_publ_section_title
;
Structure prediction by ZEFSAII (Michael W. Deem and Ramdas Pophale) SiO2 
 PCOD9200393
Probable space group: C 2/M
;
_chemical_formula_sum "Si O2"
_cell_formula_units_Z 56
_cell_length_a 17.991045
_cell_length_b 23.169525
_cell_length_c 8.107066
_cell_angle_alpha 90.000000
_cell_angle_beta 51.622546
_cell_angle_gamma 90.000000
_cell_volume 2649.225005
_symmetry_space_group_name_H-M "C 2/M"
_symmetry_group_IT_number 12
_symmetry_cell_setting 'monoclinic'
loop_
_space_group_symop_operation_xyz
x,y,z
-x,y,-z
-x,-y,-z
x,-y,z
1/2+x,1/2+y,z
1/2-x,1/2+y,-z
1/2-x,1/2-y,-z
1/2+x,1/2-y,z
loop_
_atom_site_type_symbol
_atom_site_label
_atom_site_fract_x
_atom_site_fract_y
_atom_site_fract_z
Si Si1 0.776993 0.312110 0.670423
Si Si2 0.058689 0.180217 0.084888
Si Si3 0.763076 0.063532 0.848219
Si Si4 0.742636 0.681895 0.326408
Si Si5 0.088631 0.395660 0.298559
Si Si6 0.457775 0.438958 0.741048
Si Si7 0.448908 0.802011 0.894709
O O1 0.671433 0.320387 0.894078
O O2 0.763848 0.323112 0.492302
O O3 0.808516 0.243990 0.634725
O O4 0.845973 0.356475 0.669223
O O5 0.018842 0.121288 0.210498
O O6 0.036952 0.239705 0.207504
O O7 0.000000 0.188797 0.000000
O O8 0.788811 0.119361 0.700093
O O9 0.844731 0.061854 0.873307
O O10 0.765660 0.000000 0.760668
O O11 0.662951 0.071507 0.078371
O O12 0.839190 0.692479 0.093574
O O13 0.031601 0.351755 0.259001
O O14 0.000000 0.429532 0.500000
O O15 0.500000 0.439537 0.500000
O O16 0.486233 0.500000 0.782881
O O17 0.500000 0.808814 0.000000
#
# Coordination Sequence:
#
# PCOD9200393 Si02
#       7
#     8   8   8   8   8   8   8
#     4  10  20  37  57  91 121 150 195 246 307 347
#     4  10  21  35  56  85 119 152 191 241 299 357
#     4  10  22  41  60  84 119 161 203 247 290 351
#     4   9  20  35  59  81 121 157 191 242 298 361
#     4  11  22  36  63  88 118 159 198 250 297 350
#     4  10  22  39  57  80 114 154 200 244 290 352
#     4   9  19  35  54  85 120 151 191 241 298 361
#
# _framework density 21.138255999999998
#
# number of rings (size 3 to 8) (size 9 to 14) (size 15 to 20)
#    0.000    2.143    1.429    0.857    4.000    4.000 
#    0.000    1.429    0.000   14.571    0.000    0.000 
#    0.000    0.000    0.000    0.000    0.000    0.000 
#
# Total GULP energy -155926.595048 kJ/mol
# GULP energy per Si atom -5568.806966 kJ/mol
# Density = 2.109014 g / cm^3
# Si number density = 21.138256 Si / 1000 Ang^3
#
#
#
# Elastic Constant Matrix: (Units=GPa)
#
#
# Indices 1 2 3 4 5 6 
#
# 1 46.3806 5.0292 -4.4315 0.0000 -6.4634 0.0000
# 2 5.0292 113.9840 0.3862 0.0000 13.8784 0.0000
# 3 -4.4315 0.3862 53.6912 0.0000 -15.6395 0.0000
# 4 0.0000 0.0000 0.0000 -53.2494 0.0000 21.9952
# 5 -6.4634 13.8784 -15.6395 0.0000 32.4143 0.0000
# 6 0.0000 0.0000 0.0000 21.9952 0.0000 -8.3116
#
#
#
# Elastic Compliance Matrix: (Units=1/GPa)
#
#
# Indices 1 2 3 4 5 6 
#
# 1 0.023198 -0.001942 0.004094 0.000000 0.007433 0.000000
# 2 -0.001942 0.009512 -0.001778 0.000000 -0.005318 0.000000
# 3 0.004094 -0.001778 0.022613 0.000000 0.012488 0.000000
# 4 0.000000 0.000000 0.000000 0.201740 0.000000 0.533868
# 5 0.007433 -0.005318 0.012488 0.000000 0.040635 0.000000
# 6 0.000000 0.000000 0.000000 0.533868 0.000000 1.292472
#
#
# Mechanical properties :
#
#
# Convention : Reuss Voigt Hill
#
# Bulk Modulus (GPa) = 17.83453 24.00263 20.91858
# Shear Modulus (GPa) = 3.10923 8.37545 5.74234
#
# Velocity S-wave (km/s) = 1.21412 1.99269 1.64999
# Velocity P-wave (km/s) = 3.22814 4.08340 3.68069
#
# Compressibility (1/GPa) = 0.05607101
#
# Stress axis : x y z
#
# Youngs Moduli (GPa) = 43.10663 105.12620 44.22174
#
# Poissons Ratio (x) = 0.20420 -0.18103
# Poissons Ratio (y) = 0.08373 0.07862
# Poissons Ratio (z) = -0.17646 0.18689
#
# Static dielectric constant tensor:
#      x y z
#    x 1.875550 0.000000 0.037770 
#    y 0.000000 1.858980 0.000000 
#    z 0.037770 0.000000 1.828960 
# 
# From -- ./inp_files/89504.got.cif
#   From: 2010.05.17/outbox.cif.g08.bks.cpg/sg12_45_cif.got.tgz:89504.got - 2010.06.03 13:09:07.
