data_PCOD9200748
_publ_section_title
;
Structure prediction by ZEFSAII (Michael W. Deem and Ramdas Pophale) SiO2 
 PCOD9200748
Probable space group: C 2/M
;
_chemical_formula_sum "Si O2"
_cell_formula_units_Z 46
_cell_length_a 19.284741
_cell_length_b 14.448782
_cell_length_c 20.589069
_cell_angle_alpha 90.000000
_cell_angle_beta 21.276174
_cell_angle_gamma 90.000000
_cell_volume 2081.734586
_symmetry_space_group_name_H-M "C 2/M"
_symmetry_group_IT_number 12
_symmetry_cell_setting 'monoclinic'
loop_
_space_group_symop_operation_xyz
x,y,z
-x,y,-z
-x,-y,-z
x,-y,z
1/2+x,1/2+y,z
1/2-x,1/2+y,-z
1/2-x,1/2-y,-z
1/2+x,1/2-y,z
loop_
_atom_site_type_symbol
_atom_site_label
_atom_site_fract_x
_atom_site_fract_y
_atom_site_fract_z
Si Si1 0.734726 0.199310 0.679889
Si Si2 0.446073 0.799424 0.809871
Si Si3 0.915335 0.000000 0.736712
Si Si4 0.840753 0.500000 0.923882
Si Si5 0.404436 0.708144 0.719643
Si Si6 0.784329 0.500000 0.319057
Si Si7 0.500000 0.000000 0.500000
Si Si8 0.206390 0.150093 0.814166
O O1 0.591563 0.201661 0.743085
O O2 0.685632 0.274155 0.775332
O O3 0.945628 0.215723 0.468920
O O4 0.738283 0.093544 0.701158
O O5 0.513178 0.739969 0.689934
O O6 0.388616 0.905687 0.844570
O O7 0.250000 0.750000 0.000000
O O8 0.837610 0.898309 0.784055
O O9 0.128988 0.000000 0.515556
O O10 0.863343 0.000000 0.859902
O O11 0.002429 0.500000 0.838901
O O12 0.251346 0.787015 0.838044
O O13 0.373217 0.080447 0.648918
O O14 0.000000 0.103885 0.000000
#
# Coordination Sequence:
#
# PCOD9200748 Si02
#       8
#     8   8   4   4   8   4   2   8
#     4  10  21  43  65  98 133 178 221 274 339 399
#     4  11  21  37  63  94 133 175 228 279 333 402
#     4  10  20  37  63  97 130 174 210 266 328 393
#     4  10  20  37  59  88 132 171 214 273 331 383
#     4  11  22  42  67  97 137 177 222 277 336 400
#     4   8  20  35  64  93 135 162 214 262 324 402
#     4  12  26  54  68  94 134 172 234 282 328 394
#     4  12  26  46  74  98 131 177 225 277 338 401
#
# _framework density 22.096957
#
# number of rings (size 3 to 8) (size 9 to 14) (size 15 to 20)
#    0.000    1.391    3.478    1.826    2.435    1.391 
#    0.000    6.957    0.000    0.000    0.000    0.000 
#    0.000    0.000    0.000    0.000    0.000    0.000 
#
# Total GULP energy -128037.109019 kJ/mol
# GULP energy per Si atom -5566.830827 kJ/mol
# Density = 2.204666 g / cm^3
# Si number density = 22.096957 Si / 1000 Ang^3
#
#
#
# Elastic Constant Matrix: (Units=GPa)
#
#
# Indices 1 2 3 4 5 6 
#
# 1 70.1211 38.3746 -1.4577 -0.0041 0.5665 0.0031
# 2 38.3746 174.2039 16.8586 0.0135 -2.5651 0.0075
# 3 -1.4577 16.8586 58.8867 0.0023 -2.8745 0.0115
# 4 -0.0041 0.0135 0.0023 24.5799 -0.0096 11.2746
# 5 0.5665 -2.5651 -2.8745 -0.0096 27.2172 -0.0053
# 6 0.0031 0.0075 0.0115 11.2746 -0.0053 -13.1457
#
#
#
# Elastic Compliance Matrix: (Units=1/GPa)
#
#
# Indices 1 2 3 4 5 6 
#
# 1 0.016348 -0.003750 0.001452 0.000002 -0.000540 0.000005
# 2 -0.003750 0.006768 -0.002006 -0.000003 0.000504 -0.000002
# 3 0.001452 -0.002006 0.017672 -0.000004 0.001647 0.000010
# 4 0.000002 -0.000003 -0.000004 0.029197 0.000014 0.025041
# 5 -0.000540 0.000504 0.001647 0.000014 0.036974 -0.000001
# 6 0.000005 -0.000002 0.000010 0.025041 -0.000001 -0.054593
#
#
# Mechanical properties :
#
#
# Convention : Reuss Voigt Hill
#
# Bulk Modulus (GPa) = 31.07462 45.64031 38.35746
# Shear Modulus (GPa) = 69.73468 24.35935 47.04702
#
# Velocity S-wave (km/s) = 5.62379 3.32382 4.61924
# Velocity P-wave (km/s) = 7.50085 5.95229 6.77099
#
# Compressibility (1/GPa) = 0.03218061
#
# Stress axis : x y z
#
# Youngs Moduli (GPa) = 61.17104 147.75598 56.58560
#
# Poissons Ratio (x) = 0.55403 -0.08215
# Poissons Ratio (y) = 0.22937 0.11350
# Poissons Ratio (z) = -0.08881 0.29637
#
# Static dielectric constant tensor:
#      x y z
#    x 1.942480 0.000020 0.019660 
#    y 0.000020 1.805210 0.000020 
#    z 0.019660 0.000020 1.850730 
# 
# From -- ./inp_files/347512.got.cif
#   From: 2010.05.17/outbox.cif.g08.bks.cpg/sg12_174_cif.got.tgz:347512.got - 2010.06.03 13:09:07.
