data_PCOD9200388
_publ_section_title
;
Structure prediction by ZEFSAII (Michael W. Deem and Ramdas Pophale) SiO2 
 PCOD9200388
Probable space group: C 2/M
;
_chemical_formula_sum "Si O2"
_cell_formula_units_Z 64
_cell_length_a 9.117545
_cell_length_b 13.478148
_cell_length_c 31.658818
_cell_angle_alpha 90.000000
_cell_angle_beta 56.538095
_cell_angle_gamma 90.000000
_cell_volume 3245.640450
_symmetry_space_group_name_H-M "C 2/M"
_symmetry_group_IT_number 12
_symmetry_cell_setting 'monoclinic'
loop_
_space_group_symop_operation_xyz
x,y,z
-x,y,-z
-x,-y,-z
x,-y,z
1/2+x,1/2+y,z
1/2-x,1/2+y,-z
1/2-x,1/2-y,-z
1/2+x,1/2-y,z
loop_
_atom_site_type_symbol
_atom_site_label
_atom_site_fract_x
_atom_site_fract_y
_atom_site_fract_z
Si Si1 0.099043 0.203216 0.583441
Si Si2 0.040191 0.245398 0.111789
Si Si3 0.698173 0.613471 0.485231
Si Si4 0.939599 0.388492 0.754477
Si Si5 0.879798 0.116543 0.060787
Si Si6 0.346619 0.697170 0.818076
Si Si7 0.839701 0.892387 0.271631
Si Si8 0.290369 0.228398 0.344912
O O1 0.160354 0.311075 0.556438
O O2 0.196975 0.129108 0.536112
O O3 0.137750 0.209720 0.626799
O O4 0.892993 0.182829 0.611728
O O5 0.199396 0.323122 0.079932
O O6 0.101536 0.179330 0.141788
O O7 0.981873 0.176225 0.081809
O O8 0.861592 0.302625 0.152840
O O9 0.500000 0.639156 0.500000
O O10 0.732927 0.500000 0.468351
O O11 0.979618 0.500000 0.762288
O O12 0.917040 0.307656 0.794594
O O13 0.756420 0.388797 0.758101
O O14 0.079854 0.350497 0.697336
O O15 0.848635 0.000000 0.076797
O O16 0.000000 0.118785 0.000000
O O17 0.455305 0.628407 0.769117
O O18 0.758526 0.807703 0.313112
O O19 0.810502 0.000000 0.295252
#
# Coordination Sequence:
#
# PCOD9200388 Si02
#       8
#     8   8   8   8   8   8   8   8
#     4  11  22  39  59  83 113 142 178 235 283 335
#     4  10  21  37  63  91 124 164 210 258 311 370
#     4  10  22  39  61  85 108 142 183 228 284 343
#     4  10  21  37  60  84 114 158 197 237 290 346
#     4  10  22  41  64  92 127 167 213 264 318 374
#     4  10  20  37  57  88 122 155 197 251 299 353
#     4  10  21  36  56  83 117 153 189 237 291 342
#     4  11  22  38  58  84 114 147 187 229 282 345
#
# _framework density 19.718758999999999
#
# number of rings (size 3 to 8) (size 9 to 14) (size 15 to 20)
#    0.000    1.750    3.750    0.375    0.000    5.000 
#    0.000    3.750    0.000    6.750    0.000    0.000 
#    0.000    0.000    0.000    0.000    0.000    0.000 
#
# Total GULP energy -178445.243183 kJ/mol
# GULP energy per Si atom -5576.413849 kJ/mol
# Density = 1.967388 g / cm^3
# Si number density = 19.718759 Si / 1000 Ang^3
#
#
#
# Elastic Constant Matrix: (Units=GPa)
#
#
# Indices 1 2 3 4 5 6 
#
# 1 72.5470 11.4865 18.9413 0.0000 -3.4051 0.0000
# 2 11.4865 87.6796 17.3159 0.0000 -3.8618 0.0000
# 3 18.9413 17.3159 66.6769 0.0000 -8.4367 0.0000
# 4 0.0000 0.0000 0.0000 7.1022 0.0000 0.2726
# 5 -3.4051 -3.8618 -8.4367 0.0000 36.9319 0.0000
# 6 0.0000 0.0000 0.0000 0.2726 0.0000 19.1355
#
#
#
# Elastic Compliance Matrix: (Units=1/GPa)
#
#
# Indices 1 2 3 4 5 6 
#
# 1 0.015009 -0.001178 -0.003911 0.000000 0.000367 0.000000
# 2 -0.001178 0.012125 -0.002747 0.000000 0.000532 0.000000
# 3 -0.003911 -0.002747 0.017239 0.000000 0.003290 0.000000
# 4 0.000000 0.000000 0.000000 0.140878 0.000000 -0.002007
# 5 0.000367 0.000532 0.003290 0.000000 0.027918 0.000000
# 6 0.000000 0.000000 0.000000 -0.002007 0.000000 0.052287
#
#
# Mechanical properties :
#
#
# Convention : Reuss Voigt Hill
#
# Bulk Modulus (GPa) = 34.84239 35.82122 35.33181
# Shear Modulus (GPa) = 17.20013 24.57792 20.88903
#
# Velocity S-wave (km/s) = 2.95663 3.53430 3.25829
# Velocity P-wave (km/s) = 5.41882 5.90428 5.66675
#
# Compressibility (1/GPa) = 0.02870067
#
# Stress axis : x y z
#
# Youngs Moduli (GPa) = 66.62629 82.47160 58.00947
#
# Poissons Ratio (x) = 0.09712 0.22690
# Poissons Ratio (y) = 0.07846 0.15936
# Poissons Ratio (z) = 0.26060 0.22656
#
# Static dielectric constant tensor:
#      x y z
#    x 1.724970 0.000000 0.014560 
#    y 0.000000 1.676730 0.000000 
#    z 0.014560 0.000000 1.690410 
# 
# From -- ./inp_files/372376.got.cif
#   From: 2010.05.17/outbox.cif.g08.bks.cpg/sg12_187_cif.got.tgz:372376.got - 2010.06.03 13:09:07.
