data_PCOD9200759
_publ_section_title
;
Structure prediction by ZEFSAII (Michael W. Deem and Ramdas Pophale) SiO2 
 PCOD9200759
Probable space group: C 2/M
;
_chemical_formula_sum "Si O2"
_cell_formula_units_Z 40
_cell_length_a 20.769563
_cell_length_b 8.596843
_cell_length_c 31.286473
_cell_angle_alpha 90.000000
_cell_angle_beta 19.933816
_cell_angle_gamma 90.000000
_cell_volume 1904.556442
_symmetry_space_group_name_H-M "C 2/M"
_symmetry_group_IT_number 12
_symmetry_cell_setting 'monoclinic'
loop_
_space_group_symop_operation_xyz
x,y,z
-x,y,-z
-x,-y,-z
x,-y,z
1/2+x,1/2+y,z
1/2-x,1/2+y,-z
1/2-x,1/2-y,-z
1/2+x,1/2-y,z
loop_
_atom_site_type_symbol
_atom_site_label
_atom_site_fract_x
_atom_site_fract_y
_atom_site_fract_z
Si Si1 0.282166 0.816681 0.684765
Si Si2 0.321279 0.317821 0.567410
Si Si3 0.086362 0.681728 0.630874
Si Si4 0.374791 0.185760 0.961507
Si Si5 0.806406 0.189043 0.097570
O O1 0.477013 0.735319 0.577659
O O2 0.281491 0.782922 0.634214
O O3 0.089994 0.746224 0.822906
O O4 0.290556 0.000000 0.688175
O O5 0.331468 0.500000 0.573084
O O6 0.158995 0.300341 0.634023
O O7 0.076392 0.500000 0.626572
O O8 0.250000 0.750000 0.500000
O O9 0.874156 0.744562 0.762430
O O10 0.371851 0.000000 0.961642
O O11 0.250000 0.250000 0.000000
O O12 0.299592 0.245394 0.053981
O O13 0.799249 0.000000 0.099373
O O14 0.000000 0.232965 0.000000
#
# Coordination Sequence:
#
# PCOD9200759 Si02
#       5
#     8   8   8   8   8
#     4  11  22  37  61  92 124 164 209 262 322 385
#     4  10  20  37  59  89 127 165 210 265 319 378
#     4  10  23  40  62  90 124 167 211 260 314 373
#     4  12  25  42  66  95 129 169 216 270 328 393
#     4  10  23  44  67  96 134 175 218 267 326 392
#
# _framework density 21.002265999999999
#
# number of rings (size 3 to 8) (size 9 to 14) (size 15 to 20)
#    0.000    1.400    0.000    6.600    2.800    4.400 
#    0.000    0.000    0.000    0.000    0.000    0.000 
#    0.000    0.000    0.000    0.000    0.000    0.000 
#
# Total GULP energy -111839.208629 kJ/mol
# GULP energy per Si atom -5591.960431 kJ/mol
# Density = 2.095446 g / cm^3
# Si number density = 21.002266 Si / 1000 Ang^3
#
#
#
# Elastic Constant Matrix: (Units=GPa)
#
#
# Indices 1 2 3 4 5 6 
#
# 1 56.2742 21.7143 35.1668 0.0087 -3.7783 0.0296
# 2 21.7143 63.7094 26.1373 0.0153 -7.8782 0.0546
# 3 35.1668 26.1373 181.5604 -0.0109 -9.7496 -0.0184
# 4 0.0087 0.0153 -0.0109 35.3957 -0.0144 7.0304
# 5 -3.7783 -7.8782 -9.7496 -0.0144 28.7235 0.0032
# 6 0.0296 0.0546 -0.0184 7.0304 0.0032 25.2990
#
#
#
# Elastic Compliance Matrix: (Units=1/GPa)
#
#
# Indices 1 2 3 4 5 6 
#
# 1 0.022303 -0.006187 -0.003425 -0.000001 0.000074 -0.000015
# 2 -0.006187 0.018822 -0.001301 0.000002 0.003907 -0.000035
# 3 -0.003425 -0.001301 0.006432 0.000002 0.001376 0.000011
# 4 -0.000001 0.000002 0.000002 0.029903 0.000017 -0.008310
# 5 0.000074 0.003907 0.001376 0.000017 0.036363 -0.000017
# 6 -0.000015 -0.000035 0.000011 -0.008310 -0.000017 0.041837
#
#
# Mechanical properties :
#
#
# Convention : Reuss Voigt Hill
#
# Bulk Modulus (GPa) = 38.86526 51.95345 45.40935
# Shear Modulus (GPa) = 26.87245 32.45201 29.66223
#
# Velocity S-wave (km/s) = 3.58089 3.93513 3.76218
# Velocity P-wave (km/s) = 5.97013 6.74075 6.36711
#
# Compressibility (1/GPa) = 0.02572992
#
# Stress axis : x y z
#
# Youngs Moduli (GPa) = 44.83694 53.12886 155.46085
#
# Poissons Ratio (x) = 0.32872 0.53249
# Poissons Ratio (y) = 0.27742 0.20232
# Poissons Ratio (z) = 0.15358 0.06914
#
# Static dielectric constant tensor:
#      x y z
#    x 1.749490 -0.000010 -0.007490 
#    y -0.000010 1.719800 0.000000 
#    z -0.007490 0.000000 1.766200 
# 
# From -- ./inp_files/380513.got.cif
#   From: 2010.05.17/outbox.cif.g08.bks.cpg/sg12_191_cif.got.tgz:380513.got - 2010.06.03 13:09:07.
