data_PCOD9200221
_publ_section_title
;
Structure prediction by ZEFSAII (Michael W. Deem and Ramdas Pophale) SiO2 
 PCOD9200221
Probable space group: C 2/M
;
_chemical_formula_sum "Si O2"
_cell_formula_units_Z 64
_cell_length_a 8.562112
_cell_length_b 23.839908
_cell_length_c 14.792626
_cell_angle_alpha 90.000000
_cell_angle_beta 78.074599
_cell_angle_gamma 90.000000
_cell_volume 2954.302462
_symmetry_space_group_name_H-M "C 2/M"
_symmetry_group_IT_number 12
_symmetry_cell_setting 'monoclinic'
loop_
_space_group_symop_operation_xyz
x,y,z
-x,y,-z
-x,-y,-z
x,-y,z
1/2+x,1/2+y,z
1/2-x,1/2+y,-z
1/2-x,1/2-y,-z
1/2+x,1/2-y,z
loop_
_atom_site_type_symbol
_atom_site_label
_atom_site_fract_x
_atom_site_fract_y
_atom_site_fract_z
Si Si1 0.475307 0.637327 0.786102
Si Si2 0.955799 0.433051 0.862957
Si Si3 0.128365 0.064920 0.360877
Si Si4 0.582920 0.770449 0.216662
Si Si5 0.652788 0.874545 0.303136
Si Si6 0.252635 0.564990 0.464540
Si Si7 0.873668 0.265304 0.082324
Si Si8 0.235362 0.615818 0.957278
O O1 0.369580 0.604896 0.724657
O O2 0.447102 0.703879 0.772594
O O3 0.660190 0.624275 0.748075
O O4 0.408869 0.616441 0.890455
O O5 0.955312 0.500000 0.859167
O O6 0.940315 0.408562 0.763613
O O7 0.110053 0.412818 0.901839
O O8 0.806123 0.411454 0.941992
O O9 0.238163 0.083405 0.431971
O O10 0.940937 0.065816 0.413393
O O11 0.166813 0.000000 0.334959
O O12 0.595915 0.809889 0.301246
O O13 0.744957 0.775379 0.139875
O O14 0.450808 0.791396 0.163002
O O15 0.653134 0.900036 0.403476
O O16 0.202500 0.500000 0.467275
O O17 0.807124 0.318115 0.036466
O O18 0.000000 0.237695 0.000000
#
# Coordination Sequence:
#
# PCOD9200221 Si02
#       8
#     8   8   8   8   8   8   8   8
#     4  10  22  35  56  81 108 141 178 226 274 310
#     4  11  22  37  55  76 108 147 184 217 265 325
#     4   8  15  31  55  81 106 131 171 219 268 326
#     4  11  21  34  50  79 106 138 181 226 267 315
#     4  11  20  36  54  81 110 138 179 231 268 308
#     4   8  15  30  55  82 104 133 171 218 271 323
#     4  11  19  34  52  72  99 141 183 226 264 308
#     4  10  20  37  53  74 106 145 184 212 261 326
#
# _framework density 21.663319999999999
#
# number of rings (size 3 to 8) (size 9 to 14) (size 15 to 20)
#    0.000    2.000    3.750    2.250    0.000    3.000 
#    0.000    1.250    0.000    0.750    0.000    2.625 
#    0.000    0.000    0.000    0.000    0.000    0.000 
#
# Total GULP energy -178626.567517 kJ/mol
# GULP energy per Si atom -5582.080235 kJ/mol
# Density = 2.161401 g / cm^3
# Si number density = 21.663320 Si / 1000 Ang^3
#
#
#
# Elastic Constant Matrix: (Units=GPa)
#
#
# Indices 1 2 3 4 5 6 
#
# 1 43.5348 -4.5073 6.5687 0.0000 12.7198 0.0000
# 2 -4.5073 79.1697 29.5675 0.0000 18.4710 0.0000
# 3 6.5687 29.5675 72.0863 0.0000 27.1649 0.0000
# 4 0.0000 0.0000 0.0000 32.9411 0.0000 14.0814
# 5 12.7198 18.4710 27.1649 0.0000 36.2541 0.0000
# 6 0.0000 0.0000 0.0000 14.0814 0.0000 8.8636
#
#
#
# Elastic Compliance Matrix: (Units=1/GPa)
#
#
# Indices 1 2 3 4 5 6 
#
# 1 0.026783 0.004158 0.000269 0.000000 -0.011717 0.000000
# 2 0.004158 0.016035 -0.004637 0.000000 -0.006154 0.000000
# 3 0.000269 -0.004637 0.020756 0.000000 -0.013284 0.000000
# 4 0.000000 0.000000 0.000000 0.094605 0.000000 -0.150296
# 5 -0.011717 -0.006154 -0.013284 0.000000 0.044783 0.000000
# 6 0.000000 0.000000 0.000000 -0.150296 0.000000 0.351591
#
#
# Mechanical properties :
#
#
# Convention : Reuss Voigt Hill
#
# Bulk Modulus (GPa) = 15.83394 28.67207 22.25301
# Shear Modulus (GPa) = 8.68018 26.48922 17.58470
#
# Velocity S-wave (km/s) = 2.00389 3.50060 2.85217
# Velocity P-wave (km/s) = 3.56076 5.44086 4.59794
#
# Compressibility (1/GPa) = 0.06315546
#
# Stress axis : x y z
#
# Youngs Moduli (GPa) = 37.33643 62.36193 48.17980
#
# Poissons Ratio (x) = -0.25930 -0.01298
# Poissons Ratio (y) = -0.15524 0.22341
# Poissons Ratio (z) = -0.01006 0.28917
#
# Static dielectric constant tensor:
#      x y z
#    x 1.879980 0.000000 0.005350 
#    y 0.000000 1.768590 0.000000 
#    z 0.005350 0.000000 1.796910 
# 
# From -- ./inp_files/198859.got.cif
#   From: 2010.05.17/outbox.cif.g08.bks.cpg/sg12_100_cif.got.tgz:198859.got - 2010.06.03 13:09:07.
