data_PCOD9200951
_publ_section_title
;
Structure prediction by ZEFSAII (Michael W. Deem and Ramdas Pophale) SiO2 
 PCOD9200951
Probable space group: C 2/M
;
_chemical_formula_sum "Si O2"
_cell_formula_units_Z 48
_cell_length_a 20.852243
_cell_length_b 8.740899
_cell_length_c 34.441520
_cell_angle_alpha 90.000000
_cell_angle_beta 155.102351
_cell_angle_gamma 90.000000
_cell_volume 2642.845865
_symmetry_space_group_name_H-M "C 2/M"
_symmetry_group_IT_number 12
_symmetry_cell_setting 'monoclinic'
loop_
_space_group_symop_operation_xyz
x,y,z
-x,y,-z
-x,-y,-z
x,-y,z
1/2+x,1/2+y,z
1/2-x,1/2+y,-z
1/2-x,1/2-y,-z
1/2+x,1/2-y,z
loop_
_atom_site_type_symbol
_atom_site_label
_atom_site_fract_x
_atom_site_fract_y
_atom_site_fract_z
Si Si1 0.917652 0.314971 0.394560
Si Si2 0.429339 0.315970 0.209075
Si Si3 0.772286 0.314337 0.397437
Si Si4 0.598370 0.682790 0.897736
Si Si5 0.846253 0.183153 0.892865
Si Si6 0.183294 0.317951 0.209193
O O1 0.911138 0.500000 0.387843
O O2 0.822937 0.271256 0.381504
O O3 0.838830 0.241327 0.314245
O O4 0.091750 0.268514 0.499059
O O5 0.419928 0.500000 0.209568
O O6 0.601791 0.264082 0.313361
O O7 0.404506 0.285403 0.149769
O O8 0.300184 0.236308 0.163271
O O9 0.770686 0.500000 0.396398
O O10 0.593403 0.500000 0.900068
O O11 0.452829 0.754443 0.838839
O O12 0.750000 0.750000 0.000000
O O13 0.839211 0.255208 0.846391
O O14 0.848062 0.000000 0.890376
O O15 0.000000 0.230681 0.000000
O O16 0.180210 0.500000 0.207143
#
# Coordination Sequence:
#
# PCOD9200951 Si02
#       6
#     8   8   8   8   8   8
#     4   9  16  33  60  87 117 153 192 233 287 347
#     4  10  20  37  60  87 116 149 190 237 291 349
#     4   8  15  31  59  89 116 151 190 232 289 351
#     4  11  22  37  59  86 118 151 191 242 292 346
#     4  11  25  43  61  81 111 154 200 245 295 349
#     4  12  24  38  58  86 119 155 196 240 289 345
#
# _framework density 18.162239
#
# number of rings (size 3 to 8) (size 9 to 14) (size 15 to 20)
#    0.000    1.833    1.667    4.500    0.000    5.333 
#    0.000    3.333    0.000    0.000    0.000    0.000 
#    0.000    0.000    0.000    0.000    0.000    0.000 
#
# Total GULP energy -134045.167653 kJ/mol
# GULP energy per Si atom -5585.215319 kJ/mol
# Density = 1.812090 g / cm^3
# Si number density = 18.162239 Si / 1000 Ang^3
#
#
#
# Elastic Constant Matrix: (Units=GPa)
#
#
# Indices 1 2 3 4 5 6 
#
# 1 66.4697 27.5666 27.5599 -0.0003 -10.4968 -0.0003
# 2 27.5666 42.2238 21.8063 0.0000 -13.5253 -0.0002
# 3 27.5599 21.8063 124.4428 -0.0009 -11.5308 -0.0002
# 4 -0.0003 0.0000 -0.0009 17.5057 0.0003 1.6190
# 5 -10.4968 -13.5253 -11.5308 0.0003 33.8844 0.0000
# 6 -0.0003 -0.0002 -0.0002 1.6190 0.0000 27.4308
#
#
#
# Elastic Compliance Matrix: (Units=1/GPa)
#
#
# Indices 1 2 3 4 5 6 
#
# 1 0.021340 -0.012389 -0.002479 0.000000 0.000822 0.000000
# 2 -0.012389 0.036288 -0.002714 0.000000 0.009723 0.000000
# 3 -0.002479 -0.002714 0.009178 0.000000 0.001272 0.000000
# 4 0.000000 0.000000 0.000000 0.057438 -0.000001 -0.003390
# 5 0.000822 0.009723 0.001272 -0.000001 0.034081 0.000000
# 6 0.000000 0.000000 0.000000 -0.003390 0.000000 0.036655
#
#
# Mechanical properties :
#
#
# Convention : Reuss Voigt Hill
#
# Bulk Modulus (GPa) = 31.60306 43.00020 37.30163
# Shear Modulus (GPa) = 20.77350 26.17774 23.47562
#
# Velocity S-wave (km/s) = 3.38564 3.80060 3.59911
# Velocity P-wave (km/s) = 5.72028 6.55640 6.15256
#
# Compressibility (1/GPa) = 0.03164250
#
# Stress axis : x y z
#
# Youngs Moduli (GPa) = 46.86032 27.55746 108.95242
#
# Poissons Ratio (x) = 0.34140 0.27010
# Poissons Ratio (y) = 0.58053 0.29571
# Poissons Ratio (z) = 0.11617 0.07480
#
# Static dielectric constant tensor:
#      x y z
#    x 1.583680 0.000000 0.000730 
#    y 0.000000 1.606070 0.000000 
#    z 0.000730 0.000000 1.629560 
# 
# From -- ./inp_files/244767.got.cif
#   From: 2010.05.17/outbox.cif.g08.bks.cpg/sg12_123_cif.got.tgz:244767.got - 2010.06.03 13:09:07.
