data_PCOD9200103
_publ_section_title
;
Structure prediction by ZEFSAII (Michael W. Deem and Ramdas Pophale) SiO2 
 PCOD9200103
Probable space group: C 2/M
;
_chemical_formula_sum "Si O2"
_cell_formula_units_Z 56
_cell_length_a 9.046386
_cell_length_b 27.446201
_cell_length_c 11.537950
_cell_angle_alpha 90.000000
_cell_angle_beta 122.182496
_cell_angle_gamma 90.000000
_cell_volume 2424.594100
_symmetry_space_group_name_H-M "C 2/M"
_symmetry_group_IT_number 12
_symmetry_cell_setting 'monoclinic'
loop_
_space_group_symop_operation_xyz
x,y,z
-x,y,-z
-x,-y,-z
x,-y,z
1/2+x,1/2+y,z
1/2-x,1/2+y,-z
1/2-x,1/2-y,-z
1/2+x,1/2-y,z
loop_
_atom_site_type_symbol
_atom_site_label
_atom_site_fract_x
_atom_site_fract_y
_atom_site_fract_z
Si Si1 0.987978 0.771887 0.857294
Si Si2 0.914462 0.845725 0.281841
Si Si3 0.896793 0.447281 0.578673
Si Si4 0.229179 0.418834 0.848579
Si Si5 0.063973 0.944224 0.835772
Si Si6 0.236761 0.657253 0.441240
Si Si7 0.627740 0.808347 0.750902
O O1 0.092558 0.816134 0.840354
O O2 0.781352 0.780250 0.748599
O O3 0.069967 0.724147 0.835493
O O4 0.000000 0.772719 0.000000
O O5 0.094022 0.827490 0.416873
O O6 0.917296 0.902724 0.252546
O O7 0.769885 0.836253 0.318183
O O8 0.809229 0.500000 0.547010
O O9 0.777958 0.400382 0.540700
O O10 0.000000 0.443774 0.500000
O O11 0.045193 0.442545 0.738864
O O12 0.375524 0.437001 0.818805
O O13 0.204451 0.360923 0.819547
O O14 0.297955 0.432740 0.003790
O O15 0.082064 0.000000 0.804796
O O16 0.051635 0.681228 0.392278
#
# Coordination Sequence:
#
# PCOD9200103 Si02
#       7
#     8   8   8   8   8   8   8
#     4  12  25  45  71 101 135 177 230 287 347 419
#     4  11  24  45  66  96 142 179 233 285 352 409
#     4  10  20  36  63  98 135 180 233 286 347 413
#     4  10  20  38  61  97 135 175 224 284 337 409
#     4  11  21  37  66  99 135 183 227 278 340 405
#     4  10  25  43  66  97 135 186 227 292 344 412
#     4  11  24  42  69  98 132 177 230 283 350 403
#
# _framework density 23.096647999999998
#
# number of rings (size 3 to 8) (size 9 to 14) (size 15 to 20)
#    0.000    1.286    1.429    4.714    2.000    4.000 
#    0.000    5.000    0.000    4.286    0.000    0.000 
#    0.000    0.000    0.000    0.000    0.000    0.000 
#
# Total GULP energy -156709.321691 kJ/mol
# GULP energy per Si atom -5596.761489 kJ/mol
# Density = 2.304408 g / cm^3
# Si number density = 23.096648 Si / 1000 Ang^3
#
#
#
# Elastic Constant Matrix: (Units=GPa)
#
#
# Indices 1 2 3 4 5 6 
#
# 1 81.4498 27.1197 27.5485 0.0000 -10.7739 0.0000
# 2 27.1197 130.8594 12.0399 0.0000 -19.4189 0.0000
# 3 27.5485 12.0399 54.4842 0.0000 -10.5621 0.0000
# 4 0.0000 0.0000 0.0000 -10.1156 0.0000 -24.7882
# 5 -10.7739 -19.4189 -10.5621 0.0000 41.2751 0.0000
# 6 0.0000 0.0000 0.0000 -24.7882 0.0000 15.8147
#
#
#
# Elastic Compliance Matrix: (Units=1/GPa)
#
#
# Indices 1 2 3 4 5 6 
#
# 1 0.015654 -0.002420 -0.007164 0.000000 0.001114 0.000000
# 2 -0.002420 0.008655 -0.000023 0.000000 0.003434 0.000000
# 3 -0.007164 -0.000023 0.022745 0.000000 0.003939 0.000000
# 4 0.000000 0.000000 0.000000 -0.020421 0.000000 -0.032008
# 5 0.001114 0.003434 0.003939 0.000000 0.027142 0.000000
# 6 0.000000 0.000000 0.000000 -0.032008 0.000000 0.013062
#
#
# Mechanical properties :
#
#
# Convention : Reuss Voigt Hill
#
# Bulk Modulus (GPa) = 35.92012 44.46775 40.19393
# Shear Modulus (GPa) = 52.44872 22.73386 37.59129
#
# Velocity S-wave (km/s) = 4.77050 3.14075 4.03869
# Velocity P-wave (km/s) = 6.77712 5.69623 6.26005
#
# Compressibility (1/GPa) = 0.02783955
#
# Stress axis : x y z
#
# Youngs Moduli (GPa) = 63.88296 115.53964 43.96546
#
# Poissons Ratio (x) = 0.27956 0.31497
# Poissons Ratio (y) = 0.15457 0.00103
# Poissons Ratio (z) = 0.45767 0.00270
#
# Static dielectric constant tensor:
#      x y z
#    x 1.845600 0.000000 0.030140 
#    y 0.000000 1.862040 0.000000 
#    z 0.030140 0.000000 1.894810 
# 
# From -- ./inp_files/124360.got.cif
#   From: 2010.05.17/outbox.cif.g08.bks.cpg/sg12_63_cif.got.tgz:124360.got - 2010.06.03 13:09:07.
