data_PCOD9200491
_publ_section_title
;
Structure prediction by ZEFSAII (Michael W. Deem and Ramdas Pophale) SiO2 
 PCOD9200491
Probable space group: C 2/M
;
_chemical_formula_sum "Si O2"
_cell_formula_units_Z 64
_cell_length_a 9.338283
_cell_length_b 13.084595
_cell_length_c 27.419387
_cell_angle_alpha 90.000000
_cell_angle_beta 106.611324
_cell_angle_gamma 90.000000
_cell_volume 3210.488941
_symmetry_space_group_name_H-M "C 2/M"
_symmetry_group_IT_number 12
_symmetry_cell_setting 'monoclinic'
loop_
_space_group_symop_operation_xyz
x,y,z
-x,y,-z
-x,-y,-z
x,-y,z
1/2+x,1/2+y,z
1/2-x,1/2+y,-z
1/2-x,1/2-y,-z
1/2+x,1/2-y,z
loop_
_atom_site_type_symbol
_atom_site_label
_atom_site_fract_x
_atom_site_fract_y
_atom_site_fract_z
Si Si1 0.931306 0.800396 0.720755
Si Si2 0.350386 0.609767 0.189614
Si Si3 0.372029 0.251502 0.348094
Si Si4 0.944786 0.704167 0.546865
Si Si5 0.427028 0.379585 0.939427
Si Si6 0.844907 0.120622 0.432178
Si Si7 0.620194 0.771653 0.888929
Si Si8 0.952639 0.613560 0.789503
O O1 0.993576 0.877308 0.767225
O O2 0.010001 0.804205 0.676108
O O3 0.981818 0.692947 0.749729
O O4 0.755980 0.802994 0.694862
O O5 0.340501 0.500000 0.164136
O O6 0.321163 0.696374 0.147656
O O7 0.224922 0.615067 0.218881
O O8 0.451977 0.178117 0.395903
O O9 0.296502 0.340766 0.373600
O O10 0.777176 0.673060 0.544058
O O11 0.000000 0.661736 0.500000
O O12 0.991880 0.824889 0.549054
O O13 0.424712 0.500000 0.922821
O O14 0.524204 0.302122 0.915000
O O15 0.259303 0.332936 0.925047
O O16 0.500000 0.378202 0.000000
O O17 0.848971 0.000000 0.438446
O O18 0.520326 0.850071 0.847720
O O19 0.004060 0.500000 0.783215
#
# Coordination Sequence:
#
# PCOD9200491 Si02
#       8
#     8   8   8   8   8   8   8   8
#     4  11  20  37  56  84 121 152 194 253 303 371
#     4  10  21  36  60  88 117 160 205 252 311 370
#     4  10  20  37  58  83 118 157 197 243 306 366
#     4  10  21  41  65  89 123 161 204 259 307 368
#     4  11  24  41  64  95 131 172 216 262 315 370
#     4  10  22  39  63  89 118 159 199 246 309 362
#     4  11  21  42  63  90 127 166 209 263 315 362
#     4  10  21  36  61  88 115 160 207 250 307 375
#
# _framework density 19.934657999999999
#
# number of rings (size 3 to 8) (size 9 to 14) (size 15 to 20)
#    0.750    0.875    3.750    1.500    0.000    1.500 
#    0.000    3.125    0.000    3.000    0.000    0.000 
#    0.000    0.000    0.000    0.000    0.000    0.000 
#
# Total GULP energy -178150.733789 kJ/mol
# GULP energy per Si atom -5567.210431 kJ/mol
# Density = 1.988929 g / cm^3
# Si number density = 19.934658 Si / 1000 Ang^3
#
#
#
# Elastic Constant Matrix: (Units=GPa)
#
#
# Indices 1 2 3 4 5 6 
#
# 1 85.7925 32.6993 12.3212 0.0000 7.5501 0.0000
# 2 32.6993 103.7723 16.5185 0.0000 3.9996 0.0000
# 3 12.3212 16.5185 72.9996 0.0000 14.8746 0.0000
# 4 0.0000 0.0000 0.0000 10.6042 0.0000 0.6151
# 5 7.5501 3.9996 14.8746 0.0000 42.3444 0.0000
# 6 0.0000 0.0000 0.0000 0.6151 0.0000 20.5849
#
#
#
# Elastic Compliance Matrix: (Units=1/GPa)
#
#
# Indices 1 2 3 4 5 6 
#
# 1 0.013482 -0.004021 -0.001027 0.000000 -0.001663 0.000000
# 2 -0.004021 0.011197 -0.001923 0.000000 0.000335 0.000000
# 3 -0.001027 -0.001923 0.015330 0.000000 -0.005020 0.000000
# 4 0.000000 0.000000 0.000000 0.094466 0.000000 -0.002823
# 5 -0.001663 0.000335 -0.005020 0.000000 0.025644 0.000000
# 6 0.000000 0.000000 0.000000 -0.002823 0.000000 0.048664
#
#
# Mechanical properties :
#
#
# Convention : Reuss Voigt Hill
#
# Bulk Modulus (GPa) = 38.36185 42.84915 40.60550
# Shear Modulus (GPa) = 21.60629 28.10839 24.85734
#
# Velocity S-wave (km/s) = 3.29577 3.75911 3.53504
# Velocity P-wave (km/s) = 5.81105 6.35473 6.08896
#
# Compressibility (1/GPa) = 0.02606757
#
# Stress axis : x y z
#
# Youngs Moduli (GPa) = 74.17074 89.31205 65.23084
#
# Poissons Ratio (x) = 0.35911 0.06698
# Poissons Ratio (y) = 0.29823 0.12545
# Poissons Ratio (z) = 0.07616 0.17176
#
# Static dielectric constant tensor:
#      x y z
#    x 1.735720 0.000000 0.019940 
#    y 0.000000 1.702360 0.000000 
#    z 0.019940 0.000000 1.752930 
# 
# From -- ./inp_files/356189.got.cif
#   From: 2010.05.17/outbox.cif.g08.bks.cpg/sg12_179_cif.got.tgz:356189.got - 2010.06.03 13:09:07.
