data_PCOD9200678
_publ_section_title
;
Structure prediction by ZEFSAII (Michael W. Deem and Ramdas Pophale) SiO2 
 PCOD9200678
Probable space group: C 2/M
;
_chemical_formula_sum "Si O2"
_cell_formula_units_Z 64
_cell_length_a 17.227173
_cell_length_b 13.783898
_cell_length_c 14.999563
_cell_angle_alpha 90.000000
_cell_angle_beta 63.424617
_cell_angle_gamma 90.000000
_cell_volume 3185.447853
_symmetry_space_group_name_H-M "C 2/M"
_symmetry_group_IT_number 12
_symmetry_cell_setting 'monoclinic'
loop_
_space_group_symop_operation_xyz
x,y,z
-x,y,-z
-x,-y,-z
x,-y,z
1/2+x,1/2+y,z
1/2-x,1/2+y,-z
1/2-x,1/2-y,-z
1/2+x,1/2-y,z
loop_
_atom_site_type_symbol
_atom_site_label
_atom_site_fract_x
_atom_site_fract_y
_atom_site_fract_z
Si Si1 0.798896 0.201571 0.265191
Si Si2 0.344834 0.112718 0.785868
Si Si3 0.029408 0.214173 0.319593
Si Si4 0.666838 0.319509 0.555795
Si Si5 0.215650 0.390069 0.980705
Si Si6 0.177422 0.889349 0.358359
Si Si7 0.578168 0.611032 0.115160
Si Si8 0.411493 0.754288 0.052949
O O1 0.733916 0.137534 0.239737
O O2 0.819644 0.150976 0.348425
O O3 0.751021 0.307002 0.301652
O O4 0.885184 0.218417 0.163447
O O5 0.422941 0.183577 0.720117
O O6 0.311965 0.132528 0.903424
O O7 0.368212 0.000000 0.768080
O O8 0.089635 0.151934 0.356889
O O9 0.033163 0.159134 0.223119
O O10 0.929642 0.226605 0.399266
O O11 0.750000 0.250000 0.500000
O O12 0.668329 0.390120 0.470363
O O13 0.187635 0.500000 0.976163
O O14 0.318597 0.385895 0.917237
O O15 0.169051 0.315386 0.940930
O O16 0.195302 0.000000 0.317893
O O17 0.550972 0.500000 0.118403
O O18 0.571457 0.668871 0.026521
O O19 0.500000 0.815051 0.000000
#
# Coordination Sequence:
#
# PCOD9200678 Si02
#       8
#     8   8   8   8   8   8   8   8
#     4  10  22  39  62  87 122 163 203 245 303 362
#     4  10  20  37  63  89 117 160 209 249 288 350
#     4  11  21  38  65  92 121 158 203 252 303 358
#     4  10  23  43  62  85 121 159 197 251 313 365
#     4  10  20  37  59  84 120 165 208 243 286 346
#     4  10  22  41  66  93 117 152 203 258 309 359
#     4  11  22  37  60  90 124 162 206 247 290 353
#     4  12  23  36  57  87 129 166 197 243 296 357
#
# _framework density 20.091366000000001
#
# number of rings (size 3 to 8) (size 9 to 14) (size 15 to 20)
#    0.000    1.500    2.500    3.375    0.000    4.000 
#    0.000    3.750    0.000    9.750    0.000    0.000 
#    0.000    0.000    0.000    0.000    0.000    0.000 
#
# Total GULP energy -178658.906980 kJ/mol
# GULP energy per Si atom -5583.090843 kJ/mol
# Density = 2.004564 g / cm^3
# Si number density = 20.091366 Si / 1000 Ang^3
#
#
#
# Elastic Constant Matrix: (Units=GPa)
#
#
# Indices 1 2 3 4 5 6 
#
# 1 70.9508 14.8510 33.0904 0.0000 0.0092 0.0000
# 2 14.8510 81.5203 23.1878 0.0000 3.1049 0.0000
# 3 33.0904 23.1878 109.5046 0.0000 9.6086 0.0000
# 4 0.0000 0.0000 0.0000 15.3140 0.0000 -1.7443
# 5 0.0092 3.1049 9.6086 0.0000 47.1294 0.0000
# 6 0.0000 0.0000 0.0000 -1.7443 0.0000 -5.8560
#
#
#
# Elastic Compliance Matrix: (Units=1/GPa)
#
#
# Indices 1 2 3 4 5 6 
#
# 1 0.016680 -0.001723 -0.004770 0.000000 0.001083 0.000000
# 2 -0.001723 0.013235 -0.002246 0.000000 -0.000414 0.000000
# 3 -0.004770 -0.002246 0.011237 0.000000 -0.002142 0.000000
# 4 0.000000 0.000000 0.000000 0.063157 0.000000 -0.018813
# 5 0.001083 -0.000414 -0.002142 0.000000 0.021682 0.000000
# 6 0.000000 0.000000 0.000000 -0.018813 0.000000 -0.165161
#
#
# Mechanical properties :
#
#
# Convention : Reuss Voigt Hill
#
# Bulk Modulus (GPa) = 42.24068 44.91491 43.57780
# Shear Modulus (GPa) = -362.30129 24.04057 -169.13036
#
# Velocity S-wave (km/s) = -13.44315 3.46289 -9.18495
# Velocity P-wave (km/s) = 14.82862 6.19618 9.52615
#
# Compressibility (1/GPa) = 0.02367386
#
# Stress axis : x y z
#
# Youngs Moduli (GPa) = 59.95326 75.55569 88.99111
#
# Poissons Ratio (x) = 0.13018 0.42453
# Poissons Ratio (y) = 0.10330 0.19984
# Poissons Ratio (z) = 0.28601 0.16967
#
# Static dielectric constant tensor:
#      x y z
#    x 1.756860 0.000000 0.004900 
#    y 0.000000 1.694690 0.000000 
#    z 0.004900 0.000000 1.724130 
# 
# From -- ./inp_files/225260.got.cif
#   From: 2010.05.17/outbox.cif.g08.bks.cpg/sg12_113_cif.got.tgz:225260.got - 2010.06.03 13:09:07.
