data_PCOD9200599
_publ_section_title
;
Structure prediction by ZEFSAII (Michael W. Deem and Ramdas Pophale) SiO2 
 PCOD9200599
Probable space group: C 2/M
;
_chemical_formula_sum "Si O2"
_cell_formula_units_Z 64
_cell_length_a 17.027024
_cell_length_b 14.609924
_cell_length_c 14.396249
_cell_angle_alpha 90.000000
_cell_angle_beta 118.323820
_cell_angle_gamma 90.000000
_cell_volume 3152.513673
_symmetry_space_group_name_H-M "C 2/M"
_symmetry_group_IT_number 12
_symmetry_cell_setting 'monoclinic'
loop_
_space_group_symop_operation_xyz
x,y,z
-x,y,-z
-x,-y,-z
x,-y,z
1/2+x,1/2+y,z
1/2-x,1/2+y,-z
1/2-x,1/2-y,-z
1/2+x,1/2-y,z
loop_
_atom_site_type_symbol
_atom_site_label
_atom_site_fract_x
_atom_site_fract_y
_atom_site_fract_z
Si Si1 0.042049 0.110220 0.674376
Si Si2 0.194864 0.341327 0.450176
Si Si3 0.815250 0.603163 0.851386
Si Si4 0.602048 0.893992 0.587423
Si Si5 0.842164 0.604246 0.086836
Si Si6 0.376523 0.603797 0.478982
Si Si7 0.672005 0.751758 0.780828
Si Si8 0.948969 0.395542 0.764710
O O1 0.090922 0.134997 0.603415
O O2 0.095800 0.178885 0.770918
O O3 0.939838 0.140432 0.597194
O O4 0.050517 0.000000 0.699755
O O5 0.250000 0.250000 0.500000
O O6 0.162936 0.382191 0.529974
O O7 0.272054 0.395204 0.438558
O O8 0.108344 0.334513 0.337050
O O9 0.777490 0.500000 0.811306
O O10 0.750712 0.686116 0.788999
O O11 0.904641 0.610066 0.841252
O O12 0.831264 0.609547 0.970218
O O13 0.500000 0.874387 0.500000
O O14 0.634981 0.823234 0.683653
O O15 0.605521 0.000000 0.621253
O O16 0.817465 0.500000 0.100369
O O17 0.793908 0.683695 0.116615
O O18 0.946336 0.618826 0.170364
O O19 0.406511 0.500000 0.494741
O O20 0.934976 0.500000 0.722243
#
# Coordination Sequence:
#
# PCOD9200599 Si02
#       8
#     8   8   8   8   8   8   8   8
#     4   9  19  33  52  79 111 150 188 232 288 332
#     4  12  23  33  54  86 116 149 196 233 278 327
#     4  10  21  39  62  88 112 136 183 251 309 343
#     4  11  25  41  56  80 123 170 200 227 270 338
#     4  10  22  39  60  84 111 146 188 239 296 347
#     4   9  18  33  50  71 107 149 189 231 278 325
#     4  12  22  35  58  84 116 152 196 227 280 341
#     4  10  20  37  59  82 109 143 183 235 292 340
#
# _framework density 20.301259000000002
#
# number of rings (size 3 to 8) (size 9 to 14) (size 15 to 20)
#    0.000    1.625    0.000    6.375    5.250    5.500 
#    0.000    0.000    0.000    0.000    0.000    0.000 
#    0.000    7.000    0.000    0.000    0.000    0.000 
#
# Total GULP energy -178541.848286 kJ/mol
# GULP energy per Si atom -5579.432759 kJ/mol
# Density = 2.025505 g / cm^3
# Si number density = 20.301259 Si / 1000 Ang^3
#
#
#
# Elastic Constant Matrix: (Units=GPa)
#
#
# Indices 1 2 3 4 5 6 
#
# 1 64.1395 21.5496 4.7268 0.0000 2.5187 0.0000
# 2 21.5496 117.5428 27.6723 0.0000 -7.7360 0.0000
# 3 4.7268 27.6723 46.8397 0.0000 -7.4139 0.0000
# 4 0.0000 0.0000 0.0000 28.1333 0.0000 5.5969
# 5 2.5187 -7.7360 -7.4139 0.0000 27.9753 0.0000
# 6 0.0000 0.0000 0.0000 5.5969 0.0000 18.1689
#
#
#
# Elastic Compliance Matrix: (Units=1/GPa)
#
#
# Indices 1 2 3 4 5 6 
#
# 1 0.016773 -0.003190 -0.000195 0.000000 -0.002444 0.000000
# 2 -0.003190 0.010530 -0.005629 0.000000 0.001707 0.000000
# 3 -0.000195 -0.005629 0.025521 0.000000 0.005225 0.000000
# 4 0.000000 0.000000 0.000000 0.037866 0.000000 -0.011664
# 5 -0.002444 0.001707 0.005225 0.000000 0.037823 0.000000
# 6 0.000000 0.000000 0.000000 -0.011664 0.000000 0.058632
#
#
# Mechanical properties :
#
#
# Convention : Reuss Voigt Hill
#
# Bulk Modulus (GPa) = 28.73800 37.37995 33.05897
# Shear Modulus (GPa) = 23.06577 26.49371 24.77974
#
# Velocity S-wave (km/s) = 3.37438 3.61644 3.49750
# Velocity P-wave (km/s) = 5.41926 5.99089 5.71223
#
# Compressibility (1/GPa) = 0.03479714
#
# Stress axis : x y z
#
# Youngs Moduli (GPa) = 59.61913 94.96769 39.18276
#
# Poissons Ratio (x) = 0.30295 0.00763
# Poissons Ratio (y) = 0.19019 0.22055
# Poissons Ratio (z) = 0.01162 0.53455
#
# Static dielectric constant tensor:
#      x y z
#    x 1.768700 0.000000 0.002190 
#    y 0.000000 1.843880 0.000000 
#    z 0.002190 0.000000 1.803630 
# 
# From -- ./inp_files/225337.got.cif
#   From: 2010.05.17/outbox.cif.g08.bks.cpg/sg12_113_cif.got.tgz:225337.got - 2010.06.03 13:09:07.
