data_PCOD9200056
_publ_section_title
;
Structure prediction by ZEFSAII (Michael W. Deem and Ramdas Pophale) SiO2 
 PCOD9200056
Probable space group: C 2/M
;
_chemical_formula_sum "Si O2"
_cell_formula_units_Z 40
_cell_length_a 25.618192
_cell_length_b 11.597968
_cell_length_c 7.062565
_cell_angle_alpha 90.000000
_cell_angle_beta 46.424316
_cell_angle_gamma 90.000000
_cell_volume 1520.232208
_symmetry_space_group_name_H-M "C 2/M"
_symmetry_group_IT_number 12
_symmetry_cell_setting 'monoclinic'
loop_
_space_group_symop_operation_xyz
x,y,z
-x,y,-z
-x,-y,-z
x,-y,z
1/2+x,1/2+y,z
1/2-x,1/2+y,-z
1/2-x,1/2-y,-z
1/2+x,1/2-y,z
loop_
_atom_site_type_symbol
_atom_site_label
_atom_site_fract_x
_atom_site_fract_y
_atom_site_fract_z
Si Si1 0.500000 0.811212 0.000000
Si Si2 0.889661 0.129268 0.919253
Si Si3 0.314340 0.000000 0.631833
Si Si4 0.944255 0.126091 0.362998
Si Si5 0.584042 0.000000 0.937479
Si Si6 0.229404 0.500000 0.813085
Si Si7 0.750871 0.752274 0.226688
O O1 0.436727 0.731268 0.241935
O O2 0.465614 0.888302 0.921260
O O3 0.900396 0.135567 0.664729
O O4 0.970695 0.133255 0.794851
O O5 0.861393 0.000000 0.031048
O O6 0.831474 0.226411 0.106987
O O7 0.285913 0.125452 0.632779
O O8 0.393413 0.000000 0.342281
O O9 0.296162 0.000000 0.901581
O O10 0.931374 0.000000 0.311198
O O11 0.655330 0.000000 0.880985
O O12 0.270528 0.620663 0.669062
O O13 0.750000 0.750000 0.000000
#
# Coordination Sequence:
#
# PCOD9200056 Si02
#       7
#     4   8   4   8   4   4   8
#     4  11  23  40  56  86 123 161 206 252 310 365
#     4   9  17  34  59  89 120 157 208 252 304 367
#     4  10  23  43  69  89 122 170 207 250 313 366
#     4   9  19  34  60  88 119 159 201 258 308 359
#     4  11  26  44  60  88 127 163 207 257 301 377
#     4  10  23  41  63  92 129 156 209 255 302 370
#     4  10  20  36  63  92 122 162 206 254 306 370
#
# _framework density 26.311769000000002
#
# number of rings (size 3 to 8) (size 9 to 14) (size 15 to 20)
#    0.000    2.200    1.000    2.700    5.600    0.800 
#    0.000    1.000    2.200    0.000    0.000    0.000 
#    0.000    0.000    0.000    0.000    0.000    0.000 
#
# Total GULP energy -111774.851700 kJ/mol
# GULP energy per Si atom -5588.742585 kJ/mol
# Density = 2.625188 g / cm^3
# Si number density = 26.311769 Si / 1000 Ang^3
#
#
#
# Elastic Constant Matrix: (Units=GPa)
#
#
# Indices 1 2 3 4 5 6 
#
# 1 92.6470 40.9021 8.7948 0.0000 -9.4937 0.0000
# 2 40.9021 249.7813 35.0087 0.0000 -16.6007 0.0000
# 3 8.7948 35.0087 46.4551 0.0000 7.6550 0.0000
# 4 0.0000 0.0000 0.0000 27.3686 0.0000 -6.7305
# 5 -9.4937 -16.6007 7.6550 0.0000 41.6883 0.0000
# 6 0.0000 0.0000 0.0000 -6.7305 0.0000 33.6559
#
#
#
# Elastic Compliance Matrix: (Units=1/GPa)
#
#
# Indices 1 2 3 4 5 6 
#
# 1 0.011870 -0.001587 -0.001436 0.000000 0.002335 0.000000
# 2 -0.001587 0.004951 -0.003811 0.000000 0.002310 0.000000
# 3 -0.001436 -0.003811 0.025753 0.000000 -0.006574 0.000000
# 4 0.000000 0.000000 0.000000 0.038428 0.000000 0.007685
# 5 0.002335 0.002310 -0.006574 0.000000 0.026646 0.000000
# 6 0.000000 0.000000 0.000000 0.007685 0.000000 0.031249
#
#
# Mechanical properties :
#
#
# Convention : Reuss Voigt Hill
#
# Bulk Modulus (GPa) = 34.59512 62.03274 48.31393
# Shear Modulus (GPa) = 30.82572 40.82105 35.82338
#
# Velocity S-wave (km/s) = 3.42651 3.94310 3.69385
# Velocity P-wave (km/s) = 5.36948 6.66018 6.04935
#
# Compressibility (1/GPa) = 0.02890581
#
# Stress axis : x y z
#
# Youngs Moduli (GPa) = 84.24615 201.97361 38.82977
#
# Poissons Ratio (x) = 0.32060 0.05575
# Poissons Ratio (y) = 0.13373 0.14799
# Poissons Ratio (z) = 0.12095 0.76979
#
# Static dielectric constant tensor:
#      x y z
#    x 2.086870 0.000000 0.021520 
#    y 0.000000 2.109780 0.000000 
#    z 0.021520 0.000000 2.026950 
# 
# From -- ./inp_files/109310.got.cif
#   From: 2010.05.17/outbox.cif.g08.bks.cpg/sg12_55_cif.got.tgz:109310.got - 2010.06.03 13:09:07.
