data_PCOD9200375
_publ_section_title
;
Structure prediction by ZEFSAII (Michael W. Deem and Ramdas Pophale) SiO2 
 PCOD9200375
Probable space group: C 2/M
;
_chemical_formula_sum "Si O2"
_cell_formula_units_Z 64
_cell_length_a 14.361593
_cell_length_b 15.185214
_cell_length_c 17.959209
_cell_angle_alpha 90.000000
_cell_angle_beta 124.807344
_cell_angle_gamma 90.000000
_cell_volume 3215.837687
_symmetry_space_group_name_H-M "C 2/M"
_symmetry_group_IT_number 12
_symmetry_cell_setting 'monoclinic'
loop_
_space_group_symop_operation_xyz
x,y,z
-x,y,-z
-x,-y,-z
x,-y,z
1/2+x,1/2+y,z
1/2-x,1/2+y,-z
1/2-x,1/2-y,-z
1/2+x,1/2-y,z
loop_
_atom_site_type_symbol
_atom_site_label
_atom_site_fract_x
_atom_site_fract_y
_atom_site_fract_z
Si Si1 0.595569 0.852691 0.741369
Si Si2 0.728095 0.901428 0.656802
Si Si3 0.495268 0.400802 0.776383
Si Si4 0.679252 0.710771 0.577137
Si Si5 0.802369 0.777786 0.101847
Si Si6 0.115194 0.605222 0.096070
Si Si7 0.000498 0.820567 0.377924
Si Si8 0.620789 0.901463 0.273068
O O1 0.662010 0.898825 0.705057
O O2 0.679953 0.807179 0.838267
O O3 0.527617 0.772457 0.672346
O O4 0.501657 0.904060 0.744633
O O5 0.862198 0.887580 0.731763
O O6 0.684946 0.816711 0.590505
O O7 0.713393 0.000000 0.616780
O O8 0.527432 0.500000 0.813007
O O9 0.577082 0.328138 0.849736
O O10 0.506784 0.389581 0.692096
O O11 0.595654 0.671567 0.602825
O O12 0.621702 0.684334 0.473372
O O13 0.799462 0.667140 0.648042
O O14 0.719251 0.843998 0.106986
O O15 0.750000 0.750000 0.000000
O O16 0.130402 0.500000 0.095408
O O17 0.108573 0.624954 0.181004
O O18 0.000000 0.629208 0.000000
O O19 0.671165 0.000000 0.298796
#
# Coordination Sequence:
#
# PCOD9200375 Si02
#       8
#     8   8   8   8   8   8   8   8
#     4  10  21  38  56  80 114 149 190 236 282 341
#     4  10  21  38  59  81 113 157 196 234 282 338
#     4  10  21  38  59  83 113 151 193 235 286 348
#     4  10  20  37  57  85 118 147 191 242 289 345
#     4  11  22  36  60  87 111 147 188 234 291 346
#     4  10  21  37  57  83 115 148 186 236 291 349
#     4   9  20  36  58  83 114 152 185 235 291 339
#     4  11  22  36  58  85 114 149 188 238 296 345
#
# _framework density 19.901503000000002
#
# number of rings (size 3 to 8) (size 9 to 14) (size 15 to 20)
#    0.000    1.875    0.000    5.250    0.000    5.000 
#    0.000   10.000    0.000    1.500    0.000    0.000 
#    0.000    0.000    0.000    0.000    0.000    0.000 
#
# Total GULP energy -178721.070000 kJ/mol
# GULP energy per Si atom -5585.033438 kJ/mol
# Density = 1.985621 g / cm^3
# Si number density = 19.901503 Si / 1000 Ang^3
#
#
#
# Elastic Constant Matrix: (Units=GPa)
#
#
# Indices 1 2 3 4 5 6 
#
# 1 81.5715 3.4863 6.5248 0.0000 4.8925 0.0000
# 2 3.4863 50.3746 13.4541 0.0000 5.7139 0.0000
# 3 6.5248 13.4541 99.7792 0.0000 -0.9372 0.0000
# 4 0.0000 0.0000 0.0000 201.1428 0.0000 108.8668
# 5 4.8925 5.7139 -0.9372 0.0000 24.2310 0.0000
# 6 0.0000 0.0000 0.0000 108.8668 0.0000 77.6331
#
#
#
# Elastic Compliance Matrix: (Units=1/GPa)
#
#
# Indices 1 2 3 4 5 6 
#
# 1 0.012486 -0.000374 -0.000789 0.000000 -0.002463 0.000000
# 2 -0.000374 0.021219 -0.002884 0.000000 -0.005040 0.000000
# 3 -0.000789 -0.002884 0.010474 0.000000 0.001245 0.000000
# 4 0.000000 0.000000 0.000000 0.020629 0.000000 -0.028928
# 5 -0.002463 -0.005040 0.001245 0.000000 0.043003 0.000000
# 6 0.000000 0.000000 0.000000 -0.028928 0.000000 0.053448
#
#
# Mechanical properties :
#
#
# Convention : Reuss Voigt Hill
#
# Bulk Modulus (GPa) = 27.71226 30.96173 29.33700
# Shear Modulus (GPa) = 27.56614 74.48540 51.02577
#
# Velocity S-wave (km/s) = 3.72577 6.12440 5.06901
# Velocity P-wave (km/s) = 5.69767 8.09952 7.00235
#
# Compressibility (1/GPa) = 0.03608511
#
# Stress axis : x y z
#
# Youngs Moduli (GPa) = 80.08945 47.12736 95.47167
#
# Poissons Ratio (x) = 0.01762 0.07535
# Poissons Ratio (y) = 0.02995 0.27534
# Poissons Ratio (z) = 0.06321 0.13592
#
# Static dielectric constant tensor:
#      x y z
#    x 1.721830 0.000000 0.004240 
#    y 0.000000 1.706010 0.000000 
#    z 0.004240 0.000000 1.676310 
# 
# From -- ./inp_files/270711.got.cif
#   From: 2010.05.17/outbox.cif.g08.bks.cpg/sg12_136_cif.got.tgz:270711.got - 2010.06.03 13:09:07.
