data_PCOD9200822
_publ_section_title
;
Structure prediction by ZEFSAII (Michael W. Deem and Ramdas Pophale) SiO2 
 PCOD9200822
Probable space group: C 2/M
;
_chemical_formula_sum "Si O2"
_cell_formula_units_Z 48
_cell_length_a 19.316219
_cell_length_b 8.566776
_cell_length_c 30.679464
_cell_angle_alpha 90.000000
_cell_angle_beta 150.461542
_cell_angle_gamma 90.000000
_cell_volume 2502.885351
_symmetry_space_group_name_H-M "C 2/M"
_symmetry_group_IT_number 12
_symmetry_cell_setting 'monoclinic'
loop_
_space_group_symop_operation_xyz
x,y,z
-x,y,-z
-x,-y,-z
x,-y,z
1/2+x,1/2+y,z
1/2-x,1/2+y,-z
1/2-x,1/2-y,-z
1/2+x,1/2-y,z
loop_
_atom_site_type_symbol
_atom_site_label
_atom_site_fract_x
_atom_site_fract_y
_atom_site_fract_z
Si Si1 0.304184 0.689107 0.753307
Si Si2 0.614298 0.682756 0.948924
Si Si3 0.162629 0.690429 0.585101
Si Si4 0.359119 0.311295 0.252602
Si Si5 0.681900 0.688684 0.418357
Si Si6 0.346876 0.177718 0.937068
O O1 0.304753 0.500000 0.754245
O O2 0.462552 0.746558 0.850229
O O3 0.247708 0.738852 0.674965
O O4 0.201705 0.744875 0.735732
O O5 0.609799 0.500000 0.937978
O O6 0.750000 0.750000 0.000000
O O7 0.637650 0.717549 0.012320
O O8 0.162972 0.500000 0.584749
O O9 0.236267 0.741836 0.580419
O O10 0.000000 0.739946 0.500000
O O11 0.352645 0.500000 0.251713
O O12 0.518534 0.264617 0.329920
O O13 0.260231 0.263821 0.158177
O O14 0.687183 0.500000 0.421435
O O15 0.750000 0.750000 0.500000
O O16 0.304649 0.000000 0.926747
O O17 0.500000 0.169066 0.000000
#
# Coordination Sequence:
#
# PCOD9200822 Si02
#       6
#     8   8   8   8   8   8
#     4  10  21  37  59  84 111 147 190 236 280 335
#     4  11  24  38  57  84 117 154 195 239 285 340
#     4   9  18  34  57  82 108 143 183 225 276 333
#     4  10  21  36  58  85 114 150 187 233 289 341
#     4  10  21  37  59  84 112 145 186 232 283 340
#     4  10  20  37  60  83 113 153 193 233 286 344
#
# _framework density 19.177866000000002
#
# number of rings (size 3 to 8) (size 9 to 14) (size 15 to 20)
#    0.000    2.000    1.667    1.500    2.333    3.667 
#    0.000    0.833    0.000    3.000    0.000    0.000 
#    0.000    0.000    0.000    0.000    0.000    0.000 
#
# Total GULP energy -133971.760608 kJ/mol
# GULP energy per Si atom -5582.156692 kJ/mol
# Density = 1.913422 g / cm^3
# Si number density = 19.177866 Si / 1000 Ang^3
#
#
#
# Elastic Constant Matrix: (Units=GPa)
#
#
# Indices 1 2 3 4 5 6 
#
# 1 181.5930 20.6358 120.1404 0.0000 7.0329 0.0000
# 2 20.6358 6.4933 18.3016 0.0000 4.5092 -0.0002
# 3 120.1404 18.3016 195.0870 0.0000 -5.5855 0.0000
# 4 0.0000 0.0000 0.0000 20.8608 0.0000 -4.7390
# 5 7.0329 4.5092 -5.5855 0.0000 34.8671 0.0000
# 6 0.0000 -0.0002 0.0000 -4.7390 0.0000 30.9312
#
#
#
# Elastic Compliance Matrix: (Units=1/GPa)
#
#
# Indices 1 2 3 4 5 6 
#
# 1 0.011207 -0.021731 -0.004869 0.000000 -0.000230 0.000000
# 2 -0.021731 0.289268 -0.014768 0.000001 -0.035392 0.000002
# 3 -0.004869 -0.014768 0.009637 0.000000 0.004436 0.000000
# 4 0.000000 0.000001 0.000000 0.049666 0.000000 0.007609
# 5 -0.000230 -0.035392 0.004436 0.000000 0.034014 0.000000
# 6 0.000000 0.000002 0.000000 0.007609 0.000000 0.033496
#
#
# Mechanical properties :
#
#
# Convention : Reuss Voigt Hill
#
# Bulk Modulus (GPa) = 4.39800 77.92541 41.16171
# Shear Modulus (GPa) = 8.53511 32.27151 20.40331
#
# Velocity S-wave (km/s) = 2.11191 4.10658 3.26528
# Velocity P-wave (km/s) = 2.87143 7.95025 5.97711
#
# Compressibility (1/GPa) = 0.22737606
#
# Stress axis : x y z
#
# Youngs Moduli (GPa) = 89.23211 3.45700 103.76616
#
# Poissons Ratio (x) = 0.07512 0.50528
# Poissons Ratio (y) = 1.93908 1.53239
# Poissons Ratio (z) = 0.43451 0.05105
#
# Static dielectric constant tensor:
#      x y z
#    x 1.631560 0.000000 0.012140 
#    y 0.000000 1.682700 0.000000 
#    z 0.012140 0.000000 1.667820 
# 
# From -- ./inp_files/244693.got.cif
#   From: 2010.05.17/outbox.cif.g08.bks.cpg/sg12_123_cif.got.tgz:244693.got - 2010.06.03 13:09:07.
