data_PCOD9200869
_publ_section_title
;
Structure prediction by ZEFSAII (Michael W. Deem and Ramdas Pophale) SiO2 
 PCOD9200869
Probable space group: C 2/M
;
_chemical_formula_sum "Si O2"
_cell_formula_units_Z 52
_cell_length_a 9.732699
_cell_length_b 26.856046
_cell_length_c 10.067606
_cell_angle_alpha 90.000000
_cell_angle_beta 69.016680
_cell_angle_gamma 90.000000
_cell_volume 2456.981151
_symmetry_space_group_name_H-M "C 2/M"
_symmetry_group_IT_number 12
_symmetry_cell_setting 'monoclinic'
loop_
_space_group_symop_operation_xyz
x,y,z
-x,y,-z
-x,-y,-z
x,-y,z
1/2+x,1/2+y,z
1/2-x,1/2+y,-z
1/2-x,1/2-y,-z
1/2+x,1/2-y,z
loop_
_atom_site_type_symbol
_atom_site_label
_atom_site_fract_x
_atom_site_fract_y
_atom_site_fract_z
Si Si1 0.705429 0.307089 0.793040
Si Si2 0.926571 0.055067 0.196847
Si Si3 0.194893 0.107125 0.006518
Si Si4 0.828829 0.055754 0.522330
Si Si5 0.525504 0.216767 0.757687
Si Si6 0.157288 0.354561 0.508160
Si Si7 0.000000 0.636786 0.000000
O O1 0.678409 0.340894 0.932114
O O2 0.582944 0.267279 0.800740
O O3 0.737758 0.341018 0.652234
O O4 0.858609 0.278435 0.765996
O O5 0.828007 0.067379 0.103616
O O6 0.831668 0.054256 0.361536
O O7 0.993583 0.000000 0.163082
O O8 0.059425 0.094941 0.150646
O O9 0.352735 0.106263 0.019561
O O10 0.724435 0.102996 0.581211
O O11 0.000000 0.064188 0.500000
O O12 0.788148 0.000000 0.586511
O O13 0.623515 0.195494 0.603073
O O14 0.527105 0.173108 0.866228
O O15 0.000000 0.370781 0.500000
#
# Coordination Sequence:
#
# PCOD9200869 Si02
#       7
#     8   8   8   8   8   8   4
#     4  10  21  38  58  87 114 154 197 241 289 353
#     4  10  21  39  62  88 119 156 196 241 291 351
#     4  10  20  37  60  84 118 154 196 235 294 345
#     4  10  22  39  61  93 120 148 198 245 290 351
#     4  10  23  38  58  83 121 150 198 244 291 345
#     4  10  21  40  62  84 117 156 192 242 300 351
#     4  10  24  38  55  88 116 154 193 248 288 346
#
# _framework density 21.164185
#
# number of rings (size 3 to 8) (size 9 to 14) (size 15 to 20)
#    0.000    2.000    1.538    1.385    2.154    7.692 
#    0.000    1.538    0.000    0.000    0.000    0.000 
#    0.000    0.000    0.000    0.000    0.000    0.000 
#
# Total GULP energy -145121.755360 kJ/mol
# GULP energy per Si atom -5581.605975 kJ/mol
# Density = 2.111601 g / cm^3
# Si number density = 21.164185 Si / 1000 Ang^3
#
#
#
# Elastic Constant Matrix: (Units=GPa)
#
#
# Indices 1 2 3 4 5 6 
#
# 1 92.0355 50.3309 -9.2944 0.0000 12.1122 0.0000
# 2 50.3309 95.9260 -7.7653 0.0000 -6.6548 0.0000
# 3 -9.2944 -7.7653 30.1462 0.0000 -2.5365 0.0000
# 4 0.0000 0.0000 0.0000 8.1396 0.0000 -19.0715
# 5 12.1122 -6.6548 -2.5365 0.0000 20.9673 0.0000
# 6 0.0000 0.0000 0.0000 -19.0715 0.0000 -9.2873
#
#
#
# Elastic Compliance Matrix: (Units=1/GPa)
#
#
# Indices 1 2 3 4 5 6 
#
# 1 0.018703 -0.010631 0.001854 0.000000 -0.013954 0.000000
# 2 -0.010631 0.016990 0.002090 0.000000 0.011786 0.000000
# 3 0.001854 0.002090 0.034600 0.000000 0.003778 0.000000
# 4 0.000000 0.000000 0.000000 0.021140 0.000000 -0.043412
# 5 -0.013954 0.011786 0.003778 0.000000 0.059952 0.000000
# 6 0.000000 0.000000 0.000000 -0.043412 0.000000 -0.018528
#
#
# Mechanical properties :
#
#
# Convention : Reuss Voigt Hill
#
# Bulk Modulus (GPa) = 17.56917 31.62780 24.59849
# Shear Modulus (GPa) = 30.26588 16.28636 23.27612
#
# Velocity S-wave (km/s) = 3.78570 2.77704 3.31990
# Velocity P-wave (km/s) = 5.23719 5.02584 5.13260
#
# Compressibility (1/GPa) = 0.05691789
#
# Stress axis : x y z
#
# Youngs Moduli (GPa) = 53.46833 58.85980 28.90212
#
# Poissons Ratio (x) = 0.62574 -0.05358
# Poissons Ratio (y) = 0.56842 -0.06042
# Poissons Ratio (z) = -0.09912 -0.12304
#
# Static dielectric constant tensor:
#      x y z
#    x 1.755090 0.000000 -0.008520 
#    y 0.000000 1.794230 0.000000 
#    z -0.008520 0.000000 1.810780 
# 
# From -- ./inp_files/123651.got.cif
#   From: 2010.05.17/outbox.cif.g08.bks.cpg/sg12_62_cif.got.tgz:123651.got - 2010.06.03 13:09:07.
