data_PCOD9200598
_publ_section_title
;
Structure prediction by ZEFSAII (Michael W. Deem and Ramdas Pophale) SiO2 
 PCOD9200598
Probable space group: C 2/M
;
_chemical_formula_sum "Si O2"
_cell_formula_units_Z 56
_cell_length_a 14.837266
_cell_length_b 8.844634
_cell_length_c 22.180957
_cell_angle_alpha 90.000000
_cell_angle_beta 91.339067
_cell_angle_gamma 90.000000
_cell_volume 2910.016222
_symmetry_space_group_name_H-M "C 2/M"
_symmetry_group_IT_number 12
_symmetry_cell_setting 'monoclinic'
loop_
_space_group_symop_operation_xyz
x,y,z
-x,y,-z
-x,-y,-z
x,-y,z
1/2+x,1/2+y,z
1/2-x,1/2+y,-z
1/2-x,1/2-y,-z
1/2+x,1/2-y,z
loop_
_atom_site_type_symbol
_atom_site_label
_atom_site_fract_x
_atom_site_fract_y
_atom_site_fract_z
Si Si1 0.891351 0.827716 0.987458
Si Si2 0.630792 0.181259 0.888091
Si Si3 0.921236 0.320556 0.863689
Si Si4 0.234132 0.318723 0.344217
Si Si5 0.118867 0.183104 0.556655
Si Si6 0.729693 0.319324 0.214268
Si Si7 0.587974 0.682566 0.422171
O O1 0.850135 0.758735 0.047458
O O2 0.861487 0.000000 0.977063
O O3 0.879267 0.731452 0.926947
O O4 0.000000 0.828712 0.000000
O O5 0.527538 0.217593 0.867913
O O6 0.698641 0.226027 0.836241
O O7 0.635675 0.000000 0.896343
O O8 0.912488 0.500000 0.856617
O O9 0.867220 0.236730 0.810592
O O10 0.235722 0.500000 0.342005
O O11 0.307916 0.264072 0.394324
O O12 0.251848 0.253053 0.278691
O O13 0.139352 0.260415 0.368572
O O14 0.129827 0.232546 0.487424
O O15 0.017633 0.221385 0.575749
O O16 0.122902 0.000000 0.555110
O O17 0.730842 0.500000 0.219116
O O18 0.595526 0.500000 0.417651
#
# Coordination Sequence:
#
# PCOD9200598 Si02
#       7
#     8   8   8   8   8   8   8
#     4   9  17  31  55  85 111 138 176 220 269 325
#     4   9  20  38  58  79 107 141 179 225 274 320
#     4  10  20  37  59  82 109 140 176 225 277 321
#     4  11  22  36  53  79 112 144 179 222 268 315
#     4   8  17  34  58  84 111 142 178 218 265 319
#     4  11  24  40  55  76 106 145 188 223 264 323
#     4   9  17  35  60  84 109 142 180 218 263 317
#
# _framework density 19.243877999999999
#
# number of rings (size 3 to 8) (size 9 to 14) (size 15 to 20)
#    0.000    2.429    0.000    3.000    0.000    5.143 
#    0.000    6.429    0.000    0.000    0.000    0.000 
#    0.000    0.000    0.000    0.000    0.000    0.000 
#
# Total GULP energy -156356.621380 kJ/mol
# GULP energy per Si atom -5584.165049 kJ/mol
# Density = 1.920008 g / cm^3
# Si number density = 19.243878 Si / 1000 Ang^3
#
#
#
# Elastic Constant Matrix: (Units=GPa)
#
#
# Indices 1 2 3 4 5 6 
#
# 1 49.2691 15.2821 24.5334 0.0000 -5.8965 0.0000
# 2 15.2821 37.4301 21.5722 0.0000 -4.4270 0.0000
# 3 24.5334 21.5722 80.4779 0.0000 -11.5149 0.0000
# 4 0.0000 0.0000 0.0000 23.5143 0.0000 1.3300
# 5 -5.8965 -4.4270 -11.5149 0.0000 22.6857 0.0000
# 6 0.0000 0.0000 0.0000 1.3300 0.0000 19.4247
#
#
#
# Elastic Compliance Matrix: (Units=1/GPa)
#
#
# Indices 1 2 3 4 5 6 
#
# 1 0.025509 -0.006913 -0.005572 0.000000 0.002453 0.000000
# 2 -0.006913 0.033557 -0.006694 0.000000 0.001354 0.000000
# 3 -0.005572 -0.006694 0.016740 0.000000 0.005743 0.000000
# 4 0.000000 0.000000 0.000000 0.042693 0.000000 -0.002923
# 5 0.002453 0.001354 0.005743 0.000000 0.047897 0.000000
# 6 0.000000 0.000000 0.000000 -0.002923 0.000000 0.051681
#
#
# Mechanical properties :
#
#
# Convention : Reuss Voigt Hill
#
# Bulk Modulus (GPa) = 26.70381 32.21694 29.46038
# Shear Modulus (GPa) = 18.59295 20.17757 19.38526
#
# Velocity S-wave (km/s) = 3.11171 3.24160 3.17732
# Velocity P-wave (km/s) = 5.17851 5.54872 5.36681
#
# Compressibility (1/GPa) = 0.03744784
#
# Stress axis : x y z
#
# Youngs Moduli (GPa) = 39.20129 29.80001 59.73577
#
# Poissons Ratio (x) = 0.20602 0.33287
# Poissons Ratio (y) = 0.27101 0.39986
# Poissons Ratio (z) = 0.21844 0.19947
#
# Static dielectric constant tensor:
#      x y z
#    x 1.689370 0.000000 0.014140 
#    y 0.000000 1.640670 0.000000 
#    z 0.014140 0.000000 1.645800 
# 
# From -- ./inp_files/309061.got.cif
#   From: 2010.05.17/outbox.cif.g08.bks.cpg/sg12_155_cif.got.tgz:309061.got - 2010.06.03 13:09:07.
