data_PCOD9200383
_publ_section_title
;
Structure prediction by ZEFSAII (Michael W. Deem and Ramdas Pophale) SiO2 
 PCOD9200383
Probable space group: C 2/M
;
_chemical_formula_sum "Si O2"
_cell_formula_units_Z 42
_cell_length_a 30.042063
_cell_length_b 7.412860
_cell_length_c 9.763251
_cell_angle_alpha 90.000000
_cell_angle_beta 116.009011
_cell_angle_gamma 90.000000
_cell_volume 1954.055400
_symmetry_space_group_name_H-M "C 2/M"
_symmetry_group_IT_number 12
_symmetry_cell_setting 'monoclinic'
loop_
_space_group_symop_operation_xyz
x,y,z
-x,y,-z
-x,-y,-z
x,-y,z
1/2+x,1/2+y,z
1/2-x,1/2+y,-z
1/2-x,1/2-y,-z
1/2+x,1/2-y,z
loop_
_atom_site_type_symbol
_atom_site_label
_atom_site_fract_x
_atom_site_fract_y
_atom_site_fract_z
Si Si1 0.641011 0.796759 0.049988
Si Si2 0.194274 0.285047 0.379473
Si Si3 0.552290 0.719730 0.129565
Si Si4 0.105087 0.792932 0.459536
Si Si5 0.922779 0.293148 0.286374
Si Si6 0.500000 0.500000 0.500000
O O1 0.616787 0.720765 0.879196
O O2 0.657324 0.000000 0.036695
O O3 0.682149 0.715764 0.208826
O O4 0.594494 0.796495 0.090020
O O5 0.185943 0.500000 0.364882
O O6 0.250000 0.250000 0.500000
O O7 0.155472 0.210720 0.439414
O O8 0.556211 0.500000 0.132301
O O9 0.563935 0.778545 0.299172
O O10 0.500000 0.771880 0.000000
O O11 0.104956 0.700249 0.604490
O O12 0.090287 0.000000 0.471117
O O13 0.936794 0.500000 0.267091
O O14 0.968894 0.159806 0.371825
#
# Coordination Sequence:
#
# PCOD9200383 Si02
#       6
#     8   8   8   8   8   2
#     4   9  21  38  56  82 117 152 196 252 303 360
#     4  10  20  39  64  91 118 153 200 256 318 378
#     4   9  19  31  52  78 111 149 195 241 291 353
#     4  10  20  37  57  87 121 158 200 252 304 362
#     4  11  24  41  61  88 125 168 210 253 300 357
#     4  12  26  40  60  88 128 176 214 242 304 358
#
# _framework density 21.493762
#
# number of rings (size 3 to 8) (size 9 to 14) (size 15 to 20)
#    0.000    2.095    0.952    1.429    4.000    1.905 
#    0.000    0.952    0.000    0.000    0.000    0.000 
#    0.000    0.000    0.000    0.000    0.000    0.000 
#
# Total GULP energy -116906.406907 kJ/mol
# GULP energy per Si atom -5566.971757 kJ/mol
# Density = 2.144484 g / cm^3
# Si number density = 21.493762 Si / 1000 Ang^3
#
#
#
# Elastic Constant Matrix: (Units=GPa)
#
#
# Indices 1 2 3 4 5 6 
#
# 1 44.1454 -4.7180 55.7366 0.0000 22.5800 0.0000
# 2 -4.7180 102.7465 20.9334 0.0000 6.3076 0.0000
# 3 55.7366 20.9334 223.8572 0.0000 23.0477 0.0000
# 4 0.0000 0.0000 0.0000 14.4561 0.0000 2.2940
# 5 22.5800 6.3076 23.0477 0.0000 45.0911 0.0000
# 6 0.0000 0.0000 0.0000 2.2940 0.0000 24.7900
#
#
#
# Elastic Compliance Matrix: (Units=1/GPa)
#
#
# Indices 1 2 3 4 5 6 
#
# 1 0.044852 0.005168 -0.009778 0.000000 -0.018185 0.000000
# 2 0.005168 0.010557 -0.001959 0.000000 -0.003064 0.000000
# 3 -0.009778 -0.001959 0.006917 0.000000 0.001635 0.000000
# 4 0.000000 0.000000 0.000000 0.070206 0.000000 -0.006497
# 5 -0.018185 -0.003064 0.001635 0.000000 0.030877 0.000000
# 6 0.000000 0.000000 0.000000 -0.006497 0.000000 0.040940
#
#
# Mechanical properties :
#
#
# Convention : Reuss Voigt Hill
#
# Bulk Modulus (GPa) = 20.32999 57.18366 38.75682
# Shear Modulus (GPa) = 21.37828 36.78726 29.08277
#
# Velocity S-wave (km/s) = 3.15719 4.14155 3.68241
# Velocity P-wave (km/s) = 4.77175 7.03793 6.01257
#
# Compressibility (1/GPa) = 0.04918842
#
# Stress axis : x y z
#
# Youngs Moduli (GPa) = 22.29540 94.72262 144.58014
#
# Poissons Ratio (x) = -0.48955 1.41377
# Poissons Ratio (y) = -0.11523 0.28317
# Poissons Ratio (z) = 0.21801 0.18552
#
# Static dielectric constant tensor:
#      x y z
#    x 0.150180 0.000000 1.658300 
#    y 0.000000 1.908510 0.000000 
#    z 1.658300 0.000000 0.174350 
# 
# From -- ./inp_files/107878.got.cif
#   From: 2010.05.17/outbox.cif.g08.bks.cpg/sg12_54_cif.got.tgz:107878.got - 2010.06.03 13:09:07.
