data_PCOD9200017
_publ_section_title
;
Structure prediction by ZEFSAII (Michael W. Deem and Ramdas Pophale) SiO2 
 PCOD9200017
Probable space group: C 2/M
;
_chemical_formula_sum "Si O2"
_cell_formula_units_Z 48
_cell_length_a 17.183884
_cell_length_b 30.836453
_cell_length_c 9.539436
_cell_angle_alpha 90.000000
_cell_angle_beta 148.223929
_cell_angle_gamma 90.000000
_cell_volume 2661.889131
_symmetry_space_group_name_H-M "C 2/M"
_symmetry_group_IT_number 12
_symmetry_cell_setting 'monoclinic'
loop_
_space_group_symop_operation_xyz
x,y,z
-x,y,-z
-x,-y,-z
x,-y,z
1/2+x,1/2+y,z
1/2-x,1/2+y,-z
1/2-x,1/2-y,-z
1/2+x,1/2-y,z
loop_
_atom_site_type_symbol
_atom_site_label
_atom_site_fract_x
_atom_site_fract_y
_atom_site_fract_z
Si Si1 0.939987 0.948256 0.061996
Si Si2 0.591279 0.304443 0.282380
Si Si3 0.092765 0.882809 0.500830
Si Si4 0.434398 0.791323 0.743548
Si Si5 0.903667 0.550384 0.493324
Si Si6 0.441847 0.119409 0.071340
O O1 0.030606 0.923740 0.319761
O O2 0.955968 0.000000 0.102513
O O3 0.765877 0.937712 0.799274
O O4 0.000000 0.936095 0.000000
O O5 0.572773 0.342165 0.366084
O O6 0.552119 0.257645 0.291504
O O7 0.762051 0.302148 0.496242
O O8 0.500000 0.311685 0.000000
O O9 0.000000 0.877316 0.500000
O O10 0.266310 0.887129 0.800872
O O11 0.516731 0.832758 0.804949
O O12 0.500000 0.787310 0.000000
O O13 0.904462 0.500000 0.543028
O O14 0.000000 0.552903 0.500000
O O15 0.974195 0.582501 0.713975
O O16 0.500000 0.118700 0.000000
#
# Coordination Sequence:
#
# PCOD9200017 Si02
#       6
#     8   8   8   8   8   8
#     4  10  22  40  61  86 114 149 198 240 275 340
#     4  10  20  36  63  85 110 154 196 231 279 343
#     4  12  24  37  56  89 124 149 184 239 296 340
#     4   9  18  37  61  85 111 145 197 235 278 328
#     4  10  22  40  59  82 115 152 188 231 287 342
#     4  11  21  38  60  84 113 148 194 237 274 338
#
# _framework density 18.032305000000001
#
# number of rings (size 3 to 8) (size 9 to 14) (size 15 to 20)
#    0.000    1.667    3.333    2.500    2.333    1.333 
#    0.000    1.667    0.000    0.000    0.000    0.000 
#    0.000    0.000    0.000    0.000    0.000    0.000 
#
# Total GULP energy -133942.568101 kJ/mol
# GULP energy per Si atom -5580.940338 kJ/mol
# Density = 1.799126 g / cm^3
# Si number density = 18.032305 Si / 1000 Ang^3
#
#
#
# Elastic Constant Matrix: (Units=GPa)
#
#
# Indices 1 2 3 4 5 6 
#
# 1 64.3024 18.7947 29.7015 0.0000 18.7491 0.0000
# 2 18.7947 96.7768 53.6825 0.0000 0.5806 0.0000
# 3 29.7015 53.6825 124.5879 0.0000 25.7325 0.0000
# 4 0.0000 0.0000 0.0000 40.5585 0.0000 1.0803
# 5 18.7491 0.5806 25.7325 0.0000 31.8582 0.0000
# 6 0.0000 0.0000 0.0000 1.0803 0.0000 1.6751
#
#
#
# Elastic Compliance Matrix: (Units=1/GPa)
#
#
# Indices 1 2 3 4 5 6 
#
# 1 0.020207 -0.003196 -0.001195 0.000000 -0.010868 0.000000
# 2 -0.003196 0.014897 -0.007188 0.000000 0.007416 0.000000
# 3 -0.001195 -0.007188 0.013486 0.000000 -0.010059 0.000000
# 4 0.000000 0.000000 0.000000 0.025087 0.000000 -0.016179
# 5 -0.010868 0.007416 -0.010059 0.000000 0.045775 0.000000
# 6 0.000000 0.000000 0.000000 -0.016179 0.000000 0.607424
#
#
# Mechanical properties :
#
#
# Convention : Reuss Voigt Hill
#
# Bulk Modulus (GPa) = 39.32346 54.44717 46.88532
# Shear Modulus (GPa) = 6.59186 27.05090 16.82138
#
# Velocity S-wave (km/s) = 1.91403 3.87736 3.05757
# Velocity P-wave (km/s) = 5.17100 7.09260 6.20662
#
# Compressibility (1/GPa) = 0.02543011
#
# Stress axis : x y z
#
# Youngs Moduli (GPa) = 49.48842 67.12906 74.14919
#
# Poissons Ratio (x) = 0.21454 0.08864
# Poissons Ratio (y) = 0.15816 0.53301
# Poissons Ratio (z) = 0.05916 0.48255
#
# Static dielectric constant tensor:
#      x y z
#    x 1.584950 0.000000 0.011980 
#    y 0.000000 1.661950 0.000000 
#    z 0.011980 0.000000 1.585730 
# 
# From -- ./inp_files/80803.got.cif
#   From: 2010.05.17/outbox.cif.g08.bks.cpg/sg12_41_cif.got.tgz:80803.got - 2010.06.03 13:09:07.
