data_PCOD9200164
_publ_section_title
;
Structure prediction by ZEFSAII (Michael W. Deem and Ramdas Pophale) SiO2 
 PCOD9200164
Probable space group: C 2/M
;
_chemical_formula_sum "Si O2"
_cell_formula_units_Z 64
_cell_length_a 18.037169
_cell_length_b 21.183263
_cell_length_c 17.616619
_cell_angle_alpha 90.000000
_cell_angle_beta 150.627126
_cell_angle_gamma 90.000000
_cell_volume 3301.528447
_symmetry_space_group_name_H-M "C 2/M"
_symmetry_group_IT_number 12
_symmetry_cell_setting 'monoclinic'
loop_
_space_group_symop_operation_xyz
x,y,z
-x,y,-z
-x,-y,-z
x,-y,z
1/2+x,1/2+y,z
1/2-x,1/2+y,-z
1/2-x,1/2-y,-z
1/2+x,1/2-y,z
loop_
_atom_site_type_symbol
_atom_site_label
_atom_site_fract_x
_atom_site_fract_y
_atom_site_fract_z
Si Si1 0.830670 0.268603 0.362790
Si Si2 0.729057 0.780707 0.864625
Si Si3 0.810183 0.137087 0.436971
Si Si4 0.535362 0.815613 0.270289
Si Si5 0.940708 0.818158 0.781717
Si Si6 0.281318 0.142887 0.938317
Si Si7 0.679719 0.070402 0.174861
Si Si8 0.991388 0.926440 0.266466
O O1 0.771224 0.264371 0.224024
O O2 0.844515 0.202740 0.422892
O O3 0.704552 0.308984 0.294293
O O4 0.000000 0.294042 0.500000
O O5 0.583122 0.819028 0.765732
O O6 0.713009 0.712154 0.889970
O O7 0.893334 0.809486 0.031146
O O8 0.696133 0.151123 0.405397
O O9 0.733590 0.092320 0.305492
O O10 0.950821 0.103263 0.602311
O O11 0.567320 0.742135 0.281900
O O12 0.446425 0.846466 0.119446
O O13 0.938357 0.884540 0.737483
O O14 0.275209 0.122545 0.846141
O O15 0.186697 0.089660 0.896513
O O16 0.741308 0.000000 0.213630
O O17 0.500000 0.066779 0.000000
O O18 0.023307 0.000000 0.291180
#
# Coordination Sequence:
#
# PCOD9200164 Si02
#       8
#     8   8   8   8   8   8   8   8
#     4  11  24  36  61  93 125 153 190 254 313 369
#     4  11  19  38  66  93 119 150 196 260 313 360
#     4  11  24  38  58  88 125 163 201 242 301 358
#     4  10  20  36  65  88 118 150 201 264 303 354
#     4  10  22  39  62  92 119 158 203 252 311 356
#     4  11  19  38  58  89 117 158 205 249 299 356
#     4  11  22  36  55  81 120 166 208 239 281 358
#     4  12  25  41  59  85 127 168 205 247 294 359
#
# _framework density 19.38496
#
# number of rings (size 3 to 8) (size 9 to 14) (size 15 to 20)
#    0.000    1.125    5.000    2.625    1.750    1.000 
#    0.000    1.250    0.000    1.875    0.000    0.000 
#    0.000    0.000    0.000    0.000    0.000    0.000 
#
# Total GULP energy -178397.782222 kJ/mol
# GULP energy per Si atom -5574.930694 kJ/mol
# Density = 1.934084 g / cm^3
# Si number density = 19.384960 Si / 1000 Ang^3
#
#
#
# Elastic Constant Matrix: (Units=GPa)
#
#
# Indices 1 2 3 4 5 6 
#
# 1 88.2907 43.9026 32.0248 0.0001 6.8811 0.0000
# 2 43.9026 91.9126 40.3782 0.0000 -9.1035 0.0000
# 3 32.0248 40.3782 70.0443 0.0001 6.2884 0.0001
# 4 0.0001 0.0000 0.0001 15.1969 0.0001 -2.5222
# 5 6.8811 -9.1035 6.2884 0.0001 26.7991 0.0001
# 6 0.0000 0.0000 0.0001 -2.5222 0.0001 19.0316
#
#
#
# Elastic Compliance Matrix: (Units=1/GPa)
#
#
# Indices 1 2 3 4 5 6 
#
# 1 0.016385 -0.007184 -0.002813 0.000000 -0.005988 0.000000
# 2 -0.007184 0.019160 -0.008694 0.000000 0.010393 0.000000
# 3 -0.002813 -0.008694 0.021222 0.000000 -0.007211 0.000000
# 4 0.000000 0.000000 0.000000 0.067283 0.000000 0.008917
# 5 -0.005988 0.010393 -0.007211 0.000000 0.044075 0.000000
# 6 0.000000 0.000000 0.000000 0.008917 0.000000 0.053726
#
#
# Mechanical properties :
#
#
# Convention : Reuss Voigt Hill
#
# Bulk Modulus (GPa) = 51.58236 53.65098 52.61667
# Shear Modulus (GPa) = 18.81875 21.13498 19.97687
#
# Velocity S-wave (km/s) = 3.11913 3.30552 3.21368
# Velocity P-wave (km/s) = 6.29597 6.50425 6.40096
#
# Compressibility (1/GPa) = 0.01938647
#
# Stress axis : x y z
#
# Youngs Moduli (GPa) = 61.03029 52.19227 47.12199
#
# Poissons Ratio (x) = 0.37495 0.13254
# Poissons Ratio (y) = 0.43844 0.40966
# Poissons Ratio (z) = 0.17165 0.45374
#
# Static dielectric constant tensor:
#      x y z
#    x 1.730060 0.000000 0.016960 
#    y 0.000000 1.648700 0.000000 
#    z 0.016960 0.000000 1.741820 
# 
# From -- ./inp_files/279127.got.cif
#   From: 2010.05.17/outbox.cif.g08.bks.cpg/sg12_140_cif.got.tgz:279127.got - 2010.06.03 13:09:07.
