data_PCOD9200957
_publ_section_title
;
Structure prediction by ZEFSAII (Michael W. Deem and Ramdas Pophale) SiO2 
 PCOD9200957
Probable space group: C 2/M
;
_chemical_formula_sum "Si O2"
_cell_formula_units_Z 48
_cell_length_a 19.863555
_cell_length_b 8.472960
_cell_length_c 20.410484
_cell_angle_alpha 90.000000
_cell_angle_beta 43.656064
_cell_angle_gamma 90.000000
_cell_volume 2371.378130
_symmetry_space_group_name_H-M "C 2/M"
_symmetry_group_IT_number 12
_symmetry_cell_setting 'monoclinic'
loop_
_space_group_symop_operation_xyz
x,y,z
-x,y,-z
-x,-y,-z
x,-y,z
1/2+x,1/2+y,z
1/2-x,1/2+y,-z
1/2-x,1/2-y,-z
1/2+x,1/2-y,z
loop_
_atom_site_type_symbol
_atom_site_label
_atom_site_fract_x
_atom_site_fract_y
_atom_site_fract_z
Si Si1 0.860062 0.189483 0.413238
Si Si2 0.851857 0.811125 0.902711
Si Si3 0.989746 0.311972 0.581929
Si Si4 0.186539 0.809690 0.216279
Si Si5 0.561614 0.308816 0.785474
Si Si6 0.101175 0.310137 0.896983
O O1 0.750000 0.250000 0.500000
O O2 0.932121 0.244631 0.420773
O O3 0.897450 0.239761 0.314391
O O4 0.860547 0.000000 0.413364
O O5 0.859717 0.769059 0.820993
O O6 0.948942 0.754085 0.869881
O O7 0.850534 0.000000 0.907938
O O8 0.750000 0.750000 0.000000
O O9 0.002324 0.500000 0.573042
O O10 0.000000 0.253553 0.500000
O O11 0.881449 0.267840 0.681904
O O12 0.299417 0.759229 0.137306
O O13 0.183389 0.000000 0.226049
O O14 0.564885 0.500000 0.785476
O O15 0.612543 0.241391 0.813673
O O16 0.097376 0.500000 0.902662
O O17 0.000000 0.249067 0.000000
#
# Coordination Sequence:
#
# PCOD9200957 Si02
#       6
#     8   8   8   8   8   8
#     4  11  24  44  67  93 126 162 204 254 309 371
#     4  10  20  37  60  87 117 155 199 247 301 359
#     4  11  25  43  64  93 125 160 206 257 309 368
#     4  10  21  40  62  87 122 162 204 251 304 362
#     4  10  22  40  61  86 123 160 197 249 305 360
#     4  10  22  39  61  90 124 163 207 251 298 361
#
# _framework density 20.241395000000001
#
# number of rings (size 3 to 8) (size 9 to 14) (size 15 to 20)
#    0.000    1.667    1.667    2.000    2.333    6.333 
#    0.000    0.000    0.000    0.000    0.000    0.000 
#    0.000    0.000    0.000    0.000    0.000    0.000 
#
# Total GULP energy -134036.480694 kJ/mol
# GULP energy per Si atom -5584.853362 kJ/mol
# Density = 2.019532 g / cm^3
# Si number density = 20.241395 Si / 1000 Ang^3
#
#
#
# Elastic Constant Matrix: (Units=GPa)
#
#
# Indices 1 2 3 4 5 6 
#
# 1 73.1263 7.9081 -1.0908 0.0000 -7.3490 0.0000
# 2 7.9081 7.3741 7.2148 0.0000 -0.7997 0.0000
# 3 -1.0908 7.2148 87.2923 0.0000 -4.9501 0.0000
# 4 0.0000 0.0000 0.0000 32.9355 0.0000 -0.7634
# 5 -7.3490 -0.7997 -4.9501 0.0000 37.1705 0.0000
# 6 0.0000 0.0000 0.0000 -0.7634 0.0000 26.5131
#
#
#
# Elastic Compliance Matrix: (Units=1/GPa)
#
#
# Indices 1 2 3 4 5 6 
#
# 1 0.016035 -0.018748 0.001921 0.000000 0.003023 0.000000
# 2 -0.018748 0.169551 -0.014360 0.000000 -0.001971 0.000000
# 3 0.001921 -0.014360 0.012767 0.000000 0.001771 0.000000
# 4 0.000000 0.000000 0.000000 0.030383 0.000000 0.000875
# 5 0.003023 -0.001971 0.001771 0.000000 0.027694 0.000000
# 6 0.000000 0.000000 0.000000 0.000875 0.000000 0.037742
#
#
# Mechanical properties :
#
#
# Convention : Reuss Voigt Hill
#
# Bulk Modulus (GPa) = 7.35403 21.76189 14.55796
# Shear Modulus (GPa) = 12.44180 29.57452 21.00816
#
# Velocity S-wave (km/s) = 2.48195 3.82657 3.22511
# Velocity P-wave (km/s) = 3.44303 5.50436 4.59089
#
# Compressibility (1/GPa) = 0.13597991
#
# Stress axis : x y z
#
# Youngs Moduli (GPa) = 62.36401 5.89794 78.32674
#
# Poissons Ratio (x) = 0.11058 -0.15049
# Poissons Ratio (y) = 1.16921 1.12474
# Poissons Ratio (z) = -0.11982 0.08469
#
# Static dielectric constant tensor:
#      x y z
#    x 1.615780 0.000000 0.024690 
#    y 0.000000 1.696480 0.000000 
#    z 0.024690 0.000000 1.730900 
# 
# From -- ./inp_files/244709.got.cif
#   From: 2010.05.17/outbox.cif.g08.bks.cpg/sg12_123_cif.got.tgz:244709.got - 2010.06.03 13:09:07.
