data_PCOD9200348
_publ_section_title
;
Structure prediction by ZEFSAII (Michael W. Deem and Ramdas Pophale) SiO2 
 PCOD9200348
Probable space group: C 2/M
;
_chemical_formula_sum "Si O2"
_cell_formula_units_Z 64
_cell_length_a 9.365762
_cell_length_b 21.142560
_cell_length_c 21.268376
_cell_angle_alpha 90.000000
_cell_angle_beta 124.838014
_cell_angle_gamma 90.000000
_cell_volume 3456.660227
_symmetry_space_group_name_H-M "C 2/M"
_symmetry_group_IT_number 12
_symmetry_cell_setting 'monoclinic'
loop_
_space_group_symop_operation_xyz
x,y,z
-x,y,-z
-x,-y,-z
x,-y,z
1/2+x,1/2+y,z
1/2-x,1/2+y,-z
1/2-x,1/2-y,-z
1/2+x,1/2-y,z
loop_
_atom_site_type_symbol
_atom_site_label
_atom_site_fract_x
_atom_site_fract_y
_atom_site_fract_z
Si Si1 0.530307 0.574597 0.773063
Si Si2 0.125363 0.190655 0.473183
Si Si3 0.337109 0.075207 0.266787
Si Si4 0.380225 0.880835 0.913446
Si Si5 0.841989 0.139040 0.322037
Si Si6 0.290429 0.074648 0.583468
Si Si7 0.686592 0.739696 0.054900
Si Si8 0.027091 0.350515 0.818511
O O1 0.511169 0.500000 0.761492
O O2 0.344972 0.599859 0.751141
O O3 0.690161 0.589133 0.859961
O O4 0.589901 0.601552 0.721081
O O5 0.250000 0.250000 0.500000
O O6 0.219583 0.123820 0.513675
O O7 0.000000 0.202716 0.500000
O O8 0.998180 0.183986 0.382126
O O9 0.503036 0.084459 0.354279
O O10 0.387466 0.106326 0.213362
O O11 0.321567 0.000000 0.253368
O O12 0.350657 0.806249 0.920258
O O13 0.478142 0.885983 0.871247
O O14 0.500000 0.905668 0.000000
O O15 0.797707 0.095133 0.371826
O O16 0.659742 0.171275 0.256350
O O17 0.256847 0.000000 0.562614
O O18 0.835138 0.702936 0.129233
O O19 0.500000 0.705548 0.000000
O O20 0.750000 0.750000 0.000000
#
# Coordination Sequence:
#
# PCOD9200348 Si02
#       8
#     8   8   8   8   8   8   8   8
#     4  10  21  37  57  84 114 145 185 236 285 335
#     4  10  22  40  58  87 123 154 191 236 291 347
#     4   9  20  37  57  85 114 144 188 236 282 333
#     4  10  21  37  54  81 112 143 189 229 281 341
#     4   9  20  38  58  86 113 150 192 233 282 350
#     4   9  18  37  63  87 113 153 199 241 283 342
#     4  11  21  37  57  81 111 142 186 240 279 336
#     4  10  20  37  57  82 109 148 187 227 285 332
#
# _framework density 18.514982
#
# number of rings (size 3 to 8) (size 9 to 14) (size 15 to 20)
#    0.000    2.250    2.500    0.375    1.750    7.000 
#   15.750    0.000    0.000    4.500    0.000    0.000 
#    0.000    0.000    0.000    0.000    0.000    0.000 
#
# Total GULP energy -178384.833358 kJ/mol
# GULP energy per Si atom -5574.526042 kJ/mol
# Density = 1.847284 g / cm^3
# Si number density = 18.514982 Si / 1000 Ang^3
#
#
#
# Elastic Constant Matrix: (Units=GPa)
#
#
# Indices 1 2 3 4 5 6 
#
# 1 117.0778 33.4981 50.3351 0.0000 30.3190 0.0000
# 2 33.4981 55.3232 40.6707 0.0000 20.0318 0.0000
# 3 50.3351 40.6707 122.6862 0.0000 26.2199 0.0000
# 4 0.0000 0.0000 0.0000 26.5500 0.0000 11.3969
# 5 30.3190 20.0318 26.2199 0.0000 24.8374 0.0000
# 6 0.0000 0.0000 0.0000 11.3969 0.0000 21.5657
#
#
#
# Elastic Compliance Matrix: (Units=1/GPa)
#
#
# Indices 1 2 3 4 5 6 
#
# 1 0.013203 -0.001983 -0.002140 0.000000 -0.012259 0.000000
# 2 -0.001983 0.028743 -0.005524 0.000000 -0.014930 0.000000
# 3 -0.002140 -0.005524 0.012074 0.000000 -0.005678 0.000000
# 4 0.000000 0.000000 0.000000 0.048716 0.000000 -0.025745
# 5 -0.012259 -0.014930 -0.005678 0.000000 0.073263 0.000000
# 6 0.000000 0.000000 0.000000 -0.025745 0.000000 0.059976
#
#
# Mechanical properties :
#
#
# Convention : Reuss Voigt Hill
#
# Bulk Modulus (GPa) = 28.79604 60.45499 44.62552
# Shear Modulus (GPa) = 18.73757 25.96283 22.35020
#
# Velocity S-wave (km/s) = 3.18468 3.74874 3.47816
# Velocity P-wave (km/s) = 5.39532 7.17358 6.34704
#
# Compressibility (1/GPa) = 0.03472699
#
# Stress axis : x y z
#
# Youngs Moduli (GPa) = 75.73883 34.79088 82.82544
#
# Poissons Ratio (x) = 0.06897 0.17722
# Poissons Ratio (y) = 0.15016 0.45755
# Poissons Ratio (z) = 0.16206 0.19219
#
# Static dielectric constant tensor:
#      x y z
#    x 1.655740 0.000000 0.020690 
#    y 0.000000 1.631920 0.000000 
#    z 0.020690 0.000000 1.677850 
# 
# From -- ./inp_files/301768.got.cif
#   From: 2010.05.17/outbox.cif.g08.bks.cpg/sg12_151_cif.got.tgz:301768.got - 2010.06.03 13:09:07.
