data_PCOD9200008
_publ_section_title
;
Structure prediction by ZEFSAII (Michael W. Deem and Ramdas Pophale) SiO2 
 PCOD9200008
Probable space group: C 2/M
;
_chemical_formula_sum "Si O2"
_cell_formula_units_Z 40
_cell_length_a 8.558815
_cell_length_b 13.313622
_cell_length_c 15.014723
_cell_angle_alpha 90.000000
_cell_angle_beta 108.054509
_cell_angle_gamma 90.000000
_cell_volume 1626.668463
_symmetry_space_group_name_H-M "C 2/M"
_symmetry_group_IT_number 12
_symmetry_cell_setting 'monoclinic'
loop_
_space_group_symop_operation_xyz
x,y,z
-x,y,-z
-x,-y,-z
x,-y,z
1/2+x,1/2+y,z
1/2-x,1/2+y,-z
1/2-x,1/2-y,-z
1/2+x,1/2-y,z
loop_
_atom_site_type_symbol
_atom_site_label
_atom_site_fract_x
_atom_site_fract_y
_atom_site_fract_z
Si Si1 0.868745 0.301514 0.403352
Si Si2 0.498451 0.618620 0.650421
Si Si3 0.188321 0.877333 0.030171
Si Si4 0.050979 0.378975 0.777625
Si Si5 0.251463 0.620948 0.156862
O O1 0.685527 0.339030 0.389067
O O2 0.926804 0.341447 0.317857
O O3 0.000000 0.334783 0.500000
O O4 0.885245 0.181032 0.395650
O O5 0.501890 0.500000 0.634431
O O6 0.574407 0.636208 0.762957
O O7 0.294439 0.848922 0.134331
O O8 0.188850 0.000000 0.030501
O O9 0.261409 0.846300 0.947529
O O10 0.000000 0.845503 0.000000
O O11 0.044434 0.500000 0.772814
O O12 0.890523 0.342155 0.802228
O O13 0.230833 0.500000 0.149644
#
# Coordination Sequence:
#
# PCOD9200008 Si02
#       5
#     8   8   8   8   8
#     4  12  26  46  70 101 139 182 239 298 348 414
#     4  11  25  46  72 102 140 184 231 290 357 419
#     4   9  16  29  55  94 138 183 230 282 346 419
#     4  10  20  36  62  97 139 187 235 289 353 416
#     4   9  18  35  61  95 137 182 228 283 349 421
#
# _framework density 24.590140000000002
#
# number of rings (size 3 to 8) (size 9 to 14) (size 15 to 20)
#    0.000    1.800    0.000    4.200    0.000    7.600 
#    0.000    4.000    0.000    0.000    0.000    0.000 
#    0.000    0.000    0.000    0.000    0.000    0.000 
#
# Total GULP energy -112109.869282 kJ/mol
# GULP energy per Si atom -5605.493464 kJ/mol
# Density = 2.453417 g / cm^3
# Si number density = 24.590140 Si / 1000 Ang^3
#
#
#
# Elastic Constant Matrix: (Units=GPa)
#
#
# Indices 1 2 3 4 5 6 
#
# 1 137.8558 45.2864 77.9344 0.0000 19.9837 0.0000
# 2 45.2864 114.6103 48.1604 0.0000 5.2625 0.0000
# 3 77.9344 48.1604 187.2033 0.0000 18.8928 0.0000
# 4 0.0000 0.0000 0.0000 25.2347 0.0000 -3.8835
# 5 19.9837 5.2625 18.8928 0.0000 39.3206 0.0000
# 6 0.0000 0.0000 0.0000 -3.8835 0.0000 40.6137
#
#
#
# Elastic Compliance Matrix: (Units=1/GPa)
#
#
# Indices 1 2 3 4 5 6 
#
# 1 0.010491 -0.002577 -0.003364 0.000000 -0.003370 0.000000
# 2 -0.002577 0.010416 -0.001680 0.000000 0.000723 0.000000
# 3 -0.003364 -0.001680 0.007335 0.000000 -0.001590 0.000000
# 4 0.000000 0.000000 0.000000 0.040220 0.000000 0.003846
# 5 -0.003370 0.000723 -0.001590 0.000000 0.027812 0.000000
# 6 0.000000 0.000000 0.000000 0.003846 0.000000 0.024990
#
#
# Mechanical properties :
#
#
# Convention : Reuss Voigt Hill
#
# Bulk Modulus (GPa) = 76.92355 86.93686 81.93021
# Shear Modulus (GPa) = 35.50137 38.91967 37.21052
#
# Velocity S-wave (km/s) = 3.80376 3.98268 3.89425
# Velocity P-wave (km/s) = 7.11629 7.52197 7.32194
#
# Compressibility (1/GPa) = 0.01299992
#
# Stress axis : x y z
#
# Youngs Moduli (GPa) = 95.31913 96.00506 136.33213
#
# Poissons Ratio (x) = 0.24739 0.45868
# Poissons Ratio (y) = 0.24562 0.22902
# Poissons Ratio (z) = 0.32070 0.16127
#
# Static dielectric constant tensor:
#      x y z
#    x 1.893320 0.000000 0.004910 
#    y 0.000000 2.040830 0.000000 
#    z 0.004910 0.000000 1.916960 
# 
# From -- ./inp_files/194675.got.cif
#   From: 2010.05.17/outbox.cif.g08.bks.cpg/sg12_98_cif.got.tgz:194675.got - 2010.06.03 13:09:07.
