data_PCOD9200570
_publ_section_title
;
Structure prediction by ZEFSAII (Michael W. Deem and Ramdas Pophale) SiO2 
 PCOD9200570
Probable space group: C 2/M
;
_chemical_formula_sum "Si O2"
_cell_formula_units_Z 56
_cell_length_a 5.273814
_cell_length_b 19.805340
_cell_length_c 26.522700
_cell_angle_alpha 90.000000
_cell_angle_beta 81.919625
_cell_angle_gamma 90.000000
_cell_volume 2742.783712
_symmetry_space_group_name_H-M "C 2/M"
_symmetry_group_IT_number 12
_symmetry_cell_setting 'monoclinic'
loop_
_space_group_symop_operation_xyz
x,y,z
-x,y,-z
-x,-y,-z
x,-y,z
1/2+x,1/2+y,z
1/2-x,1/2+y,-z
1/2-x,1/2-y,-z
1/2+x,1/2-y,z
loop_
_atom_site_type_symbol
_atom_site_label
_atom_site_fract_x
_atom_site_fract_y
_atom_site_fract_z
Si Si1 0.725408 0.576825 0.534794
Si Si2 0.493414 0.079837 0.139091
Si Si3 0.960746 0.917941 0.202082
Si Si4 0.677086 0.707757 0.603055
Si Si5 0.409208 0.707009 0.274450
Si Si6 0.502933 0.717574 0.061543
Si Si7 0.927142 0.926789 0.060092
O O1 0.500000 0.583940 0.500000
O O2 0.710612 0.500000 0.555757
O O3 0.695802 0.635109 0.576653
O O4 0.000000 0.583950 0.500000
O O5 0.225513 0.104953 0.167887
O O6 0.725724 0.096137 0.170657
O O7 0.628312 0.088149 0.080335
O O8 0.457356 0.000000 0.142940
O O9 0.926175 0.867424 0.249836
O O10 0.962666 0.000000 0.212678
O O11 0.437457 0.749987 0.588342
O O12 0.633846 0.700474 0.664247
O O13 0.669340 0.750095 0.259790
O O14 0.714169 0.762725 0.082264
O O15 0.568267 0.640756 0.072009
O O16 0.500000 0.724746 0.000000
O O17 0.989547 0.000000 0.082024
O O18 0.000000 0.932405 0.000000
#
# Coordination Sequence:
#
# PCOD9200570 Si02
#       7
#     8   8   8   8   8   8   8
#     4  10  21  36  54  80 116 155 196 242 282 320
#     4   9  19  35  55  81 109 135 173 222 265 316
#     4  10  20  37  59  79 104 142 180 216 268 331
#     4  10  21  36  56  82 112 149 189 232 284 337
#     4  10  21  38  58  84 116 142 177 234 286 327
#     4   9  18  33  50  69  97 129 159 197 244 290
#     4   9  18  35  58  81 106 140 179 217 260 314
#
# _framework density 20.417211999999999
#
# number of rings (size 3 to 8) (size 9 to 14) (size 15 to 20)
#    0.000    2.429    0.000    1.714    0.000    3.429 
#    0.000    8.571    0.000   22.286    0.000    0.000 
#    0.000    0.000    0.000    0.000    0.000    0.000 
#
# Total GULP energy -156084.041644 kJ/mol
# GULP energy per Si atom -5574.430059 kJ/mol
# Density = 2.037074 g / cm^3
# Si number density = 20.417212 Si / 1000 Ang^3
#
#
#
# Elastic Constant Matrix: (Units=GPa)
#
#
# Indices 1 2 3 4 5 6 
#
# 1 159.7363 64.5907 36.9027 0.0000 -15.6119 0.0000
# 2 64.5907 147.7103 58.5404 0.0000 3.2029 0.0000
# 3 36.9027 58.5404 48.3218 0.0000 -5.0030 0.0000
# 4 0.0000 0.0000 0.0000 17.8241 0.0000 -5.7822
# 5 -15.6119 3.2029 -5.0030 0.0000 7.9687 0.0000
# 6 0.0000 0.0000 0.0000 -5.7822 0.0000 30.0258
#
#
#
# Elastic Compliance Matrix: (Units=1/GPa)
#
#
# Indices 1 2 3 4 5 6 
#
# 1 0.010570 -0.005594 0.001157 0.000000 0.023682 0.000000
# 2 -0.005594 0.018281 -0.021145 0.000000 -0.031582 0.000000
# 3 0.001157 -0.021145 0.049777 0.000000 0.042016 0.000000
# 4 0.000000 0.000000 0.000000 0.059842 0.000000 0.011524
# 5 0.023682 -0.031582 0.042016 0.000000 0.210959 0.000000
# 6 0.000000 0.000000 0.000000 0.011524 0.000000 0.035524
#
#
# Mechanical properties :
#
#
# Convention : Reuss Voigt Hill
#
# Bulk Modulus (GPa) = 36.41065 75.09288 55.75177
# Shear Modulus (GPa) = 11.22912 24.21270 17.72091
#
# Velocity S-wave (km/s) = 2.34772 3.44742 2.94928
# Velocity P-wave (km/s) = 5.02206 7.25984 6.24205
#
# Compressibility (1/GPa) = 0.02746449
#
# Stress axis : x y z
#
# Youngs Moduli (GPa) = 94.61177 54.70206 20.08949
#
# Poissons Ratio (x) = 0.30599 -0.02324
# Poissons Ratio (y) = 0.52924 0.42478
# Poissons Ratio (z) = -0.10945 1.15665
#
# Static dielectric constant tensor:
#      x y z
#    x 1.755130 0.000000 -0.020450 
#    y 0.000000 1.729990 0.000000 
#    z -0.020450 0.000000 1.721680 
# 
# From -- ./inp_files/354940.got.cif
#   From: 2010.05.17/outbox.cif.g08.bks.cpg/sg12_178_cif.got.tgz:354940.got - 2010.06.03 13:09:07.
