data_PCOD9200076
_publ_section_title
;
Structure prediction by ZEFSAII (Michael W. Deem and Ramdas Pophale) SiO2 
 PCOD9200076
Probable space group: C 2/M
;
_chemical_formula_sum "Si O2"
_cell_formula_units_Z 56
_cell_length_a 17.354425
_cell_length_b 15.315209
_cell_length_c 11.328060
_cell_angle_alpha 90.000000
_cell_angle_beta 111.772210
_cell_angle_gamma 90.000000
_cell_volume 2796.070829
_symmetry_space_group_name_H-M "C 2/M"
_symmetry_group_IT_number 12
_symmetry_cell_setting 'monoclinic'
loop_
_space_group_symop_operation_xyz
x,y,z
-x,y,-z
-x,-y,-z
x,-y,z
1/2+x,1/2+y,z
1/2-x,1/2+y,-z
1/2-x,1/2-y,-z
1/2+x,1/2-y,z
loop_
_atom_site_type_symbol
_atom_site_label
_atom_site_fract_x
_atom_site_fract_y
_atom_site_fract_z
Si Si1 0.823230 0.715743 0.391126
Si Si2 0.339014 0.396365 0.075469
Si Si3 0.947986 0.593621 0.349061
Si Si4 0.100269 0.660189 0.313821
Si Si5 0.763248 0.101593 0.282466
Si Si6 0.314126 0.599641 0.794824
Si Si7 0.983470 0.822823 0.856520
O O1 0.885760 0.674119 0.329503
O O2 0.855702 0.685049 0.537022
O O3 0.813628 0.819940 0.375144
O O4 0.736682 0.667224 0.313983
O O5 0.354356 0.500000 0.076211
O O6 0.279085 0.381873 0.152365
O O7 0.428459 0.351984 0.144899
O O8 0.304147 0.372047 0.926549
O O9 0.904246 0.500000 0.311963
O O10 0.000000 0.592276 0.500000
O O11 0.019108 0.602664 0.292775
O O12 0.168875 0.616464 0.269940
O O13 0.061166 0.746859 0.238526
O O14 0.786835 0.000000 0.320944
O O15 0.286070 0.500000 0.761629
O O16 0.412518 0.603597 0.825458
O O17 0.000000 0.793746 0.000000
#
# Coordination Sequence:
#
# PCOD9200076 Si02
#       7
#     8   8   8   8   8   8   8
#     4  11  22  39  61  91 121 155 208 254 297 357
#     4   9  20  39  61  89 120 156 202 247 299 363
#     4   9  19  36  60  85 114 154 196 243 293 343
#     4  11  22  40  59  88 124 157 204 246 296 369
#     4  11  23  39  59  86 125 164 195 241 306 364
#     4  10  20  36  63  94 120 151 202 259 302 349
#     4  10  20  38  61  88 117 159 204 246 301 352
#
# _framework density 20.028105
#
# number of rings (size 3 to 8) (size 9 to 14) (size 15 to 20)
#    0.000    1.857    1.429    2.571    0.000    4.000 
#    2.571    0.714    0.000    6.429    0.000    0.000 
#    0.000    0.000    0.000    0.000    0.000    0.000 
#
# Total GULP energy -156164.549753 kJ/mol
# GULP energy per Si atom -5577.305348 kJ/mol
# Density = 1.998252 g / cm^3
# Si number density = 20.028105 Si / 1000 Ang^3
#
#
#
# Elastic Constant Matrix: (Units=GPa)
#
#
# Indices 1 2 3 4 5 6 
#
# 1 132.1053 36.7993 32.0537 0.0000 -13.7310 0.0000
# 2 36.7993 101.8951 38.9237 0.0000 -0.4699 0.0000
# 3 32.0537 38.9237 74.1807 0.0000 11.8965 0.0000
# 4 0.0000 0.0000 0.0000 5.7473 0.0000 6.0590
# 5 -13.7310 -0.4699 11.8965 0.0000 21.9045 0.0000
# 6 0.0000 0.0000 0.0000 6.0590 0.0000 24.2017
#
#
#
# Elastic Compliance Matrix: (Units=1/GPa)
#
#
# Indices 1 2 3 4 5 6 
#
# 1 0.010194 -0.001756 -0.004932 0.000000 0.009031 0.000000
# 2 -0.001756 0.012926 -0.006454 0.000000 0.002682 0.000000
# 3 -0.004932 -0.006454 0.021378 0.000000 -0.014841 0.000000
# 4 0.000000 0.000000 0.000000 0.236388 0.000000 -0.059181
# 5 0.009031 0.002682 -0.014841 0.000000 0.059432 0.000000
# 6 0.000000 0.000000 0.000000 -0.059181 0.000000 0.056136
#
#
# Mechanical properties :
#
#
# Convention : Reuss Voigt Hill
#
# Bulk Modulus (GPa) = 54.89989 58.19273 56.54631
# Shear Modulus (GPa) = 11.66022 23.73099 17.69560
#
# Velocity S-wave (km/s) = 2.41549 3.44595 2.97566
# Velocity P-wave (km/s) = 5.93720 6.70458 6.33252
#
# Compressibility (1/GPa) = 0.01821497
#
# Stress axis : x y z
#
# Youngs Moduli (GPa) = 98.09464 77.36437 46.77700
#
# Poissons Ratio (x) = 0.13585 0.23070
# Poissons Ratio (y) = 0.17226 0.30188
# Poissons Ratio (z) = 0.48379 0.49928
#
# Static dielectric constant tensor:
#      x y z
#    x 1.757770 0.000000 -0.022110 
#    y 0.000000 1.742520 0.000000 
#    z -0.022110 0.000000 1.684020 
# 
# From -- ./inp_files/156726.got.cif
#   From: 2010.05.17/outbox.cif.g08.bks.cpg/sg12_79_cif.got.tgz:156726.got - 2010.06.03 13:09:07.
