data_PCOD9200029
_publ_section_title
;
Structure prediction by ZEFSAII (Michael W. Deem and Ramdas Pophale) SiO2 
 PCOD9200029
Probable space group: C 2/M
;
_chemical_formula_sum "Si O2"
_cell_formula_units_Z 48
_cell_length_a 13.739483
_cell_length_b 20.829603
_cell_length_c 8.966921
_cell_angle_alpha 90.000000
_cell_angle_beta 71.430360
_cell_angle_gamma 90.000000
_cell_volume 2432.620342
_symmetry_space_group_name_H-M "C 2/M"
_symmetry_group_IT_number 12
_symmetry_cell_setting 'monoclinic'
loop_
_space_group_symop_operation_xyz
x,y,z
-x,y,-z
-x,-y,-z
x,-y,z
1/2+x,1/2+y,z
1/2-x,1/2+y,-z
1/2-x,1/2-y,-z
1/2+x,1/2-y,z
loop_
_atom_site_type_symbol
_atom_site_label
_atom_site_fract_x
_atom_site_fract_y
_atom_site_fract_z
Si Si1 0.107173 0.221346 0.159942
Si Si2 0.893154 0.573570 0.896915
Si Si3 0.712260 0.142932 0.786357
Si Si4 0.894595 0.573349 0.385138
Si Si5 0.675986 0.152463 0.312632
Si Si6 0.373182 0.276003 0.210087
O O1 0.180181 0.167550 0.199092
O O2 0.129380 0.287345 0.240914
O O3 0.985654 0.209242 0.215610
O O4 0.133142 0.224797 0.969648
O O5 0.885538 0.500000 0.949666
O O6 0.814641 0.593150 0.805743
O O7 0.004535 0.582603 0.767201
O O8 0.863001 0.620539 0.044285
O O9 0.704480 0.086331 0.670556
O O10 0.660905 0.204386 0.732698
O O11 0.897351 0.500000 0.438791
O O12 0.888909 0.624060 0.520785
O O13 0.787084 0.175959 0.309734
#
# Coordination Sequence:
#
# PCOD9200029 Si02
#       6
#     8   8   8   8   8   8
#     4  10  20  36  63  89 115 148 194 245 293 347
#     4  11  21  36  59  84 114 159 201 234 283 345
#     4  11  20  38  60  86 118 154 194 241 291 342
#     4  11  25  38  56  87 123 156 193 239 289 349
#     4  11  20  39  58  86 120 156 186 241 297 342
#     4  10  20  36  63  90 113 149 194 244 296 344
#
# _framework density 19.731809999999999
#
# number of rings (size 3 to 8) (size 9 to 14) (size 15 to 20)
#    0.000    1.333    3.333    4.000    2.333    5.333 
#    0.000    2.500    0.000    6.000    0.000    0.000 
#    0.000    0.000    0.000    0.000    0.000    0.000 
#
# Total GULP energy -133939.319656 kJ/mol
# GULP energy per Si atom -5580.804986 kJ/mol
# Density = 1.968690 g / cm^3
# Si number density = 19.731810 Si / 1000 Ang^3
#
#
#
# Elastic Constant Matrix: (Units=GPa)
#
#
# Indices 1 2 3 4 5 6 
#
# 1 123.9652 68.2021 45.6103 0.0000 -14.1291 0.0000
# 2 68.2021 89.6135 34.0166 0.0000 -7.1256 0.0000
# 3 45.6103 34.0166 58.6383 0.0000 5.1372 0.0000
# 4 0.0000 0.0000 0.0000 30.9091 0.0000 -6.3533
# 5 -14.1291 -7.1256 5.1372 0.0000 19.8677 0.0000
# 6 0.0000 0.0000 0.0000 -6.3533 0.0000 21.1434
#
#
#
# Elastic Compliance Matrix: (Units=1/GPa)
#
#
# Indices 1 2 3 4 5 6 
#
# 1 0.018046 -0.009023 -0.009866 0.000000 0.012148 0.000000
# 2 -0.009023 0.019986 -0.004750 0.000000 0.001980 0.000000
# 3 -0.009866 -0.004750 0.028902 0.000000 -0.016193 0.000000
# 4 0.000000 0.000000 0.000000 0.034483 0.000000 0.010362
# 5 0.012148 0.001980 -0.016193 0.000000 0.063870 0.000000
# 6 0.000000 0.000000 0.000000 0.010362 0.000000 0.050410
#
#
# Mechanical properties :
#
#
# Convention : Reuss Voigt Hill
#
# Bulk Modulus (GPa) = 50.87399 63.09723 56.98561
# Shear Modulus (GPa) = 18.55113 22.67658 20.61385
#
# Velocity S-wave (km/s) = 3.06954 3.39372 3.23569
# Velocity P-wave (km/s) = 6.19689 6.88501 6.54999
#
# Compressibility (1/GPa) = 0.01965641
#
# Stress axis : x y z
#
# Youngs Moduli (GPa) = 55.41511 50.03435 34.59964
#
# Poissons Ratio (x) = 0.45145 0.34138
# Poissons Ratio (y) = 0.50000 0.16433
# Poissons Ratio (z) = 0.54675 0.23764
#
# Static dielectric constant tensor:
#      x y z
#    x 1.720350 0.000000 0.043200 
#    y 0.000000 1.685050 0.000000 
#    z 0.043200 0.000000 1.752290 
# 
# From -- ./inp_files/63337.got.cif
#   From: 2010.05.17/outbox.cif.g08.bks.cpg/sg12_32_cif.got.tgz:63337.got - 2010.06.03 13:09:07.
