data_PCOD9200566
_publ_section_title
;
Structure prediction by ZEFSAII (Michael W. Deem and Ramdas Pophale) SiO2 
 PCOD9200566
Probable space group: C 2/M
;
_chemical_formula_sum "Si O2"
_cell_formula_units_Z 60
_cell_length_a 22.252280
_cell_length_b 14.008121
_cell_length_c 8.956864
_cell_angle_alpha 90.000000
_cell_angle_beta 98.678260
_cell_angle_gamma 90.000000
_cell_volume 2760.002988
_symmetry_space_group_name_H-M "C 2/M"
_symmetry_group_IT_number 12
_symmetry_cell_setting 'monoclinic'
loop_
_space_group_symop_operation_xyz
x,y,z
-x,y,-z
-x,-y,-z
x,-y,z
1/2+x,1/2+y,z
1/2-x,1/2+y,-z
1/2-x,1/2-y,-z
1/2+x,1/2-y,z
loop_
_atom_site_type_symbol
_atom_site_label
_atom_site_fract_x
_atom_site_fract_y
_atom_site_fract_z
Si Si1 0.731164 0.000000 0.677319
Si Si2 0.270460 0.329838 0.203612
Si Si3 0.803842 0.823458 0.649762
Si Si4 0.071102 0.394644 0.064721
Si Si5 0.621133 0.392433 0.572884
Si Si6 0.911796 0.815373 0.870815
Si Si7 0.464947 0.613235 0.200123
Si Si8 0.318614 0.139537 0.086398
O O1 0.763393 0.085801 0.593220
O O2 0.703550 0.081557 0.780530
O O3 0.233463 0.269766 0.316550
O O4 0.321953 0.394796 0.292350
O O5 0.306534 0.249489 0.121943
O O6 0.222881 0.379232 0.075093
O O7 0.855577 0.818095 0.542324
O O8 0.844565 0.852649 0.810182
O O9 0.082569 0.500000 0.136273
O O10 0.088099 0.298453 0.158680
O O11 0.113151 0.385516 0.933892
O O12 0.000000 0.388562 0.000000
O O13 0.609497 0.500000 0.509597
O O14 0.564188 0.360876 0.652215
O O15 0.964071 0.863516 0.790976
O O16 0.932335 0.835144 0.048287
O O17 0.455852 0.500000 0.177114
#
# Coordination Sequence:
#
# PCOD9200566 Si02
#       8
#     4   8   8   8   8   8   8   8
#     4  10  22  34  59  88 126 146 196 242 299 361
#     4  10  22  36  60  83 120 156 196 245 295 354
#     4  11  23  39  58  85 121 162 194 241 302 360
#     4  11  21  35  58  88 123 149 192 249 299 345
#     4  11  24  39  58  86 122 158 200 238 300 368
#     4  11  21  39  62  87 122 153 202 250 300 350
#     4  10  23  37  60  92 118 156 199 249 300 360
#     4  10  20  37  58  94 114 150 201 248 297 346
#
# _framework density 21.739107000000001
#
# number of rings (size 3 to 8) (size 9 to 14) (size 15 to 20)
#    0.000    1.467    4.000    2.000    6.533    0.533 
#    0.000    1.333    0.000    0.000    0.000    0.933 
#    0.000    0.133    0.000    0.000    0.000    0.000 
#
# Total GULP energy -167012.682625 kJ/mol
# GULP energy per Si atom -5567.089421 kJ/mol
# Density = 2.168963 g / cm^3
# Si number density = 21.739107 Si / 1000 Ang^3
#
#
#
# Elastic Constant Matrix: (Units=GPa)
#
#
# Indices 1 2 3 4 5 6 
#
# 1 78.6415 13.5947 20.1217 0.0000 -23.5724 0.0000
# 2 13.5947 79.0584 13.6907 0.0000 -9.8366 0.0000
# 3 20.1217 13.6907 51.3660 0.0000 -27.5248 0.0000
# 4 0.0000 0.0000 0.0000 17.2034 0.0000 -14.1209
# 5 -23.5724 -9.8366 -27.5248 0.0000 41.4050 0.0000
# 6 0.0000 0.0000 0.0000 -14.1209 0.0000 10.5864
#
#
#
# Elastic Compliance Matrix: (Units=1/GPa)
#
#
# Indices 1 2 3 4 5 6 
#
# 1 0.015634 -0.001462 -0.001788 0.000000 0.007364 0.000000
# 2 -0.001462 0.013439 -0.002710 0.000000 0.000559 0.000000
# 3 -0.001788 -0.002710 0.031067 0.000000 0.018991 0.000000
# 4 0.000000 0.000000 0.000000 -0.612735 0.000000 -0.817307
# 5 0.007364 0.000559 0.018991 0.000000 0.041101 0.000000
# 6 0.000000 0.000000 0.000000 -0.817307 0.000000 -0.995718
#
#
# Mechanical properties :
#
#
# Convention : Reuss Voigt Hill
#
# Bulk Modulus (GPa) = 20.73852 33.76446 27.25149
# Shear Modulus (GPa) = -3.38016 24.61621 10.61802
#
# Velocity S-wave (km/s) = -1.24830 3.36869 2.21244
# Velocity P-wave (km/s) = 2.73547 5.54041 4.36915
#
# Compressibility (1/GPa) = 0.04821945
#
# Stress axis : x y z
#
# Youngs Moduli (GPa) = 63.96447 74.40965 32.18836
#
# Poissons Ratio (x) = 0.10881 0.05756
# Poissons Ratio (y) = 0.09354 0.08722
# Poissons Ratio (z) = 0.11439 0.20162
#
# Static dielectric constant tensor:
#      x y z
#    x 1.815050 0.000000 0.014730 
#    y 0.000000 1.789400 0.000000 
#    z 0.014730 0.000000 1.856670 
# 
# From -- ./inp_files/96356.got.cif
#   From: 2010.05.17/outbox.cif.g08.bks.cpg/sg12_49_cif.got.tgz:96356.got - 2010.06.03 13:09:07.
