data_PCOD9200861
_publ_section_title
;
Structure prediction by ZEFSAII (Michael W. Deem and Ramdas Pophale) SiO2 
 PCOD9200861
Probable space group: C 2/M
;
_chemical_formula_sum "Si O2"
_cell_formula_units_Z 48
_cell_length_a 9.057921
_cell_length_b 16.664668
_cell_length_c 19.185217
_cell_angle_alpha 90.000000
_cell_angle_beta 121.171903
_cell_angle_gamma 90.000000
_cell_volume 2477.832353
_symmetry_space_group_name_H-M "C 2/M"
_symmetry_group_IT_number 12
_symmetry_cell_setting 'monoclinic'
loop_
_space_group_symop_operation_xyz
x,y,z
-x,y,-z
-x,-y,-z
x,-y,z
1/2+x,1/2+y,z
1/2-x,1/2+y,-z
1/2-x,1/2-y,-z
1/2+x,1/2-y,z
loop_
_atom_site_type_symbol
_atom_site_label
_atom_site_fract_x
_atom_site_fract_y
_atom_site_fract_z
Si Si1 0.604409 0.089244 0.328348
Si Si2 0.488974 0.293067 0.912649
Si Si3 0.639951 0.912061 0.597130
Si Si4 0.119488 0.355236 0.853225
Si Si5 0.308005 0.088353 0.982456
Si Si6 0.803841 0.240218 0.434166
O O1 0.463941 0.089443 0.356172
O O2 0.507664 0.104670 0.232386
O O3 0.724394 0.165062 0.374534
O O4 0.686058 0.000000 0.348797
O O5 0.294599 0.325901 0.857435
O O6 0.525807 0.216634 0.873059
O O7 0.500000 0.279729 0.000000
O O8 0.648473 0.351662 0.931103
O O9 0.500000 0.911037 0.500000
O O10 0.732323 0.825968 0.612067
O O11 0.730358 0.000000 0.614364
O O12 0.176079 0.412254 0.930081
O O13 0.264879 0.000000 0.944660
O O14 0.500000 0.107872 0.000000
O O15 0.750000 0.250000 0.500000
O O16 0.000000 0.223544 0.500000
#
# Coordination Sequence:
#
# PCOD9200861 Si02
#       6
#     8   8   8   8   8   8
#     4  11  24  39  60  90 124 157 199 249 306 356
#     4  10  21  37  59  87 113 157 203 245 284 365
#     4   9  18  37  62  85 113 156 196 236 290 364
#     4  11  22  36  59  85 120 153 196 245 307 349
#     4  10  20  37  60  84 116 155 197 245 296 353
#     4  11  21  38  64  90 116 155 202 247 296 357
#
# _framework density 19.371770999999999
#
# number of rings (size 3 to 8) (size 9 to 14) (size 15 to 20)
#    0.000    1.667    3.333    4.000    2.333    4.000 
#    0.000    0.000    0.000    0.000    0.000    0.000 
#    0.000    0.000    0.000    0.000    0.000    0.000 
#
# Total GULP energy -133609.737051 kJ/mol
# GULP energy per Si atom -5567.072377 kJ/mol
# Density = 1.932768 g / cm^3
# Si number density = 19.371771 Si / 1000 Ang^3
#
#
#
# Elastic Constant Matrix: (Units=GPa)
#
#
# Indices 1 2 3 4 5 6 
#
# 1 88.2247 34.3690 2.2365 0.0000 -1.2287 0.0000
# 2 34.3690 187.0664 25.0805 0.0000 5.5675 0.0000
# 3 2.2365 25.0805 51.2859 0.0000 -4.3863 0.0000
# 4 0.0000 0.0000 0.0000 88.4932 0.0000 -32.6820
# 5 -1.2287 5.5675 -4.3863 0.0000 19.5322 0.0000
# 6 0.0000 0.0000 0.0000 -32.6820 0.0000 36.6149
#
#
#
# Elastic Compliance Matrix: (Units=1/GPa)
#
#
# Indices 1 2 3 4 5 6 
#
# 1 0.012276 -0.002409 0.000783 0.000000 0.001635 0.000000
# 2 -0.002409 0.006297 -0.003202 0.000000 -0.002666 0.000000
# 3 0.000783 -0.003202 0.021526 0.000000 0.005796 0.000000
# 4 0.000000 0.000000 0.000000 0.016857 0.000000 0.015047
# 5 0.001635 -0.002666 0.005796 0.000000 0.053362 0.000000
# 6 0.000000 0.000000 0.000000 0.015047 0.000000 0.040742
#
#
# Mechanical properties :
#
#
# Convention : Reuss Voigt Hill
#
# Bulk Modulus (GPa) = 32.84980 49.99434 41.42207
# Shear Modulus (GPa) = 29.26291 46.58746 37.92519
#
# Velocity S-wave (km/s) = 3.89085 4.90931 4.42945
# Velocity P-wave (km/s) = 6.09749 7.61571 6.89849
#
# Compressibility (1/GPa) = 0.03044159
#
# Stress axis : x y z
#
# Youngs Moduli (GPa) = 81.45919 158.80646 46.45511
#
# Poissons Ratio (x) = 0.38257 -0.03635
# Poissons Ratio (y) = 0.19624 0.14877
# Poissons Ratio (z) = -0.06374 0.50855
#
# Static dielectric constant tensor:
#      x y z
#    x 1.659160 0.000000 0.004930 
#    y 0.000000 1.772090 0.000000 
#    z 0.004930 0.000000 1.638370 
# 
# From -- ./inp_files/256184.got.cif
#   From: 2010.05.17/outbox.cif.g08.bks.cpg/sg12_129_cif.got.tgz:256184.got - 2010.06.03 13:09:07.
