data_PCOD9200667
_publ_section_title
;
Structure prediction by ZEFSAII (Michael W. Deem and Ramdas Pophale) SiO2 
 PCOD9200667
Probable space group: C 2/M
;
_chemical_formula_sum "Si O2"
_cell_formula_units_Z 56
_cell_length_a 23.686815
_cell_length_b 19.404482
_cell_length_c 5.699275
_cell_angle_alpha 90.000000
_cell_angle_beta 119.848235
_cell_angle_gamma 90.000000
_cell_volume 2272.066808
_symmetry_space_group_name_H-M "C 2/M"
_symmetry_group_IT_number 12
_symmetry_cell_setting 'monoclinic'
loop_
_space_group_symop_operation_xyz
x,y,z
-x,y,-z
-x,-y,-z
x,-y,z
1/2+x,1/2+y,z
1/2-x,1/2+y,-z
1/2-x,1/2-y,-z
1/2+x,1/2-y,z
loop_
_atom_site_type_symbol
_atom_site_label
_atom_site_fract_x
_atom_site_fract_y
_atom_site_fract_z
Si Si1 0.555006 0.570927 0.811195
Si Si2 0.815333 0.380443 0.407289
Si Si3 0.726028 0.106342 0.188048
Si Si4 0.567329 0.704550 0.148127
Si Si5 0.961561 0.417081 0.669320
Si Si6 0.142898 0.134274 0.670340
Si Si7 0.699863 0.267337 0.161682
O O1 0.500000 0.568515 0.500000
O O2 0.553972 0.500000 0.949755
O O3 0.621861 0.577021 0.808326
O O4 0.553020 0.639708 0.952491
O O5 0.808094 0.418581 0.644896
O O6 0.893591 0.373688 0.535482
O O7 0.765078 0.314148 0.342312
O O8 0.791770 0.416521 0.114418
O O9 0.803529 0.102249 0.388271
O O10 0.710372 0.187656 0.137889
O O11 0.581857 0.669898 0.425416
O O12 0.637971 0.730435 0.210690
O O13 0.500000 0.747221 0.000000
O O14 0.946617 0.500000 0.626610
O O15 0.000000 0.401368 0.500000
O O16 0.000000 0.407635 0.000000
O O17 0.173879 0.196339 0.876822
#
# Coordination Sequence:
#
# PCOD9200667 Si02
#       7
#     8   8   8   8   8   8   8
#     4  10  21  36  54  80 115 158 206 256 316 372
#     4  11  21  39  66  95 122 165 216 257 304 384
#     4  11  23  40  67  87 128 173 212 256 317 371
#     4  11  21  36  59  86 121 162 209 260 311 373
#     4  10  22  43  70  97 129 167 203 257 332 390
#     4  10  20  37  59  84 115 162 209 259 307 376
#     4  10  23  38  62  88 122 171 210 254 315 375
#
# _framework density 24.647162000000002
#
# number of rings (size 3 to 8) (size 9 to 14) (size 15 to 20)
#    0.000    1.571    2.857    3.000    2.000    0.857 
#    0.000    9.286    3.143    0.000    0.000    0.000 
#    0.000    0.000    0.000    0.000    0.000    0.000 
#
# Total GULP energy -155981.387188 kJ/mol
# GULP energy per Si atom -5570.763828 kJ/mol
# Density = 2.459106 g / cm^3
# Si number density = 24.647162 Si / 1000 Ang^3
#
#
#
# Elastic Constant Matrix: (Units=GPa)
#
#
# Indices 1 2 3 4 5 6 
#
# 1 200.7867 26.5423 44.2135 0.0000 -2.9705 0.0000
# 2 26.5423 87.9426 9.6678 0.0000 3.2416 0.0000
# 3 44.2135 9.6678 140.5720 0.0000 5.2068 0.0000
# 4 0.0000 0.0000 0.0000 -21.3653 0.0000 148.5091
# 5 -2.9705 3.2416 5.2068 0.0000 53.9213 0.0000
# 6 0.0000 0.0000 0.0000 148.5091 0.0000-1322.3410
#
#
#
# Elastic Compliance Matrix: (Units=1/GPa)
#
#
# Indices 1 2 3 4 5 6 
#
# 1 0.005555 -0.001514 -0.001664 0.000000 0.000558 0.000000
# 2 -0.001514 0.011891 -0.000313 0.000000 -0.000768 0.000000
# 3 -0.001664 -0.000313 0.007689 0.000000 -0.000815 0.000000
# 4 0.000000 0.000000 0.000000 -0.213376 0.000000 -0.023964
# 5 0.000558 -0.000768 -0.000815 0.000000 0.018701 0.000000
# 6 0.000000 0.000000 0.000000 -0.023964 0.000000 -0.003448
#
#
# Mechanical properties :
#
#
# Convention : Reuss Voigt Hill
#
# Bulk Modulus (GPa) = 55.08850 65.57205 60.33027
# Shear Modulus (GPa) = -31.25897 -234.69847 -132.97872
#
# Velocity S-wave (km/s) = -3.56513 -9.76883 -7.35324
# Velocity P-wave (km/s) = 2.33507 10.02886 6.89657
#
# Compressibility (1/GPa) = 0.01815261
#
# Stress axis : x y z
#
# Youngs Moduli (GPa) = 180.01155 84.09850 130.05903
#
# Poissons Ratio (x) = 0.12735 0.21639
# Poissons Ratio (y) = 0.27259 0.04072
# Poissons Ratio (z) = 0.29950 0.02633
#
# Static dielectric constant tensor:
#      x y z
#    x 2.201830 0.000000 0.002710 
#    y 0.000000 1.966740 0.000000 
#    z 0.002710 0.000000 2.037400 
# 
# From -- ./inp_files/21696.got.cif
#   From: 2010.05.17/outbox.cif.g08.bks.cpg/sg12_11_cif.got.tgz:21696.got - 2010.06.03 13:09:07.
