data_PCOD9200087
_publ_section_title
;
Structure prediction by ZEFSAII (Michael W. Deem and Ramdas Pophale) SiO2 
 PCOD9200087
Probable space group: C 2/M
;
_chemical_formula_sum "Si O2"
_cell_formula_units_Z 56
_cell_length_a 9.335201
_cell_length_b 16.748461
_cell_length_c 28.394249
_cell_angle_alpha 90.000000
_cell_angle_beta 143.064627
_cell_angle_gamma 90.000000
_cell_volume 2667.725596
_symmetry_space_group_name_H-M "C 2/M"
_symmetry_group_IT_number 12
_symmetry_cell_setting 'monoclinic'
loop_
_space_group_symop_operation_xyz
x,y,z
-x,y,-z
-x,-y,-z
x,-y,z
1/2+x,1/2+y,z
1/2-x,1/2+y,-z
1/2-x,1/2-y,-z
1/2+x,1/2-y,z
loop_
_atom_site_type_symbol
_atom_site_label
_atom_site_fract_x
_atom_site_fract_y
_atom_site_fract_z
Si Si1 0.247179 0.906815 0.292599
Si Si2 0.791128 0.145598 0.284156
Si Si3 0.615909 0.206051 0.754480
Si Si4 0.845940 0.238231 0.077501
Si Si5 0.234939 0.589524 0.112971
Si Si6 0.297570 0.094680 0.412809
Si Si7 0.405240 0.912963 0.114195
O O1 0.364232 0.862682 0.279434
O O2 0.308301 0.877082 0.361039
O O3 0.964848 0.899642 0.207249
O O4 0.305922 0.000000 0.305778
O O5 0.608258 0.187164 0.271979
O O6 0.895178 0.214207 0.278307
O O7 0.624479 0.089227 0.208571
O O8 0.032794 0.105032 0.364917
O O9 0.869560 0.218635 0.847747
O O10 0.742662 0.162575 0.078856
O O11 0.795778 0.323850 0.090064
O O12 0.750000 0.250000 0.000000
O O13 0.253960 0.500000 0.096332
O O14 0.011556 0.589386 0.089292
O O15 0.500000 0.129718 0.500000
O O16 0.337605 0.000000 0.419631
O O17 0.282496 0.000000 0.088351
#
# Coordination Sequence:
#
# PCOD9200087 Si02
#       7
#     8   8   8   8   8   8   8
#     4   9  17  35  59  85 119 156 204 254 305 374
#     4  11  21  38  61  86 123 160 210 258 307 376
#     4  10  23  38  61  87 116 166 213 252 312 383
#     4  10  23  38  60  90 126 157 207 274 333 370
#     4   9  18  37  62  86 114 163 215 254 307 385
#     4  10  20  36  63  95 124 157 198 253 317 375
#     4  10  21  36  61  88 115 161 214 254 306 382
#
# _framework density 20.991665000000001
#
# number of rings (size 3 to 8) (size 9 to 14) (size 15 to 20)
#    0.000    2.143    1.429    1.286   10.000    2.286 
#    0.000    5.000    0.000    3.429    0.000    0.000 
#    0.000    0.000    0.000    0.000    0.000    0.000 
#
# Total GULP energy -156195.514830 kJ/mol
# GULP energy per Si atom -5578.411244 kJ/mol
# Density = 2.094389 g / cm^3
# Si number density = 20.991665 Si / 1000 Ang^3
#
#
#
# Elastic Constant Matrix: (Units=GPa)
#
#
# Indices 1 2 3 4 5 6 
#
# 1 97.3203 52.8653 35.4028 0.0000 -11.7606 0.0001
# 2 52.8653 142.2355 37.2094 0.0000 -19.5430 0.0000
# 3 35.4028 37.2094 133.0201 -0.0001 -12.4895 0.0000
# 4 0.0000 0.0000 -0.0001 -3.6722 0.0000 -19.4035
# 5 -11.7606 -19.5430 -12.4895 0.0000 20.5912 0.0001
# 6 0.0001 0.0000 0.0000 -19.4035 0.0001 11.1278
#
#
#
# Elastic Compliance Matrix: (Units=1/GPa)
#
#
# Indices 1 2 3 4 5 6 
#
# 1 0.013641 -0.004141 -0.002237 0.000000 0.002504 0.000000
# 2 -0.004141 0.009691 -0.001026 0.000000 0.006211 0.000000
# 3 -0.002237 -0.001026 0.008683 0.000000 0.003015 0.000000
# 4 0.000000 0.000000 0.000000 -0.026662 0.000000 -0.046491
# 5 0.002504 0.006211 0.003015 0.000000 0.057718 0.000000
# 6 0.000000 0.000000 0.000000 -0.046491 0.000000 0.008799
#
#
# Mechanical properties :
#
#
# Convention : Reuss Voigt Hill
#
# Bulk Modulus (GPa) = 58.11146 69.28122 63.69634
# Shear Modulus (GPa) = 54.10463 22.08258 38.09361
#
# Velocity S-wave (km/s) = 5.08235 3.24693 4.26455
# Velocity P-wave (km/s) = 7.88566 6.86531 7.39311
#
# Compressibility (1/GPa) = 0.01720831
#
# Stress axis : x y z
#
# Youngs Moduli (GPa) = 73.30809 103.18546 115.16606
#
# Poissons Ratio (x) = 0.42726 0.25764
# Poissons Ratio (y) = 0.30355 0.11813
# Poissons Ratio (z) = 0.16400 0.10584
#
# Static dielectric constant tensor:
#      x y z
#    x 1.772230 0.000000 0.001000 
#    y 0.000000 1.846070 0.000000 
#    z 0.001000 0.000000 1.801780 
# 
# From -- ./inp_files/356748.got.cif
#   From: 2010.05.17/outbox.cif.g08.bks.cpg/sg12_179_cif.got.tgz:356748.got - 2010.06.03 13:09:07.
