data_PCOD9200931
_publ_section_title
;
Structure prediction by ZEFSAII (Michael W. Deem and Ramdas Pophale) SiO2 
 PCOD9200931
Probable space group: C 2/M
;
_chemical_formula_sum "Si O2"
_cell_formula_units_Z 48
_cell_length_a 14.217396
_cell_length_b 15.010220
_cell_length_c 29.085716
_cell_angle_alpha 90.000000
_cell_angle_beta 19.731279
_cell_angle_gamma 90.000000
_cell_volume 2095.564924
_symmetry_space_group_name_H-M "C 2/M"
_symmetry_group_IT_number 12
_symmetry_cell_setting 'monoclinic'
loop_
_space_group_symop_operation_xyz
x,y,z
-x,y,-z
-x,-y,-z
x,-y,z
1/2+x,1/2+y,z
1/2-x,1/2+y,-z
1/2-x,1/2-y,-z
1/2+x,1/2-y,z
loop_
_atom_site_type_symbol
_atom_site_label
_atom_site_fract_x
_atom_site_fract_y
_atom_site_fract_z
Si Si1 0.106700 0.861332 0.262527
Si Si2 0.049199 0.098960 0.422870
Si Si3 0.058811 0.405322 0.128498
Si Si4 0.525831 0.798390 0.543844
Si Si5 0.959161 0.242506 0.967182
Si Si6 0.544477 0.602088 0.184174
O O1 0.323273 0.904434 0.197636
O O2 0.802165 0.855702 0.423842
O O3 0.085918 0.900064 0.220675
O O4 0.242724 0.763787 0.191682
O O5 0.376063 0.104651 0.258930
O O6 0.000000 0.097737 0.500000
O O7 0.939923 0.195667 0.456522
O O8 0.954490 0.000000 0.449343
O O9 0.205790 0.500000 0.060897
O O10 0.271709 0.325732 0.026000
O O11 0.500000 0.794991 0.500000
O O12 0.247193 0.846409 0.690106
O O13 0.789490 0.335287 0.052122
O O14 0.000000 0.206704 0.000000
O O15 0.549381 0.500000 0.165321
#
# Coordination Sequence:
#
# PCOD9200931 Si02
#       6
#     8   8   8   8   8   8
#     4  10  22  36  60  88 121 152 189 241 298 345
#     4   9  18  34  58  83 114 155 196 234 283 345
#     4  11  22  38  61  87 118 155 195 243 296 345
#     4   9  18  35  59  85 114 151 191 239 284 341
#     4  10  22  40  59  85 116 158 199 238 287 347
#     4  10  20  37  60  86 117 154 197 239 285 349
#
# _framework density 22.905518000000001
#
# number of rings (size 3 to 8) (size 9 to 14) (size 15 to 20)
#    0.000    2.167    1.667    1.000    2.333    8.333 
#    0.000    0.833    0.000    0.000    0.000    0.000 
#    0.000    0.000    0.000    0.000    0.000    0.000 
#
# Total GULP energy -133993.083803 kJ/mol
# GULP energy per Si atom -5583.045158 kJ/mol
# Density = 2.285338 g / cm^3
# Si number density = 22.905518 Si / 1000 Ang^3
#
#
#
# Elastic Constant Matrix: (Units=GPa)
#
#
# Indices 1 2 3 4 5 6 
#
# 1 72.3549 16.0341 17.0429 0.0200 3.8395 0.0317
# 2 16.0341 132.9512 9.1015 -0.0629 -13.4502 0.0353
# 3 17.0429 9.1015 80.8943 0.0973 -13.1024 0.0099
# 4 0.0200 -0.0629 0.0973 4.2466 -0.0247 4.3744
# 5 3.8395 -13.4502 -13.1024 -0.0247 23.8385 -0.0225
# 6 0.0317 0.0353 0.0099 4.3744 -0.0225 -2.0243
#
#
#
# Elastic Compliance Matrix: (Units=1/GPa)
#
#
# Indices 1 2 3 4 5 6 
#
# 1 0.015566 -0.002206 -0.003994 -0.000096 -0.005947 0.000045
# 2 -0.002206 0.008292 0.000381 0.000031 0.005243 0.000120
# 3 -0.003994 0.000381 0.014599 -0.000054 0.008882 -0.000199
# 4 -0.000096 0.000031 -0.000054 0.072999 0.000228 0.157740
# 5 -0.005947 0.005243 0.008882 0.000228 0.050747 -0.000030
# 6 0.000045 0.000120 -0.000199 0.157740 -0.000030 -0.153127
#
#
# Mechanical properties :
#
#
# Convention : Reuss Voigt Hill
#
# Bulk Modulus (GPa) = 37.28697 41.17304 39.23001
# Shear Modulus (GPa) = 168.61096 21.48029 95.04563
#
# Velocity S-wave (km/s) = 8.58902 3.06564 6.44862
# Velocity P-wave (km/s) = 10.70867 5.52676 8.52117
#
# Compressibility (1/GPa) = 0.02681902
#
# Stress axis : x y z
#
# Youngs Moduli (GPa) = 64.24266 120.59990 68.49670
#
# Poissons Ratio (x) = 0.26599 0.27361
# Poissons Ratio (y) = 0.14169 -0.02609
# Poissons Ratio (z) = 0.25661 -0.04594
#
# Static dielectric constant tensor:
#      x y z
#    x 1.926390 0.000110 0.038110 
#    y 0.000110 1.852750 -0.000060 
#    z 0.038110 -0.000060 1.822590 
# 
# From -- ./inp_files/376579.got.cif
#   From: 2010.05.17/outbox.cif.g08.bks.cpg/sg12_189_cif.got.tgz:376579.got - 2010.06.03 13:09:07.
