data_PCOD9200797
_publ_section_title
;
Structure prediction by ZEFSAII (Michael W. Deem and Ramdas Pophale) SiO2 
 PCOD9200797
Probable space group: C 2/M
;
_chemical_formula_sum "Si O2"
_cell_formula_units_Z 52
_cell_length_a 17.042576
_cell_length_b 15.213326
_cell_length_c 14.402742
_cell_angle_alpha 90.000000
_cell_angle_beta 145.744303
_cell_angle_gamma 90.000000
_cell_volume 2101.967025
_symmetry_space_group_name_H-M "C 2/M"
_symmetry_group_IT_number 12
_symmetry_cell_setting 'monoclinic'
loop_
_space_group_symop_operation_xyz
x,y,z
-x,y,-z
-x,-y,-z
x,-y,z
1/2+x,1/2+y,z
1/2-x,1/2+y,-z
1/2-x,1/2-y,-z
1/2+x,1/2-y,z
loop_
_atom_site_type_symbol
_atom_site_label
_atom_site_fract_x
_atom_site_fract_y
_atom_site_fract_z
Si Si1 0.878654 0.099941 0.110410
Si Si2 0.742174 0.332964 0.614383
Si Si3 0.714911 0.128477 0.539552
Si Si4 0.338444 0.673453 0.262056
Si Si5 0.728888 0.000000 0.704458
Si Si6 0.469632 0.244464 0.071256
Si Si7 0.401114 0.868546 0.271823
O O1 0.891486 0.109924 0.233407
O O2 0.959965 0.179471 0.138928
O O3 0.908373 0.000000 0.108622
O O4 0.717805 0.119963 0.922447
O O5 0.712270 0.231347 0.560153
O O6 0.722340 0.386760 0.500826
O O7 0.663697 0.356080 0.632739
O O8 0.909174 0.326059 0.792900
O O9 0.788212 0.075821 0.692163
O O10 0.552346 0.100324 0.386797
O O11 0.409530 0.767960 0.313886
O O12 0.177445 0.696468 0.081450
O O13 0.656071 0.075485 0.698695
O O14 0.500000 0.285574 0.000000
#
# Coordination Sequence:
#
# PCOD9200797 Si02
#       7
#     8   8   8   8   4   8   8
#     4  11  22  36  58  87 115 147 188 234 284 335
#     4  10  21  38  58  81 115 153 190 223 276 347
#     4  11  22  36  57  87 112 150 187 232 285 326
#     4  10  20  37  60  82 112 155 189 228 280 341
#     4  12  23  36  58  89 116 142 188 246 282 321
#     4   9  19  37  59  83 111 148 190 235 284 333
#     4  11  20  37  60  86 115 141 190 243 282 328
#
# _framework density 24.738733
#
# number of rings (size 3 to 8) (size 9 to 14) (size 15 to 20)
#    0.000    1.538    2.308    5.077    0.000    0.308 
#    2.769    0.000    0.000    2.308    0.000    3.231 
#    0.000    0.000    0.000    0.000    0.000    0.000 
#
# Total GULP energy -145039.480956 kJ/mol
# GULP energy per Si atom -5578.441575 kJ/mol
# Density = 2.468243 g / cm^3
# Si number density = 24.738733 Si / 1000 Ang^3
#
#
#
# Elastic Constant Matrix: (Units=GPa)
#
#
# Indices 1 2 3 4 5 6 
#
# 1 155.2944 4.6911 25.7651 0.0000 -36.9592 0.0000
# 2 4.6911 37.3974 -9.5771 0.0000 -10.4985 0.0000
# 3 25.7651 -9.5771 62.0339 0.0001 -3.7488 0.0001
# 4 0.0000 0.0000 0.0001 17.4510 0.0001 -19.2849
# 5 -36.9592 -10.4985 -3.7488 0.0001 54.9930 0.0000
# 6 0.0000 0.0000 0.0001 -19.2849 0.0000 39.9455
#
#
#
# Elastic Compliance Matrix: (Units=1/GPa)
#
#
# Indices 1 2 3 4 5 6 
#
# 1 0.008221 -0.000368 -0.003155 0.000000 0.005240 0.000000
# 2 -0.000368 0.029709 0.005088 0.000000 0.005771 0.000000
# 3 -0.003155 0.005088 0.018222 0.000000 0.000093 0.000000
# 4 0.000000 0.000000 0.000000 0.122841 0.000000 0.059305
# 5 0.005240 0.005771 0.000093 0.000000 0.022814 0.000000
# 6 0.000000 0.000000 0.000000 0.059305 0.000000 0.053666
#
#
# Mechanical properties :
#
#
# Convention : Reuss Voigt Hill
#
# Bulk Modulus (GPa) = 16.86832 32.94264 24.90548
# Shear Modulus (GPa) = 18.37545 38.06767 28.22156
#
# Velocity S-wave (km/s) = 2.72836 3.92699 3.38121
# Velocity P-wave (km/s) = 4.09373 5.82296 5.03316
#
# Compressibility (1/GPa) = 0.05928271
#
# Stress axis : x y z
#
# Youngs Moduli (GPa) = 121.64085 33.65965 54.87969
#
# Poissons Ratio (x) = 0.01239 0.17313
# Poissons Ratio (y) = 0.04478 -0.27924
# Poissons Ratio (z) = 0.38374 -0.17127
#
# Static dielectric constant tensor:
#      x y z
#    x 1.954610 0.000000 0.000740 
#    y 0.000000 1.859510 0.000000 
#    z 0.000740 0.000000 2.114220 
# 
# From -- ./inp_files/225797.got.cif
#   From: 2010.05.17/outbox.cif.g08.bks.cpg/sg12_113_cif.got.tgz:225797.got - 2010.06.03 13:09:07.
