data_PCOD9200497
_publ_section_title
;
Structure prediction by ZEFSAII (Michael W. Deem and Ramdas Pophale) SiO2 
 PCOD9200497
Probable space group: C 2/M
;
_chemical_formula_sum "Si O2"
_cell_formula_units_Z 56
_cell_length_a 31.288319
_cell_length_b 9.028548
_cell_length_c 14.997158
_cell_angle_alpha 90.000000
_cell_angle_beta 133.707759
_cell_angle_gamma 90.000000
_cell_volume 3062.467307
_symmetry_space_group_name_H-M "C 2/M"
_symmetry_group_IT_number 12
_symmetry_cell_setting 'monoclinic'
loop_
_space_group_symop_operation_xyz
x,y,z
-x,y,-z
-x,-y,-z
x,-y,z
1/2+x,1/2+y,z
1/2-x,1/2+y,-z
1/2-x,1/2-y,-z
1/2+x,1/2-y,z
loop_
_atom_site_type_symbol
_atom_site_label
_atom_site_fract_x
_atom_site_fract_y
_atom_site_fract_z
Si Si1 0.930238 0.824142 0.061013
Si Si2 0.696415 0.824369 0.814857
Si Si3 0.677583 0.175987 0.991450
Si Si4 0.240831 0.677059 0.390277
Si Si5 0.604263 0.824361 0.165735
Si Si6 0.550015 0.822857 0.282318
Si Si7 0.153214 0.322736 0.564018
O O1 0.872168 0.757908 0.024130
O O2 0.988278 0.761101 0.192751
O O3 0.929189 0.000000 0.061460
O O4 0.929641 0.765531 0.958578
O O5 0.670519 0.793435 0.875328
O O6 0.653645 0.793801 0.670185
O O7 0.711023 0.000000 0.834168
O O8 0.756988 0.733924 0.890958
O O9 0.673789 0.000000 0.001250
O O10 0.246460 0.500000 0.405574
O O11 0.250000 0.750000 0.500000
O O12 0.174182 0.709103 0.261962
O O13 0.290273 0.742504 0.396786
O O14 0.582008 0.793775 0.233604
O O15 0.595941 0.000000 0.137093
O O16 0.594673 0.779125 0.425608
O O17 0.539712 0.000000 0.272945
O O18 0.160368 0.500000 0.560757
#
# Coordination Sequence:
#
# PCOD9200497 Si02
#       7
#     8   8   8   8   8   8   8
#     4  12  25  38  55  81 110 146 191 237 277 320
#     4   9  19  36  62  91 115 140 178 229 278 328
#     4  10  20  37  60  86 115 147 181 223 279 334
#     4  11  21  34  54  82 114 147 182 222 270 324
#     4  10  21  38  58  81 109 148 189 227 279 334
#     4  10  21  39  58  77 109 150 187 227 276 336
#     4  10  20  37  58  84 114 146 183 226 278 332
#
# _framework density 18.285910999999999
#
# number of rings (size 3 to 8) (size 9 to 14) (size 15 to 20)
#    0.000    1.714    1.429    3.429    0.000    7.429 
#    0.000    0.714    0.000    4.286    0.000    0.000 
#    0.000    0.000    0.000    0.000    0.000    0.000 
#
# Total GULP energy -156455.832495 kJ/mol
# GULP energy per Si atom -5587.708303 kJ/mol
# Density = 1.824429 g / cm^3
# Si number density = 18.285911 Si / 1000 Ang^3
#
#
#
# Elastic Constant Matrix: (Units=GPa)
#
#
# Indices 1 2 3 4 5 6 
#
# 1 43.5044 30.4291 41.1452 0.0000 -3.6987 0.0000
# 2 30.4291 45.8633 50.1493 0.0000 -1.4881 0.0000
# 3 41.1452 50.1493 120.5141 0.0000 -15.2414 0.0000
# 4 0.0000 0.0000 0.0000 25.2052 0.0000 5.6710
# 5 -3.6987 -1.4881 -15.2414 0.0000 23.6850 0.0000
# 6 0.0000 0.0000 0.0000 5.6710 0.0000 26.8600
#
#
#
# Elastic Compliance Matrix: (Units=1/GPa)
#
#
# Indices 1 2 3 4 5 6 
#
# 1 0.044811 -0.024309 -0.004890 0.000000 0.002324 0.000000
# 2 -0.024309 0.055008 -0.015930 0.000000 -0.010591 0.000000
# 3 -0.004890 -0.015930 0.017824 0.000000 0.009705 0.000000
# 4 0.000000 0.000000 0.000000 0.041653 0.000000 -0.008794
# 5 0.002324 -0.010591 0.009705 0.000000 0.048164 0.000000
# 6 0.000000 0.000000 0.000000 -0.008794 0.000000 0.039087
#
#
# Mechanical properties :
#
#
# Convention : Reuss Voigt Hill
#
# Bulk Modulus (GPa) = 36.51686 50.36988 43.44337
# Shear Modulus (GPa) = 14.45373 21.02725 17.74049
#
# Velocity S-wave (km/s) = 2.81451 3.39472 3.11814
# Velocity P-wave (km/s) = 5.52949 6.55523 6.06409
#
# Compressibility (1/GPa) = 0.02738461
#
# Stress axis : x y z
#
# Youngs Moduli (GPa) = 22.31591 18.17930 56.10543
#
# Poissons Ratio (x) = 0.44192 0.27433
# Poissons Ratio (y) = 0.54248 0.89377
# Poissons Ratio (z) = 0.10911 0.28960
#
# Static dielectric constant tensor:
#      x y z
#    x 1.607630 0.000000 -0.019070 
#    y 0.000000 1.607400 0.000000 
#    z -0.019070 0.000000 1.633270 
# 
# From -- ./inp_files/237482.got.cif
#   From: 2010.05.17/outbox.cif.g08.bks.cpg/sg12_119_cif.got.tgz:237482.got - 2010.06.03 13:09:07.
