data_PCOD9200858
_publ_section_title
;
Structure prediction by ZEFSAII (Michael W. Deem and Ramdas Pophale) SiO2 
 PCOD9200858
Probable space group: C 2/M
;
_chemical_formula_sum "Si O2"
_cell_formula_units_Z 64
_cell_length_a 25.292885
_cell_length_b 19.403270
_cell_length_c 9.991852
_cell_angle_alpha 90.000000
_cell_angle_beta 133.574255
_cell_angle_gamma 90.000000
_cell_volume 3552.603048
_symmetry_space_group_name_H-M "C 2/M"
_symmetry_group_IT_number 12
_symmetry_cell_setting 'monoclinic'
loop_
_space_group_symop_operation_xyz
x,y,z
-x,y,-z
-x,-y,-z
x,-y,z
1/2+x,1/2+y,z
1/2-x,1/2+y,-z
1/2-x,1/2-y,-z
1/2+x,1/2-y,z
loop_
_atom_site_type_symbol
_atom_site_label
_atom_site_fract_x
_atom_site_fract_y
_atom_site_fract_z
Si Si1 0.545595 0.173930 0.446464
Si Si2 0.434351 0.417490 0.782320
Si Si3 0.781624 0.668236 0.209830
Si Si4 0.446532 0.335956 0.525529
Si Si5 0.221105 0.829476 0.815982
Si Si6 0.781053 0.082149 0.659882
Si Si7 0.197314 0.418304 0.252977
Si Si8 0.969267 0.420231 0.096122
O O1 0.500000 0.155803 0.500000
O O2 0.631743 0.160037 0.615542
O O3 0.535798 0.256133 0.408988
O O4 0.512957 0.130049 0.268725
O O5 0.433185 0.500000 0.757111
O O6 0.446180 0.379461 0.661719
O O7 0.357233 0.399434 0.719064
O O8 0.500000 0.402098 0.000000
O O9 0.762984 0.749469 0.188501
O O10 0.736100 0.624522 0.237171
O O11 0.760809 0.649484 0.021877
O O12 0.500000 0.359685 0.500000
O O13 0.365489 0.336167 0.322876
O O14 0.247670 0.876580 0.742317
O O15 0.716195 0.096150 0.440326
O O16 0.783020 0.000000 0.690753
O O17 0.208192 0.500000 0.254203
O O18 0.115743 0.401204 0.065147
O O19 0.974922 0.500000 0.152230
O O20 0.000000 0.417497 0.000000
#
# Coordination Sequence:
#
# PCOD9200858 Si02
#       8
#     8   8   8   8   8   8   8   8
#     4  10  21  39  57  84 120 152 194 242 285 337
#     4  10  22  41  60  84 117 149 188 240 296 350
#     4  10  22  37  58  85 116 155 193 237 291 340
#     4  10  22  39  61  86 116 154 195 239 288 346
#     4  10  21  39  57  84 117 151 194 240 283 341
#     4  10  21  39  60  85 119 151 190 242 289 348
#     4  10  20  37  60  84 115 153 190 237 289 341
#     4  10  21  37  58  85 116 152 195 237 284 344
#
# _framework density 18.014959999999999
#
# number of rings (size 3 to 8) (size 9 to 14) (size 15 to 20)
#    0.000    2.000    1.250    1.500    1.750    4.500 
#    2.250    0.000    0.000    0.000    0.000    0.000 
#    0.000    0.000    0.000    0.000    0.000    0.000 
#
# Total GULP energy -178626.969957 kJ/mol
# GULP energy per Si atom -5582.092811 kJ/mol
# Density = 1.797396 g / cm^3
# Si number density = 18.014960 Si / 1000 Ang^3
#
#
#
# Elastic Constant Matrix: (Units=GPa)
#
#
# Indices 1 2 3 4 5 6 
#
# 1 112.6425 48.9905 40.7272 0.0000 -11.0096 0.0000
# 2 48.9905 36.7968 59.1519 0.0000 -6.1684 0.0000
# 3 40.7272 59.1519 102.0029 0.0000 -9.8958 0.0000
# 4 0.0000 0.0000 0.0000 47.8957 0.0000 -14.7666
# 5 -11.0096 -6.1684 -9.8958 0.0000 24.4141 0.0000
# 6 0.0000 0.0000 0.0000 -14.7666 0.0000 37.4380
#
#
#
# Elastic Compliance Matrix: (Units=1/GPa)
#
#
# Indices 1 2 3 4 5 6 
#
# 1 -0.006172 0.062660 -0.033942 0.000000 -0.000709 0.000000
# 2 0.062660 -0.233970 0.112075 0.000000 0.014570 0.000000
# 3 -0.033942 0.112075 -0.042028 0.000000 -0.004025 0.000000
# 4 0.000000 0.000000 0.000000 0.023769 0.000000 0.009375
# 5 -0.000709 0.014570 -0.004025 0.000000 0.042690 0.000000
# 6 0.000000 0.000000 0.000000 0.009375 0.000000 0.030409
#
#
# Mechanical properties :
#
#
# Convention : Reuss Voigt Hill
#
# Bulk Modulus (GPa) = -1718.79169 61.02015 -828.88577
# Shear Modulus (GPa) = -10.70471 28.78774 9.04151
#
# Velocity S-wave (km/s) = -2.44029 4.00182 2.24272
# Velocity P-wave (km/s) = 31.05000 7.43628 21.31671
#
# Compressibility (1/GPa) = -0.00058180
#
# Stress axis : x y z
#
# Youngs Moduli (GPa) = -162.02242 -4.27405 -23.79381
#
# Poissons Ratio (x) = 0.26781 -0.80760
# Poissons Ratio (y) = 10.15238 2.66670
# Poissons Ratio (z) = -5.49929 0.47901
#
# Static dielectric constant tensor:
#      x y z
#    x -0.306940 0.000000 -2.066060 
#    y 0.000000 1.600940 0.000000 
#    z -2.066060 0.000000 -0.681840 
# 
# From -- ./inp_files/99104.got.cif
#   From: 2010.05.17/outbox.cif.g08.bks.cpg/sg12_50_cif.got.tgz:99104.got - 2010.06.03 13:09:07.
