data_PCOD9200596
_publ_section_title
;
Structure prediction by ZEFSAII (Michael W. Deem and Ramdas Pophale) SiO2 
 PCOD9200596
Probable space group: C 2/M
;
_chemical_formula_sum "Si O2"
_cell_formula_units_Z 56
_cell_length_a 9.510911
_cell_length_b 18.805833
_cell_length_c 31.847415
_cell_angle_alpha 90.000000
_cell_angle_beta 31.376432
_cell_angle_gamma 90.000000
_cell_volume 2965.799814
_symmetry_space_group_name_H-M "C 2/M"
_symmetry_group_IT_number 12
_symmetry_cell_setting 'monoclinic'
loop_
_space_group_symop_operation_xyz
x,y,z
-x,y,-z
-x,-y,-z
x,-y,z
1/2+x,1/2+y,z
1/2-x,1/2+y,-z
1/2-x,1/2-y,-z
1/2+x,1/2-y,z
loop_
_atom_site_type_symbol
_atom_site_label
_atom_site_fract_x
_atom_site_fract_y
_atom_site_fract_z
Si Si1 0.219452 0.583984 0.736332
Si Si2 0.244455 0.815949 0.469242
Si Si3 0.293173 0.289890 0.945161
Si Si4 0.784073 0.795408 0.782755
Si Si5 0.669654 0.584458 0.824225
Si Si6 0.274220 0.819158 0.718366
Si Si7 0.281158 0.414832 0.448970
O O1 0.245425 0.500000 0.737498
O O2 0.237784 0.628010 0.774259
O O3 0.466992 0.607606 0.643703
O O4 0.942337 0.595996 0.781759
O O5 0.250000 0.750000 0.500000
O O6 0.514316 0.828526 0.373223
O O7 0.193354 0.883793 0.511450
O O8 0.000000 0.804717 0.500000
O O9 0.499487 0.238921 0.867782
O O10 0.441104 0.366650 0.904492
O O11 0.250000 0.250000 0.000000
O O12 0.000000 0.296810 0.000000
O O13 0.886150 0.743596 0.719662
O O14 0.991625 0.797712 0.768390
O O15 0.611373 0.500000 0.838138
O O16 0.722830 0.615600 0.763717
O O17 0.279434 0.500000 0.450617
O O18 0.000000 0.390432 0.500000
#
# Coordination Sequence:
#
# PCOD9200596 Si02
#       7
#     8   8   8   8   8   8   8
#     4  10  20  37  59  81 113 153 190 231 278 333
#     4  12  23  35  54  82 115 151 196 244 287 325
#     4  11  22  39  62  87 112 143 180 227 284 343
#     4  11  21  38  59  83 112 145 190 230 281 342
#     4  10  22  40  60  85 116 152 189 228 283 342
#     4  11  22  36  58  82 113 154 193 239 279 333
#     4  10  21  37  56  80 113 152 192 236 285 329
#
# _framework density 18.881920999999998
#
# number of rings (size 3 to 8) (size 9 to 14) (size 15 to 20)
#    0.000    1.286    0.000    8.143    0.000    1.714 
#    0.000    0.714    0.000    2.571    0.000    0.000 
#    0.000    0.000    0.000    0.000    0.000    0.000 
#
# Total GULP energy -156398.107574 kJ/mol
# GULP energy per Si atom -5585.646699 kJ/mol
# Density = 1.883894 g / cm^3
# Si number density = 18.881921 Si / 1000 Ang^3
#
#
#
# Elastic Constant Matrix: (Units=GPa)
#
#
# Indices 1 2 3 4 5 6 
#
# 1 114.5326 45.7299 20.9291 0.0186 -4.8542 -0.0204
# 2 45.7299 85.0132 45.5251 0.0333 3.9949 -0.0662
# 3 20.9291 45.5251 86.3834 0.0741 -7.7633 -0.2351
# 4 0.0186 0.0333 0.0741 33.6744 -0.0355 10.1209
# 5 -4.8542 3.9949 -7.7633 -0.0355 36.0030 0.0832
# 6 -0.0204 -0.0662 -0.2351 10.1209 0.0832 15.6574
#
#
#
# Elastic Compliance Matrix: (Units=1/GPa)
#
#
# Indices 1 2 3 4 5 6 
#
# 1 0.011357 -0.006791 0.001053 0.000005 0.002512 -0.000015
# 2 -0.006791 0.020962 -0.009885 0.000014 -0.005373 -0.000049
# 3 0.001053 -0.009885 0.016971 -0.000099 0.004898 0.000252
# 4 0.000005 0.000014 -0.000099 0.036857 0.000069 -0.023826
# 5 0.002512 -0.005373 0.004898 0.000069 0.029767 -0.000149
# 6 -0.000015 -0.000049 0.000252 -0.023826 -0.000149 0.079273
#
#
# Mechanical properties :
#
#
# Convention : Reuss Voigt Hill
#
# Bulk Modulus (GPa) = 55.41823 56.69970 56.05896
# Shear Modulus (GPa) = 21.51030 28.64997 25.08013
#
# Velocity S-wave (km/s) = 3.37887 3.89951 3.64849
# Velocity P-wave (km/s) = 6.68101 7.09709 6.89219
#
# Compressibility (1/GPa) = 0.01804460
#
# Stress axis : x y z
#
# Youngs Moduli (GPa) = 88.05481 47.70646 58.92251
#
# Poissons Ratio (x) = 0.32397 -0.06205
# Poissons Ratio (y) = 0.59797 0.58243
# Poissons Ratio (z) = -0.09273 0.47156
#
# Static dielectric constant tensor:
#      x y z
#    x 1.616350 -0.000110 -0.000810 
#    y -0.000110 1.700340 -0.000040 
#    z -0.000810 -0.000040 1.693330 
# 
# From -- ./inp_files/257207.got.cif
#   From: 2010.05.17/outbox.cif.g08.bks.cpg/sg12_129_cif.got.tgz:257207.got - 2010.06.03 13:09:07.
