data_PCOD9200340
_publ_section_title
;
Structure prediction by ZEFSAII (Michael W. Deem and Ramdas Pophale) SiO2 
 PCOD9200340
Probable space group: C 2/M
;
_chemical_formula_sum "Si O2"
_cell_formula_units_Z 56
_cell_length_a 30.137345
_cell_length_b 7.522439
_cell_length_c 12.827566
_cell_angle_alpha 90.000000
_cell_angle_beta 59.272817
_cell_angle_gamma 90.000000
_cell_volume 2499.823575
_symmetry_space_group_name_H-M "C 2/M"
_symmetry_group_IT_number 12
_symmetry_cell_setting 'monoclinic'
loop_
_space_group_symop_operation_xyz
x,y,z
-x,y,-z
-x,-y,-z
x,-y,z
1/2+x,1/2+y,z
1/2-x,1/2+y,-z
1/2-x,1/2-y,-z
1/2+x,1/2-y,z
loop_
_atom_site_type_symbol
_atom_site_label
_atom_site_fract_x
_atom_site_fract_y
_atom_site_fract_z
Si Si1 0.635983 0.787053 0.503392
Si Si2 0.898540 0.289457 0.856859
Si Si3 0.940866 0.718068 0.584624
Si Si4 0.447454 0.285607 0.009660
Si Si5 0.214231 0.711955 0.943783
Si Si6 0.250170 0.705349 0.327886
Si Si7 0.641379 0.712977 0.730926
O O1 0.595393 0.721939 0.466765
O O2 0.694016 0.714790 0.416479
O O3 0.621033 0.749887 0.640095
O O4 0.638183 0.000000 0.486665
O O5 0.890796 0.500000 0.852230
O O6 0.917472 0.220831 0.722926
O O7 0.939880 0.262629 0.898583
O O8 0.843327 0.218337 0.962566
O O9 0.941015 0.500000 0.584964
O O10 0.000000 0.773895 0.500000
O O11 0.447617 0.500000 0.015476
O O12 0.397975 0.219487 0.134356
O O13 0.500000 0.221705 0.000000
O O14 0.211783 0.500000 0.930725
O O15 0.237406 0.789891 0.809999
O O16 0.250000 0.750000 0.000000
O O17 0.247008 0.500000 0.365941
O O18 0.300557 0.784909 0.323524
O O19 0.644409 0.500000 0.740853
#
# Coordination Sequence:
#
# PCOD9200340 Si02
#       7
#     8   8   8   8   8   8   8
#     4  10  21  36  58  84 112 148 191 235 281 337
#     4  10  21  38  60  86 113 144 191 242 280 331
#     4   9  19  36  56  80 111 145 180 228 286 331
#     4  10  22  39  59  84 116 153 188 231 289 343
#     4  11  22  35  56  85 116 151 191 236 284 341
#     4  10  20  37  57  81 114 150 187 234 287 339
#     4  10  21  37  57  82 116 152 186 230 286 342
#
# _framework density 22.401581
#
# number of rings (size 3 to 8) (size 9 to 14) (size 15 to 20)
#    0.000    2.000    1.429    1.714    2.000    4.857 
#    0.000    0.714    0.000    0.857    0.000    0.000 
#    0.000    0.000    0.000    0.000    0.000    0.000 
#
# Total GULP energy -156542.833101 kJ/mol
# GULP energy per Si atom -5590.815468 kJ/mol
# Density = 2.235059 g / cm^3
# Si number density = 22.401581 Si / 1000 Ang^3
#
#
#
# Elastic Constant Matrix: (Units=GPa)
#
#
# Indices 1 2 3 4 5 6 
#
# 1 130.2177 -3.7669 32.5757 0.0000 21.4480 0.0000
# 2 -3.7669 61.1405 -7.6256 0.0000 -11.5282 0.0000
# 3 32.5757 -7.6256 94.1010 0.0000 23.9698 0.0000
# 4 0.0000 0.0000 0.0000 14.5947 0.0000 16.1899
# 5 21.4480 -11.5282 23.9698 0.0000 41.4425 0.0000
# 6 0.0000 0.0000 0.0000 16.1899 0.0000 5.7013
#
#
#
# Elastic Compliance Matrix: (Units=1/GPa)
#
#
# Indices 1 2 3 4 5 6 
#
# 1 0.008776 -0.000370 -0.002211 0.000000 -0.003366 0.000000
# 2 -0.000370 0.017280 0.000299 0.000000 0.004825 0.000000
# 3 -0.002211 0.000299 0.013022 0.000000 -0.006305 0.000000
# 4 0.000000 0.000000 0.000000 -0.031868 0.000000 0.090495
# 5 -0.003366 0.004825 -0.006305 0.000000 0.030861 0.000000
# 6 0.000000 0.000000 0.000000 0.090495 0.000000 -0.081578
#
#
# Mechanical properties :
#
#
# Convention : Reuss Voigt Hill
#
# Bulk Modulus (GPa) = 28.97170 36.42506 32.69838
# Shear Modulus (GPa) = -182.22168 29.96609 -76.12780
#
# Velocity S-wave (km/s) = -9.02883 3.66139 -5.83584
# Velocity P-wave (km/s) = 9.78428 5.84549 5.54808
#
# Compressibility (1/GPa) = 0.03451644
#
# Stress axis : x y z
#
# Youngs Moduli (GPa) = 113.94427 57.86999 76.79103
#
# Poissons Ratio (x) = 0.02140 0.16976
# Poissons Ratio (y) = 0.04213 -0.02298
# Poissons Ratio (z) = 0.25189 -0.01732
#
# Static dielectric constant tensor:
#      x y z
#    x 1.806910 0.000000 -0.021770 
#    y 0.000000 1.846200 0.000000 
#    z -0.021770 0.000000 1.782930 
# 
# From -- ./inp_files/180675.got.cif
#   From: 2010.05.17/outbox.cif.g08.bks.cpg/sg12_91_cif.got.tgz:180675.got - 2010.06.03 13:09:07.
