data_PCOD9200820
_publ_section_title
;
Structure prediction by ZEFSAII (Michael W. Deem and Ramdas Pophale) SiO2 
 PCOD9200820
Probable space group: C 2/M
;
_chemical_formula_sum "Si O2"
_cell_formula_units_Z 56
_cell_length_a 19.663655
_cell_length_b 7.483899
_cell_length_c 29.931250
_cell_angle_alpha 90.000000
_cell_angle_beta 149.262705
_cell_angle_gamma 90.000000
_cell_volume 2251.256749
_symmetry_space_group_name_H-M "C 2/M"
_symmetry_group_IT_number 12
_symmetry_cell_setting 'monoclinic'
loop_
_space_group_symop_operation_xyz
x,y,z
-x,y,-z
-x,-y,-z
x,-y,z
1/2+x,1/2+y,z
1/2-x,1/2+y,-z
1/2-x,1/2-y,-z
1/2+x,1/2-y,z
loop_
_atom_site_type_symbol
_atom_site_label
_atom_site_fract_x
_atom_site_fract_y
_atom_site_fract_z
Si Si1 0.800060 0.706899 0.093590
Si Si2 0.713350 0.205370 0.547491
Si Si3 0.982591 0.218026 0.280740
Si Si4 0.028300 0.718250 0.160586
Si Si5 0.052565 0.203286 0.642900
Si Si6 0.702681 0.716549 0.641433
Si Si7 0.490479 0.202125 0.043803
O O1 0.766864 0.500000 0.066914
O O2 0.898485 0.717006 0.191562
O O3 0.887879 0.777596 0.101879
O O4 0.664447 0.803488 0.029778
O O5 0.605611 0.298439 0.455449
O O6 0.665389 0.215695 0.571762
O O7 0.863521 0.277159 0.633248
O O8 0.717892 0.000000 0.535764
O O9 0.922587 0.279537 0.294211
O O10 0.982192 0.000000 0.279443
O O11 0.024435 0.500000 0.156988
O O12 0.055377 0.780892 0.125353
O O13 0.146243 0.766518 0.260706
O O14 0.117428 0.283499 0.635306
O O15 0.103274 0.000000 0.673207
O O16 0.691523 0.500000 0.632626
O O17 0.544937 0.000000 0.069704
O O18 0.500000 0.286537 0.000000
#
# Coordination Sequence:
#
# PCOD9200820 Si02
#       7
#     8   8   8   8   8   8   8
#     4  11  22  38  61  86 118 154 189 235 286 342
#     4  11  22  37  57  84 119 152 190 241 292 345
#     4  10  22  39  59  85 114 151 199 241 283 340
#     4   9  19  37  60  87 114 150 195 234 280 336
#     4  10  22  37  59  84 112 153 197 243 287 336
#     4  10  20  37  60  83 113 151 197 240 279 339
#     4  10  22  39  64  91 118 151 188 235 284 337
#
# _framework density 24.874995999999999
#
# number of rings (size 3 to 8) (size 9 to 14) (size 15 to 20)
#    0.000    1.857    1.429    2.143    2.000    3.714 
#    0.000    1.429    0.000    0.000    0.000    0.000 
#    0.000    0.000    0.000    0.000    0.000    0.000 
#
# Total GULP energy -156633.861494 kJ/mol
# GULP energy per Si atom -5594.066482 kJ/mol
# Density = 2.481838 g / cm^3
# Si number density = 24.874996 Si / 1000 Ang^3
#
#
#
# Elastic Constant Matrix: (Units=GPa)
#
#
# Indices 1 2 3 4 5 6 
#
# 1 108.2297 0.4816 12.4541 -0.0004 -35.2446 0.0005
# 2 0.4816 82.5618 -7.9065 -0.0013 -0.2805 0.0022
# 3 12.4541 -7.9065 70.7314 -0.0001 -21.6127 0.0001
# 4 -0.0004 -0.0013 -0.0001 17.9684 0.0001 4.2694
# 5 -35.2446 -0.2805 -21.6127 0.0001 50.5191 -0.0002
# 6 0.0005 0.0022 0.0001 4.2694 -0.0002 2.6638
#
#
#
# Elastic Compliance Matrix: (Units=1/GPa)
#
#
# Indices 1 2 3 4 5 6 
#
# 1 0.011972 0.000008 0.000512 0.000001 0.008571 -0.000003
# 2 0.000008 0.012268 0.001602 0.000005 0.000759 -0.000019
# 3 0.000512 0.001602 0.016495 0.000001 0.007423 -0.000002
# 4 0.000001 0.000005 0.000001 0.089882 0.000000 -0.144059
# 5 0.008571 0.000759 0.007423 0.000000 0.028954 0.000000
# 6 -0.000003 -0.000019 -0.000002 -0.144059 0.000000 0.606297
#
#
# Mechanical properties :
#
#
# Convention : Reuss Voigt Hill
#
# Bulk Modulus (GPa) = 22.23244 30.17571 26.20407
# Shear Modulus (GPa) = 6.43818 31.32984 18.88401
#
# Velocity S-wave (km/s) = 1.61054 3.55278 2.75827
# Velocity P-wave (km/s) = 3.52356 5.38395 4.54986
#
# Compressibility (1/GPa) = 0.04497932
#
# Stress axis : x y z
#
# Youngs Moduli (GPa) = 83.52936 81.51241 60.62433
#
# Poissons Ratio (x) = -0.00068 -0.03104
# Poissons Ratio (y) = -0.00069 -0.09711
# Poissons Ratio (z) = -0.04277 -0.13057
#
# Static dielectric constant tensor:
#      x y z
#    x 1.986190 0.000000 0.013770 
#    y 0.000000 2.020630 0.000000 
#    z 0.013770 0.000000 1.924110 
# 
# From -- ./inp_files/275252.got.cif
#   From: 2010.05.17/outbox.cif.g08.bks.cpg/sg12_138_cif.got.tgz:275252.got - 2010.06.03 13:09:07.
