data_PCOD9200547
_publ_section_title
;
Structure prediction by ZEFSAII (Michael W. Deem and Ramdas Pophale) SiO2 
 PCOD9200547
Probable space group: C 2/M
;
_chemical_formula_sum "Si O2"
_cell_formula_units_Z 48
_cell_length_a 22.141561
_cell_length_b 16.756375
_cell_length_c 9.808097
_cell_angle_alpha 90.000000
_cell_angle_beta 136.406502
_cell_angle_gamma 90.000000
_cell_volume 2509.174472
_symmetry_space_group_name_H-M "C 2/M"
_symmetry_group_IT_number 12
_symmetry_cell_setting 'monoclinic'
loop_
_space_group_symop_operation_xyz
x,y,z
-x,y,-z
-x,-y,-z
x,-y,z
1/2+x,1/2+y,z
1/2-x,1/2+y,-z
1/2-x,1/2-y,-z
1/2+x,1/2-y,z
loop_
_atom_site_type_symbol
_atom_site_label
_atom_site_fract_x
_atom_site_fract_y
_atom_site_fract_z
Si Si1 0.286450 0.671486 0.905688
Si Si2 0.643797 0.185435 0.447616
Si Si3 0.715262 0.637902 0.536681
Si Si4 0.288639 0.863252 0.938939
Si Si5 0.909320 0.090426 0.901592
Si Si6 0.487997 0.906889 0.319269
O O1 0.203060 0.656701 0.671892
O O2 0.268500 0.627922 0.018205
O O3 0.368300 0.639168 0.957065
O O4 0.296332 0.766673 0.937501
O O5 0.659288 0.280613 0.468084
O O6 0.692837 0.156689 0.390380
O O7 0.548685 0.149980 0.324450
O O8 0.657895 0.589974 0.334821
O O9 0.740412 0.605266 0.725389
O O10 0.385799 0.896987 0.116461
O O11 0.925647 0.000000 0.973340
O O12 0.000000 0.126823 0.000000
O O13 0.500000 0.886671 0.500000
O O14 0.513884 0.000000 0.343654
#
# Coordination Sequence:
#
# PCOD9200547 Si02
#       6
#     8   8   8   8   8   8
#     4   9  19  37  60  83 114 158 195 235 281 344
#     4   9  18  37  56  83 114 155 199 226 280 344
#     4   9  20  37  59  82 112 151 196 245 281 328
#     4  10  20  37  58  88 117 148 200 236 282 342
#     4  10  22  39  59  85 110 147 195 237 293 347
#     4  11  23  36  56  89 125 157 189 230 291 361
#
# _framework density 19.129797
#
# number of rings (size 3 to 8) (size 9 to 14) (size 15 to 20)
#    0.000    2.333    1.667    1.000    2.333    4.667 
#    0.000    1.667    0.000    2.000    0.000    0.000 
#    0.000    0.000    0.000    0.000    0.000    0.000 
#
# Total GULP energy -133821.758495 kJ/mol
# GULP energy per Si atom -5575.906604 kJ/mol
# Density = 1.908626 g / cm^3
# Si number density = 19.129797 Si / 1000 Ang^3
#
#
#
# Elastic Constant Matrix: (Units=GPa)
#
#
# Indices 1 2 3 4 5 6 
#
# 1 145.0824 44.2663 38.0982 0.0000 -1.0842 0.0000
# 2 44.2663 33.0448 3.5975 0.0000 -1.3863 0.0000
# 3 38.0982 3.5975 60.6437 0.0000 -13.3503 0.0000
# 4 0.0000 0.0000 0.0000 9.1099 0.0000 20.7446
# 5 -1.0842 -1.3863 -13.3503 0.0000 34.9740 0.0000
# 6 0.0000 0.0000 0.0000 20.7446 0.0000 -32.4035
#
#
#
# Elastic Compliance Matrix: (Units=1/GPa)
#
#
# Indices 1 2 3 4 5 6 
#
# 1 0.015297 -0.019641 -0.009293 0.000000 -0.003852 0.000000
# 2 -0.019641 0.055689 0.010249 0.000000 0.005511 0.000000
# 3 -0.009293 0.010249 0.023741 0.000000 0.009181 0.000000
# 4 0.000000 0.000000 0.000000 0.044662 0.000000 0.028592
# 5 -0.003852 0.005511 0.009181 0.000000 0.032196 0.000000
# 6 0.000000 0.000000 0.000000 0.028592 0.000000 -0.012556
#
#
# Mechanical properties :
#
#
# Convention : Reuss Voigt Hill
#
# Bulk Modulus (GPa) = 17.43500 45.63279 31.53389
# Shear Modulus (GPa) = 23.20003 12.52334 17.86169
#
# Velocity S-wave (km/s) = 3.48626 2.56139 3.05898
# Velocity P-wave (km/s) = 5.03381 5.71434 5.38484
#
# Compressibility (1/GPa) = 0.05735590
#
# Stress axis : x y z
#
# Youngs Moduli (GPa) = 65.37270 17.95699 42.12163
#
# Poissons Ratio (x) = 0.35270 0.39142
# Poissons Ratio (y) = 1.28401 -0.43170
# Poissons Ratio (z) = 0.60749 -0.18404
#
# Static dielectric constant tensor:
#      x y z
#    x 1.664060 0.000000 -0.009590 
#    y 0.000000 1.677380 0.000000 
#    z -0.009590 0.000000 1.661790 
# 
# From -- ./inp_files/88138.got.cif
#   From: 2010.05.17/outbox.cif.g08.bks.cpg/sg12_45_cif.got.tgz:88138.got - 2010.06.03 13:09:07.
