data_PCOD9200819
_publ_section_title
;
Structure prediction by ZEFSAII (Michael W. Deem and Ramdas Pophale) SiO2 
 PCOD9200819
Probable space group: C 2/M
;
_chemical_formula_sum "Si O2"
_cell_formula_units_Z 52
_cell_length_a 15.002354
_cell_length_b 9.069716
_cell_length_c 19.912797
_cell_angle_alpha 90.000000
_cell_angle_beta 119.075951
_cell_angle_gamma 90.000000
_cell_volume 2368.018049
_symmetry_space_group_name_H-M "C 2/M"
_symmetry_group_IT_number 12
_symmetry_cell_setting 'monoclinic'
loop_
_space_group_symop_operation_xyz
x,y,z
-x,y,-z
-x,-y,-z
x,-y,z
1/2+x,1/2+y,z
1/2-x,1/2+y,-z
1/2-x,1/2-y,-z
1/2+x,1/2-y,z
loop_
_atom_site_type_symbol
_atom_site_label
_atom_site_fract_x
_atom_site_fract_y
_atom_site_fract_z
Si Si1 0.151177 0.332157 0.228634
Si Si2 0.546464 0.832838 0.659615
Si Si3 0.589517 0.500000 0.881229
Si Si4 0.854716 0.000000 0.832343
Si Si5 0.254656 0.500000 0.940299
Si Si6 0.081466 0.305204 0.827735
Si Si7 0.613562 0.322321 0.562369
Si Si8 0.178402 0.671029 0.400277
O O1 0.187289 0.500000 0.218235
O O2 0.169811 0.330317 0.315614
O O3 0.027333 0.338827 0.178440
O O4 0.178229 0.164300 0.210376
O O5 0.578442 0.847597 0.748738
O O6 0.618826 0.733608 0.640750
O O7 0.430974 0.767223 0.617283
O O8 0.545765 0.000000 0.631668
O O9 0.476946 0.500000 0.872094
O O10 0.596583 0.634681 0.834789
O O11 0.674174 0.500000 0.969614
O O12 0.819775 0.000000 0.896143
O O13 0.174687 0.367550 0.904310
O O14 0.500000 0.274337 0.500000
O O15 0.617781 0.500000 0.561203
O O16 0.707301 0.263596 0.551119
O O17 0.180113 0.500000 0.423395
#
# Coordination Sequence:
#
# PCOD9200819 Si02
#       8
#     8   8   4   4   4   8   8   8
#     4   9  17  37  59  81 116 157 196 244 294 354
#     4  10  20  37  60  83 113 150 199 241 281 349
#     4  10  23  40  58  81 121 159 191 231 308 366
#     4  10  23  34  58  88 118 153 195 245 302 349
#     4  12  21  38  58  87 120 150 189 254 296 343
#     4  10  20  37  61  85 111 154 201 243 289 347
#     4  10  22  38  57  86 121 151 188 239 290 349
#     4   8  17  35  57  78 114 160 187 230 302 340
#
# _framework density 21.959291
#
# number of rings (size 3 to 8) (size 9 to 14) (size 15 to 20)
#    0.000    2.308    1.538    1.615    3.231    0.923 
#    2.769    0.000    0.000    1.846    0.000    0.000 
#    0.000    0.000    0.000    0.000    0.000    0.000 
#
# Total GULP energy -144737.381291 kJ/mol
# GULP energy per Si atom -5566.822357 kJ/mol
# Density = 2.190931 g / cm^3
# Si number density = 21.959291 Si / 1000 Ang^3
#
#
#
# Elastic Constant Matrix: (Units=GPa)
#
#
# Indices 1 2 3 4 5 6 
#
# 1 101.6523 10.0604 -2.4928 0.0000 7.1777 0.0000
# 2 10.0604 120.7783 0.2112 0.0000 -3.2717 0.0000
# 3 -2.4928 0.2112 47.7696 0.0000 14.6192 0.0000
# 4 0.0000 0.0000 0.0000 22.8111 0.0000 -1.3471
# 5 7.1777 -3.2717 14.6192 0.0000 33.8311 0.0000
# 6 0.0000 0.0000 0.0000 -1.3471 0.0000 13.5673
#
#
#
# Elastic Compliance Matrix: (Units=1/GPa)
#
#
# Indices 1 2 3 4 5 6 
#
# 1 0.010165 -0.000927 0.001408 0.000000 -0.002855 0.000000
# 2 -0.000927 0.008390 -0.000454 0.000000 0.001204 0.000000
# 3 0.001408 -0.000454 0.024332 0.000000 -0.010857 0.000000
# 4 0.000000 0.000000 0.000000 0.044097 0.000000 0.004378
# 5 -0.002855 0.001204 -0.010857 0.000000 0.034972 0.000000
# 6 0.000000 0.000000 0.000000 0.004378 0.000000 0.074141
#
#
# Mechanical properties :
#
#
# Convention : Reuss Voigt Hill
#
# Bulk Modulus (GPa) = 23.28669 31.75084 27.51877
# Shear Modulus (GPa) = 23.76915 31.53667 27.65291
#
# Velocity S-wave (km/s) = 3.29358 3.79376 3.55248
# Velocity P-wave (km/s) = 5.00910 5.80349 5.42087
#
# Compressibility (1/GPa) = 0.04294298
#
# Stress axis : x y z
#
# Youngs Moduli (GPa) = 98.37417 119.18638 41.09821
#
# Poissons Ratio (x) = 0.11043 -0.05788
# Poissons Ratio (y) = 0.09115 0.01866
# Poissons Ratio (z) = -0.13853 0.05410
#
# Static dielectric constant tensor:
#      x y z
#    x 1.830490 0.000000 0.059670 
#    y 0.000000 1.815970 0.000000 
#    z 0.059670 0.000000 1.825050 
# 
# From -- ./inp_files/314948.got.cif
#   From: 2010.05.17/outbox.cif.g08.bks.cpg/sg12_158_cif.got.tgz:314948.got - 2010.06.03 13:09:07.
