data_PCOD9200003
_publ_section_title
;
Structure prediction by ZEFSAII (Michael W. Deem and Ramdas Pophale) SiO2 
 PCOD9200003
Probable space group: C 2/M
;
_chemical_formula_sum "Si O2"
_cell_formula_units_Z 56
_cell_length_a 14.401088
_cell_length_b 12.182420
_cell_length_c 23.207195
_cell_angle_alpha 90.000000
_cell_angle_beta 35.018621
_cell_angle_gamma 90.000000
_cell_volume 2336.384579
_symmetry_space_group_name_H-M "C 2/M"
_symmetry_group_IT_number 12
_symmetry_cell_setting 'monoclinic'
loop_
_space_group_symop_operation_xyz
x,y,z
-x,y,-z
-x,-y,-z
x,-y,z
1/2+x,1/2+y,z
1/2-x,1/2+y,-z
1/2-x,1/2-y,-z
1/2+x,1/2-y,z
loop_
_atom_site_type_symbol
_atom_site_label
_atom_site_fract_x
_atom_site_fract_y
_atom_site_fract_z
Si Si1 0.983135 0.794124 0.214280
Si Si2 0.433885 0.622155 0.112233
Si Si3 0.278956 0.868159 0.949293
Si Si4 0.317013 0.124245 0.573935
Si Si5 0.012652 0.879219 0.430452
Si Si6 0.148144 0.621323 0.573458
Si Si7 0.133436 0.776539 0.251017
O O1 0.978442 0.865461 0.158119
O O2 0.095805 0.838693 0.209921
O O3 0.250000 0.750000 0.000000
O O4 0.054869 0.672758 0.164540
O O5 0.368054 0.500000 0.136083
O O6 0.615131 0.630771 0.994049
O O7 0.298850 0.698087 0.328851
O O8 0.305404 0.716427 0.164468
O O9 0.294027 0.000000 0.960696
O O10 0.500000 0.111423 0.500000
O O11 0.322103 0.164711 0.506050
O O12 0.244569 0.000000 0.610860
O O13 0.824528 0.889503 0.509675
O O14 0.000000 0.825253 0.500000
O O15 0.104675 0.834185 0.327319
O O16 0.084767 0.000000 0.403669
O O17 0.077452 0.500000 0.601051
O O18 0.013245 0.689315 0.674173
#
# Coordination Sequence:
#
# PCOD9200003 Si02
#       7
#     8   8   8   8   8   8   8
#     4  11  23  39  67 102 136 178 229 295 364 430
#     4  10  23  44  69  99 135 176 230 293 362 435
#     4   9  21  45  74 105 143 189 240 301 374 448
#     4  10  20  36  62  96 135 182 237 293 351 423
#     4  10  23  41  59  81 127 190 236 279 347 430
#     4  10  21  38  57  86 127 171 224 280 338 414
#     4  12  24  37  65 101 134 174 232 295 356 427
#
# _framework density 23.968657
#
# number of rings (size 3 to 8) (size 9 to 14) (size 15 to 20)
#    0.000    1.714    1.429    2.143    2.000    4.571 
#    0.000    4.286    0.000    0.857    0.000   17.000 
#    0.000    0.000    0.000    0.000    0.000    0.000 
#
# Total GULP energy -156036.223794 kJ/mol
# GULP energy per Si atom -5572.722278 kJ/mol
# Density = 2.391410 g / cm^3
# Si number density = 23.968657 Si / 1000 Ang^3
#
#
#
# Elastic Constant Matrix: (Units=GPa)
#
#
# Indices 1 2 3 4 5 6 
#
# 1 112.6964 11.6580 30.4339 0.0000 8.9516 0.0000
# 2 11.6580 131.4568 45.1179 0.0000 0.6693 0.0000
# 3 30.4339 45.1179 100.5841 -0.0002 -1.9351 0.0001
# 4 0.0000 0.0000 -0.0002 45.0739 0.0001 -14.4084
# 5 8.9516 0.6693 -1.9351 0.0001 50.7387 0.0000
# 6 0.0000 0.0000 0.0001 -14.4084 0.0000 34.5626
#
#
#
# Elastic Compliance Matrix: (Units=1/GPa)
#
#
# Indices 1 2 3 4 5 6 
#
# 1 0.009838 0.000202 -0.003103 0.000000 -0.001857 0.000000
# 2 0.000202 0.008999 -0.004104 0.000000 -0.000311 0.000000
# 3 -0.003103 -0.004104 0.012743 0.000000 0.001088 0.000000
# 4 0.000000 0.000000 0.000000 0.025597 0.000000 0.010671
# 5 -0.001857 -0.000311 0.001088 0.000000 0.020082 0.000000
# 6 0.000000 0.000000 0.000000 0.010671 0.000000 0.033381
#
#
# Mechanical properties :
#
#
# Convention : Reuss Voigt Hill
#
# Bulk Modulus (GPa) = 56.91492 57.68413 57.29952
# Shear Modulus (GPa) = 38.31233 43.24352 40.77792
#
# Velocity S-wave (km/s) = 4.00238 4.25216 4.12916
# Velocity P-wave (km/s) = 6.71981 6.94453 6.83310
#
# Compressibility (1/GPa) = 0.01757009
#
# Stress axis : x y z
#
# Youngs Moduli (GPa) = 101.64712 111.12089 78.47734
#
# Poissons Ratio (x) = -0.02245 0.24352
# Poissons Ratio (y) = -0.02053 0.32205
# Poissons Ratio (z) = 0.31541 0.45602
#
# Static dielectric constant tensor:
#      x y z
#    x 2.087610 0.000000 0.005940 
#    y 0.000000 2.008400 0.000000 
#    z 0.005940 0.000000 2.135980 
# 
# From -- ./inp_files/310775.got.cif
#   From: 2010.05.17/outbox.cif.g08.bks.cpg/sg12_156_cif.got.tgz:310775.got - 2010.06.03 13:09:07.
