data_PCOD9200588
_publ_section_title
;
Structure prediction by ZEFSAII (Michael W. Deem and Ramdas Pophale) SiO2 
 PCOD9200588
Probable space group: C 2/M
;
_chemical_formula_sum "Si O2"
_cell_formula_units_Z 56
_cell_length_a 16.287313
_cell_length_b 7.742656
_cell_length_c 18.235821
_cell_angle_alpha 90.000000
_cell_angle_beta 111.931846
_cell_angle_gamma 90.000000
_cell_volume 2133.236225
_symmetry_space_group_name_H-M "C 2/M"
_symmetry_group_IT_number 12
_symmetry_cell_setting 'monoclinic'
loop_
_space_group_symop_operation_xyz
x,y,z
-x,y,-z
-x,-y,-z
x,-y,z
1/2+x,1/2+y,z
1/2-x,1/2+y,-z
1/2-x,1/2-y,-z
1/2+x,1/2-y,z
loop_
_atom_site_type_symbol
_atom_site_label
_atom_site_fract_x
_atom_site_fract_y
_atom_site_fract_z
Si Si1 0.643368 0.691865 0.397771
Si Si2 0.762119 0.195371 0.309152
Si Si3 0.897581 0.289031 0.833781
Si Si4 0.901440 0.298892 0.464030
Si Si5 0.121411 0.698922 0.018037
Si Si6 0.820458 0.288444 0.118825
Si Si7 0.978324 0.707186 0.262611
O O1 0.673361 0.500000 0.388681
O O2 0.695794 0.808904 0.357992
O O3 0.653593 0.720903 0.487126
O O4 0.538676 0.713236 0.345749
O O5 0.698225 0.276740 0.226356
O O6 0.850432 0.280273 0.370450
O O7 0.783254 0.000000 0.296047
O O8 0.892439 0.500000 0.835229
O O9 0.924003 0.227549 0.923707
O O10 0.966522 0.249888 0.793009
O O11 0.908514 0.500000 0.484220
O O12 0.000000 0.223737 0.500000
O O13 0.093165 0.500000 0.000018
O O14 0.224312 0.707102 0.078753
O O15 0.127420 0.769069 0.937914
O O16 0.813076 0.500000 0.113941
O O17 0.878616 0.240830 0.209046
O O18 0.978962 0.500000 0.272893
#
# Coordination Sequence:
#
# PCOD9200588 Si02
#       7
#     8   8   8   8   8   8   8
#     4  11  22  37  58  81 106 139 178 217 262 316
#     4  10  20  37  59  81 108 140 176 217 262 314
#     4   8  16  31  52  76 100 130 169 214 256 297
#     4  11  24  40  57  80 110 141 174 215 262 311
#     4   9  17  31  50  73 102 136 174 212 255 309
#     4   9  18  31  49  73 102 137 173 212 259 309
#     4   9  18  34  53  75 103 134 173 218 263 308
#
# _framework density 26.251194999999999
#
# number of rings (size 3 to 8) (size 9 to 14) (size 15 to 20)
#    0.000    2.429    0.000    3.429    0.000    3.429 
#    0.000    9.286    0.000    0.000    0.000    8.000 
#    0.000    0.000    0.000    0.000    0.000    0.000 
#
# Total GULP energy -156579.805996 kJ/mol
# GULP energy per Si atom -5592.135928 kJ/mol
# Density = 2.619145 g / cm^3
# Si number density = 26.251195 Si / 1000 Ang^3
#
#
#
# Elastic Constant Matrix: (Units=GPa)
#
#
# Indices 1 2 3 4 5 6 
#
# 1 71.6465 2.1683 10.5151 0.0000 10.6653 0.0000
# 2 2.1683 69.1841 -5.1786 0.0000 -3.7093 0.0000
# 3 10.5151 -5.1786 156.6393 0.0000 8.6595 0.0000
# 4 0.0000 0.0000 0.0000 17.6869 0.0000 3.1672
# 5 10.6653 -3.7093 8.6595 0.0000 54.7774 0.0000
# 6 0.0000 0.0000 0.0000 3.1672 0.0000 13.3136
#
#
#
# Elastic Compliance Matrix: (Units=1/GPa)
#
#
# Indices 1 2 3 4 5 6 
#
# 1 0.014509 -0.000665 -0.000845 0.000000 -0.002736 0.000000
# 2 -0.000665 0.014566 0.000469 0.000000 0.001042 0.000000
# 3 -0.000845 0.000469 0.006502 0.000000 -0.000832 0.000000
# 4 0.000000 0.000000 0.000000 0.059055 0.000000 -0.014049
# 5 -0.002736 0.001042 -0.000832 0.000000 0.018990 0.000000
# 6 0.000000 0.000000 0.000000 -0.014049 0.000000 0.078453
#
#
# Mechanical properties :
#
#
# Convention : Reuss Voigt Hill
#
# Bulk Modulus (GPa) = 29.85467 34.71994 32.28730
# Shear Modulus (GPa) = 24.35197 36.48659 30.41928
#
# Velocity S-wave (km/s) = 3.04904 3.73218 3.40777
# Velocity P-wave (km/s) = 4.87780 5.64154 5.27352
#
# Compressibility (1/GPa) = 0.03349559
#
# Stress axis : x y z
#
# Youngs Moduli (GPa) = 68.92351 68.65327 153.79250
#
# Poissons Ratio (x) = 0.04563 0.12990
# Poissons Ratio (y) = 0.04581 -0.07207
# Poissons Ratio (z) = 0.05822 -0.03217
#
# Static dielectric constant tensor:
#      x y z
#    x 2.157570 0.000000 0.027290 
#    y 0.000000 1.978830 0.000000 
#    z 0.027290 0.000000 2.038060 
# 
# From -- ./inp_files/314357.got.cif
#   From: 2010.05.17/outbox.cif.g08.bks.cpg/sg12_158_cif.got.tgz:314357.got - 2010.06.03 13:09:07.
