data_PCOD9200075
_publ_section_title
;
Structure prediction by ZEFSAII (Michael W. Deem and Ramdas Pophale) SiO2 
 PCOD9200075
Probable space group: C 2/M
;
_chemical_formula_sum "Si O2"
_cell_formula_units_Z 40
_cell_length_a 11.480468
_cell_length_b 25.417133
_cell_length_c 14.360674
_cell_angle_alpha 90.000000
_cell_angle_beta 29.178483
_cell_angle_gamma 90.000000
_cell_volume 2042.979132
_symmetry_space_group_name_H-M "C 2/M"
_symmetry_group_IT_number 12
_symmetry_cell_setting 'monoclinic'
loop_
_space_group_symop_operation_xyz
x,y,z
-x,y,-z
-x,-y,-z
x,-y,z
1/2+x,1/2+y,z
1/2-x,1/2+y,-z
1/2-x,1/2-y,-z
1/2+x,1/2-y,z
loop_
_atom_site_type_symbol
_atom_site_label
_atom_site_fract_x
_atom_site_fract_y
_atom_site_fract_z
Si Si1 0.801359 0.217406 0.717494
Si Si2 0.513388 0.147884 0.191342
Si Si3 0.480016 0.675878 0.110189
Si Si4 0.711017 0.939393 0.928836
Si Si5 0.897500 0.145549 0.368562
O O1 0.623836 0.173410 0.800297
O O2 0.662187 0.271756 0.817771
O O3 0.000000 0.224110 0.500000
O O4 0.938698 0.194765 0.711025
O O5 0.332825 0.144858 0.404230
O O6 0.744304 0.182978 0.052772
O O7 0.614510 0.091987 0.086372
O O8 0.352689 0.652039 0.290008
O O9 0.500000 0.643193 0.000000
O O10 0.938083 0.906061 0.734262
O O11 0.770450 0.000000 0.906035
O O12 0.500000 0.938163 0.000000
#
# Coordination Sequence:
#
# PCOD9200075 Si02
#       5
#     8   8   8   8   8
#     4  10  22  36  57  84 120 159 199 235 289 348
#     4  10  22  40  58  84 120 160 192 239 291 352
#     4  11  26  35  57  84 117 164 207 240 283 339
#     4  10  20  36  63  94 120 148 187 240 303 359
#     4  10  23  41  57  85 125 156 194 245 293 346
#
# _framework density 19.579249999999998
#
# number of rings (size 3 to 8) (size 9 to 14) (size 15 to 20)
#    0.000    1.800    2.000    0.600   11.200    2.400 
#    0.000    2.000    0.000    9.600    0.000   11.200 
#    0.000    0.000    0.000    0.000    0.000    0.000 
#
# Total GULP energy -111623.974330 kJ/mol
# GULP energy per Si atom -5581.198716 kJ/mol
# Density = 1.953469 g / cm^3
# Si number density = 19.579250 Si / 1000 Ang^3
#
#
#
# Elastic Constant Matrix: (Units=GPa)
#
#
# Indices 1 2 3 4 5 6 
#
# 1 57.9318 3.3312 8.1825 -0.0025 21.8859 0.0037
# 2 3.3312 90.1745 12.8334 -0.0012 -3.9202 0.0015
# 3 8.1825 12.8334 92.9149 -0.0015 7.1449 0.0054
# 4 -0.0025 -0.0012 -0.0015 7.7995 0.0009 8.7686
# 5 21.8859 -3.9202 7.1449 0.0009 32.4690 -0.0020
# 6 0.0037 0.0015 0.0054 8.7686 -0.0020 6.6363
#
#
#
# Elastic Compliance Matrix: (Units=1/GPa)
#
#
# Indices 1 2 3 4 5 6 
#
# 1 0.023411 -0.001461 -0.000644 -0.000058 -0.015815 0.000060
# 2 -0.001461 0.011500 -0.001671 0.000000 0.002741 0.000001
# 3 -0.000644 -0.001671 0.011222 -0.000025 -0.002237 0.000024
# 4 -0.000058 0.000000 -0.000025 -0.264099 0.000074 0.348955
# 5 -0.015815 0.002741 -0.002237 0.000074 0.042282 -0.000075
# 6 0.000060 0.000001 0.000024 0.348955 -0.000075 -0.310389
#
#
# Mechanical properties :
#
#
# Convention : Reuss Voigt Hill
#
# Bulk Modulus (GPa) = 25.91775 32.19059 29.05417
# Shear Modulus (GPa) = -10.73744 23.82590 6.54423
#
# Velocity S-wave (km/s) = -2.34435 3.49219 1.83021
# Velocity P-wave (km/s) = 2.43682 5.72166 4.39747
#
# Compressibility (1/GPa) = 0.03858360
#
# Stress axis : x y z
#
# Youngs Moduli (GPa) = 42.71417 86.95287 89.11067
#
# Poissons Ratio (x) = 0.12702 0.05737
# Poissons Ratio (y) = 0.06240 0.14887
# Poissons Ratio (z) = 0.02750 0.14526
#
# Static dielectric constant tensor:
#      x y z
#    x 1.742070 0.000000 0.006190 
#    y 0.000000 1.679960 0.000000 
#    z 0.006190 0.000000 1.722810 
# 
# From -- ./inp_files/208521.got.cif
#   From: 2010.05.17/outbox.cif.g08.bks.cpg/sg12_105_cif.got.tgz:208521.got - 2010.06.03 13:09:07.
