data_PCOD9200996
_publ_section_title
;
Structure prediction by ZEFSAII (Michael W. Deem and Ramdas Pophale) SiO2 
 PCOD9200996
Probable space group: C 2/M
;
_chemical_formula_sum "Si O2"
_cell_formula_units_Z 56
_cell_length_a 14.971917
_cell_length_b 16.035596
_cell_length_c 16.613959
_cell_angle_alpha 90.000000
_cell_angle_beta 50.150324
_cell_angle_gamma 90.000000
_cell_volume 3062.267851
_symmetry_space_group_name_H-M "C 2/M"
_symmetry_group_IT_number 12
_symmetry_cell_setting 'monoclinic'
loop_
_space_group_symop_operation_xyz
x,y,z
-x,y,-z
-x,-y,-z
x,-y,z
1/2+x,1/2+y,z
1/2-x,1/2+y,-z
1/2-x,1/2-y,-z
1/2+x,1/2-y,z
loop_
_atom_site_type_symbol
_atom_site_label
_atom_site_fract_x
_atom_site_fract_y
_atom_site_fract_z
Si Si1 0.201896 0.157886 0.547413
Si Si2 0.580826 0.402410 0.029772
Si Si3 0.638527 0.592418 0.411898
Si Si4 0.136894 0.403869 0.402911
Si Si5 0.285892 0.208439 0.895172
Si Si6 0.749246 0.744687 0.256931
Si Si7 0.477040 0.283782 0.224850
O O1 0.250000 0.250000 0.500000
O O2 0.188097 0.109746 0.472310
O O3 0.289048 0.112734 0.558735
O O4 0.080287 0.173133 0.664195
O O5 0.568320 0.500000 0.050142
O O6 0.536208 0.352291 0.133087
O O7 0.500000 0.378920 0.000000
O O8 0.714162 0.377337 0.934774
O O9 0.500000 0.595107 0.500000
O O10 0.673380 0.500000 0.363766
O O11 0.678721 0.666593 0.331279
O O12 0.155671 0.500000 0.365300
O O13 0.183378 0.331898 0.316266
O O14 0.000000 0.392638 0.500000
O O15 0.238270 0.258945 0.845813
O O16 0.425272 0.215509 0.810015
O O17 0.250000 0.250000 0.000000
O O18 0.870326 0.747065 0.235095
#
# Coordination Sequence:
#
# PCOD9200996 Si02
#       7
#     8   8   8   8   8   8   8
#     4  11  21  37  60  88 122 160 202 243 293 347
#     4  10  20  37  60  89 117 145 188 247 304 356
#     4  11  23  38  58  84 118 164 207 246 286 342
#     4  10  22  36  56  86 122 158 195 244 301 355
#     4  10  22  38  59  85 113 151 196 240 298 353
#     4  11  21  37  59  84 119 156 203 244 297 357
#     4  10  21  36  60  86 116 160 194 234 300 353
#
# _framework density 18.287099999999999
#
# number of rings (size 3 to 8) (size 9 to 14) (size 15 to 20)
#    0.000    1.571    4.286    1.714    2.000    3.429 
#    0.000    5.000    0.000    0.000    0.000    6.000 
#    0.000    0.000    0.000    0.000    0.000    0.000 
#
# Total GULP energy -156224.152375 kJ/mol
# GULP energy per Si atom -5579.434013 kJ/mol
# Density = 1.824548 g / cm^3
# Si number density = 18.287100 Si / 1000 Ang^3
#
#
#
# Elastic Constant Matrix: (Units=GPa)
#
#
# Indices 1 2 3 4 5 6 
#
# 1 57.8362 23.7046 9.5043 0.0000 -6.8739 0.0000
# 2 23.7046 107.3660 33.5388 0.0000 -6.5651 0.0000
# 3 9.5043 33.5388 61.7218 0.0000 1.8869 0.0000
# 4 0.0000 0.0000 0.0000 9.7842 0.0000 -11.5152
# 5 -6.8739 -6.5651 1.8869 0.0000 42.4372 0.0000
# 6 0.0000 0.0000 0.0000 -11.5152 0.0000 20.6868
#
#
#
# Elastic Compliance Matrix: (Units=1/GPa)
#
#
# Indices 1 2 3 4 5 6 
#
# 1 0.019317 -0.003797 -0.000990 0.000000 0.002585 0.000000
# 2 -0.003797 0.012138 -0.006058 0.000000 0.001532 0.000000
# 3 -0.000990 -0.006058 0.019706 0.000000 -0.001974 0.000000
# 4 0.000000 0.000000 0.000000 0.296354 0.000000 0.164963
# 5 0.002585 0.001532 -0.001974 0.000000 0.024308 0.000000
# 6 0.000000 0.000000 0.000000 0.164963 0.000000 0.140165
#
#
# Mechanical properties :
#
#
# Convention : Reuss Voigt Hill
#
# Bulk Modulus (GPa) = 33.93224 40.04660 36.98942
# Shear Modulus (GPa) = 9.19960 25.26006 17.22983
#
# Velocity S-wave (km/s) = 2.24534 3.72062 3.07283
# Velocity P-wave (km/s) = 5.03167 6.35639 5.73243
#
# Compressibility (1/GPa) = 0.02947049
#
# Stress axis : x y z
#
# Youngs Moduli (GPa) = 51.76898 82.38326 50.74511
#
# Poissons Ratio (x) = 0.31284 0.05024
# Poissons Ratio (y) = 0.19659 0.30741
# Poissons Ratio (z) = 0.05125 0.49907
#
# Static dielectric constant tensor:
#      x y z
#    x 1.645560 0.000000 -0.003690 
#    y 0.000000 1.614040 0.000000 
#    z -0.003690 0.000000 1.640910 
# 
# From -- ./inp_files/270211.got.cif
#   From: 2010.05.17/outbox.cif.g08.bks.cpg/sg12_136_cif.got.tgz:270211.got - 2010.06.03 13:09:07.
