data_PCOD9200475
_publ_section_title
;
Structure prediction by ZEFSAII (Michael W. Deem and Ramdas Pophale) SiO2 
 PCOD9200475
Probable space group: C 2/M
;
_chemical_formula_sum "Si O2"
_cell_formula_units_Z 64
_cell_length_a 29.545766
_cell_length_b 23.103439
_cell_length_c 9.733221
_cell_angle_alpha 90.000000
_cell_angle_beta 29.197630
_cell_angle_gamma 90.000000
_cell_volume 3241.091053
_symmetry_space_group_name_H-M "C 2/M"
_symmetry_group_IT_number 12
_symmetry_cell_setting 'monoclinic'
loop_
_space_group_symop_operation_xyz
x,y,z
-x,y,-z
-x,-y,-z
x,-y,z
1/2+x,1/2+y,z
1/2-x,1/2+y,-z
1/2-x,1/2-y,-z
1/2+x,1/2-y,z
loop_
_atom_site_type_symbol
_atom_site_label
_atom_site_fract_x
_atom_site_fract_y
_atom_site_fract_z
Si Si1 0.536896 0.563534 0.248501
Si Si2 0.101179 0.657895 0.280624
Si Si3 0.308478 0.823000 0.476760
Si Si4 0.757746 0.064594 0.200819
Si Si5 0.734448 0.431753 0.145374
Si Si6 0.360624 0.766561 0.075966
Si Si7 0.567745 0.235182 0.632642
Si Si8 0.434217 0.361523 0.309195
O O1 0.500000 0.570203 0.500000
O O2 0.504135 0.500000 0.284883
O O3 0.500873 0.613882 0.249727
O O4 0.646753 0.563122 0.968531
O O5 0.098868 0.689247 0.434541
O O6 0.000000 0.637075 0.500000
O O7 0.174038 0.606429 0.076582
O O8 0.125317 0.708780 0.111369
O O9 0.298659 0.884431 0.577105
O O10 0.325370 0.818322 0.269127
O O11 0.213889 0.784936 0.738962
O O12 0.394470 0.792009 0.326151
O O13 0.714862 0.000000 0.319258
O O14 0.784005 0.075478 0.970894
O O15 0.746405 0.500000 0.138656
O O16 0.651945 0.406141 0.458263
O O17 0.460145 0.751869 0.879810
O O18 0.608208 0.299983 0.532999
O O19 0.500000 0.356481 0.000000
#
# Coordination Sequence:
#
# PCOD9200475 Si02
#       8
#     8   8   8   8   8   8   8   8
#     4  10  20  37  58  82 119 163 203 248 299 363
#     4  10  23  42  63  93 121 158 212 263 311 373
#     4  11  21  39  63  87 126 165 199 264 316 368
#     4  10  21  37  62  90 116 162 219 256 300 370
#     4  11  23  41  64  90 123 166 214 259 308 374
#     4  10  23  38  60  95 124 157 208 254 318 384
#     4  11  23  40  63  88 125 168 204 252 314 374
#     4  12  25  38  60  97 133 166 205 251 318 385
#
# _framework density 19.746437
#
# number of rings (size 3 to 8) (size 9 to 14) (size 15 to 20)
#    0.000    1.375    2.500    3.000    1.750    6.750 
#    0.000    1.875    0.000    2.250    0.000    0.000 
#    0.000    0.000    0.000    0.000    0.000    0.000 
#
# Total GULP energy -178422.834577 kJ/mol
# GULP energy per Si atom -5575.713581 kJ/mol
# Density = 1.970149 g / cm^3
# Si number density = 19.746437 Si / 1000 Ang^3
#
#
#
# Elastic Constant Matrix: (Units=GPa)
#
#
# Indices 1 2 3 4 5 6 
#
# 1 56.8704 22.9399 18.1328 0.0000 0.2327 0.0000
# 2 22.9399 101.6945 25.4177 0.0000 -4.0595 0.0000
# 3 18.1328 25.4177 56.3357 0.0000 -8.8551 0.0000
# 4 0.0000 0.0000 0.0000 35.2504 0.0000 2.0461
# 5 0.2327 -4.0595 -8.8551 0.0000 22.7516 0.0000
# 6 0.0000 0.0000 0.0000 2.0461 0.0000 35.2388
#
#
#
# Elastic Compliance Matrix: (Units=1/GPa)
#
#
# Indices 1 2 3 4 5 6 
#
# 1 0.020759 -0.003398 -0.005621 0.000000 -0.003006 0.000000
# 2 -0.003398 0.011639 -0.004075 0.000000 0.000525 0.000000
# 3 -0.005621 -0.004075 0.022681 0.000000 0.008158 0.000000
# 4 0.000000 0.000000 0.000000 0.028464 0.000000 -0.001653
# 5 -0.003006 0.000525 0.008158 0.000000 0.047253 0.000000
# 6 0.000000 0.000000 0.000000 -0.001653 0.000000 0.028474
#
#
# Mechanical properties :
#
#
# Convention : Reuss Voigt Hill
#
# Bulk Modulus (GPa) = 34.61302 38.65350 36.63326
# Shear Modulus (GPa) = 25.62930 28.54215 27.08572
#
# Velocity S-wave (km/s) = 3.60657 3.80601 3.70763
# Velocity P-wave (km/s) = 5.90847 6.23953 6.07625
#
# Compressibility (1/GPa) = 0.02889086
#
# Stress axis : x y z
#
# Youngs Moduli (GPa) = 48.17180 85.91517 44.08968
#
# Poissons Ratio (x) = 0.29192 0.24784
# Poissons Ratio (y) = 0.16368 0.17968
# Poissons Ratio (z) = 0.27079 0.35013
#
# Static dielectric constant tensor:
#      x y z
#    x 1.690850 0.000000 -0.039490 
#    y 0.000000 1.709880 0.000000 
#    z -0.039490 0.000000 1.764570 
# 
# From -- ./inp_files/113616.got.cif
#   From: 2010.05.17/outbox.cif.g08.bks.cpg/sg12_57_cif.got.tgz:113616.got - 2010.06.03 13:09:07.
