data_PCOD9200892
_publ_section_title
;
Structure prediction by ZEFSAII (Michael W. Deem and Ramdas Pophale) SiO2 
 PCOD9200892
Probable space group: C 2/M
;
_chemical_formula_sum "Si O2"
_cell_formula_units_Z 40
_cell_length_a 24.614088
_cell_length_b 13.541748
_cell_length_c 11.060908
_cell_angle_alpha 90.000000
_cell_angle_beta 148.909203
_cell_angle_gamma 90.000000
_cell_volume 1903.846573
_symmetry_space_group_name_H-M "C 2/M"
_symmetry_group_IT_number 12
_symmetry_cell_setting 'monoclinic'
loop_
_space_group_symop_operation_xyz
x,y,z
-x,y,-z
-x,-y,-z
x,-y,z
1/2+x,1/2+y,z
1/2-x,1/2+y,-z
1/2-x,1/2-y,-z
1/2+x,1/2-y,z
loop_
_atom_site_type_symbol
_atom_site_label
_atom_site_fract_x
_atom_site_fract_y
_atom_site_fract_z
Si Si1 0.376544 0.885424 0.619167
Si Si2 0.676293 0.886472 0.766358
Si Si3 0.334764 0.618193 0.655670
Si Si4 0.403559 0.308138 0.248667
Si Si5 0.008701 0.210350 0.850189
O O1 0.336572 0.873143 0.403472
O O2 0.284329 0.854137 0.536360
O O3 0.480752 0.821813 0.830822
O O4 0.396813 0.000000 0.676240
O O5 0.618513 0.796315 0.724990
O O6 0.643136 0.000000 0.731022
O O7 0.797180 0.870388 0.035861
O O8 0.339017 0.500000 0.663149
O O9 0.394228 0.657944 0.649782
O O10 0.409102 0.658277 0.904724
O O11 0.500000 0.359688 0.500000
O O12 0.444290 0.290252 0.191974
#
# Coordination Sequence:
#
# PCOD9200892 Si02
#       5
#     8   8   8   8   8
#     4  10  20  37  60  85 116 154 191 232 285 343
#     4  10  22  39  57  83 121 155 188 232 286 347
#     4  10  22  40  62  85 114 154 194 232 286 345
#     4  11  22  37  60  87 116 149 194 238 284 337
#     4  11  20  35  61  88 113 149 195 240 276 336
#
# _framework density 21.010096000000001
#
# number of rings (size 3 to 8) (size 9 to 14) (size 15 to 20)
#    0.000    1.600    4.000    1.800    0.000    2.400 
#    0.000    2.000    0.000    2.400    0.000    0.000 
#    0.000    0.000    0.000    0.000    0.000    0.000 
#
# Total GULP energy -111670.639687 kJ/mol
# GULP energy per Si atom -5583.531984 kJ/mol
# Density = 2.096228 g / cm^3
# Si number density = 21.010096 Si / 1000 Ang^3
#
#
#
# Elastic Constant Matrix: (Units=GPa)
#
#
# Indices 1 2 3 4 5 6 
#
# 1 86.5034 14.6161 -5.6584 0.0000 12.6925 0.0000
# 2 14.6161 78.8367 -10.5036 0.0000 -5.1060 0.0000
# 3 -5.6584 -10.5036 41.6262 0.0000 4.7481 0.0000
# 4 0.0000 0.0000 0.0000 19.8072 0.0000 -10.7325
# 5 12.6925 -5.1060 4.7481 0.0000 23.1671 0.0000
# 6 0.0000 0.0000 0.0000 -10.7325 0.0000 19.2650
#
#
#
# Elastic Compliance Matrix: (Units=1/GPa)
#
#
# Indices 1 2 3 4 5 6 
#
# 1 0.013388 -0.002747 0.002081 0.000000 -0.008367 0.000000
# 2 -0.002747 0.013807 0.002654 0.000000 0.004004 0.000000
# 3 0.002081 0.002654 0.025639 0.000000 -0.005810 0.000000
# 4 0.000000 0.000000 0.000000 0.072316 0.000000 0.040287
# 5 -0.008367 0.004004 -0.005810 0.000000 0.049822 0.000000
# 6 0.000000 0.000000 0.000000 0.040287 0.000000 0.074352
#
#
# Mechanical properties :
#
#
# Convention : Reuss Voigt Hill
#
# Bulk Modulus (GPa) = 17.60264 22.65271 20.12768
# Shear Modulus (GPa) = 18.91909 26.34868 22.63388
#
# Velocity S-wave (km/s) = 3.00405 3.54516 3.28576
# Velocity P-wave (km/s) = 4.51982 5.25003 4.89855
#
# Compressibility (1/GPa) = 0.05680965
#
# Stress axis : x y z
#
# Youngs Moduli (GPa) = 74.69297 72.42926 39.00376
#
# Poissons Ratio (x) = 0.19894 -0.08117
# Poissons Ratio (y) = 0.20516 -0.10351
# Poissons Ratio (z) = -0.15545 -0.19221
#
# Static dielectric constant tensor:
#      x y z
#    x 1.771110 0.000000 -0.013970 
#    y 0.000000 1.764950 0.000000 
#    z -0.013970 0.000000 1.768030 
# 
# From -- ./inp_files/183152.got.cif
#   From: 2010.05.17/outbox.cif.g08.bks.cpg/sg12_92_cif.got.tgz:183152.got - 2010.06.03 13:09:07.
