data_PCOD9200665
_publ_section_title
;
Structure prediction by ZEFSAII (Michael W. Deem and Ramdas Pophale) SiO2 
 PCOD9200665
Probable space group: C 2/M
;
_chemical_formula_sum "Si O2"
_cell_formula_units_Z 48
_cell_length_a 21.093067
_cell_length_b 8.599610
_cell_length_c 17.877138
_cell_angle_alpha 90.000000
_cell_angle_beta 126.069858
_cell_angle_gamma 90.000000
_cell_volume 2621.132149
_symmetry_space_group_name_H-M "C 2/M"
_symmetry_group_IT_number 12
_symmetry_cell_setting 'monoclinic'
loop_
_space_group_symop_operation_xyz
x,y,z
-x,y,-z
-x,-y,-z
x,-y,z
1/2+x,1/2+y,z
1/2-x,1/2+y,-z
1/2-x,1/2-y,-z
1/2+x,1/2-y,z
loop_
_atom_site_type_symbol
_atom_site_label
_atom_site_fract_x
_atom_site_fract_y
_atom_site_fract_z
Si Si1 0.477416 0.814606 0.099513
Si Si2 0.446370 0.689646 0.393263
Si Si3 0.304832 0.186629 0.603656
Si Si4 0.234122 0.812423 0.716692
Si Si5 0.119987 0.815032 0.100879
Si Si6 0.519275 0.313338 0.285318
O O1 0.559117 0.758239 0.118565
O O2 0.475684 0.756030 0.183016
O O3 0.475117 0.000000 0.094889
O O4 0.409724 0.744713 0.999997
O O5 0.500000 0.742428 0.500000
O O6 0.447049 0.500000 0.395493
O O7 0.355978 0.737908 0.338348
O O8 0.482110 0.736758 0.338416
O O9 0.250000 0.250000 0.500000
O O10 0.266894 0.227408 0.657280
O O11 0.390989 0.258065 0.656465
O O12 0.310052 0.000000 0.603104
O O13 0.293214 0.738442 0.817296
O O14 0.237186 0.000000 0.726421
O O15 0.112709 0.000000 0.099399
O O16 0.516664 0.500000 0.279435
#
# Coordination Sequence:
#
# PCOD9200665 Si02
#       6
#     8   8   8   8   8   8
#     4  11  21  36  58  85 118 154 191 233 291 352
#     4   9  19  37  60  84 114 157 198 237 286 346
#     4  11  22  35  56  83 114 149 192 243 293 345
#     4  10  20  37  59  84 115 154 196 235 288 349
#     4  11  21  35  58  88 118 149 190 240 294 342
#     4  11  21  36  59  87 117 149 194 243 290 344
#
# _framework density 18.312698000000001
#
# number of rings (size 3 to 8) (size 9 to 14) (size 15 to 20)
#    0.000    1.500    1.667    6.000    0.000    3.333 
#    0.000    2.500    0.000    3.500    0.000    0.000 
#    0.000    0.000    0.000    0.000    0.000    0.000 
#
# Total GULP energy -134129.144181 kJ/mol
# GULP energy per Si atom -5588.714341 kJ/mol
# Density = 1.827102 g / cm^3
# Si number density = 18.312698 Si / 1000 Ang^3
#
#
#
# Elastic Constant Matrix: (Units=GPa)
#
#
# Indices 1 2 3 4 5 6 
#
# 1 133.8269 31.5979 81.5263 0.0000 1.7441 0.0000
# 2 31.5979 56.1700 29.7741 0.0000 0.0968 0.0000
# 3 81.5263 29.7741 170.5341 0.0000 0.5392 0.0000
# 4 0.0000 0.0000 0.0000 28.8337 0.0000 1.1056
# 5 1.7441 0.0968 0.5392 0.0000 32.5577 0.0000
# 6 0.0000 0.0000 0.0000 1.1056 0.0000 14.5847
#
#
#
# Elastic Compliance Matrix: (Units=1/GPa)
#
#
# Indices 1 2 3 4 5 6 
#
# 1 0.011253 -0.003833 -0.004709 0.000000 -0.000513 0.000000
# 2 -0.003833 0.020925 -0.001821 0.000000 0.000173 0.000000
# 3 -0.004709 -0.001821 0.008433 0.000000 0.000118 0.000000
# 4 0.000000 0.000000 0.000000 0.034783 0.000000 -0.002637
# 5 -0.000513 0.000173 0.000118 0.000000 0.030740 0.000000
# 6 0.000000 0.000000 0.000000 -0.002637 0.000000 0.068765
#
#
# Mechanical properties :
#
#
# Convention : Reuss Voigt Hill
#
# Bulk Modulus (GPa) = 50.29315 71.81419 61.05367
# Shear Modulus (GPa) = 24.72178 29.70406 27.21292
#
# Velocity S-wave (km/s) = 3.67819 4.03183 3.85907
# Velocity P-wave (km/s) = 6.74996 7.80864 7.29852
#
# Compressibility (1/GPa) = 0.01988342
#
# Stress axis : x y z
#
# Youngs Moduli (GPa) = 88.86908 47.79074 118.58832
#
# Poissons Ratio (x) = 0.18319 0.55838
# Poissons Ratio (y) = 0.34066 0.21599
# Poissons Ratio (z) = 0.41844 0.08704
#
# Static dielectric constant tensor:
#      x y z
#    x 1.605630 0.000000 -0.006440 
#    y 0.000000 1.617180 0.000000 
#    z -0.006440 0.000000 1.618010 
# 
# From -- ./inp_files/281841.got.cif
#   From: 2010.05.17/outbox.cif.g08.bks.cpg/sg12_141_cif.got.tgz:281841.got - 2010.06.03 13:09:07.
