data_PCOD9200690
_publ_section_title
;
Structure prediction by ZEFSAII (Michael W. Deem and Ramdas Pophale) SiO2 
 PCOD9200690
Probable space group: C 2/M
;
_chemical_formula_sum "Si O2"
_cell_formula_units_Z 64
_cell_length_a 26.928911
_cell_length_b 14.407285
_cell_length_c 9.041666
_cell_angle_alpha 90.000000
_cell_angle_beta 106.489786
_cell_angle_gamma 90.000000
_cell_volume 3363.638295
_symmetry_space_group_name_H-M "C 2/M"
_symmetry_group_IT_number 12
_symmetry_cell_setting 'monoclinic'
loop_
_space_group_symop_operation_xyz
x,y,z
-x,y,-z
-x,-y,-z
x,-y,z
1/2+x,1/2+y,z
1/2-x,1/2+y,-z
1/2-x,1/2-y,-z
1/2+x,1/2-y,z
loop_
_atom_site_type_symbol
_atom_site_label
_atom_site_fract_x
_atom_site_fract_y
_atom_site_fract_z
Si Si1 0.564080 0.760617 0.210270
Si Si2 0.141815 0.890378 0.272703
Si Si3 0.761488 0.888107 0.433455
Si Si4 0.871382 0.109315 0.082109
Si Si5 0.633158 0.106370 0.743952
Si Si6 0.551692 0.229886 0.847777
Si Si7 0.212963 0.773458 0.832278
Si Si8 0.144417 0.397188 0.414377
O O1 0.588342 0.660395 0.266739
O O2 0.508903 0.776051 0.240773
O O3 0.610543 0.827104 0.294417
O O4 0.555972 0.775884 0.028948
O O5 0.190809 0.864101 0.416198
O O6 0.136198 0.000000 0.282670
O O7 0.148088 0.870042 0.102605
O O8 0.762359 0.818610 0.293930
O O9 0.705746 0.877277 0.464803
O O10 0.766194 0.000000 0.400261
O O11 0.922143 0.170070 0.160664
O O12 0.827410 0.147308 0.151992
O O13 0.880095 0.000000 0.101877
O O14 0.586903 0.152626 0.798283
O O15 0.680957 0.177971 0.788599
O O16 0.621713 0.103036 0.560086
O O17 0.644529 0.000000 0.801198
O O18 0.250000 0.750000 0.000000
O O19 0.138734 0.500000 0.345339
#
# Coordination Sequence:
#
# PCOD9200690 Si02
#       8
#     8   8   8   8   8   8   8   8
#     4  10  20  37  59  85 116 146 193 241 282 344
#     4   9  19  35  59  87 116 153 189 229 282 338
#     4  10  22  39  59  86 119 150 186 232 282 339
#     4   9  19  37  58  84 117 150 190 233 279 341
#     4  10  23  41  57  80 113 149 193 239 281 338
#     4   9  21  38  58  85 114 151 189 237 295 334
#     4  11  24  36  56  87 114 155 190 225 288 334
#     4  10  23  39  59  84 111 152 195 234 284 335
#
# _framework density 19.027017000000001
#
# number of rings (size 3 to 8) (size 9 to 14) (size 15 to 20)
#    0.000    2.250    0.000    1.125    7.000    4.000 
#    0.000    5.000    0.000    0.000    0.000    7.000 
#    0.000    0.000    0.000    0.000    0.000    0.000 
#
# Total GULP energy -178376.217081 kJ/mol
# GULP energy per Si atom -5574.256784 kJ/mol
# Density = 1.898371 g / cm^3
# Si number density = 19.027017 Si / 1000 Ang^3
#
#
#
# Elastic Constant Matrix: (Units=GPa)
#
#
# Indices 1 2 3 4 5 6 
#
# 1 93.2631 35.9017 32.2596 0.0000 -3.8129 0.0000
# 2 35.9017 89.4287 29.2794 0.0000 -5.4750 0.0000
# 3 32.2596 29.2794 36.3393 0.0000 6.7026 0.0000
# 4 0.0000 0.0000 0.0000 15.1229 0.0000 -5.5169
# 5 -3.8129 -5.4750 6.7026 0.0000 25.5356 0.0000
# 6 0.0000 0.0000 0.0000 -5.5169 0.0000 12.7783
#
#
#
# Elastic Compliance Matrix: (Units=1/GPa)
#
#
# Indices 1 2 3 4 5 6 
#
# 1 0.016612 -0.001509 -0.014637 0.000000 0.005999 0.000000
# 2 -0.001509 0.016539 -0.013239 0.000000 0.006796 0.000000
# 3 -0.014637 -0.013239 0.054757 0.000000 -0.019397 0.000000
# 4 0.000000 0.000000 0.000000 0.078487 0.000000 0.033886
# 5 0.005999 0.006796 -0.019397 0.000000 0.046605 0.000000
# 6 0.000000 0.000000 0.000000 0.033886 0.000000 0.092888
#
#
# Mechanical properties :
#
#
# Convention : Reuss Voigt Hill
#
# Bulk Modulus (GPa) = 34.32150 45.99028 40.15589
# Shear Modulus (GPa) = 13.35581 18.79338 16.07459
#
# Velocity S-wave (km/s) = 2.65229 3.14621 2.90975
# Velocity P-wave (km/s) = 5.23994 6.11733 5.69555
#
# Compressibility (1/GPa) = 0.02913625
#
# Stress axis : x y z
#
# Youngs Moduli (GPa) = 60.19915 60.46469 18.26258
#
# Poissons Ratio (x) = 0.09126 0.26731
# Poissons Ratio (y) = 0.09086 0.24178
# Poissons Ratio (z) = 0.88113 0.80049
#
# Static dielectric constant tensor:
#      x y z
#    x 1.668700 0.000000 0.003100 
#    y 0.000000 1.695810 0.000000 
#    z 0.003100 0.000000 1.681770 
# 
# From -- ./inp_files/104668.got.cif
#   From: 2010.05.17/outbox.cif.g08.bks.cpg/sg12_53_cif.got.tgz:104668.got - 2010.06.03 13:09:07.
