data_PCOD9200825
_publ_section_title
;
Structure prediction by ZEFSAII (Michael W. Deem and Ramdas Pophale) SiO2 
 PCOD9200825
Probable space group: C 2/M
;
_chemical_formula_sum "Si O2"
_cell_formula_units_Z 58
_cell_length_a 27.715806
_cell_length_b 16.871215
_cell_length_c 22.599181
_cell_angle_alpha 90.000000
_cell_angle_beta 18.098601
_cell_angle_gamma 90.000000
_cell_volume 3282.784949
_symmetry_space_group_name_H-M "C 2/M"
_symmetry_group_IT_number 12
_symmetry_cell_setting 'monoclinic'
loop_
_space_group_symop_operation_xyz
x,y,z
-x,y,-z
-x,-y,-z
x,-y,z
1/2+x,1/2+y,z
1/2-x,1/2+y,-z
1/2-x,1/2-y,-z
1/2+x,1/2-y,z
loop_
_atom_site_type_symbol
_atom_site_label
_atom_site_fract_x
_atom_site_fract_y
_atom_site_fract_z
Si Si1 0.321383 0.812396 0.710379
Si Si2 0.767154 0.406553 0.893971
Si Si3 0.502684 0.767755 0.100045
Si Si4 0.480323 0.160958 0.312643
Si Si5 0.881659 0.593192 0.306523
Si Si6 0.051145 0.175652 0.714246
Si Si7 0.803818 0.143810 0.269816
Si Si8 0.500000 0.500000 0.000000
O O1 0.500000 0.784365 0.500000
O O2 0.302419 0.872879 0.787280
O O3 0.279002 0.853494 0.697541
O O4 0.185599 0.747725 0.878189
O O5 0.795448 0.500000 0.862692
O O6 0.876309 0.361685 0.813335
O O7 0.591096 0.384916 0.116124
O O8 0.458241 0.858062 0.163526
O O9 0.451180 0.721450 0.220213
O O10 0.401362 0.723395 0.168777
O O11 0.478554 0.113722 0.252982
O O12 0.474564 0.254255 0.303420
O O13 0.327255 0.137858 0.527728
O O14 0.872658 0.500000 0.307679
O O15 0.711940 0.631355 0.515429
O O16 0.919341 0.069928 0.134769
#
# Coordination Sequence:
#
# PCOD9200825 Si02
#       8
#     8   8   8   8   8   8   8   2
#     4  11  23  37  57  81 110 159 197 227 277 346
#     4  11  24  36  53  84 125 153 189 238 283 337
#     4  10  20  40  57  82 117 151 190 238 292 345
#     4  11  21  38  57  82 119 161 187 229 289 353
#     4  11  21  36  63  90 112 144 197 247 291 341
#     4  10  20  37  60  83 113 154 197 231 288 348
#     4  12  22  37  57  82 116 156 194 232 280 344
#     4  12  28  32  58  92 114 156 198 232 284 350
#
# _framework density 17.667926000000001
#
# number of rings (size 3 to 8) (size 9 to 14) (size 15 to 20)
#    0.000    1.103    5.517    2.069    2.897    0.276 
#    0.000    0.000    0.000    2.069    0.000    0.000 
#    0.000    0.000    0.000    0.000    0.000    0.000 
#
# Total GULP energy -161669.736561 kJ/mol
# GULP energy per Si atom -5574.818502 kJ/mol
# Density = 1.762771 g / cm^3
# Si number density = 17.667926 Si / 1000 Ang^3
#
#
#
# Elastic Constant Matrix: (Units=GPa)
#
#
# Indices 1 2 3 4 5 6 
#
# 1 88.6998 29.0257 0.7544 -0.0088 -7.3539 0.0045
# 2 29.0257 90.8298 2.6780 0.0012 4.0100 -0.0008
# 3 0.7544 2.6780 49.0220 -0.0099 -1.3587 0.0053
# 4 -0.0088 0.0012 -0.0099 20.4586 0.0084 3.8112
# 5 -7.3539 4.0100 -1.3587 0.0084 25.5758 -0.0049
# 6 0.0045 -0.0008 0.0053 3.8112 -0.0049 15.7159
#
#
#
# Elastic Compliance Matrix: (Units=1/GPa)
#
#
# Indices 1 2 3 4 5 6 
#
# 1 0.013075 -0.004380 0.000162 0.000005 0.004455 -0.000004
# 2 -0.004380 0.012574 -0.000710 -0.000002 -0.003269 0.000002
# 3 0.000162 -0.000710 0.020470 0.000011 0.001245 -0.000009
# 4 0.000005 -0.000002 0.000011 0.051192 -0.000017 -0.012414
# 5 0.004455 -0.003269 0.001245 -0.000017 0.040959 0.000015
# 6 -0.000004 0.000002 -0.000009 -0.012414 0.000015 0.066640
#
#
# Mechanical properties :
#
#
# Convention : Reuss Voigt Hill
#
# Bulk Modulus (GPa) = 27.57652 32.60753 30.09203
# Shear Modulus (GPa) = 22.04053 25.42296 23.73174
#
# Velocity S-wave (km/s) = 3.53581 3.79744 3.66896
# Velocity P-wave (km/s) = 5.68431 6.14193 5.91754
#
# Compressibility (1/GPa) = 0.03626273
#
# Stress axis : x y z
#
# Youngs Moduli (GPa) = 76.48089 79.52638 48.85240
#
# Poissons Ratio (x) = 0.34831 -0.00789
# Poissons Ratio (y) = 0.33497 0.03469
# Poissons Ratio (z) = -0.01235 0.05647
#
# Static dielectric constant tensor:
#      x y z
#    x 1.620740 0.000000 -0.006360 
#    y 0.000000 1.578570 0.000000 
#    z -0.006360 0.000000 1.621730 
# 
# From -- ./inp_files/328362.got.cif
#   From: 2010.05.17/outbox.cif.g08.bks.cpg/sg12_165_cif.got.tgz:328362.got - 2010.06.03 13:09:07.
