data_PCOD9200352
_publ_section_title
;
Structure prediction by ZEFSAII (Michael W. Deem and Ramdas Pophale) SiO2 
 PCOD9200352
Probable space group: C 2/M
;
_chemical_formula_sum "Si O2"
_cell_formula_units_Z 64
_cell_length_a 19.560530
_cell_length_b 7.815065
_cell_length_c 29.507057
_cell_angle_alpha 90.000000
_cell_angle_beta 144.896763
_cell_angle_gamma 90.000000
_cell_volume 2593.855800
_symmetry_space_group_name_H-M "C 2/M"
_symmetry_group_IT_number 12
_symmetry_cell_setting 'monoclinic'
loop_
_space_group_symop_operation_xyz
x,y,z
-x,y,-z
-x,-y,-z
x,-y,z
1/2+x,1/2+y,z
1/2-x,1/2+y,-z
1/2-x,1/2-y,-z
1/2+x,1/2-y,z
loop_
_atom_site_type_symbol
_atom_site_label
_atom_site_fract_x
_atom_site_fract_y
_atom_site_fract_z
Si Si1 0.421149 0.707852 0.116625
Si Si2 0.666749 0.698293 0.219186
Si Si3 0.190751 0.200343 0.038505
Si Si4 0.134146 0.803495 0.615706
Si Si5 0.299085 0.793462 0.624767
Si Si6 0.700918 0.200715 0.142367
Si Si7 0.413126 0.290350 0.548582
Si Si8 0.970975 0.796311 0.295347
O O1 0.420096 0.500000 0.116601
O O2 0.557388 0.764353 0.189924
O O3 0.331355 0.768936 0.106239
O O4 0.368897 0.769689 0.039746
O O5 0.687678 0.500000 0.240706
O O6 0.786835 0.797142 0.295804
O O7 0.636131 0.713060 0.149553
O O8 0.152545 0.275080 0.065669
O O9 0.167183 0.000000 0.027166
O O10 0.221906 0.728592 0.625533
O O11 0.006052 0.733046 0.559790
O O12 0.114719 0.000000 0.591739
O O13 0.218712 0.739158 0.537843
O O14 0.433529 0.733417 0.692457
O O15 0.302542 0.000000 0.628286
O O16 0.837436 0.269880 0.216375
O O17 0.700956 0.000000 0.152165
O O18 0.415527 0.500000 0.550577
O O19 0.465459 0.228049 0.624556
O O20 0.959090 0.000000 0.293612
#
# Coordination Sequence:
#
# PCOD9200352 Si02
#       8
#     8   8   8   8   8   8   8   8
#     4   9  21  41  62  88 122 156 188 232 289 338
#     4  11  23  39  60  85 115 153 194 238 287 340
#     4  10  21  39  64  91 119 152 193 236 278 337
#     4  10  20  37  57  82 114 149 190 236 287 340
#     4  10  21  34  57  86 110 143 192 241 282 338
#     4  11  23  40  60  84 118 157 193 236 290 343
#     4   9  17  36  59  79 108 150 191 231 285 341
#     4  10  21  37  56  78 113 153 186 231 288 342
#
# _framework density 24.673694000000001
#
# number of rings (size 3 to 8) (size 9 to 14) (size 15 to 20)
#    0.000    2.000    1.250    1.875    1.750    5.000 
#    0.000    3.125    0.000    1.500    0.000    0.000 
#    0.000    0.000    0.000    0.000    0.000    0.000 
#
# Total GULP energy -178928.774798 kJ/mol
# GULP energy per Si atom -5591.524212 kJ/mol
# Density = 2.461754 g / cm^3
# Si number density = 24.673694 Si / 1000 Ang^3
#
#
#
# Elastic Constant Matrix: (Units=GPa)
#
#
# Indices 1 2 3 4 5 6 
#
# 1 95.2784 -7.0184 -0.2389 0.0000 -0.5343 -0.0007
# 2 -7.0184 44.2037 -0.0629 -0.0001 -0.7929 -0.0015
# 3 -0.2389 -0.0629 42.9841 0.0000 1.7338 0.0002
# 4 0.0000 -0.0001 0.0000 11.8136 0.0000 -0.8157
# 5 -0.5343 -0.7929 1.7338 0.0000 45.5604 0.0000
# 6 -0.0007 -0.0015 0.0002 -0.8157 0.0000 25.8541
#
#
#
# Elastic Compliance Matrix: (Units=1/GPa)
#
#
# Indices 1 2 3 4 5 6 
#
# 1 0.010621 0.001689 0.000055 0.000000 0.000152 0.000000
# 2 0.001689 0.022898 0.000026 0.000000 0.000417 0.000001
# 3 0.000055 0.000026 0.023300 0.000000 -0.000886 0.000000
# 4 0.000000 0.000000 0.000000 0.084833 0.000000 0.002676
# 5 0.000152 0.000417 -0.000886 0.000000 0.021992 0.000000
# 6 0.000000 0.000001 0.000000 0.002676 0.000000 0.038763
#
#
# Mechanical properties :
#
#
# Convention : Reuss Voigt Hill
#
# Bulk Modulus (GPa) = 16.56701 18.64729 17.60715
# Shear Modulus (GPa) = 22.83247 29.29806 26.06526
#
# Velocity S-wave (km/s) = 3.04530 3.44964 3.25376
# Velocity P-wave (km/s) = 4.36969 4.84155 4.61166
#
# Compressibility (1/GPa) = 0.06036094
#
# Stress axis : x y z
#
# Youngs Moduli (GPa) = 94.15327 43.67140 42.91760
#
# Poissons Ratio (x) = -0.07377 -0.00238
# Poissons Ratio (y) = -0.15904 -0.00112
# Poissons Ratio (z) = -0.00521 -0.00114
#
# Static dielectric constant tensor:
#      x y z
#    x 1.974990 0.000000 -0.051240 
#    y 0.000000 1.894770 0.000000 
#    z -0.051240 0.000000 2.001120 
# 
# From -- ./inp_files/378281.got.cif
#   From: 2010.05.17/outbox.cif.g08.bks.cpg/sg12_190_cif.got.tgz:378281.got - 2010.06.03 13:09:07.
