data_PCOD9200414
_publ_section_title
;
Structure prediction by ZEFSAII (Michael W. Deem and Ramdas Pophale) SiO2 
 PCOD9200414
Probable space group: C 2/M
;
_chemical_formula_sum "Si O2"
_cell_formula_units_Z 40
_cell_length_a 10.681777
_cell_length_b 27.604611
_cell_length_c 8.877918
_cell_angle_alpha 90.000000
_cell_angle_beta 52.798234
_cell_angle_gamma 90.000000
_cell_volume 2085.106297
_symmetry_space_group_name_H-M "C 2/M"
_symmetry_group_IT_number 12
_symmetry_cell_setting 'monoclinic'
loop_
_space_group_symop_operation_xyz
x,y,z
-x,y,-z
-x,-y,-z
x,-y,z
1/2+x,1/2+y,z
1/2-x,1/2+y,-z
1/2-x,1/2-y,-z
1/2+x,1/2-y,z
loop_
_atom_site_type_symbol
_atom_site_label
_atom_site_fract_x
_atom_site_fract_y
_atom_site_fract_z
Si Si1 0.547244 0.846475 0.139508
Si Si2 0.396875 0.551398 0.924343
Si Si3 0.467308 0.053783 0.702737
Si Si4 0.563545 0.748884 0.622960
Si Si5 0.923817 0.844701 0.888294
O O1 0.477556 0.895576 0.265192
O O2 0.486572 0.797033 0.253835
O O3 0.500000 0.848407 0.000000
O O4 0.734953 0.842364 0.028367
O O5 0.416833 0.500000 0.827602
O O6 0.449192 0.600798 0.805786
O O7 0.500000 0.549758 0.000000
O O8 0.217008 0.553832 0.114881
O O9 0.500000 0.056429 0.500000
O O10 0.528269 0.000000 0.707311
O O11 0.500000 0.751886 0.500000
O O12 0.750000 0.750000 0.500000
O O13 0.494566 0.699859 0.745583
O O14 0.000000 0.842933 0.000000
#
# Coordination Sequence:
#
# PCOD9200414 Si02
#       5
#     8   8   8   8   8
#     4  11  22  37  56  80 112 146 181 222 273 329
#     4   8  15  29  52  79 104 137 178 216 257 314
#     4   9  18  33  54  81 111 142 179 223 269 318
#     4  12  24  38  57  81 109 141 183 231 278 324
#     4  10  20  37  58  79 107 144 183 223 268 327
#
# _framework density 19.183674
#
# number of rings (size 3 to 8) (size 9 to 14) (size 15 to 20)
#    0.000    2.000    0.000    4.200    0.000    3.600 
#    0.000    0.000    0.000    0.600    0.000    0.000 
#    0.000    0.000    0.000    0.000    0.000    0.000 
#
# Total GULP energy -111383.620826 kJ/mol
# GULP energy per Si atom -5569.181041 kJ/mol
# Density = 1.914001 g / cm^3
# Si number density = 19.183674 Si / 1000 Ang^3
#
#
#
# Elastic Constant Matrix: (Units=GPa)
#
#
# Indices 1 2 3 4 5 6 
#
# 1 90.6910 35.6305 26.4569 0.0000 4.6471 0.0000
# 2 35.6305 263.9541 81.7026 0.0000 11.2091 0.0000
# 3 26.4569 81.7026 52.1926 0.0000 15.8963 0.0000
# 4 0.0000 0.0000 0.0000 -154.6269 0.0000 49.3206
# 5 4.6471 11.2091 15.8963 0.0000 29.8200 0.0000
# 6 0.0000 0.0000 0.0000 49.3206 0.0000 13.0928
#
#
#
# Elastic Compliance Matrix: (Units=1/GPa)
#
#
# Indices 1 2 3 4 5 6 
#
# 1 0.013096 0.000779 -0.008533 0.000000 0.002215 0.000000
# 2 0.000779 0.007824 -0.013980 0.000000 0.004390 0.000000
# 3 -0.008533 -0.013980 0.051770 0.000000 -0.021012 0.000000
# 4 0.000000 0.000000 0.000000 -0.002938 0.000000 0.011066
# 5 0.002215 0.004390 -0.021012 0.000000 0.042740 0.000000
# 6 0.000000 0.000000 0.000000 0.011066 0.000000 0.034693
#
#
# Mechanical properties :
#
#
# Convention : Reuss Voigt Hill
#
# Bulk Modulus (GPa) = 34.22088 77.15752 55.68920
# Shear Modulus (GPa) = 24.95072 -4.80630 10.07221
#
# Velocity S-wave (km/s) = 3.61033 -1.58457 2.29386
# Velocity P-wave (km/s) = 5.93772 6.07947 6.00901
#
# Compressibility (1/GPa) = 0.02922193
#
# Stress axis : x y z
#
# Youngs Moduli (GPa) = 76.35853 127.80757 19.31621
#
# Poissons Ratio (x) = -0.09963 0.16483
# Poissons Ratio (y) = -0.05952 0.27005
# Poissons Ratio (z) = 0.65160 1.78679
#
# Static dielectric constant tensor:
#      x y z
#    x 1.652240 0.000000 -0.012380 
#    y 0.000000 1.764290 0.000000 
#    z -0.012380 0.000000 1.633300 
# 
# From -- ./inp_files/52336.got.cif
#   From: 2010.05.17/outbox.cif.g08.bks.cpg/sg12_27_cif.got.tgz:52336.got - 2010.06.03 13:09:07.
