data_PCOD9200465
_publ_section_title
;
Structure prediction by ZEFSAII (Michael W. Deem and Ramdas Pophale) SiO2 
 PCOD9200465
Probable space group: C 2/M
;
_chemical_formula_sum "Si O2"
_cell_formula_units_Z 64
_cell_length_a 14.803703
_cell_length_b 8.674693
_cell_length_c 26.726079
_cell_angle_alpha 90.000000
_cell_angle_beta 107.268008
_cell_angle_gamma 90.000000
_cell_volume 3277.402338
_symmetry_space_group_name_H-M "C 2/M"
_symmetry_group_IT_number 12
_symmetry_cell_setting 'monoclinic'
loop_
_space_group_symop_operation_xyz
x,y,z
-x,y,-z
-x,-y,-z
x,-y,z
1/2+x,1/2+y,z
1/2-x,1/2+y,-z
1/2-x,1/2-y,-z
1/2+x,1/2-y,z
loop_
_atom_site_type_symbol
_atom_site_label
_atom_site_fract_x
_atom_site_fract_y
_atom_site_fract_z
Si Si1 0.333849 0.314038 0.762489
Si Si2 0.976298 0.681011 0.053938
Si Si3 0.454051 0.813861 0.416045
Si Si4 0.338311 0.318075 0.876947
Si Si5 0.145608 0.815573 0.697645
Si Si6 0.648080 0.185806 0.498070
Si Si7 0.949487 0.812441 0.214088
Si Si8 0.330363 0.316752 0.096364
O O1 0.331086 0.500000 0.759293
O O2 0.312132 0.268910 0.816390
O O3 0.252973 0.245060 0.714459
O O4 0.441020 0.263894 0.768957
O O5 0.988874 0.500000 0.066251
O O6 0.873595 0.734051 0.055259
O O7 0.052130 0.779904 0.097296
O O8 0.000000 0.708283 0.000000
O O9 0.414400 0.744782 0.358717
O O10 0.387486 0.769195 0.452177
O O11 0.561666 0.767026 0.447242
O O12 0.452608 0.000000 0.412935
O O13 0.322238 0.500000 0.879235
O O14 0.275830 0.228597 0.906946
O O15 0.099771 0.761614 0.742694
O O16 0.145925 0.000000 0.697616
O O17 0.750000 0.250000 0.500000
O O18 0.652481 0.000000 0.497791
O O19 0.892419 0.764238 0.155081
O O20 0.948396 0.000000 0.213126
O O21 0.338654 0.500000 0.092182
#
# Coordination Sequence:
#
# PCOD9200465 Si02
#       8
#     8   8   8   8   8   8   8   8
#     4  10  20  37  58  82 113 153 193 233 286 351
#     4  11  25  43  62  88 120 153 195 248 300 354
#     4   9  20  39  57  80 117 158 191 231 289 348
#     4  11  22  38  63  91 117 153 197 239 295 357
#     4  11  22  36  56  86 120 152 192 243 289 337
#     4   9  19  37  62  85 112 151 195 239 288 341
#     4   9  19  36  56  81 113 150 190 232 287 342
#     4  11  21  39  64  88 118 154 193 243 294 351
#
# _framework density 19.527659
#
# number of rings (size 3 to 8) (size 9 to 14) (size 15 to 20)
#    0.000    1.875    2.500    2.250    0.000    4.000 
#    0.000    6.250    0.000    0.000    0.000    0.000 
#    0.000    0.000    0.000    0.000    0.000    0.000 
#
# Total GULP energy -178732.641678 kJ/mol
# GULP energy per Si atom -5585.395052 kJ/mol
# Density = 1.948321 g / cm^3
# Si number density = 19.527659 Si / 1000 Ang^3
#
#
#
# Elastic Constant Matrix: (Units=GPa)
#
#
# Indices 1 2 3 4 5 6 
#
# 1 86.9810 2.0367 -10.1951 0.0000 5.0459 0.0000
# 2 2.0367 14.3383 10.3128 0.0000 -2.5836 0.0000
# 3 -10.1951 10.3128 30.1679 0.0000 -2.5356 0.0000
# 4 0.0000 0.0000 0.0000 27.0447 0.0000 1.6954
# 5 5.0459 -2.5836 -2.5356 0.0000 18.8358 0.0000
# 6 0.0000 0.0000 0.0000 1.6954 0.0000 33.1875
#
#
#
# Elastic Compliance Matrix: (Units=1/GPa)
#
#
# Indices 1 2 3 4 5 6 
#
# 1 0.012608 -0.006991 0.006358 0.000000 -0.003480 0.000000
# 2 -0.006991 0.097732 -0.034882 0.000000 0.010582 0.000000
# 3 0.006358 -0.034882 0.047210 0.000000 -0.000133 0.000000
# 4 0.000000 0.000000 0.000000 0.037095 0.000000 -0.001895
# 5 -0.003480 0.010582 -0.000133 0.000000 0.055457 0.000000
# 6 0.000000 0.000000 0.000000 -0.001895 0.000000 0.030229
#
#
# Mechanical properties :
#
#
# Convention : Reuss Voigt Hill
#
# Bulk Modulus (GPa) = 11.55819 15.08843 13.32331
# Shear Modulus (GPa) = 13.15098 24.43579 18.79339
#
# Velocity S-wave (km/s) = 2.59791 3.54127 3.10562
# Velocity P-wave (km/s) = 3.86401 4.94614 4.43818
#
# Compressibility (1/GPa) = 0.08651876
#
# Stress axis : x y z
#
# Youngs Moduli (GPa) = 79.31726 10.23203 21.18207
#
# Poissons Ratio (x) = 0.07153 -0.13468
# Poissons Ratio (y) = 0.55450 0.73888
# Poissons Ratio (z) = -0.50430 0.35692
#
# Static dielectric constant tensor:
#      x y z
#    x 1.673530 0.000000 -0.004990 
#    y 0.000000 1.652530 0.000000 
#    z -0.004990 0.000000 1.672690 
# 
# From -- ./inp_files/375075.got.cif
#   From: 2010.05.17/outbox.cif.g08.bks.cpg/sg12_188_cif.got.tgz:375075.got - 2010.06.03 13:09:07.
