data_PCOD9200628
_publ_section_title
;
Structure prediction by ZEFSAII (Michael W. Deem and Ramdas Pophale) SiO2 
 PCOD9200628
Probable space group: C 2/M
;
_chemical_formula_sum "Si O2"
_cell_formula_units_Z 52
_cell_length_a 8.958077
_cell_length_b 26.834897
_cell_length_c 22.977104
_cell_angle_alpha 90.000000
_cell_angle_beta 149.324972
_cell_angle_gamma 90.000000
_cell_volume 2817.885357
_symmetry_space_group_name_H-M "C 2/M"
_symmetry_group_IT_number 12
_symmetry_cell_setting 'monoclinic'
loop_
_space_group_symop_operation_xyz
x,y,z
-x,y,-z
-x,-y,-z
x,-y,z
1/2+x,1/2+y,z
1/2-x,1/2+y,-z
1/2-x,1/2-y,-z
1/2+x,1/2-y,z
loop_
_atom_site_type_symbol
_atom_site_label
_atom_site_fract_x
_atom_site_fract_y
_atom_site_fract_z
Si Si1 0.188517 0.734222 0.226998
Si Si2 0.242754 0.817440 0.870190
Si Si3 0.569819 0.000000 0.789708
Si Si4 0.837870 0.418536 0.624615
Si Si5 0.350896 0.500000 0.072864
Si Si6 0.752135 0.500000 0.804615
Si Si7 0.277035 0.803384 0.633232
Si Si8 0.418262 0.578998 0.757086
O O1 0.141303 0.699229 0.154741
O O2 0.455717 0.769485 0.297964
O O3 0.270138 0.705685 0.313917
O O4 0.919693 0.770283 0.154305
O O5 0.022631 0.864070 0.790431
O O6 0.500000 0.832898 0.000000
O O7 0.458815 0.952482 0.716515
O O8 0.416547 0.000000 0.799551
O O9 0.920882 0.000000 0.904083
O O10 0.500000 0.431672 0.500000
O O11 0.847154 0.360907 0.645421
O O12 0.069489 0.425353 0.649541
O O13 0.437430 0.548529 0.140225
O O14 0.019382 0.500000 0.940706
O O15 0.549187 0.548137 0.747159
O O16 0.000000 0.790455 0.500000
#
# Coordination Sequence:
#
# PCOD9200628 Si02
#       8
#     8   8   4   8   4   4   8   8
#     4  10  22  36  58  85 116 146 200 232 281 342
#     4  11  21  37  57  83 119 155 186 232 288 339
#     4  10  22  35  60  85 118 141 188 230 280 344
#     4  10  21  40  60  78 112 153 187 226 295 346
#     4   9  19  38  58  85 111 155 182 223 285 339
#     4  11  21  35  59  88 117 140 187 241 272 333
#     4  10  20  38  61  83 113 149 192 240 287 330
#     4  10  20  37  59  83 111 150 190 230 283 341
#
# _framework density 18.453552999999999
#
# number of rings (size 3 to 8) (size 9 to 14) (size 15 to 20)
#    0.000    1.846    1.538    3.692    2.154    0.000 
#    0.000    1.538    0.000    0.000    0.000    0.000 
#    0.000    0.000    0.000    0.000    0.000    0.000 
#
# Total GULP energy -145009.151036 kJ/mol
# GULP energy per Si atom -5577.275040 kJ/mol
# Density = 1.841155 g / cm^3
# Si number density = 18.453553 Si / 1000 Ang^3
#
#
#
# Elastic Constant Matrix: (Units=GPa)
#
#
# Indices 1 2 3 4 5 6 
#
# 1 140.9774 18.6208 23.7578 0.0008 10.1386 -0.0006
# 2 18.6208 44.8780 5.4477 0.0006 8.0432 -0.0006
# 3 23.7578 5.4477 58.9065 -0.0022 17.6520 -0.0035
# 4 0.0008 0.0006 -0.0022 14.6446 -0.0051 10.0429
# 5 10.1386 8.0432 17.6520 -0.0051 29.4856 0.0010
# 6 -0.0006 -0.0006 -0.0035 10.0429 0.0010 23.3677
#
#
#
# Elastic Compliance Matrix: (Units=1/GPa)
#
#
# Indices 1 2 3 4 5 6 
#
# 1 0.007981 -0.002922 -0.002882 -0.000001 -0.000222 0.000000
# 2 -0.002922 0.024502 0.000749 -0.000005 -0.006127 0.000003
# 3 -0.002882 0.000749 0.021732 -0.000005 -0.012224 0.000006
# 4 -0.000001 -0.000005 -0.000005 0.096820 0.000023 -0.041611
# 5 -0.000222 -0.006127 -0.012224 0.000023 0.042980 -0.000014
# 6 0.000000 0.000003 0.000006 -0.041611 -0.000014 0.060678
#
#
# Mechanical properties :
#
#
# Convention : Reuss Voigt Hill
#
# Bulk Modulus (GPa) = 22.67345 37.82386 30.24865
# Shear Modulus (GPa) = 17.88870 26.62860 22.25865
#
# Velocity S-wave (km/s) = 3.11688 3.80281 3.47681
# Velocity P-wave (km/s) = 5.02660 6.31056 5.70482
#
# Compressibility (1/GPa) = 0.04410445
#
# Stress axis : x y z
#
# Youngs Moduli (GPa) = 125.29892 40.81260 46.01473
#
# Poissons Ratio (x) = 0.11925 0.13262
# Poissons Ratio (y) = 0.36610 -0.03444
# Poissons Ratio (z) = 0.36113 -0.03055
#
# Static dielectric constant tensor:
#      x y z
#    x 1.656590 0.000010 0.007490 
#    y 0.000010 1.609350 0.000010 
#    z 0.007490 0.000010 1.627140 
# 
# From -- ./inp_files/123726.got.cif
#   From: 2010.05.17/outbox.cif.g08.bks.cpg/sg12_62_cif.got.tgz:123726.got - 2010.06.03 13:09:07.
