data_PCOD9200917
_publ_section_title
;
Structure prediction by ZEFSAII (Michael W. Deem and Ramdas Pophale) SiO2 
 PCOD9200917
Probable space group: C 2/M
;
_chemical_formula_sum "Si O2"
_cell_formula_units_Z 48
_cell_length_a 19.179499
_cell_length_b 14.136112
_cell_length_c 19.062325
_cell_angle_alpha 90.000000
_cell_angle_beta 148.718802
_cell_angle_gamma 90.000000
_cell_volume 2683.552827
_symmetry_space_group_name_H-M "C 2/M"
_symmetry_group_IT_number 12
_symmetry_cell_setting 'monoclinic'
loop_
_space_group_symop_operation_xyz
x,y,z
-x,y,-z
-x,-y,-z
x,-y,z
1/2+x,1/2+y,z
1/2-x,1/2+y,-z
1/2-x,1/2-y,-z
1/2+x,1/2-y,z
loop_
_atom_site_type_symbol
_atom_site_label
_atom_site_fract_x
_atom_site_fract_y
_atom_site_fract_z
Si Si1 0.779911 0.000000 0.937822
Si Si2 0.479059 0.500000 0.320923
Si Si3 0.787319 0.683067 0.208566
Si Si4 0.040020 0.805985 0.452640
Si Si5 0.419324 0.500000 0.751308
Si Si6 0.047128 0.678049 0.963338
Si Si7 0.199954 0.190904 0.292358
Si Si8 0.677884 0.000000 0.008980
O O1 0.729723 0.908968 0.852763
O O2 0.722424 0.000000 0.966797
O O3 0.942208 0.000000 0.084291
O O4 0.526797 0.405608 0.401895
O O5 0.537688 0.500000 0.292808
O O6 0.316321 0.500000 0.173460
O O7 0.753317 0.662493 0.260728
O O8 0.931273 0.732635 0.328631
O O9 0.677197 0.757818 0.087936
O O10 0.184658 0.756000 0.574580
O O11 0.000000 0.820981 0.500000
O O12 0.338686 0.595447 0.700400
O O13 0.090644 0.591338 0.953044
O O14 0.931042 0.743928 0.831687
O O15 0.000000 0.644178 0.000000
#
# Coordination Sequence:
#
# PCOD9200917 Si02
#       8
#     4   4   8   8   4   8   8   4
#     4  11  23  36  60  89 120 157 191 236 291 353
#     4  11  23  39  60  84 120 161 191 234 293 355
#     4  10  20  38  62  87 114 154 199 236 286 341
#     4  10  22  41  62  86 115 153 197 240 291 345
#     4  11  23  38  58  89 120 155 193 236 299 343
#     4  10  20  37  60  86 115 150 194 245 285 328
#     4  10  22  38  62  88 117 151 195 248 285 339
#     4  11  23  37  58  90 122 153 193 238 289 349
#
# _framework density 17.886735999999999
#
# number of rings (size 3 to 8) (size 9 to 14) (size 15 to 20)
#    0.000    1.667    3.333    1.000    0.000    4.667 
#    0.000    4.167    0.000    0.000    0.000    0.000 
#    0.000    0.000    0.000    0.000    0.000    0.000 
#
# Total GULP energy -134042.613703 kJ/mol
# GULP energy per Si atom -5585.108904 kJ/mol
# Density = 1.784602 g / cm^3
# Si number density = 17.886736 Si / 1000 Ang^3
#
#
#
# Elastic Constant Matrix: (Units=GPa)
#
#
# Indices 1 2 3 4 5 6 
#
# 1 48.0448 51.1197 21.7124 -0.0002 -2.9093 0.0003
# 2 51.1197 106.6327 30.9589 -0.0004 -18.1746 0.0005
# 3 21.7124 30.9589 100.7366 -0.0004 -4.4822 0.0005
# 4 -0.0002 -0.0004 -0.0004 66.2795 -0.0002 -82.5833
# 5 -2.9093 -18.1746 -4.4822 -0.0002 16.3821 0.0002
# 6 0.0003 0.0005 0.0005 -82.5833 0.0002 167.1064
#
#
#
# Elastic Compliance Matrix: (Units=1/GPa)
#
#
# Indices 1 2 3 4 5 6 
#
# 1 0.048689 -0.025926 -0.003464 0.000000 -0.021064 0.000000
# 2 -0.025926 0.026355 -0.001433 0.000000 0.024242 0.000000
# 3 -0.003464 -0.001433 0.011151 0.000000 0.000846 0.000000
# 4 0.000000 0.000000 0.000000 0.039266 0.000000 0.019405
# 5 -0.021064 0.024242 0.000846 0.000000 0.084428 0.000000
# 6 0.000000 0.000000 0.000000 0.019405 0.000000 0.015574
#
#
# Mechanical properties :
#
#
# Convention : Reuss Voigt Hill
#
# Bulk Modulus (GPa) = 40.73315 51.44402 46.08858
# Shear Modulus (GPa) = 16.93241 60.06180 38.49711
#
# Velocity S-wave (km/s) = 3.08010 5.80102 4.64429
# Velocity P-wave (km/s) = 5.95581 8.58444 7.38797
#
# Compressibility (1/GPa) = 0.02455003
#
# Stress axis : x y z
#
# Youngs Moduli (GPa) = 20.53854 37.94388 89.67441
#
# Poissons Ratio (x) = 0.98373 0.31061
# Poissons Ratio (y) = 0.53248 0.12849
# Poissons Ratio (z) = 0.07114 0.05437
#
# Static dielectric constant tensor:
#      x y z
#    x 1.601070 0.000000 -0.000130 
#    y 0.000000 2.102670 0.000000 
#    z -0.000130 0.000000 1.603630 
# 
# From -- ./inp_files/154279.got.cif
#   From: 2010.05.17/outbox.cif.g08.bks.cpg/sg12_78_cif.got.tgz:154279.got - 2010.06.03 13:09:07.
