data_PCOD9200726
_publ_section_title
;
Structure prediction by ZEFSAII (Michael W. Deem and Ramdas Pophale) SiO2 
 PCOD9200726
Probable space group: C 2/M
;
_chemical_formula_sum "Si O2"
_cell_formula_units_Z 58
_cell_length_a 22.333393
_cell_length_b 8.100351
_cell_length_c 18.630257
_cell_angle_alpha 90.000000
_cell_angle_beta 129.438917
_cell_angle_gamma 90.000000
_cell_volume 2602.943264
_symmetry_space_group_name_H-M "C 2/M"
_symmetry_group_IT_number 12
_symmetry_cell_setting 'monoclinic'
loop_
_space_group_symop_operation_xyz
x,y,z
-x,y,-z
-x,-y,-z
x,-y,z
1/2+x,1/2+y,z
1/2-x,1/2+y,-z
1/2-x,1/2-y,-z
1/2+x,1/2-y,z
loop_
_atom_site_type_symbol
_atom_site_label
_atom_site_fract_x
_atom_site_fract_y
_atom_site_fract_z
Si Si1 0.058515 0.188456 0.964711
Si Si2 0.365385 0.197150 0.547650
Si Si3 0.331185 0.190181 0.831365
Si Si4 0.824340 0.681283 0.237450
Si Si5 0.523221 0.682028 0.600020
Si Si6 0.208019 0.698994 0.358337
Si Si7 0.500000 0.000000 0.000000
Si Si8 0.165780 0.193916 0.909569
O O1 0.122387 0.199235 0.077159
O O2 0.006697 0.347689 0.943269
O O3 0.026107 0.000000 0.938868
O O4 0.103387 0.218405 0.924539
O O5 0.447854 0.266905 0.587165
O O6 0.296445 0.244901 0.439952
O O7 0.339084 0.256328 0.607075
O O8 0.370060 0.000000 0.553118
O O9 0.241898 0.193115 0.788750
O O10 0.327854 0.245509 0.745984
O O11 0.363189 0.000000 0.865136
O O12 0.790282 0.500000 0.221461
O O13 0.848755 0.709060 0.174162
O O14 0.903548 0.700210 0.340020
O O15 0.500000 0.673978 0.500000
O O16 0.549077 0.500000 0.644454
O O17 0.208706 0.500000 0.358392
O O18 0.168364 0.000000 0.895542
O O19 0.250000 0.250000 0.000000
#
# Coordination Sequence:
#
# PCOD9200726 Si02
#       8
#     8   8   8   8   8   8   2   8
#     4  11  25  45  69 100 133 176 228 274 332 406
#     4  10  20  37  59  87 120 159 207 263 317 377
#     4  11  21  39  64  92 126 168 214 266 326 389
#     4  12  25  39  63  97 130 166 215 273 335 401
#     4  11  24  42  61  86 125 170 211 260 330 399
#     4   9  20  37  60  87 120 163 211 255 314 384
#     4  12  26  48  72  94 136 184 214 274 336 402
#     4  11  23  41  68  98 132 169 217 278 335 397
#
# _framework density 22.28247
#
# number of rings (size 3 to 8) (size 9 to 14) (size 15 to 20)
#    0.000    1.241    2.069    3.931    1.931    6.069 
#    2.483    0.000    0.000    0.000    0.000    0.000 
#    0.000    0.000    0.000    0.000    0.000    0.000 
#
# Total GULP energy -161924.719228 kJ/mol
# GULP energy per Si atom -5583.611008 kJ/mol
# Density = 2.223175 g / cm^3
# Si number density = 22.282470 Si / 1000 Ang^3
#
#
#
# Elastic Constant Matrix: (Units=GPa)
#
#
# Indices 1 2 3 4 5 6 
#
# 1 88.3538 26.0820 -7.6801 0.0000 0.2187 0.0000
# 2 26.0820 104.8391 6.7377 0.0000 4.6980 0.0000
# 3 -7.6801 6.7377 64.7660 0.0000 -17.1494 0.0000
# 4 0.0000 0.0000 0.0000 34.5050 0.0000 13.7781
# 5 0.2187 4.6980 -17.1494 0.0000 26.6771 0.0000
# 6 0.0000 0.0000 0.0000 13.7781 0.0000 55.9737
#
#
#
# Elastic Compliance Matrix: (Units=1/GPa)
#
#
# Indices 1 2 3 4 5 6 
#
# 1 0.012509 -0.003354 0.002364 0.000000 0.002008 0.000000
# 2 -0.003354 0.010680 -0.002410 0.000000 -0.003402 0.000000
# 3 0.002364 -0.002410 0.019377 0.000000 0.012861 0.000000
# 4 0.000000 0.000000 0.000000 0.032140 0.000000 -0.007911
# 5 0.002008 -0.003402 0.012861 0.000000 0.046336 0.000000
# 6 0.000000 0.000000 0.000000 -0.007911 0.000000 0.019813
#
#
# Mechanical properties :
#
#
# Convention : Reuss Voigt Hill
#
# Bulk Modulus (GPa) = 27.95938 34.24868 31.10403
# Shear Modulus (GPa) = 31.33297 38.95244 35.14271
#
# Velocity S-wave (km/s) = 3.75396 4.18559 3.97564
# Velocity P-wave (km/s) = 5.60041 6.22595 5.92145
#
# Compressibility (1/GPa) = 0.03576617
#
# Stress axis : x y z
#
# Youngs Moduli (GPa) = 79.94450 93.63187 51.60826
#
# Poissons Ratio (x) = 0.31402 -0.12199
# Poissons Ratio (y) = 0.26812 0.12436
# Poissons Ratio (z) = -0.18897 0.22562
#
# Static dielectric constant tensor:
#      x y z
#    x 1.753480 0.000000 -0.046960 
#    y 0.000000 1.802600 0.000000 
#    z -0.046960 0.000000 1.725490 
# 
# From -- ./inp_files/282196.got.cif
#   From: 2010.05.17/outbox.cif.g08.bks.cpg/sg12_142_cif.got.tgz:282196.got - 2010.06.03 13:09:07.
