data_PCOD9200081
_publ_section_title
;
Structure prediction by ZEFSAII (Michael W. Deem and Ramdas Pophale) SiO2 
 PCOD9200081
Probable space group: C 2/M
;
_chemical_formula_sum "Si O2"
_cell_formula_units_Z 56
_cell_length_a 16.895803
_cell_length_b 18.397170
_cell_length_c 15.092718
_cell_angle_alpha 90.000000
_cell_angle_beta 30.282153
_cell_angle_gamma 90.000000
_cell_volume 2365.651045
_symmetry_space_group_name_H-M "C 2/M"
_symmetry_group_IT_number 12
_symmetry_cell_setting 'monoclinic'
loop_
_space_group_symop_operation_xyz
x,y,z
-x,y,-z
-x,-y,-z
x,-y,z
1/2+x,1/2+y,z
1/2-x,1/2+y,-z
1/2-x,1/2-y,-z
1/2+x,1/2-y,z
loop_
_atom_site_type_symbol
_atom_site_label
_atom_site_fract_x
_atom_site_fract_y
_atom_site_fract_z
Si Si1 0.770045 0.865730 0.443241
Si Si2 0.995332 0.727895 0.236645
Si Si3 0.203384 0.087683 0.116362
Si Si4 0.449570 0.082706 0.150072
Si Si5 0.689654 0.914906 0.323451
Si Si6 0.609629 0.419892 0.505980
Si Si7 0.280017 0.315383 0.073842
O O1 0.872989 0.793809 0.357498
O O2 0.603705 0.844951 0.648941
O O3 0.744104 0.890155 0.368358
O O4 0.855090 0.923265 0.422645
O O5 0.121515 0.724391 0.194027
O O6 0.088854 0.752880 0.058044
O O7 0.068702 0.109970 0.318716
O O8 0.191002 0.000000 0.120580
O O9 0.382705 0.104522 0.969049
O O10 0.181276 0.128201 0.043723
O O11 0.271690 0.117604 0.317312
O O12 0.421592 0.000000 0.212034
O O13 0.500000 0.078484 0.000000
O O14 0.500000 0.909685 0.500000
O O15 0.760629 0.860903 0.181386
O O16 0.731084 0.000000 0.268489
O O17 0.606106 0.500000 0.469522
#
# Coordination Sequence:
#
# PCOD9200081 Si02
#       7
#     8   8   8   8   8   8   8
#     4  11  21  43  65  94 131 176 224 277 337 426
#     4  10  23  38  68  82 123 190 229 260 325 409
#     4  10  20  36  63  94 127 167 213 272 352 427
#     4   9  19  34  56  85 120 161 206 262 327 391
#     4  11  24  41  71 113 145 173 222 301 381 426
#     4  10  20  36  63  94 127 167 213 272 352 427
#     4  11  21  43  65  94 131 176 224 277 337 426
#
# _framework density 23.672132000000001
#
# number of rings (size 3 to 8) (size 9 to 14) (size 15 to 20)
#    0.000    1.714    2.857    1.714    0.000    1.143 
#    0.000    3.571   31.429    0.000    0.000    0.000 
#    0.000    0.000    0.000    0.000    0.000    0.000 
#
# Total GULP energy -155928.238078 kJ/mol
# GULP energy per Si atom -5568.865646 kJ/mol
# Density = 2.361825 g / cm^3
# Si number density = 23.672132 Si / 1000 Ang^3
#
#
#
# Elastic Constant Matrix: (Units=GPa)
#
#
# Indices 1 2 3 4 5 6 
#
# 1 77.1081 18.7730 55.5326 -0.1375 0.5354 -0.0656
# 2 18.7730 108.3374 33.1648 -0.3103 2.9848 -0.1442
# 3 55.5326 33.1648 157.5386 -0.5168 -33.8944 -0.2376
# 4 -0.1375 -0.3103 -0.5168-2811.5323 0.2460-1332.0149
# 5 0.5354 2.9848 -33.8944 0.2460 30.1288 0.1152
# 6 -0.0656 -0.1442 -0.2376-1332.0149 0.1152 -595.2688
#
#
#
# Elastic Compliance Matrix: (Units=1/GPa)
#
#
# Indices 1 2 3 4 5 6 
#
# 1 0.019730 -0.000316 -0.009179 -0.000001 -0.010645 0.000002
# 2 -0.000316 0.010328 -0.003011 -0.000001 -0.004404 0.000000
# 3 -0.009179 -0.003011 0.013610 0.000001 0.015773 -0.000002
# 4 -0.000001 -0.000001 0.000001 0.005914 0.000003 -0.013235
# 5 -0.010645 -0.004404 0.015773 0.000003 0.051560 -0.000001
# 6 0.000002 0.000000 -0.000002 -0.013235 -0.000001 0.027935
#
#
# Mechanical properties :
#
#
# Convention : Reuss Voigt Hill
#
# Bulk Modulus (GPa) = 53.59474 61.99165 57.79319
# Shear Modulus (GPa) = 31.19000 -659.63355 -314.22177
#
# Velocity S-wave (km/s) = 3.63379 -16.71104 -11.53375
# Velocity P-wave (km/s) = 6.34787 18.60379 12.36538
#
# Compressibility (1/GPa) = 0.01865855
#
# Stress axis : x y z
#
# Youngs Moduli (GPa) = 50.68419 96.82343 73.47302
#
# Poissons Ratio (x) = 0.03057 0.67439
# Poissons Ratio (y) = 0.01600 0.22119
# Poissons Ratio (z) = 0.46521 0.29149
#
# Static dielectric constant tensor:
#      x y z
#    x 1.950290 0.000000 0.011000 
#    y 0.000000 1.997290 0.000000 
#    z 0.011000 0.000000 2.013600 
# 
# From -- ./inp_files/227580.got.cif
#   From: 2010.05.17/outbox.cif.g08.bks.cpg/sg12_114_cif.got.tgz:227580.got - 2010.06.03 13:09:07.
