data_PCOD9200228
_publ_section_title
;
Structure prediction by ZEFSAII (Michael W. Deem and Ramdas Pophale) SiO2 
 PCOD9200228
Probable space group: C 2/M
;
_chemical_formula_sum "Si O2"
_cell_formula_units_Z 64
_cell_length_a 23.139884
_cell_length_b 22.837911
_cell_length_c 8.288320
_cell_angle_alpha 90.000000
_cell_angle_beta 55.724402
_cell_angle_gamma 90.000000
_cell_volume 3619.444366
_symmetry_space_group_name_H-M "C 2/M"
_symmetry_group_IT_number 12
_symmetry_cell_setting 'monoclinic'
loop_
_space_group_symop_operation_xyz
x,y,z
-x,y,-z
-x,-y,-z
x,-y,z
1/2+x,1/2+y,z
1/2-x,1/2+y,-z
1/2-x,1/2-y,-z
1/2+x,1/2-y,z
loop_
_atom_site_type_symbol
_atom_site_label
_atom_site_fract_x
_atom_site_fract_y
_atom_site_fract_z
Si Si1 0.570342 0.897361 0.488600
Si Si2 0.283770 0.931224 0.895500
Si Si3 0.094531 0.740691 0.990227
Si Si4 0.708016 0.322179 0.916108
Si Si5 0.424720 0.065779 0.167963
Si Si6 0.692045 0.136575 0.827002
Si Si7 0.308104 0.281713 0.686490
Si Si8 0.560666 0.770276 0.666551
O O1 0.500000 0.907368 0.500000
O O2 0.638207 0.913471 0.280449
O O3 0.573130 0.935858 0.644375
O O4 0.569817 0.831037 0.556969
O O5 0.230982 0.889425 0.879522
O O6 0.272065 0.000000 0.895078
O O7 0.281041 0.909811 0.084866
O O8 0.138827 0.799997 0.935541
O O9 0.142502 0.687552 0.982852
O O10 0.082132 0.725913 0.821572
O O11 0.021486 0.744415 0.198137
O O12 0.770687 0.281768 0.748472
O O13 0.696167 0.304287 0.122591
O O14 0.358448 0.102751 0.215021
O O15 0.421216 0.000000 0.103983
O O16 0.500000 0.092707 0.000000
O O17 0.758465 0.174204 0.662798
O O18 0.386095 0.274983 0.499428
#
# Coordination Sequence:
#
# PCOD9200228 Si02
#       8
#     8   8   8   8   8   8   8   8
#     4  12  24  34  51  74 110 140 185 221 261 310
#     4  11  22  37  55  76 106 146 185 220 261 311
#     4  10  21  34  55  79 115 136 179 216 280 320
#     4   9  19  36  52  80 106 139 176 227 261 327
#     4  11  22  36  51  70 102 145 188 221 254 301
#     4  10  20  37  54  77 105 143 178 226 262 321
#     4   9  19  33  55  77 109 133 175 218 281 313
#     4  11  21  34  53  84 105 146 169 221 272 333
#
# _framework density 17.682271
#
# number of rings (size 3 to 8) (size 9 to 14) (size 15 to 20)
#    0.000    1.625    2.500    3.750    1.750    5.000 
#    0.000    0.000    0.000    0.000    0.000    9.625 
#    0.000    0.000    0.000    0.000    0.000    0.000 
#
# Total GULP energy -178586.883412 kJ/mol
# GULP energy per Si atom -5580.840107 kJ/mol
# Density = 1.764203 g / cm^3
# Si number density = 17.682271 Si / 1000 Ang^3
#
#
#
# Elastic Constant Matrix: (Units=GPa)
#
#
# Indices 1 2 3 4 5 6 
#
# 1 62.2405 50.0422 -0.4170 0.0000 -8.4671 0.0000
# 2 50.0422 119.6633 22.1436 0.0000 -12.6995 0.0000
# 3 -0.4170 22.1436 45.4011 0.0000 -18.3540 0.0000
# 4 0.0000 0.0000 0.0000 28.0208 0.0000 -17.5307
# 5 -8.4671 -12.6995 -18.3540 0.0000 27.2200 0.0000
# 6 0.0000 0.0000 0.0000 -17.5307 0.0000 47.6070
#
#
#
# Elastic Compliance Matrix: (Units=1/GPa)
#
#
# Indices 1 2 3 4 5 6 
#
# 1 0.027306 -0.012273 0.010112 0.000000 0.009586 0.000000
# 2 -0.012273 0.014762 -0.008347 0.000000 -0.002559 0.000000
# 3 0.010112 -0.008347 0.035588 0.000000 0.023248 0.000000
# 4 0.000000 0.000000 0.000000 0.046371 0.000000 0.017076
# 5 0.009586 -0.002559 0.023248 0.000000 0.054201 0.000000
# 6 0.000000 0.000000 0.000000 0.017076 0.000000 0.027293
#
#
# Mechanical properties :
#
#
# Convention : Reuss Voigt Hill
#
# Bulk Modulus (GPa) = 17.65517 41.20471 29.42994
# Shear Modulus (GPa) = 20.37334 30.93863 25.65599
#
# Velocity S-wave (km/s) = 3.39808 4.18748 3.81326
# Velocity P-wave (km/s) = 5.04006 6.83618 6.00565
#
# Compressibility (1/GPa) = 0.05664062
#
# Stress axis : x y z
#
# Youngs Moduli (GPa) = 36.62146 67.73948 28.09927
#
# Poissons Ratio (x) = 0.83138 -0.28415
# Poissons Ratio (y) = 0.44946 0.23455
# Poissons Ratio (z) = -0.37033 0.56544
#
# Static dielectric constant tensor:
#      x y z
#    x 1.637910 0.000000 0.035050 
#    y 0.000000 1.629140 0.000000 
#    z 0.035050 0.000000 1.679880 
# 
# From -- ./inp_files/99084.got.cif
#   From: 2010.05.17/outbox.cif.g08.bks.cpg/sg12_50_cif.got.tgz:99084.got - 2010.06.03 13:09:07.
