data_PCOD9200248
_publ_section_title
;
Structure prediction by ZEFSAII (Michael W. Deem and Ramdas Pophale) SiO2 
 PCOD9200248
Probable space group: C 2/M
;
_chemical_formula_sum "Si O2"
_cell_formula_units_Z 60
_cell_length_a 11.336412
_cell_length_b 30.010230
_cell_length_c 7.280608
_cell_angle_alpha 90.000000
_cell_angle_beta 77.674998
_cell_angle_gamma 90.000000
_cell_volume 2419.836660
_symmetry_space_group_name_H-M "C 2/M"
_symmetry_group_IT_number 12
_symmetry_cell_setting 'monoclinic'
loop_
_space_group_symop_operation_xyz
x,y,z
-x,y,-z
-x,-y,-z
x,-y,z
1/2+x,1/2+y,z
1/2-x,1/2+y,-z
1/2-x,1/2-y,-z
1/2+x,1/2-y,z
loop_
_atom_site_type_symbol
_atom_site_label
_atom_site_fract_x
_atom_site_fract_y
_atom_site_fract_z
Si Si1 0.037595 0.281688 0.268307
Si Si2 0.727296 0.551110 0.334413
Si Si3 0.145000 0.050050 0.942423
Si Si4 0.499159 0.050124 0.219352
Si Si5 0.000000 0.109335 0.500000
Si Si6 0.383645 0.128342 0.660308
Si Si7 0.289163 0.254661 0.269189
Si Si8 0.639249 0.646089 0.746386
O O1 0.090955 0.330870 0.210269
O O2 0.158310 0.250598 0.211728
O O3 0.000000 0.278614 0.500000
O O4 0.910213 0.274879 0.208194
O O5 0.717809 0.500000 0.399013
O O6 0.865055 0.565539 0.323371
O O7 0.617373 0.578544 0.455027
O O8 0.703404 0.551459 0.124373
O O9 0.153906 0.101303 0.862463
O O10 0.182819 0.000000 0.851501
O O11 0.000000 0.046032 0.000000
O O12 0.607625 0.080419 0.250575
O O13 0.514485 0.000000 0.279457
O O14 0.500000 0.050122 0.000000
O O15 0.018596 0.139908 0.670728
O O16 0.500000 0.128977 0.500000
O O17 0.264428 0.141387 0.590329
O O18 0.250000 0.250000 0.500000
O O19 0.345003 0.303383 0.197263
#
# Coordination Sequence:
#
# PCOD9200248 Si02
#       8
#     8   8   8   8   4   8   8   8
#     4   8  16  31  52  77 110 148 185 233 290 356
#     4  10  21  37  57  83 120 160 202 253 302 353
#     4  10  20  39  59  80 118 167 204 236 298 366
#     4  10  21  38  59  83 112 155 206 245 286 355
#     4  12  23  34  54  92 122 148 198 258 309 354
#     4  10  20  37  55  82 117 151 191 239 296 350
#     4   9  18  33  54  84 117 149 191 243 296 363
#     4  11  23  35  58  90 119 155 202 247 296 358
#
# _framework density 24.795061
#
# number of rings (size 3 to 8) (size 9 to 14) (size 15 to 20)
#    0.000    2.133    1.333    2.600    2.800    2.400 
#    0.000    0.000    0.000    0.800    0.000    7.467 
#    0.000    0.000    0.000    0.000    0.000    0.000 
#
# Total GULP energy -167070.748769 kJ/mol
# GULP energy per Si atom -5569.024959 kJ/mol
# Density = 2.473863 g / cm^3
# Si number density = 24.795061 Si / 1000 Ang^3
#
#
#
# Elastic Constant Matrix: (Units=GPa)
#
#
# Indices 1 2 3 4 5 6 
#
# 1 133.2218 25.9382 -8.7420 0.0000 -7.0939 0.0000
# 2 25.9382 103.3766 9.5505 0.0000 -1.2338 0.0000
# 3 -8.7420 9.5505 33.3514 0.0000 1.9276 0.0000
# 4 0.0000 0.0000 0.0000 14.6688 0.0000 5.4981
# 5 -7.0939 -1.2338 1.9276 0.0000 31.2232 0.0000
# 6 0.0000 0.0000 0.0000 5.4981 0.0000 18.1814
#
#
#
# Elastic Compliance Matrix: (Units=1/GPa)
#
#
# Indices 1 2 3 4 5 6 
#
# 1 0.008217 -0.002294 0.002718 0.000000 0.001608 0.000000
# 2 -0.002294 0.010587 -0.003640 0.000000 0.000122 0.000000
# 3 0.002718 -0.003640 0.031825 0.000000 -0.001491 0.000000
# 4 0.000000 0.000000 0.000000 0.076886 0.000000 -0.023251
# 5 0.001608 0.000122 -0.001491 0.000000 0.032490 0.000000
# 6 0.000000 0.000000 0.000000 -0.023251 0.000000 0.062032
#
#
# Mechanical properties :
#
#
# Convention : Reuss Voigt Hill
#
# Bulk Modulus (GPa) = 22.62625 35.93814 29.28219
# Shear Modulus (GPa) = 20.55921 29.02823 24.79372
#
# Velocity S-wave (km/s) = 2.88265 3.42530 3.16562
# Velocity P-wave (km/s) = 4.49718 5.49264 5.01965
#
# Compressibility (1/GPa) = 0.04419645
#
# Stress axis : x y z
#
# Youngs Moduli (GPa) = 121.70177 94.45930 31.42223
#
# Poissons Ratio (x) = 0.21665 -0.08539
# Poissons Ratio (y) = 0.27913 0.11437
# Poissons Ratio (z) = -0.33074 0.34381
#
# Static dielectric constant tensor:
#      x y z
#    x 2.110970 0.000000 0.008990 
#    y 0.000000 2.109340 0.000000 
#    z 0.008990 0.000000 2.094460 
# 
# From -- ./inp_files/54681.got.cif
#   From: 2010.05.17/outbox.cif.g08.bks.cpg/sg12_28_cif.got.tgz:54681.got - 2010.06.03 13:09:07.
