data_PCOD9200947
_publ_section_title
;
Structure prediction by ZEFSAII (Michael W. Deem and Ramdas Pophale) SiO2 
 PCOD9200947
Probable space group: C 2/M
;
_chemical_formula_sum "Si O2"
_cell_formula_units_Z 64
_cell_length_a 9.668327
_cell_length_b 23.616675
_cell_length_c 13.860489
_cell_angle_alpha 90.000000
_cell_angle_beta 89.622881
_cell_angle_gamma 90.000000
_cell_volume 3164.748690
_symmetry_space_group_name_H-M "C 2/M"
_symmetry_group_IT_number 12
_symmetry_cell_setting 'monoclinic'
loop_
_space_group_symop_operation_xyz
x,y,z
-x,y,-z
-x,-y,-z
x,-y,z
1/2+x,1/2+y,z
1/2-x,1/2+y,-z
1/2-x,1/2-y,-z
1/2+x,1/2-y,z
loop_
_atom_site_type_symbol
_atom_site_label
_atom_site_fract_x
_atom_site_fract_y
_atom_site_fract_z
Si Si1 0.941072 0.331213 0.744699
Si Si2 0.659426 0.062874 0.529872
Si Si3 0.875087 0.758849 0.574701
Si Si4 0.496304 0.679365 0.887154
Si Si5 0.759361 0.435188 0.680024
Si Si6 0.266548 0.242141 0.884003
Si Si7 0.025418 0.934596 0.205611
Si Si8 0.745055 0.141759 0.698958
O O1 0.907274 0.292689 0.649576
O O2 0.862315 0.390567 0.728160
O O3 0.875541 0.303564 0.841604
O O4 0.105966 0.337350 0.753409
O O5 0.500000 0.061362 0.500000
O O6 0.744425 0.076528 0.433581
O O7 0.677819 0.109390 0.608676
O O8 0.699164 0.000000 0.564268
O O9 0.750000 0.750000 0.500000
O O10 0.837366 0.809976 0.647114
O O11 0.000000 0.769380 0.500000
O O12 0.346067 0.700416 0.851604
O O13 0.621307 0.717551 0.844710
O O14 0.515929 0.612897 0.872372
O O15 0.500000 0.690643 0.000000
O O16 0.810704 0.500000 0.691718
O O17 0.605073 0.432657 0.721883
O O18 0.250000 0.250000 0.000000
O O19 0.160848 0.906171 0.251222
O O20 0.045254 0.000000 0.175678
#
# Coordination Sequence:
#
# PCOD9200947 Si02
#       8
#     8   8   8   8   8   8   8   8
#     4  12  24  41  66  90 133 175 219 271 333 394
#     4  10  20  37  60  86 122 172 227 270 311 376
#     4  12  27  42  59  92 131 177 223 272 333 401
#     4  10  22  43  70  99 129 167 209 266 334 407
#     4  10  22  39  64  90 123 173 229 271 318 390
#     4  10  23  42  69 102 131 167 215 269 335 405
#     4  11  25  43  64  97 132 171 223 274 333 393
#     4  12  26  39  63  92 132 175 224 272 330 383
#
# _framework density 20.222774000000001
#
# number of rings (size 3 to 8) (size 9 to 14) (size 15 to 20)
#    0.000    1.125    3.750    1.875    7.000    0.750 
#    0.000    1.875    0.000    0.000    0.000    1.750 
#    0.000    0.000    0.000    0.000    0.000    0.000 
#
# Total GULP energy -178475.183370 kJ/mol
# GULP energy per Si atom -5577.349480 kJ/mol
# Density = 2.017675 g / cm^3
# Si number density = 20.222774 Si / 1000 Ang^3
#
#
#
# Elastic Constant Matrix: (Units=GPa)
#
#
# Indices 1 2 3 4 5 6 
#
# 1 143.1205 50.7885 32.3062 0.0000 -11.7816 0.0000
# 2 50.7885 117.0068 17.9878 0.0000 -8.9180 0.0000
# 3 32.3062 17.9878 58.4234 0.0000 -21.6256 0.0000
# 4 0.0000 0.0000 0.0000 22.7190 0.0000 -4.0881
# 5 -11.7816 -8.9180 -21.6256 0.0000 33.6885 0.0000
# 6 0.0000 0.0000 0.0000 -4.0881 0.0000 34.8159
#
#
#
# Elastic Compliance Matrix: (Units=1/GPa)
#
#
# Indices 1 2 3 4 5 6 
#
# 1 0.009070 -0.003330 -0.004122 0.000000 -0.000355 0.000000
# 2 -0.003330 0.010210 -0.000961 0.000000 0.000921 0.000000
# 3 -0.004122 -0.000961 0.025005 0.000000 0.014356 0.000000
# 4 0.000000 0.000000 0.000000 0.044966 0.000000 0.005280
# 5 -0.000355 0.000921 0.014356 0.000000 0.039019 0.000000
# 6 0.000000 0.000000 0.000000 0.005280 0.000000 0.029343
#
#
# Mechanical properties :
#
#
# Convention : Reuss Voigt Hill
#
# Bulk Modulus (GPa) = 36.41740 57.85731 47.13735
# Shear Modulus (GPa) = 27.23432 32.74254 29.98843
#
# Velocity S-wave (km/s) = 3.67374 4.02816 3.85503
# Velocity P-wave (km/s) = 6.00353 7.09273 6.57074
#
# Compressibility (1/GPa) = 0.02745940
#
# Stress axis : x y z
#
# Youngs Moduli (GPa) = 110.25248 97.94232 39.99168
#
# Poissons Ratio (x) = 0.32619 0.16483
# Poissons Ratio (y) = 0.36719 0.03843
# Poissons Ratio (z) = 0.45442 0.09411
#
# Static dielectric constant tensor:
#      x y z
#    x 1.734100 0.000000 0.052240 
#    y 0.000000 1.745470 0.000000 
#    z 0.052240 0.000000 1.687760 
# 
# From -- ./inp_files/198870.got.cif
#   From: 2010.05.17/outbox.cif.g08.bks.cpg/sg12_100_cif.got.tgz:198870.got - 2010.06.03 13:09:07.
