data_PCOD9200815
_publ_section_title
;
Structure prediction by ZEFSAII (Michael W. Deem and Ramdas Pophale) SiO2 
 PCOD9200815
Probable space group: C 2/M
;
_chemical_formula_sum "Si O2"
_cell_formula_units_Z 56
_cell_length_a 17.435152
_cell_length_b 16.839398
_cell_length_c 26.795260
_cell_angle_alpha 90.000000
_cell_angle_beta 20.694854
_cell_angle_gamma 90.000000
_cell_volume 2780.132827
_symmetry_space_group_name_H-M "C 2/M"
_symmetry_group_IT_number 12
_symmetry_cell_setting 'monoclinic'
loop_
_space_group_symop_operation_xyz
x,y,z
-x,y,-z
-x,-y,-z
x,-y,z
1/2+x,1/2+y,z
1/2-x,1/2+y,-z
1/2-x,1/2-y,-z
1/2+x,1/2-y,z
loop_
_atom_site_type_symbol
_atom_site_label
_atom_site_fract_x
_atom_site_fract_y
_atom_site_fract_z
Si Si1 0.724438 0.849155 0.765829
Si Si2 0.335754 0.692660 0.142731
Si Si3 0.623677 0.407653 0.043070
Si Si4 0.577968 0.096749 0.638610
Si Si5 0.765996 0.096466 0.915726
Si Si6 0.025820 0.908932 0.663029
Si Si7 0.357896 0.093191 0.289556
O O1 0.769801 0.763336 0.761418
O O2 0.745214 0.859780 0.693850
O O3 0.876184 0.907049 0.705128
O O4 0.474442 0.869167 0.931783
O O5 0.480983 0.643026 0.092906
O O6 0.152507 0.637742 0.229405
O O7 0.500000 0.722735 0.000000
O O8 0.565215 0.500000 0.073245
O O9 0.602696 0.384198 0.113853
O O10 0.880279 0.400807 0.875590
O O11 0.742782 0.123653 0.494906
O O12 0.680872 0.117655 0.629860
O O13 0.556679 0.000000 0.651069
O O14 0.891507 0.127095 0.790638
O O15 0.741439 0.000000 0.928600
O O16 0.064547 0.000000 0.654313
O O17 0.300653 0.000000 0.318167
#
# Coordination Sequence:
#
# PCOD9200815 Si02
#       7
#     8   8   8   8   8   8   8
#     4  11  22  35  55  87 116 148 184 228 286 342
#     4  12  23  36  56  86 116 151 188 230 285 337
#     4   9  18  34  58  84 110 144 190 241 280 318
#     4  10  22  39  61  85 110 149 196 235 278 329
#     4   9  18  35  59  86 111 143 188 234 280 331
#     4  10  20  37  60  83 112 149 187 234 280 330
#     4   9  18  36  60  86 113 144 188 238 279 326
#
# _framework density 20.142921999999999
#
# number of rings (size 3 to 8) (size 9 to 14) (size 15 to 20)
#    0.000    2.000    1.429    3.857    0.000    5.143 
#    2.571    2.857    3.143    3.429    0.000    0.000 
#    0.000    0.000    0.000    0.000    0.000    0.000 
#
# Total GULP energy -156298.395341 kJ/mol
# GULP energy per Si atom -5582.085548 kJ/mol
# Density = 2.009708 g / cm^3
# Si number density = 20.142922 Si / 1000 Ang^3
#
#
#
# Elastic Constant Matrix: (Units=GPa)
#
#
# Indices 1 2 3 4 5 6 
#
# 1 88.4304 20.5058 9.5309 -0.0308 10.1413 0.0216
# 2 20.5058 28.6010 -0.5135 -0.0560 1.5728 0.0349
# 3 9.5309 -0.5135 47.2402 -0.1099 12.8751 0.2458
# 4 -0.0308 -0.0560 -0.1099 10.2319 0.0452 14.3165
# 5 10.1413 1.5728 12.8751 0.0452 21.2130 0.0154
# 6 0.0216 0.0349 0.2458 14.3165 0.0154 -9.1099
#
#
#
# Elastic Compliance Matrix: (Units=1/GPa)
#
#
# Indices 1 2 3 4 5 6 
#
# 1 0.014411 -0.010077 -0.001609 0.000023 -0.005166 -0.000021
# 2 -0.010077 0.042220 0.002434 -0.000019 0.000210 0.000175
# 3 -0.001609 0.002434 0.025590 -0.000184 -0.014943 0.000381
# 4 0.000023 -0.000019 -0.000184 0.030554 0.000002 0.048011
# 5 -0.005166 0.000210 -0.014943 0.000002 0.058664 -0.000312
# 6 -0.000021 0.000175 0.000381 0.048011 -0.000312 -0.034309
#
#
# Mechanical properties :
#
#
# Convention : Reuss Voigt Hill
#
# Bulk Modulus (GPa) = 15.69435 24.81313 20.25374
# Shear Modulus (GPa) = 28.26888 13.45023 20.85956
#
# Velocity S-wave (km/s) = 3.75028 2.58687 3.22153
# Velocity P-wave (km/s) = 5.15376 4.61170 4.89025
#
# Compressibility (1/GPa) = 0.06371720
#
# Stress axis : x y z
#
# Youngs Moduli (GPa) = 69.39222 23.68524 39.07833
#
# Poissons Ratio (x) = 0.23867 0.06287
# Poissons Ratio (y) = 0.69925 -0.09511
# Poissons Ratio (z) = 0.11165 -0.05765
#
# Static dielectric constant tensor:
#      x y z
#    x 1.698560 0.000000 0.042650 
#    y 0.000000 1.718930 0.000040 
#    z 0.042650 0.000040 1.722300 
# 
# From -- ./inp_files/364464.got.cif
#   From: 2010.05.17/outbox.cif.g08.bks.cpg/sg12_183_cif.got.tgz:364464.got - 2010.06.03 13:09:07.
