data_PCOD9200158
_publ_section_title
;
Structure prediction by ZEFSAII (Michael W. Deem and Ramdas Pophale) SiO2 
 PCOD9200158
Probable space group: C 2/M
;
_chemical_formula_sum "Si O2"
_cell_formula_units_Z 56
_cell_length_a 9.238508
_cell_length_b 17.517469
_cell_length_c 16.519826
_cell_angle_alpha 90.000000
_cell_angle_beta 71.930569
_cell_angle_gamma 90.000000
_cell_volume 2541.637680
_symmetry_space_group_name_H-M "C 2/M"
_symmetry_group_IT_number 12
_symmetry_cell_setting 'monoclinic'
loop_
_space_group_symop_operation_xyz
x,y,z
-x,y,-z
-x,-y,-z
x,-y,z
1/2+x,1/2+y,z
1/2-x,1/2+y,-z
1/2-x,1/2-y,-z
1/2+x,1/2-y,z
loop_
_atom_site_type_symbol
_atom_site_label
_atom_site_fract_x
_atom_site_fract_y
_atom_site_fract_z
Si Si1 0.857421 0.911849 0.069470
Si Si2 0.080391 0.700273 0.568375
Si Si3 0.023764 0.407734 0.090795
Si Si4 0.521631 0.415013 0.771441
Si Si5 0.756387 0.336549 0.241644
Si Si6 0.755437 0.810424 0.334803
Si Si7 0.668346 0.590708 0.432933
O O1 0.691668 0.878923 0.084633
O O2 0.900556 0.915748 0.155242
O O3 0.846530 0.000000 0.039304
O O4 0.000000 0.874284 0.000000
O O5 0.174461 0.764257 0.600450
O O6 0.196063 0.629991 0.538949
O O7 0.000000 0.727557 0.500000
O O8 0.925197 0.676626 0.640629
O O9 0.015716 0.500000 0.100507
O O10 0.900364 0.373989 0.173729
O O11 0.000000 0.390096 0.000000
O O12 0.462741 0.500000 0.763386
O O13 0.386283 0.354536 0.790691
O O14 0.650896 0.387678 0.687597
O O15 0.788668 0.248722 0.256175
O O16 0.699660 0.373173 0.337904
O O17 0.500000 0.604902 0.500000
O O18 0.686905 0.500000 0.425069
#
# Coordination Sequence:
#
# PCOD9200158 Si02
#       7
#     8   8   8   8   8   8   8
#     4   9  19  35  59  93 130 168 217 274 330 395
#     4  11  25  43  69  92 127 177 228 280 339 405
#     4  10  20  36  64  99 136 179 228 279 339 411
#     4  11  23  40  66  95 130 174 222 278 336 396
#     4  11  23  42  66  94 137 182 222 275 344 407
#     4  11  25  44  64  97 133 175 228 279 337 413
#     4  10  24  44  67 101 140 176 222 283 345 406
#
# _framework density 22.033038000000001
#
# number of rings (size 3 to 8) (size 9 to 14) (size 15 to 20)
#    0.000    1.571    1.429    2.571    6.000    5.429 
#    0.000    0.714    0.000    3.857    0.000    0.000 
#    0.000    0.000    0.000    0.000    0.000    0.000 
#
# Total GULP energy -156350.462792 kJ/mol
# GULP energy per Si atom -5583.945100 kJ/mol
# Density = 2.198289 g / cm^3
# Si number density = 22.033038 Si / 1000 Ang^3
#
#
#
# Elastic Constant Matrix: (Units=GPa)
#
#
# Indices 1 2 3 4 5 6 
#
# 1 167.1356 13.5004 48.4297 0.0000 -21.8071 0.0000
# 2 13.5004 38.7881 14.5725 0.0000 0.8230 0.0000
# 3 48.4297 14.5725 95.5541 0.0000 -25.1301 0.0000
# 4 0.0000 0.0000 0.0000 23.2226 0.0000 3.0433
# 5 -21.8071 0.8230 -25.1301 0.0000 45.4098 0.0000
# 6 0.0000 0.0000 0.0000 3.0433 0.0000 28.2572
#
#
#
# Elastic Compliance Matrix: (Units=1/GPa)
#
#
# Indices 1 2 3 4 5 6 
#
# 1 0.007193 -0.001439 -0.002938 0.000000 0.001854 0.000000
# 2 -0.001439 0.028060 -0.004524 0.000000 -0.003703 0.000000
# 3 -0.002938 -0.004524 0.014389 0.000000 0.006634 0.000000
# 4 0.000000 0.000000 0.000000 0.043678 0.000000 -0.004704
# 5 0.001854 -0.003703 0.006634 0.000000 0.026650 0.000000
# 6 0.000000 0.000000 0.000000 -0.004704 0.000000 0.035896
#
#
# Mechanical properties :
#
#
# Convention : Reuss Voigt Hill
#
# Bulk Modulus (GPa) = 31.40751 50.49808 40.95279
# Shear Modulus (GPa) = 27.13233 34.37627 30.75430
#
# Velocity S-wave (km/s) = 3.51299 3.95424 3.74013
# Velocity P-wave (km/s) = 5.54441 6.61944 6.10563
#
# Compressibility (1/GPa) = 0.03183952
#
# Stress axis : x y z
#
# Youngs Moduli (GPa) = 139.02871 35.63779 69.49662
#
# Poissons Ratio (x) = 0.05128 0.20421
# Poissons Ratio (y) = 0.20004 0.31440
# Poissons Ratio (z) = 0.40853 0.16122
#
# Static dielectric constant tensor:
#      x y z
#    x 1.813990 0.000000 -0.015950 
#    y 0.000000 1.803760 0.000000 
#    z -0.015950 0.000000 1.927940 
# 
# From -- ./inp_files/256987.got.cif
#   From: 2010.05.17/outbox.cif.g08.bks.cpg/sg12_129_cif.got.tgz:256987.got - 2010.06.03 13:09:07.
