data_PCOD9200698
_publ_section_title
;
Structure prediction by ZEFSAII (Michael W. Deem and Ramdas Pophale) SiO2 
 PCOD9200698
Probable space group: C 2/M
;
_chemical_formula_sum "Si O2"
_cell_formula_units_Z 56
_cell_length_a 13.406960
_cell_length_b 14.879707
_cell_length_c 17.293720
_cell_angle_alpha 90.000000
_cell_angle_beta 56.776681
_cell_angle_gamma 90.000000
_cell_volume 2886.028063
_symmetry_space_group_name_H-M "C 2/M"
_symmetry_group_IT_number 12
_symmetry_cell_setting 'monoclinic'
loop_
_space_group_symop_operation_xyz
x,y,z
-x,y,-z
-x,-y,-z
x,-y,z
1/2+x,1/2+y,z
1/2-x,1/2+y,-z
1/2-x,1/2-y,-z
1/2+x,1/2-y,z
loop_
_atom_site_type_symbol
_atom_site_label
_atom_site_fract_x
_atom_site_fract_y
_atom_site_fract_z
Si Si1 0.623497 0.760310 0.595567
Si Si2 0.084591 0.607272 0.336956
Si Si3 0.976676 0.270389 0.101651
Si Si4 0.907826 0.099135 0.967465
Si Si5 0.039343 0.895924 0.393342
Si Si6 0.858230 0.394724 0.868926
Si Si7 0.258570 0.764334 0.293301
O O1 0.750000 0.750000 0.500000
O O2 0.541935 0.841942 0.597374
O O3 0.551098 0.668270 0.614044
O O4 0.652525 0.775553 0.672727
O O5 0.085191 0.500000 0.355437
O O6 0.113677 0.617901 0.233291
O O7 0.184652 0.671068 0.333559
O O8 0.838553 0.267356 0.182580
O O9 0.034700 0.176988 0.107022
O O10 0.048034 0.345788 0.116783
O O11 0.000000 0.278710 0.000000
O O12 0.898661 0.000000 0.935902
O O13 0.778474 0.129303 0.052589
O O14 0.000000 0.091753 0.000000
O O15 0.165749 0.846126 0.333042
O O16 0.000000 0.893107 0.500000
O O17 0.041278 0.000000 0.368141
O O18 0.867160 0.500000 0.880050
#
# Coordination Sequence:
#
# PCOD9200698 Si02
#       7
#     8   8   8   8   8   8   8
#     4  11  22  40  63  92 125 156 201 256 306 362
#     4  10  22  39  63  91 122 161 204 250 308 369
#     4  11  22  37  60  87 119 162 201 248 305 360
#     4   9  18  33  55  81 111 149 195 242 291 349
#     4  10  22  41  66  92 122 163 205 248 308 374
#     4  10  20  37  59  85 117 157 204 249 297 361
#     4  11  23  40  64  92 125 160 205 259 302 361
#
# _framework density 19.403831
#
# number of rings (size 3 to 8) (size 9 to 14) (size 15 to 20)
#    0.000    1.714    2.857    2.143    0.000    4.286 
#    0.000    0.714    0.000    0.000    0.000    0.000 
#    0.000    0.000    0.000    0.000    0.000    0.000 
#
# Total GULP energy -156214.408043 kJ/mol
# GULP energy per Si atom -5579.086002 kJ/mol
# Density = 1.935967 g / cm^3
# Si number density = 19.403831 Si / 1000 Ang^3
#
#
#
# Elastic Constant Matrix: (Units=GPa)
#
#
# Indices 1 2 3 4 5 6 
#
# 1 79.6965 34.1481 14.1550 0.0000 -23.4075 0.0000
# 2 34.1481 96.7904 26.1682 0.0000 -24.8555 0.0000
# 3 14.1550 26.1682 81.8193 0.0000 -31.2278 0.0000
# 4 0.0000 0.0000 0.0000 27.4485 0.0000 2.7710
# 5 -23.4075 -24.8555 -31.2278 0.0000 34.2646 0.0000
# 6 0.0000 0.0000 0.0000 2.7710 0.0000 23.3037
#
#
#
# Elastic Compliance Matrix: (Units=1/GPa)
#
#
# Indices 1 2 3 4 5 6 
#
# 1 0.017013 -0.003822 0.002540 0.000000 0.011165 0.000000
# 2 -0.003822 0.013593 -0.001410 0.000000 0.005964 0.000000
# 3 0.002540 -0.001410 0.019176 0.000000 0.018189 0.000000
# 4 0.000000 0.000000 0.000000 0.036875 0.000000 -0.004385
# 5 0.011165 0.005964 0.018189 0.000000 0.057716 0.000000
# 6 0.000000 0.000000 0.000000 -0.004385 0.000000 0.043433
#
#
# Mechanical properties :
#
#
# Convention : Reuss Voigt Hill
#
# Bulk Modulus (GPa) = 22.52292 45.24989 33.88641
# Shear Modulus (GPa) = 24.03996 29.25902 26.64949
#
# Velocity S-wave (km/s) = 3.52366 3.88738 3.70998
# Velocity P-wave (km/s) = 5.30920 6.59694 5.98779
#
# Compressibility (1/GPa) = 0.04439921
#
# Stress axis : x y z
#
# Youngs Moduli (GPa) = 58.77727 73.56824 52.14982
#
# Poissons Ratio (x) = 0.28118 -0.13248
# Poissons Ratio (y) = 0.22465 0.07352
# Poissons Ratio (z) = -0.14932 0.10371
#
# Static dielectric constant tensor:
#      x y z
#    x 1.619040 0.000000 0.003370 
#    y 0.000000 1.695560 0.000000 
#    z 0.003370 0.000000 1.706170 
# 
# From -- ./inp_files/205001.got.cif
#   From: 2010.05.17/outbox.cif.g08.bks.cpg/sg12_103_cif.got.tgz:205001.got - 2010.06.03 13:09:07.
