data_PCOD9200712
_publ_section_title
;
Structure prediction by ZEFSAII (Michael W. Deem and Ramdas Pophale) SiO2 
 PCOD9200712
Probable space group: C 2/M
;
_chemical_formula_sum "Si O2"
_cell_formula_units_Z 64
_cell_length_a 9.838107
_cell_length_b 28.102631
_cell_length_c 13.037466
_cell_angle_alpha 90.000000
_cell_angle_beta 76.892502
_cell_angle_gamma 90.000000
_cell_volume 3510.643443
_symmetry_space_group_name_H-M "C 2/M"
_symmetry_group_IT_number 12
_symmetry_cell_setting 'monoclinic'
loop_
_space_group_symop_operation_xyz
x,y,z
-x,y,-z
-x,-y,-z
x,-y,z
1/2+x,1/2+y,z
1/2-x,1/2+y,-z
1/2-x,1/2-y,-z
1/2+x,1/2-y,z
loop_
_atom_site_type_symbol
_atom_site_label
_atom_site_fract_x
_atom_site_fract_y
_atom_site_fract_z
Si Si1 0.964986 0.944729 0.387599
Si Si2 0.332095 0.705886 0.039201
Si Si3 0.884442 0.700073 0.269170
Si Si4 0.201924 0.385805 0.389530
Si Si5 0.086583 0.401522 0.635823
Si Si6 0.746201 0.052693 0.781286
Si Si7 0.653151 0.142930 0.927799
Si Si8 0.301622 0.213627 0.716519
O O1 0.849519 0.910916 0.358446
O O2 0.000000 0.931041 0.500000
O O3 0.100774 0.941988 0.293509
O O4 0.917686 0.000000 0.399602
O O5 0.288342 0.702478 0.165816
O O6 0.500000 0.709854 0.000000
O O7 0.250000 0.750000 0.000000
O O8 0.265470 0.661017 0.990959
O O9 0.869321 0.650037 0.328951
O O10 0.869812 0.684751 0.152873
O O11 0.766106 0.738259 0.314935
O O12 0.038312 0.718910 0.272915
O O13 0.145893 0.400289 0.511358
O O14 0.207854 0.329654 0.362771
O O15 0.080503 0.404144 0.335355
O O16 0.148438 0.441125 0.698369
O O17 0.707764 0.095409 0.863445
O O18 0.731391 0.000000 0.828940
O O19 0.500000 0.134306 0.000000
#
# Coordination Sequence:
#
# PCOD9200712 Si02
#       8
#     8   8   8   8   8   8   8   8
#     4  10  20  37  59  86 115 144 185 234 284 342
#     4  12  23  36  57  84 113 148 192 234 281 336
#     4  10  21  36  54  82 113 151 189 233 279 333
#     4  10  21  36  57  83 116 153 184 231 288 336
#     4   9  20  38  56  81 118 151 189 232 276 341
#     4  10  22  39  62  88 112 147 194 238 287 348
#     4  11  22  40  61  81 117 151 189 247 293 333
#     4  11  22  35  55  81 114 147 193 229 277 339
#
# _framework density 18.230277000000001
#
# number of rings (size 3 to 8) (size 9 to 14) (size 15 to 20)
#    0.000    1.625    3.750    1.125    1.750    2.250 
#    0.000    1.250    0.000    0.375    0.000    0.000 
#    0.000    0.000    0.000    0.000    0.000    0.000 
#
# Total GULP energy -178494.102815 kJ/mol
# GULP energy per Si atom -5577.940713 kJ/mol
# Density = 1.818878 g / cm^3
# Si number density = 18.230277 Si / 1000 Ang^3
#
#
#
# Elastic Constant Matrix: (Units=GPa)
#
#
# Indices 1 2 3 4 5 6 
#
# 1 103.0409 52.8015 -2.3467 0.0000 3.7121 0.0000
# 2 52.8015 81.7250 10.7217 0.0000 3.1202 0.0000
# 3 -2.3467 10.7217 20.9682 0.0000 3.3335 0.0000
# 4 0.0000 0.0000 0.0000 11.0388 0.0000 24.7477
# 5 3.7121 3.1202 3.3335 0.0000 22.7238 0.0000
# 6 0.0000 0.0000 0.0000 24.7477 0.0000 -21.6309
#
#
#
# Elastic Compliance Matrix: (Units=1/GPa)
#
#
# Indices 1 2 3 4 5 6 
#
# 1 0.015600 -0.011009 0.007720 0.000000 -0.002169 0.000000
# 2 -0.011009 0.020901 -0.012030 0.000000 0.000693 0.000000
# 3 0.007720 -0.012030 0.055949 0.000000 -0.007817 0.000000
# 4 0.000000 0.000000 0.000000 0.025411 0.000000 0.029073
# 5 -0.002169 0.000693 -0.007817 0.000000 0.045413 0.000000
# 6 0.000000 0.000000 0.000000 0.029073 0.000000 -0.012968
#
#
# Mechanical properties :
#
#
# Convention : Reuss Voigt Hill
#
# Bulk Modulus (GPa) = 16.17784 36.45413 26.31598
# Shear Modulus (GPa) = 24.80804 12.06351 18.43577
#
# Velocity S-wave (km/s) = 3.69293 2.57520 3.18350
# Velocity P-wave (km/s) = 5.20356 5.37421 5.28957
#
# Compressibility (1/GPa) = 0.06181296
#
# Stress axis : x y z
#
# Youngs Moduli (GPa) = 64.10122 47.84510 17.87341
#
# Poissons Ratio (x) = 0.52674 -0.13799
# Poissons Ratio (y) = 0.70570 0.21501
# Poissons Ratio (z) = -0.49487 0.57555
#
# Static dielectric constant tensor:
#      x y z
#    x 1.640380 0.000000 0.005280 
#    y 0.000000 1.620730 0.000000 
#    z 0.005280 0.000000 1.641940 
# 
# From -- ./inp_files/199803.got.cif
#   From: 2010.05.17/outbox.cif.g08.bks.cpg/sg12_100_cif.got.tgz:199803.got - 2010.06.03 13:09:07.
