data_PCOD9200883
_publ_section_title
;
Structure prediction by ZEFSAII (Michael W. Deem and Ramdas Pophale) SiO2 
 PCOD9200883
Probable space group: C 2/M
;
_chemical_formula_sum "Si O2"
_cell_formula_units_Z 56
_cell_length_a 19.282559
_cell_length_b 8.729207
_cell_length_c 27.503349
_cell_angle_alpha 90.000000
_cell_angle_beta 139.673084
_cell_angle_gamma 90.000000
_cell_volume 2995.909201
_symmetry_space_group_name_H-M "C 2/M"
_symmetry_group_IT_number 12
_symmetry_cell_setting 'monoclinic'
loop_
_space_group_symop_operation_xyz
x,y,z
-x,y,-z
-x,-y,-z
x,-y,z
1/2+x,1/2+y,z
1/2-x,1/2+y,-z
1/2-x,1/2-y,-z
1/2+x,1/2-y,z
loop_
_atom_site_type_symbol
_atom_site_label
_atom_site_fract_x
_atom_site_fract_y
_atom_site_fract_z
Si Si1 0.815897 0.182578 0.079931
Si Si2 0.535863 0.816841 0.573772
Si Si3 0.697482 0.826726 0.824583
Si Si4 0.941011 0.328011 0.688844
Si Si5 0.069516 0.816528 0.215769
Si Si6 0.365872 0.677604 0.555397
Si Si7 0.260858 0.316776 0.258477
O O1 0.773586 0.248118 0.108810
O O2 0.943028 0.217982 0.141011
O O3 0.806260 0.000000 0.075916
O O4 0.750000 0.250000 0.000000
O O5 0.500000 0.770459 0.500000
O O6 0.437613 0.770364 0.555825
O O7 0.642108 0.742401 0.654695
O O8 0.551833 0.000000 0.582526
O O9 0.568873 0.837220 0.759180
O O10 0.721966 0.737770 0.787915
O O11 0.740846 0.000000 0.844820
O O12 0.900488 0.500000 0.655345
O O13 0.898218 0.269042 0.717240
O O14 0.917313 0.203817 0.635442
O O15 0.149545 0.754474 0.217886
O O16 0.080493 0.000000 0.226626
O O17 0.362486 0.500000 0.540146
O O18 0.250000 0.750000 0.500000
O O19 0.258638 0.500000 0.259457
#
# Coordination Sequence:
#
# PCOD9200883 Si02
#       7
#     8   8   8   8   8   8   8
#     4  10  21  39  65  95 127 161 200 246 300 359
#     4  11  25  44  63  85 119 161 207 257 314 367
#     4  10  20  37  63  89 120 158 199 244 298 358
#     4  10  20  37  60  85 114 151 199 249 300 356
#     4  10  22  39  61  89 123 160 202 246 298 359
#     4  12  25  40  60  84 117 154 201 254 306 364
#     4  12  24  39  62  90 124 161 205 254 305 364
#
# _framework density 18.692155
#
# number of rings (size 3 to 8) (size 9 to 14) (size 15 to 20)
#    0.000    1.286    1.429    4.714    2.000    4.000 
#    0.000    0.714    0.000    4.286    0.000    0.000 
#    0.000    0.000    0.000    0.000    0.000    0.000 
#
# Total GULP energy -156335.006155 kJ/mol
# GULP energy per Si atom -5583.393077 kJ/mol
# Density = 1.864961 g / cm^3
# Si number density = 18.692155 Si / 1000 Ang^3
#
#
#
# Elastic Constant Matrix: (Units=GPa)
#
#
# Indices 1 2 3 4 5 6 
#
# 1 122.4719 40.4808 44.9008 0.0000 -12.7484 0.0000
# 2 40.4808 88.7083 31.5821 0.0000 -3.2525 0.0000
# 3 44.9008 31.5821 78.3137 0.0000 -21.9050 0.0000
# 4 0.0000 0.0000 0.0000 29.0866 0.0000 -0.2006
# 5 -12.7484 -3.2525 -21.9050 0.0000 26.9243 0.0000
# 6 0.0000 0.0000 0.0000 -0.2006 0.0000 28.3263
#
#
#
# Elastic Compliance Matrix: (Units=1/GPa)
#
#
# Indices 1 2 3 4 5 6 
#
# 1 0.011114 -0.003347 -0.004743 0.000000 0.000999 0.000000
# 2 -0.003347 0.014435 -0.004995 0.000000 -0.003904 0.000000
# 3 -0.004743 -0.004995 0.021628 0.000000 0.014747 0.000000
# 4 0.000000 0.000000 0.000000 0.034382 0.000000 0.000244
# 5 0.000999 -0.003904 0.014747 0.000000 0.049140 0.000000
# 6 0.000000 0.000000 0.000000 0.000244 0.000000 0.035305
#
#
# Mechanical properties :
#
#
# Convention : Reuss Voigt Hill
#
# Bulk Modulus (GPa) = 47.60072 58.15793 52.87933
# Shear Modulus (GPa) = 25.10354 28.36946 26.73650
#
# Velocity S-wave (km/s) = 3.66867 3.90002 3.78611
# Velocity P-wave (km/s) = 6.59291 7.17365 6.88940
#
# Compressibility (1/GPa) = 0.02100809
#
# Stress axis : x y z
#
# Youngs Moduli (GPa) = 89.97460 69.27548 46.23706
#
# Poissons Ratio (x) = 0.23183 0.21931
# Poissons Ratio (y) = 0.30110 0.23094
# Poissons Ratio (z) = 0.42677 0.34601
#
# Static dielectric constant tensor:
#      x y z
#    x 1.616020 0.000000 -0.021740 
#    y 0.000000 1.632120 0.000000 
#    z -0.021740 0.000000 1.648060 
# 
# From -- ./inp_files/342308.got.cif
#   From: 2010.05.17/outbox.cif.g08.bks.cpg/sg12_172_cif.got.tgz:342308.got - 2010.06.03 13:09:07.
