data_PCOD9200034
_publ_section_title
;
Structure prediction by ZEFSAII (Michael W. Deem and Ramdas Pophale) SiO2 
 PCOD9200034
Probable space group: C 2/M
;
_chemical_formula_sum "Si O2"
_cell_formula_units_Z 52
_cell_length_a 13.172286
_cell_length_b 13.143351
_cell_length_c 33.153796
_cell_angle_alpha 90.000000
_cell_angle_beta 21.889247
_cell_angle_gamma 90.000000
_cell_volume 2139.894275
_symmetry_space_group_name_H-M "C 2/M"
_symmetry_group_IT_number 12
_symmetry_cell_setting 'monoclinic'
loop_
_space_group_symop_operation_xyz
x,y,z
-x,y,-z
-x,-y,-z
x,-y,z
1/2+x,1/2+y,z
1/2-x,1/2+y,-z
1/2-x,1/2-y,-z
1/2+x,1/2-y,z
loop_
_atom_site_type_symbol
_atom_site_label
_atom_site_fract_x
_atom_site_fract_y
_atom_site_fract_z
Si Si1 0.051054 0.120693 0.411119
Si Si2 0.912144 0.379817 0.651265
Si Si3 0.994595 0.120170 0.659231
Si Si4 0.921973 0.117491 0.777167
Si Si5 0.000000 0.253826 0.500000
Si Si6 0.005281 0.779220 0.954809
Si Si7 0.493293 0.377971 0.875145
O O1 0.727760 0.147016 0.531144
O O2 0.145203 0.151736 0.331375
O O3 0.157415 0.180495 0.410517
O O4 0.092015 0.000000 0.401385
O O5 0.926720 0.500000 0.651118
O O6 0.732245 0.365864 0.677205
O O7 0.742453 0.347877 0.753531
O O8 0.279487 0.175702 0.560065
O O9 0.857751 0.130728 0.753423
O O10 0.048050 0.000000 0.634301
O O11 0.750832 0.199193 0.863835
O O12 0.856538 0.000000 0.811661
O O13 0.045827 0.856171 0.902923
O O14 0.000000 0.832104 0.000000
O O15 0.747572 0.702998 0.044749
O O16 0.431895 0.500000 0.891718
#
# Coordination Sequence:
#
# PCOD9200034 Si02
#       7
#     8   8   8   8   4   8   8
#     4  10  22  40  60  85 120 157 196 240 291 346
#     4   9  18  35  60  86 114 153 193 238 288 339
#     4  10  22  39  57  85 121 154 194 241 292 344
#     4  10  20  36  63  90 116 152 197 246 289 339
#     4  12  22  36  60  88 112 158 202 242 282 344
#     4  11  22  38  63  92 116 151 197 242 286 349
#     4  10  22  39  60  90 123 153 189 238 294 347
#
# _framework density 24.300267000000002
#
# number of rings (size 3 to 8) (size 9 to 14) (size 15 to 20)
#    0.000    1.846    1.538    2.308    2.154    3.385 
#    0.000    0.000    0.000    0.000    0.000    1.077 
#    0.000    0.000    0.000    0.000    0.000    0.000 
#
# Total GULP energy -145354.278767 kJ/mol
# GULP energy per Si atom -5590.549183 kJ/mol
# Density = 2.424496 g / cm^3
# Si number density = 24.300267 Si / 1000 Ang^3
#
#
#
# Elastic Constant Matrix: (Units=GPa)
#
#
# Indices 1 2 3 4 5 6 
#
# 1 105.5460 27.3351 10.1198 0.0406 46.2629 0.0125
# 2 27.3351 78.8206 13.8393 0.0364 22.4802 -0.0125
# 3 10.1198 13.8393 55.0093 0.0246 18.9549 -0.2110
# 4 0.0406 0.0364 0.0246 24.8118 -0.0073 10.7661
# 5 46.2629 22.4802 18.9549 -0.0073 45.4861 0.0425
# 6 0.0125 -0.0125 -0.2110 10.7661 0.0425 30.8558
#
#
#
# Elastic Compliance Matrix: (Units=1/GPa)
#
#
# Indices 1 2 3 4 5 6 
#
# 1 0.017766 -0.001410 0.003588 -0.000064 -0.018867 0.000065
# 2 -0.001410 0.014974 -0.001695 -0.000024 -0.005260 0.000011
# 3 0.003588 -0.001695 0.022086 -0.000119 -0.012015 0.000207
# 4 -0.000064 -0.000024 -0.000119 0.047495 0.000150 -0.016573
# 5 -0.018867 -0.005260 -0.012015 0.000150 0.048781 -0.000196
# 6 0.000065 0.000011 0.000207 -0.016573 -0.000196 0.038193
#
#
# Mechanical properties :
#
#
# Convention : Reuss Voigt Hill
#
# Bulk Modulus (GPa) = 17.92394 37.99604 27.95999
# Shear Modulus (GPa) = 24.16320 32.76953 28.46636
#
# Velocity S-wave (km/s) = 3.15677 3.67621 3.42635
# Velocity P-wave (km/s) = 4.54741 5.80426 5.21384
#
# Compressibility (1/GPa) = 0.05579132
#
# Stress axis : x y z
#
# Youngs Moduli (GPa) = 56.28831 66.78306 45.27711
#
# Poissons Ratio (x) = 0.09416 -0.16245
# Poissons Ratio (y) = 0.07936 0.07676
# Poissons Ratio (z) = -0.20196 0.11322
#
# Static dielectric constant tensor:
#      x y z
#    x 2.011500 0.000000 0.041850 
#    y 0.000000 1.938250 -0.000080 
#    z 0.041850 -0.000080 1.947930 
# 
# From -- ./inp_files/374180.got.cif
#   From: 2010.05.17/outbox.cif.g08.bks.cpg/sg12_188_cif.got.tgz:374180.got - 2010.06.03 13:09:07.
