data_PCOD9200620
_publ_section_title
;
Structure prediction by ZEFSAII (Michael W. Deem and Ramdas Pophale) SiO2 
 PCOD9200620
Probable space group: C 2/M
;
_chemical_formula_sum "Si O2"
_cell_formula_units_Z 48
_cell_length_a 21.470563
_cell_length_b 15.303788
_cell_length_c 19.618787
_cell_angle_alpha 90.000000
_cell_angle_beta 23.970844
_cell_angle_gamma 90.000000
_cell_volume 2618.973562
_symmetry_space_group_name_H-M "C 2/M"
_symmetry_group_IT_number 12
_symmetry_cell_setting 'monoclinic'
loop_
_space_group_symop_operation_xyz
x,y,z
-x,y,-z
-x,-y,-z
x,-y,z
1/2+x,1/2+y,z
1/2-x,1/2+y,-z
1/2-x,1/2-y,-z
1/2+x,1/2-y,z
loop_
_atom_site_type_symbol
_atom_site_label
_atom_site_fract_x
_atom_site_fract_y
_atom_site_fract_z
Si Si1 0.065918 0.150368 0.860576
Si Si2 0.435826 0.000000 0.386703
Si Si3 0.567221 0.500000 0.261649
Si Si4 0.565922 0.849633 0.507583
Si Si5 0.564167 0.500000 0.758361
Si Si6 0.434255 0.852968 0.140046
Si Si7 0.065745 0.852968 0.508556
Si Si8 0.067221 0.500000 0.103910
O O1 0.249998 0.146608 0.681048
O O2 0.018582 0.084670 0.848371
O O3 0.023220 0.251367 0.890233
O O4 0.000000 0.124341 0.000000
O O5 0.481412 0.915330 0.385540
O O6 0.249997 0.000000 0.565780
O O7 0.509017 0.000000 0.239432
O O8 0.509018 0.500000 0.242533
O O9 0.502361 0.416019 0.366527
O O10 0.750000 0.500000 0.081485
O O11 0.500000 0.875658 0.500000
O O12 0.523222 0.748634 0.563324
O O13 0.250000 0.860214 0.323357
O O14 0.502361 0.916019 0.128751
O O15 0.500000 0.877276 0.000000
O O16 0.000000 0.877274 0.500000
#
# Coordination Sequence:
#
# PCOD9200620 Si02
#       8
#     8   4   4   8   4   8   8   4
#     4   9  19  35  59  85 110 141 179 220 267 318
#     4  10  21  38  56  80 113 148 180 216 265 324
#     4  12  25  38  53  78 109 146 185 226 273 320
#     4   9  19  35  59  85 110 141 179 220 267 318
#     4  10  21  38  56  80 113 148 180 216 265 324
#     4  10  20  37  59  83 109 141 179 223 269 320
#     4  10  20  37  59  83 109 141 179 223 269 320
#     4  12  25  38  53  78 109 146 185 226 273 320
#
# _framework density 18.327791000000001
#
# number of rings (size 3 to 8) (size 9 to 14) (size 15 to 20)
#    0.000    2.000    0.000    3.500    0.000    4.000 
#    0.000    6.667    0.000    0.000    0.000    0.000 
#    0.000    0.000    0.000    0.000    0.000    0.000 
#
# Total GULP energy -134079.233000 kJ/mol
# GULP energy per Si atom -5586.634708 kJ/mol
# Density = 1.828608 g / cm^3
# Si number density = 18.327791 Si / 1000 Ang^3
#
#
#
# Elastic Constant Matrix: (Units=GPa)
#
#
# Indices 1 2 3 4 5 6 
#
# 1 165.7536 98.6258 58.3217 0.0020 30.9646 -0.0050
# 2 98.6258 116.2277 68.0375 0.0039 31.7822 -0.0087
# 3 58.3217 68.0375 103.2813 0.0051 33.9444 -0.0099
# 4 0.0020 0.0039 0.0051 -2.0946 -0.0037 -1.3171
# 5 30.9646 31.7822 33.9444 -0.0037 35.7193 0.0080
# 6 -0.0050 -0.0087 -0.0099 -1.3171 0.0080 -3.3680
#
#
#
# Elastic Compliance Matrix: (Units=1/GPa)
#
#
# Indices 1 2 3 4 5 6 
#
# 1 0.012282 -0.010087 0.000377 -0.000005 -0.002029 0.000004
# 2 -0.010087 0.023036 -0.008167 0.000052 -0.003991 -0.000050
# 3 0.000377 -0.008167 0.018277 0.000112 -0.010429 -0.000102
# 4 -0.000005 0.000052 0.000112 -0.633075 -0.000269 0.247571
# 5 -0.002029 -0.003991 -0.010429 -0.000269 0.043216 0.000252
# 6 0.000004 -0.000050 -0.000102 0.247571 0.000252 -0.393731
#
#
# Mechanical properties :
#
#
# Convention : Reuss Voigt Hill
#
# Bulk Modulus (GPa) = 56.05683 92.80362 74.43023
# Shear Modulus (GPa) = -5.62877 16.73652 5.55387
#
# Velocity S-wave (km/s) = -1.75438 3.02516 1.74266
# Velocity P-wave (km/s) = 5.15251 7.93395 6.68939
#
# Compressibility (1/GPa) = 0.01783904
#
# Stress axis : x y z
#
# Youngs Moduli (GPa) = 81.42180 43.41103 54.71307
#
# Poissons Ratio (x) = 0.43790 -0.02062
# Poissons Ratio (y) = 0.82133 0.44685
# Poissons Ratio (z) = -0.03068 0.35455
#
# Static dielectric constant tensor:
#      x y z
#    x 1.589980 0.000000 -0.013920 
#    y 0.000000 1.645140 0.000000 
#    z -0.013920 0.000000 1.603380 
# 
# From -- ./inp_files/226807.got.cif
#   From: 2010.05.17/outbox.cif.g08.bks.cpg/sg12_114_cif.got.tgz:226807.got - 2010.06.03 13:09:07.
