data_PCOD9200365
_publ_section_title
;
Structure prediction by ZEFSAII (Michael W. Deem and Ramdas Pophale) SiO2 
 PCOD9200365
Probable space group: C 2/M
;
_chemical_formula_sum "Si O2"
_cell_formula_units_Z 64
_cell_length_a 15.524593
_cell_length_b 17.645591
_cell_length_c 11.843808
_cell_angle_alpha 90.000000
_cell_angle_beta 94.909038
_cell_angle_gamma 90.000000
_cell_volume 3232.598646
_symmetry_space_group_name_H-M "C 2/M"
_symmetry_group_IT_number 12
_symmetry_cell_setting 'monoclinic'
loop_
_space_group_symop_operation_xyz
x,y,z
-x,y,-z
-x,-y,-z
x,-y,z
1/2+x,1/2+y,z
1/2-x,1/2+y,-z
1/2-x,1/2-y,-z
1/2+x,1/2-y,z
loop_
_atom_site_type_symbol
_atom_site_label
_atom_site_fract_x
_atom_site_fract_y
_atom_site_fract_z
Si Si1 0.199490 0.913169 0.951521
Si Si2 0.540543 0.175290 0.827725
Si Si3 0.587469 0.590900 0.569492
Si Si4 0.268562 0.591059 0.590149
Si Si5 0.071555 0.409677 0.597997
Si Si6 0.155761 0.146598 0.172127
Si Si7 0.459378 0.646175 0.192970
Si Si8 0.136723 0.318206 0.076902
O O1 0.106060 0.878816 0.911397
O O2 0.275403 0.864970 0.903084
O O3 0.204054 0.000000 0.916895
O O4 0.205127 0.904602 0.086865
O O5 0.565925 0.128945 0.720034
O O6 0.535655 0.263716 0.797118
O O7 0.444809 0.152299 0.859929
O O8 0.604487 0.174087 0.943194
O O9 0.500000 0.619616 0.500000
O O10 0.585455 0.500000 0.566326
O O11 0.671323 0.614081 0.508082
O O12 0.581664 0.615139 0.697356
O O13 0.281998 0.500000 0.612604
O O14 0.167302 0.602807 0.559652
O O15 0.298223 0.638031 0.702756
O O16 0.059341 0.500000 0.611630
O O17 0.000000 0.382393 0.500000
O O18 0.153249 0.231556 0.118894
O O19 0.056904 0.119636 0.180427
#
# Coordination Sequence:
#
# PCOD9200365 Si02
#       8
#     8   8   8   8   8   8   8   8
#     4  12  25  37  60  96 128 164 210 260 316 378
#     4  10  22  43  67  88 123 170 213 257 320 377
#     4  10  20  37  57  83 126 166 199 252 311 373
#     4  10  21  37  64  94 121 165 213 255 316 384
#     4  10  23  43  66  93 125 163 212 271 319 365
#     4  11  21  39  63  89 129 168 206 258 313 381
#     4  11  23  38  60  91 128 166 205 255 320 381
#     4  10  23  42  63  90 127 170 206 262 319 372
#
# _framework density 19.798313
#
# number of rings (size 3 to 8) (size 9 to 14) (size 15 to 20)
#    0.000    1.500    2.500    2.250    1.750    5.500 
#    0.000    3.125    0.000    0.000    0.000    0.000 
#    0.000    0.000    0.000    0.000    0.000    0.000 
#
# Total GULP energy -178729.248157 kJ/mol
# GULP energy per Si atom -5585.289005 kJ/mol
# Density = 1.975325 g / cm^3
# Si number density = 19.798313 Si / 1000 Ang^3
#
#
#
# Elastic Constant Matrix: (Units=GPa)
#
#
# Indices 1 2 3 4 5 6 
#
# 1 126.2861 42.4735 38.9115 0.0000 -5.8035 0.0000
# 2 42.4735 42.7355 19.4682 0.0000 -7.2779 0.0000
# 3 38.9115 19.4682 91.1373 0.0000 -21.1077 0.0000
# 4 0.0000 0.0000 0.0000 31.2047 0.0000 -0.1174
# 5 -5.8035 -7.2779 -21.1077 0.0000 24.2770 0.0000
# 6 0.0000 0.0000 0.0000 -0.1174 0.0000 34.3504
#
#
#
# Elastic Compliance Matrix: (Units=1/GPa)
#
#
# Indices 1 2 3 4 5 6 
#
# 1 0.012862 -0.011662 -0.003879 0.000000 -0.003794 0.000000
# 2 -0.011662 0.036765 -0.001211 0.000000 0.007181 0.000000
# 3 -0.003879 -0.001211 0.015763 0.000000 0.012414 0.000000
# 4 0.000000 0.000000 0.000000 0.032047 0.000000 0.000109
# 5 -0.003794 0.007181 0.012414 0.000000 0.053231 0.000000
# 6 0.000000 0.000000 0.000000 0.000109 0.000000 0.029112
#
#
# Mechanical properties :
#
#
# Convention : Reuss Voigt Hill
#
# Bulk Modulus (GPa) = 31.36289 51.31836 41.34063
# Shear Modulus (GPa) = 22.33033 28.58680 25.45857
#
# Velocity S-wave (km/s) = 3.36205 3.80399 3.58983
# Velocity P-wave (km/s) = 5.56298 6.72835 6.17323
#
# Compressibility (1/GPa) = 0.03188482
#
# Stress axis : x y z
#
# Youngs Moduli (GPa) = 77.75140 27.20003 63.44151
#
# Poissons Ratio (x) = 0.31720 0.24608
# Poissons Ratio (y) = 0.90672 0.07685
# Poissons Ratio (z) = 0.30159 0.03295
#
# Static dielectric constant tensor:
#      x y z
#    x 1.714860 0.000000 0.032180 
#    y 0.000000 1.676350 0.000000 
#    z 0.032180 0.000000 1.733070 
# 
# From -- ./inp_files/146173.got.cif
#   From: 2010.05.17/outbox.cif.g08.bks.cpg/sg12_74_cif.got.tgz:146173.got - 2010.06.03 13:09:07.
