data_PCOD9200704
_publ_section_title
;
Structure prediction by ZEFSAII (Michael W. Deem and Ramdas Pophale) SiO2 
 PCOD9200704
Probable space group: C 2/M
;
_chemical_formula_sum "Si O2"
_cell_formula_units_Z 40
_cell_length_a 8.228335
_cell_length_b 14.630891
_cell_length_c 26.749794
_cell_angle_alpha 90.000000
_cell_angle_beta 148.325924
_cell_angle_gamma 90.000000
_cell_volume 1690.963176
_symmetry_space_group_name_H-M "C 2/M"
_symmetry_group_IT_number 12
_symmetry_cell_setting 'monoclinic'
loop_
_space_group_symop_operation_xyz
x,y,z
-x,y,-z
-x,-y,-z
x,-y,z
1/2+x,1/2+y,z
1/2-x,1/2+y,-z
1/2-x,1/2-y,-z
1/2+x,1/2-y,z
loop_
_atom_site_type_symbol
_atom_site_label
_atom_site_fract_x
_atom_site_fract_y
_atom_site_fract_z
Si Si1 0.097508 0.101167 0.974929
Si Si2 0.346186 0.393311 0.658305
Si Si3 0.288937 0.148974 0.210285
Si Si4 0.745408 0.344636 0.849360
Si Si5 0.642780 0.203278 0.393025
O O1 0.809937 0.091303 0.863009
O O2 0.208822 0.000000 0.017499
O O3 0.412466 0.146540 0.039605
O O4 0.000000 0.150596 0.000000
O O5 0.272684 0.500000 0.623742
O O6 0.638237 0.401006 0.772512
O O7 0.416885 0.312416 0.635606
O O8 0.072599 0.344217 0.620550
O O9 0.297154 0.245288 0.184847
O O10 0.570245 0.147936 0.322600
O O11 0.998874 0.138208 0.171350
O O12 0.000000 0.195751 0.500000
#
# Coordination Sequence:
#
# PCOD9200704 Si02
#       5
#     8   8   8   8   8
#     4  11  23  37  55  84 121 159 204 258 315 380
#     4  10  22  41  66  96 130 171 217 266 325 388
#     4  10  21  36  60  86 117 160 205 253 314 378
#     4  10  20  37  59  85 119 160 204 254 312 379
#     4  10  22  42  66  95 131 169 217 274 322 380
#
# _framework density 23.655156999999999
#
# number of rings (size 3 to 8) (size 9 to 14) (size 15 to 20)
#    0.000    1.800    0.000    3.600    0.000    7.200 
#    0.000    1.000    0.000    2.400    0.000    0.000 
#    0.000    0.000    0.000    0.000    0.000    0.000 
#
# Total GULP energy -111340.315033 kJ/mol
# GULP energy per Si atom -5567.015752 kJ/mol
# Density = 2.360132 g / cm^3
# Si number density = 23.655157 Si / 1000 Ang^3
#
#
#
# Elastic Constant Matrix: (Units=GPa)
#
#
# Indices 1 2 3 4 5 6 
#
# 1 68.2158 17.7665 23.6839 0.0001 -11.3352 -0.0001
# 2 17.7665 101.2638 43.2458 0.0005 13.3227 0.0000
# 3 23.6839 43.2458 144.3817 -0.0004 -22.5711 0.0009
# 4 0.0001 0.0005 -0.0004 15.0077 0.0004 -2.6402
# 5 -11.3352 13.3227 -22.5711 0.0004 15.5257 0.0000
# 6 -0.0001 0.0000 0.0009 -2.6402 0.0000 -36.0926
#
#
#
# Elastic Compliance Matrix: (Units=1/GPa)
#
#
# Indices 1 2 3 4 5 6 
#
# 1 0.020235 -0.008676 0.003562 0.000000 0.027397 0.000000
# 2 -0.008676 0.022004 -0.011789 0.000000 -0.042355 0.000000
# 3 0.003562 -0.011789 0.015349 0.000000 0.035032 0.000000
# 4 0.000000 0.000000 0.000000 0.065786 -0.000003 -0.004812
# 5 0.027397 -0.042355 0.035032 -0.000003 0.171685 0.000001
# 6 0.000000 0.000000 0.000000 -0.004812 0.000001 -0.027354
#
#
# Mechanical properties :
#
#
# Convention : Reuss Voigt Hill
#
# Bulk Modulus (GPa) = 42.04652 53.69487 47.87069
# Shear Modulus (GPa) = 16.15835 14.16584 15.16209
#
# Velocity S-wave (km/s) = 2.61641 2.44979 2.53447
# Velocity P-wave (km/s) = 5.19046 5.54529 5.37081
#
# Compressibility (1/GPa) = 0.02378318
#
# Stress axis : x y z
#
# Youngs Moduli (GPa) = 49.42026 45.44549 65.14969
#
# Poissons Ratio (x) = 0.39428 -0.23209
# Poissons Ratio (y) = 0.42877 0.76805
# Poissons Ratio (z) = -0.17605 0.53576
#
# Static dielectric constant tensor:
#      x y z
#    x 2.069570 0.000000 0.045440 
#    y 0.000000 2.023360 0.000000 
#    z 0.045440 0.000000 1.936770 
# 
# From -- ./inp_files/194440.got.cif
#   From: 2010.05.17/outbox.cif.g08.bks.cpg/sg12_98_cif.got.tgz:194440.got - 2010.06.03 13:09:07.
