data_PCOD9200361
_publ_section_title
;
Structure prediction by ZEFSAII (Michael W. Deem and Ramdas Pophale) SiO2 
 PCOD9200361
Probable space group: C 2/M
;
_chemical_formula_sum "Si O2"
_cell_formula_units_Z 56
_cell_length_a 17.492518
_cell_length_b 14.538053
_cell_length_c 14.402469
_cell_angle_alpha 90.000000
_cell_angle_beta 124.994373
_cell_angle_gamma 90.000000
_cell_volume 3000.474277
_symmetry_space_group_name_H-M "C 2/M"
_symmetry_group_IT_number 12
_symmetry_cell_setting 'monoclinic'
loop_
_space_group_symop_operation_xyz
x,y,z
-x,y,-z
-x,-y,-z
x,-y,z
1/2+x,1/2+y,z
1/2-x,1/2+y,-z
1/2-x,1/2-y,-z
1/2+x,1/2-y,z
loop_
_atom_site_type_symbol
_atom_site_label
_atom_site_fract_x
_atom_site_fract_y
_atom_site_fract_z
Si Si1 0.231000 0.217597 0.203168
Si Si2 0.954366 0.106891 0.629439
Si Si3 0.570243 0.101103 0.463350
Si Si4 0.925059 0.897457 0.823621
Si Si5 0.199412 0.769100 0.562648
Si Si6 0.070362 0.714547 0.752555
Si Si7 0.062457 0.271287 0.962991
O O1 0.171327 0.129755 0.194940
O O2 0.239679 0.281096 0.302095
O O3 0.331019 0.197862 0.228194
O O4 0.163780 0.260735 0.078641
O O5 0.911212 0.107473 0.703077
O O6 0.878168 0.151923 0.507452
O O7 0.037935 0.181583 0.699275
O O8 0.978084 0.000000 0.623767
O O9 0.500000 0.094210 0.500000
O O10 0.648472 0.172624 0.546227
O O11 0.510761 0.148243 0.341107
O O12 0.605812 0.000000 0.463814
O O13 0.003990 0.823814 0.905932
O O14 0.955091 0.000000 0.867503
O O15 0.250000 0.750000 0.500000
O O16 0.074205 0.697310 0.865340
O O17 0.000000 0.320287 0.000000
#
# Coordination Sequence:
#
# PCOD9200361 Si02
#       7
#     8   8   8   8   8   8   8
#     4  11  20  32  53  83 111 147 184 227 280 330
#     4   9  19  36  59  82 113 152 185 226 279 330
#     4  10  21  37  58  85 114 144 179 230 287 332
#     4   9  18  34  55  85 114 140 184 239 288 331
#     4  11  21  35  56  85 118 145 183 226 278 339
#     4  10  20  37  57  83 115 146 186 232 277 335
#     4   9  20  35  56  79 107 151 188 224 279 334
#
# _framework density 18.663716000000001
#
# number of rings (size 3 to 8) (size 9 to 14) (size 15 to 20)
#    0.000    2.143    2.857    0.429    2.000    4.286 
#    0.000    1.429    0.000    3.857    0.000    0.000 
#    0.000    0.000    0.000    0.000    0.000    0.000 
#
# Total GULP energy -155921.724063 kJ/mol
# GULP energy per Si atom -5568.633002 kJ/mol
# Density = 1.862124 g / cm^3
# Si number density = 18.663716 Si / 1000 Ang^3
#
#
#
# Elastic Constant Matrix: (Units=GPa)
#
#
# Indices 1 2 3 4 5 6 
#
# 1 69.3593 8.5814 12.4382 0.0000 -5.6764 0.0000
# 2 8.5814 76.5723 21.6022 0.0000 0.4160 0.0000
# 3 12.4382 21.6022 131.2263 0.0000 -17.7610 0.0000
# 4 0.0000 0.0000 0.0000 24.8812 0.0000 15.4559
# 5 -5.6764 0.4160 -17.7610 0.0000 30.5688 0.0000
# 6 0.0000 0.0000 0.0000 15.4559 0.0000 38.5948
#
#
#
# Elastic Compliance Matrix: (Units=1/GPa)
#
#
# Indices 1 2 3 4 5 6 
#
# 1 0.014939 -0.001442 -0.000869 0.000000 0.002289 0.000000
# 2 -0.001442 0.013909 -0.002404 0.000000 -0.001854 0.000000
# 3 -0.000869 -0.002404 0.008771 0.000000 0.004967 0.000000
# 4 0.000000 0.000000 0.000000 0.053500 0.000000 -0.021425
# 5 0.002289 -0.001854 0.004967 0.000000 0.036049 0.000000
# 6 0.000000 0.000000 0.000000 -0.021425 0.000000 0.034490
#
#
# Mechanical properties :
#
#
# Convention : Reuss Voigt Hill
#
# Bulk Modulus (GPa) = 35.47287 40.26682 37.86984
# Shear Modulus (GPa) = 27.70315 34.44469 31.07392
#
# Velocity S-wave (km/s) = 3.85688 4.30064 4.08479
# Velocity P-wave (km/s) = 6.23551 6.80312 6.52549
#
# Compressibility (1/GPa) = 0.02819056
#
# Stress axis : x y z
#
# Youngs Moduli (GPa) = 66.93808 71.89394 114.01414
#
# Poissons Ratio (x) = 0.10364 0.09907
# Poissons Ratio (y) = 0.09649 0.27409
# Poissons Ratio (z) = 0.05816 0.17283
#
# Static dielectric constant tensor:
#      x y z
#    x 1.654940 0.000000 0.002400 
#    y 0.000000 1.668500 0.000000 
#    z 0.002400 0.000000 1.624440 
# 
# From -- ./inp_files/225173.got.cif
#   From: 2010.05.17/outbox.cif.g08.bks.cpg/sg12_113_cif.got.tgz:225173.got - 2010.06.03 13:09:07.
