data_PCOD9200152
_publ_section_title
;
Structure prediction by ZEFSAII (Michael W. Deem and Ramdas Pophale) SiO2 
 PCOD9200152
Probable space group: C 2/M
;
_chemical_formula_sum "Si O2"
_cell_formula_units_Z 44
_cell_length_a 22.216906
_cell_length_b 11.549831
_cell_length_c 11.582311
_cell_angle_alpha 90.000000
_cell_angle_beta 45.605577
_cell_angle_gamma 90.000000
_cell_volume 2123.642697
_symmetry_space_group_name_H-M "C 2/M"
_symmetry_group_IT_number 12
_symmetry_cell_setting 'monoclinic'
loop_
_space_group_symop_operation_xyz
x,y,z
-x,y,-z
-x,-y,-z
x,-y,z
1/2+x,1/2+y,z
1/2-x,1/2+y,-z
1/2-x,1/2-y,-z
1/2+x,1/2-y,z
loop_
_atom_site_type_symbol
_atom_site_label
_atom_site_fract_x
_atom_site_fract_y
_atom_site_fract_z
Si Si1 0.961357 0.500000 0.680049
Si Si2 0.365538 0.000000 0.427790
Si Si3 0.099870 0.500000 0.883832
Si Si4 0.438933 0.262573 0.740849
Si Si5 0.615161 0.636513 0.415250
Si Si6 0.414473 0.256918 0.038121
Si Si7 0.243138 0.716244 0.375848
O O1 0.036665 0.500000 0.672218
O O2 0.000000 0.500000 0.500000
O O3 0.919225 0.625645 0.751449
O O4 0.357621 0.000000 0.299611
O O5 0.321037 0.889815 0.541835
O O6 0.114029 0.621659 0.926064
O O7 0.000000 0.500000 0.000000
O O8 0.384485 0.332974 0.720961
O O9 0.535465 0.293018 0.575440
O O10 0.428449 0.295012 0.888362
O O11 0.601897 0.500000 0.449749
O O12 0.698998 0.681218 0.364107
O O13 0.335002 0.316640 0.205384
O O14 0.500000 0.266558 0.000000
O O15 0.250000 0.750000 0.500000
#
# Coordination Sequence:
#
# PCOD9200152 Si02
#       7
#     4   4   4   8   8   8   8
#     4  12  18  36  68  99 129 166 215 276 329 381
#     4  12  22  42  63 100 135 166 224 267 330 393
#     4  10  20  36  64  96 133 164 208 271 321 388
#     4  11  21  42  68  96 135 172 221 270 323 397
#     4  11  25  44  69  94 129 179 219 265 331 396
#     4  11  23  41  64  99 130 172 222 271 328 384
#     4  12  25  43  68  95 133 174 216 274 327 393
#
# _framework density 20.719114999999999
#
# number of rings (size 3 to 8) (size 9 to 14) (size 15 to 20)
#    0.000    0.727    5.455    4.909    2.545    0.727 
#    3.273    0.455    0.000    0.000    0.000    0.000 
#    0.000    0.000    0.000    0.000    0.000    0.000 
#
# Total GULP energy -122909.138657 kJ/mol
# GULP energy per Si atom -5586.779030 kJ/mol
# Density = 2.067196 g / cm^3
# Si number density = 20.719115 Si / 1000 Ang^3
#
#
#
# Elastic Constant Matrix: (Units=GPa)
#
#
# Indices 1 2 3 4 5 6 
#
# 1 121.8892 12.0204 48.2141 0.0000 20.5589 0.0000
# 2 12.0204 86.0458 8.0104 0.0000 -5.6751 0.0000
# 3 48.2141 8.0104 117.0391 0.0000 27.4623 0.0000
# 4 0.0000 0.0000 0.0000 9.7443 0.0000 12.5028
# 5 20.5589 -5.6751 27.4623 0.0000 41.8235 0.0000
# 6 0.0000 0.0000 0.0000 12.5028 0.0000 10.3548
#
#
#
# Elastic Compliance Matrix: (Units=1/GPa)
#
#
# Indices 1 2 3 4 5 6 
#
# 1 0.010178 -0.001298 -0.003415 0.000000 -0.002937 0.000000
# 2 -0.001298 0.012087 -0.000978 0.000000 0.002920 0.000000
# 3 -0.003415 -0.000978 0.011414 0.000000 -0.005948 0.000000
# 4 0.000000 0.000000 0.000000 -0.186843 0.000000 0.225602
# 5 -0.002937 0.002920 -0.005948 0.000000 0.029656 0.000000
# 6 0.000000 0.000000 0.000000 0.225602 0.000000 -0.175828
#
#
# Mechanical properties :
#
#
# Convention : Reuss Voigt Hill
#
# Bulk Modulus (GPa) = 44.84780 51.27377 48.06079
# Shear Modulus (GPa) = -17.82387 29.49979 5.83796
#
# Velocity S-wave (km/s) = -2.93620 3.77742 1.68041
# Velocity P-wave (km/s) = 3.19336 6.62012 5.19728
#
# Compressibility (1/GPa) = 0.02229764
#
# Stress axis : x y z
#
# Youngs Moduli (GPa) = 98.24772 82.73613 87.61453
#
# Poissons Ratio (x) = 0.10737 0.29920
# Poissons Ratio (y) = 0.12750 0.08567
# Poissons Ratio (z) = 0.33551 0.08090
#
# Static dielectric constant tensor:
#      x y z
#    x 1.752440 0.000000 0.005570 
#    y 0.000000 1.781250 0.000000 
#    z 0.005570 0.000000 1.758690 
# 
# From -- ./inp_files/175132.got.cif
#   From: 2010.05.17/outbox.cif.g08.bks.cpg/sg12_88_cif.got.tgz:175132.got - 2010.06.03 13:09:07.
