data_PCOD9200377
_publ_section_title
;
Structure prediction by ZEFSAII (Michael W. Deem and Ramdas Pophale) SiO2 
 PCOD9200377
Probable space group: C 2/M
;
_chemical_formula_sum "Si O2"
_cell_formula_units_Z 50
_cell_length_a 25.100650
_cell_length_b 17.040610
_cell_length_c 7.242183
_cell_angle_alpha 90.000000
_cell_angle_beta 50.803324
_cell_angle_gamma 90.000000
_cell_volume 2400.660471
_symmetry_space_group_name_H-M "C 2/M"
_symmetry_group_IT_number 12
_symmetry_cell_setting 'monoclinic'
loop_
_space_group_symop_operation_xyz
x,y,z
-x,y,-z
-x,-y,-z
x,-y,z
1/2+x,1/2+y,z
1/2-x,1/2+y,-z
1/2-x,1/2-y,-z
1/2+x,1/2-y,z
loop_
_atom_site_type_symbol
_atom_site_label
_atom_site_fract_x
_atom_site_fract_y
_atom_site_fract_z
Si Si1 0.979574 0.146284 0.759467
Si Si2 0.818900 0.413984 0.959176
Si Si3 0.886902 0.772572 0.437689
Si Si4 0.715175 0.850702 0.363208
Si Si5 0.303415 0.583933 0.493547
Si Si6 0.000000 0.000000 0.000000
Si Si7 0.651928 0.258104 0.049361
O O1 0.905206 0.187014 0.916720
O O2 0.000000 0.128723 0.500000
O O3 0.032846 0.212848 0.714947
O O4 0.986484 0.069969 0.870837
O O5 0.851167 0.500000 0.918463
O O6 0.745284 0.415882 0.221276
O O7 0.804739 0.399195 0.774317
O O8 0.856003 0.335814 0.953494
O O9 0.852811 0.695749 0.422930
O O10 0.856634 0.847401 0.401182
O O11 0.856547 0.772091 0.712751
O O12 0.751810 0.902135 0.437677
O O13 0.773198 0.785883 0.182099
O O14 0.340214 0.500000 0.395593
#
# Coordination Sequence:
#
# PCOD9200377 Si02
#       7
#     8   8   8   8   8   2   8
#     4  10  25  41  59  86 122 159 196 241 283 348
#     4  10  20  37  57  86 116 145 188 247 292 341
#     4  10  20  39  58  81 114 153 189 238 287 341
#     4  11  20  36  59  83 113 152 194 237 288 352
#     4  11  22  32  54  86 116 147 188 240 292 338
#     4  12  26  44  60  86 122 164 202 222 296 350
#     4  10  20  40  59  82 114 157 196 232 294 349
#
# _framework density 20.827601000000001
#
# number of rings (size 3 to 8) (size 9 to 14) (size 15 to 20)
#    0.000    1.600    3.200    2.160    3.360    0.000 
#    2.880    0.000    0.000   12.960    0.000    2.800 
#    0.000    0.000    0.000    0.000    0.000    0.160 
#
# Total GULP energy -139416.364065 kJ/mol
# GULP energy per Si atom -5576.654563 kJ/mol
# Density = 2.078020 g / cm^3
# Si number density = 20.827601 Si / 1000 Ang^3
#
#
#
# Elastic Constant Matrix: (Units=GPa)
#
#
# Indices 1 2 3 4 5 6 
#
# 1 81.0964 28.6258 25.3554 0.0000 -0.7778 0.0000
# 2 28.6258 129.4338 33.6249 0.0000 11.4818 0.0000
# 3 25.3554 33.6249 51.5853 0.0000 5.7180 0.0000
# 4 0.0000 0.0000 0.0000 5.0671 0.0000 -5.7891
# 5 -0.7778 11.4818 5.7180 0.0000 26.8681 0.0000
# 6 0.0000 0.0000 0.0000 -5.7891 0.0000 18.3556
#
#
#
# Elastic Compliance Matrix: (Units=1/GPa)
#
#
# Indices 1 2 3 4 5 6 
#
# 1 0.015038 -0.001881 -0.006455 0.000000 0.002613 0.000000
# 2 -0.001881 0.009739 -0.005076 0.000000 -0.003136 0.000000
# 3 -0.006455 -0.005076 0.026267 0.000000 -0.003608 0.000000
# 4 0.000000 0.000000 0.000000 0.308521 0.000000 0.097304
# 5 0.002613 -0.003136 -0.003608 0.000000 0.039402 0.000000
# 6 0.000000 0.000000 0.000000 0.097304 0.000000 0.085168
#
#
# Mechanical properties :
#
#
# Convention : Reuss Voigt Hill
#
# Bulk Modulus (GPa) = 41.28858 48.59196 44.94027
# Shear Modulus (GPa) = 9.63330 21.69212 15.66271
#
# Velocity S-wave (km/s) = 2.15297 3.23074 2.74527
# Velocity P-wave (km/s) = 5.10367 6.10722 5.62786
#
# Compressibility (1/GPa) = 0.02421977
#
# Stress axis : x y z
#
# Youngs Moduli (GPa) = 66.49712 102.68272 38.07061
#
# Poissons Ratio (x) = 0.19311 0.24576
# Poissons Ratio (y) = 0.12506 0.19325
# Poissons Ratio (z) = 0.42927 0.52122
#
# Static dielectric constant tensor:
#      x y z
#    x 1.765590 0.000000 0.018430 
#    y 0.000000 1.749230 0.000000 
#    z 0.018430 0.000000 1.793430 
# 
# From -- ./inp_files/104379.got.cif
#   From: 2010.05.17/outbox.cif.g08.bks.cpg/sg12_53_cif.got.tgz:104379.got - 2010.06.03 13:09:07.
