data_PCOD9200451
_publ_section_title
;
Structure prediction by ZEFSAII (Michael W. Deem and Ramdas Pophale) SiO2 
 PCOD9200451
Probable space group: C 2/M
;
_chemical_formula_sum "Si O2"
_cell_formula_units_Z 56
_cell_length_a 12.373962
_cell_length_b 28.429878
_cell_length_c 10.234968
_cell_angle_alpha 90.000000
_cell_angle_beta 124.290732
_cell_angle_gamma 90.000000
_cell_volume 2974.746086
_symmetry_space_group_name_H-M "C 2/M"
_symmetry_group_IT_number 12
_symmetry_cell_setting 'monoclinic'
loop_
_space_group_symop_operation_xyz
x,y,z
-x,y,-z
-x,-y,-z
x,-y,z
1/2+x,1/2+y,z
1/2-x,1/2+y,-z
1/2-x,1/2-y,-z
1/2+x,1/2-y,z
loop_
_atom_site_type_symbol
_atom_site_label
_atom_site_fract_x
_atom_site_fract_y
_atom_site_fract_z
Si Si1 0.393613 0.710342 0.697731
Si Si2 0.163080 0.688213 0.350949
Si Si3 0.099455 0.159567 0.669490
Si Si4 0.205956 0.500000 0.078633
Si Si5 0.637595 0.412160 0.922058
Si Si6 0.096964 0.596162 0.442227
Si Si7 0.147091 0.888121 0.216937
Si Si8 0.929512 0.500000 0.740242
O O1 0.249101 0.703412 0.536378
O O2 0.408251 0.764586 0.746419
O O3 0.504958 0.699580 0.665428
O O4 0.397409 0.666692 0.800862
O O5 0.273210 0.675038 0.321043
O O6 0.082130 0.642148 0.338612
O O7 0.144642 0.128921 0.821330
O O8 0.000000 0.133897 0.500000
O O9 0.288459 0.455453 0.089346
O O10 0.174229 0.500000 0.211178
O O11 0.069962 0.500000 0.906876
O O12 0.482127 0.418407 0.839936
O O13 0.693222 0.398837 0.102096
O O14 0.242263 0.600623 0.602436
O O15 0.082842 0.547354 0.354474
O O16 0.000000 0.597925 0.500000
#
# Coordination Sequence:
#
# PCOD9200451 Si02
#       8
#     8   8   8   4   8   8   8   4
#     4   8  16  30  50  78 113 145 178 228 280 326
#     4   9  17  30  52  81 107 142 191 227 267 334
#     4   9  17  32  53  77 110 146 181 231 286 330
#     4  11  24  40  61  83 108 150 188 229 287 332
#     4  10  20  37  58  81 113 147 188 234 281 333
#     4  11  22  37  59  84 113 150 190 233 282 334
#     4   9  20  36  57  85 115 147 184 230 283 335
#     4  11  25  43  59  82 116 148 185 231 283 339
#
# _framework density 18.825135
#
# number of rings (size 3 to 8) (size 9 to 14) (size 15 to 20)
#    0.000    2.429    0.000    2.786    0.000    6.286 
#    0.000    1.786    0.000   15.429    0.000    0.000 
#    0.000    0.000    0.000    0.000    0.000    0.000 
#
# Total GULP energy -155979.569518 kJ/mol
# GULP energy per Si atom -5570.698911 kJ/mol
# Density = 1.878229 g / cm^3
# Si number density = 18.825135 Si / 1000 Ang^3
#
#
#
# Elastic Constant Matrix: (Units=GPa)
#
#
# Indices 1 2 3 4 5 6 
#
# 1 98.1431 70.9466 22.6418 0.0000 -24.7189 0.0000
# 2 70.9466 138.8811 22.8198 0.0000 -13.3058 0.0000
# 3 22.6418 22.8198 31.5568 0.0000 -2.8126 0.0000
# 4 0.0000 0.0000 0.0000 26.5986 0.0000 5.4655
# 5 -24.7189 -13.3058 -2.8126 0.0000 25.0023 0.0000
# 6 0.0000 0.0000 0.0000 5.4655 0.0000 7.8212
#
#
#
# Elastic Compliance Matrix: (Units=1/GPa)
#
#
# Indices 1 2 3 4 5 6 
#
# 1 0.022529 -0.008500 -0.008521 0.000000 0.016791 0.000000
# 2 -0.008500 0.011736 -0.002607 0.000000 -0.002451 0.000000
# 3 -0.008521 -0.002607 0.039206 0.000000 -0.005401 0.000000
# 4 0.000000 0.000000 0.000000 0.043899 0.000000 -0.030677
# 5 0.016791 -0.002451 -0.005401 0.000000 0.054685 0.000000
# 6 0.000000 0.000000 0.000000 -0.030677 0.000000 0.149295
#
#
# Mechanical properties :
#
#
# Convention : Reuss Voigt Hill
#
# Bulk Modulus (GPa) = 29.22620 55.71082 42.46851
# Shear Modulus (GPa) = 13.44047 22.02928 17.73488
#
# Velocity S-wave (km/s) = 2.67491 3.42454 3.07267
# Velocity P-wave (km/s) = 5.00989 6.73013 5.93269
#
# Compressibility (1/GPa) = 0.03421587
#
# Stress axis : x y z
#
# Youngs Moduli (GPa) = 44.38809 85.20853 25.50611
#
# Poissons Ratio (x) = 0.72425 0.21734
# Poissons Ratio (y) = 0.37729 0.06648
# Poissons Ratio (z) = 0.37824 0.22210
#
# Static dielectric constant tensor:
#      x y z
#    x 1.652490 0.000000 0.000590 
#    y 0.000000 1.678280 0.000000 
#    z 0.000590 0.000000 1.674670 
# 
# From -- ./inp_files/54854.got.cif
#   From: 2010.05.17/outbox.cif.g08.bks.cpg/sg12_28_cif.got.tgz:54854.got - 2010.06.03 13:09:07.
