data_PCOD9200060
_publ_section_title
;
Structure prediction by ZEFSAII (Michael W. Deem and Ramdas Pophale) SiO2 
 PCOD9200060
Probable space group: C 2/M
;
_chemical_formula_sum "Si O2"
_cell_formula_units_Z 46
_cell_length_a 20.613644
_cell_length_b 12.773141
_cell_length_c 26.577213
_cell_angle_alpha 90.000000
_cell_angle_beta 17.908708
_cell_angle_gamma 90.000000
_cell_volume 2151.834108
_symmetry_space_group_name_H-M "C 2/M"
_symmetry_group_IT_number 12
_symmetry_cell_setting 'monoclinic'
loop_
_space_group_symop_operation_xyz
x,y,z
-x,y,-z
-x,-y,-z
x,-y,z
1/2+x,1/2+y,z
1/2-x,1/2+y,-z
1/2-x,1/2-y,-z
1/2+x,1/2-y,z
loop_
_atom_site_type_symbol
_atom_site_label
_atom_site_fract_x
_atom_site_fract_y
_atom_site_fract_z
Si Si1 0.500000 0.000000 0.000000
Si Si2 0.773675 0.882353 0.571347
Si Si3 0.500000 0.718183 0.500000
Si Si4 0.562549 0.703635 0.172266
Si Si5 0.307574 0.615436 0.102701
Si Si6 0.360110 0.659138 0.773748
Si Si7 0.357930 0.383390 0.229290
O O1 0.670937 0.091522 0.890638
O O2 0.585698 0.801027 0.703880
O O3 0.908284 0.849330 0.521655
O O4 0.926824 0.875837 0.410622
O O5 0.694355 0.000000 0.636773
O O6 0.688095 0.794160 0.342408
O O7 0.636718 0.648414 0.168299
O O8 0.422977 0.630496 0.239144
O O9 0.750000 0.750000 0.000000
O O10 0.204541 0.500000 0.180102
O O11 0.429328 0.629479 0.960038
O O12 0.500000 0.614279 0.000000
O O13 0.169138 0.716741 0.215163
O O14 0.275418 0.500000 0.279654
#
# Coordination Sequence:
#
# PCOD9200060 Si02
#       7
#     2   8   4   8   8   8   8
#     4  12  28  40  78 102 152 194 242 314 352 444
#     4  11  25  45  69 101 142 189 240 300 367 438
#     4  10  22  40  64  96 138 180 234 296 358 436
#     4  11  25  45  68  98 138 185 236 302 359 441
#     4  10  20  36  63  92 129 174 225 288 347 417
#     4  12  24  46  67 106 142 185 244 293 372 432
#     4  10  21  38  62  94 130 176 229 291 359 424
#
# _framework density 21.377112
#
# number of rings (size 3 to 8) (size 9 to 14) (size 15 to 20)
#    0.000    1.217    3.478    2.087    1.217    1.391 
#    3.130    3.478    0.000    0.000    0.000    0.000 
#    0.000    0.000    0.000    0.000    0.000    0.000 
#
# Total GULP energy -128349.038709 kJ/mol
# GULP energy per Si atom -5580.392987 kJ/mol
# Density = 2.132846 g / cm^3
# Si number density = 21.377112 Si / 1000 Ang^3
#
#
#
# Elastic Constant Matrix: (Units=GPa)
#
#
# Indices 1 2 3 4 5 6 
#
# 1 56.6456 5.8493 29.8105 0.0536 7.9348 0.0730
# 2 5.8493 118.3476 16.1362 -0.0745 1.6899 -0.2777
# 3 29.8105 16.1362 79.3217 -0.2117 1.8998 -0.5944
# 4 0.0536 -0.0745 -0.2117 -18.8770 0.0237 -63.2874
# 5 7.9348 1.6899 1.8998 0.0237 25.1888 0.0373
# 6 0.0730 -0.2777 -0.5944 -63.2874 0.0373 -165.2463
#
#
#
# Elastic Compliance Matrix: (Units=1/GPa)
#
#
# Indices 1 2 3 4 5 6 
#
# 1 0.023060 0.000118 -0.008531 -0.000074 -0.006629 0.000067
# 2 0.000118 0.008696 -0.001802 -0.000046 -0.000485 0.000009
# 3 -0.008531 -0.001802 0.016141 0.000001 0.001591 -0.000059
# 4 -0.000074 -0.000046 0.000001 0.186521 -0.000044 -0.071435
# 5 -0.006629 -0.000485 0.001591 -0.000044 0.041701 0.000018
# 6 0.000067 0.000009 -0.000059 -0.071435 0.000018 0.021308
#
#
# Mechanical properties :
#
#
# Convention : Reuss Voigt Hill
#
# Bulk Modulus (GPa) = 36.40696 39.76742 38.08719
# Shear Modulus (GPa) = 15.28995 -18.28563 -1.49784
#
# Velocity S-wave (km/s) = 2.67731 -2.92787 -0.83797
# Velocity P-wave (km/s) = 5.15996 2.68576 4.11330
#
# Compressibility (1/GPa) = 0.02746727
#
# Stress axis : x y z
#
# Youngs Moduli (GPa) = 43.36605 114.98946 61.95379
#
# Poissons Ratio (x) = -0.01360 0.52854
# Poissons Ratio (y) = -0.00513 0.11164
# Poissons Ratio (z) = 0.36996 0.20721
#
# Static dielectric constant tensor:
#      x y z
#    x 1.812300 0.000000 0.007830 
#    y 0.000000 1.772340 0.000040 
#    z 0.007830 0.000040 1.738180 
# 
# From -- ./inp_files/366158.got.cif
#   From: 2010.05.17/outbox.cif.g08.bks.cpg/sg12_184_cif.got.tgz:366158.got - 2010.06.03 13:09:07.
