data_PCOD9200729
_publ_section_title
;
Structure prediction by ZEFSAII (Michael W. Deem and Ramdas Pophale) SiO2 
 PCOD9200729
Probable space group: C 2/M
;
_chemical_formula_sum "Si O2"
_cell_formula_units_Z 48
_cell_length_a 29.057564
_cell_length_b 16.611849
_cell_length_c 5.383994
_cell_angle_alpha 90.000000
_cell_angle_beta 126.757233
_cell_angle_gamma 90.000000
_cell_volume 2082.144705
_symmetry_space_group_name_H-M "C 2/M"
_symmetry_group_IT_number 12
_symmetry_cell_setting 'monoclinic'
loop_
_space_group_symop_operation_xyz
x,y,z
-x,y,-z
-x,-y,-z
x,-y,z
1/2+x,1/2+y,z
1/2-x,1/2+y,-z
1/2-x,1/2-y,-z
1/2+x,1/2-y,z
loop_
_atom_site_type_symbol
_atom_site_label
_atom_site_fract_x
_atom_site_fract_y
_atom_site_fract_z
Si Si1 0.136020 0.411003 0.878932
Si Si2 0.933434 0.374361 0.859755
Si Si3 0.948980 0.082834 0.527856
Si Si4 0.836133 0.907549 0.827815
Si Si5 0.697595 0.749802 0.020736
Si Si6 0.401884 0.702912 0.670080
O O1 0.163572 0.500000 0.957834
O O2 0.103584 0.398104 0.507210
O O3 0.182076 0.338587 0.077152
O O4 0.091115 0.411937 0.964939
O O5 0.922849 0.279597 0.885794
O O6 0.000000 0.389010 0.000000
O O7 0.887873 0.084951 0.192474
O O8 0.953489 0.163027 0.693109
O O9 0.000000 0.080876 0.500000
O O10 0.949797 0.000000 0.681200
O O11 0.797653 0.830006 0.789470
O O12 0.813474 0.000000 0.721295
O O13 0.869020 0.869627 0.699548
O O14 0.642003 0.734987 0.674341
O O15 0.750000 0.750000 0.000000
#
# Coordination Sequence:
#
# PCOD9200729 Si02
#       6
#     8   8   8   8   8   8
#     4  11  24  45  67  98 134 171 220 276 327 389
#     4  11  24  40  67  98 133 176 216 265 329 394
#     4   9  19  32  51  82 122 166 206 247 299 366
#     4  10  20  37  59  87 122 157 205 256 310 378
#     4  10  23  43  65  87 122 164 212 271 331 387
#     4  10  21  36  58  86 123 162 210 260 313 376
#
# _framework density 23.053152999999998
#
# number of rings (size 3 to 8) (size 9 to 14) (size 15 to 20)
#    0.000    1.833    1.667    1.500    2.333    4.000 
#    0.000    2.500    0.000    0.000    0.000    0.000 
#    0.000    0.000    0.000    0.000    0.000    0.000 
#
# Total GULP energy -133716.940808 kJ/mol
# GULP energy per Si atom -5571.539200 kJ/mol
# Density = 2.300068 g / cm^3
# Si number density = 23.053153 Si / 1000 Ang^3
#
#
#
# Elastic Constant Matrix: (Units=GPa)
#
#
# Indices 1 2 3 4 5 6 
#
# 1 109.0102 61.8653 -1.7969 0.0000 -16.0113 0.0000
# 2 61.8653 222.6310 13.6447 0.0000 -7.2520 0.0000
# 3 -1.7969 13.6447 61.1301 0.0000 -9.3530 0.0000
# 4 0.0000 0.0000 0.0000 14.0408 0.0000 -9.1995
# 5 -16.0113 -7.2520 -9.3530 0.0000 29.2847 0.0000
# 6 0.0000 0.0000 0.0000 -9.1995 0.0000 66.3910
#
#
#
# Elastic Compliance Matrix: (Units=1/GPa)
#
#
# Indices 1 2 3 4 5 6 
#
# 1 0.011993 -0.003250 0.002059 0.000000 0.006410 0.000000
# 2 -0.003250 0.005455 -0.001449 0.000000 -0.000889 0.000000
# 3 0.002059 -0.001449 0.017726 0.000000 0.006428 0.000000
# 4 0.000000 0.000000 0.000000 0.078333 0.000000 0.010854
# 5 0.006410 -0.000889 0.006428 0.000000 0.039485 0.000000
# 6 0.000000 0.000000 0.000000 0.010854 0.000000 0.016566
#
#
# Mechanical properties :
#
#
# Convention : Reuss Voigt Hill
#
# Bulk Modulus (GPa) = 33.45247 60.02197 46.73722
# Shear Modulus (GPa) = 27.05575 43.21384 35.13480
#
# Velocity S-wave (km/s) = 3.42954 4.33428 3.90818
# Velocity P-wave (km/s) = 5.49771 7.15128 6.37831
#
# Compressibility (1/GPa) = 0.02989316
#
# Stress axis : x y z
#
# Youngs Moduli (GPa) = 83.37925 183.32656 56.41427
#
# Poissons Ratio (x) = 0.59584 -0.11614
# Poissons Ratio (y) = 0.27099 0.08175
# Poissons Ratio (z) = -0.17166 0.26566
#
# Static dielectric constant tensor:
#      x y z
#    x 1.841430 0.000000 -0.049740 
#    y 0.000000 1.971340 0.000000 
#    z -0.049740 0.000000 1.935540 
# 
# From -- ./inp_files/24786.got.cif
#   From: 2010.05.17/outbox.cif.g08.bks.cpg/sg12_13_cif.got.tgz:24786.got - 2010.06.03 13:09:07.
