data_PCOD9200895
_publ_section_title
;
Structure prediction by ZEFSAII (Michael W. Deem and Ramdas Pophale) SiO2 
 PCOD9200895
Probable space group: C 2/M
;
_chemical_formula_sum "Si O2"
_cell_formula_units_Z 56
_cell_length_a 14.361919
_cell_length_b 8.618812
_cell_length_c 23.877847
_cell_angle_alpha 90.000000
_cell_angle_beta 58.162358
_cell_angle_gamma 90.000000
_cell_volume 2510.973357
_symmetry_space_group_name_H-M "C 2/M"
_symmetry_group_IT_number 12
_symmetry_cell_setting 'monoclinic'
loop_
_space_group_symop_operation_xyz
x,y,z
-x,y,-z
-x,-y,-z
x,-y,z
1/2+x,1/2+y,z
1/2-x,1/2+y,-z
1/2-x,1/2-y,-z
1/2+x,1/2-y,z
loop_
_atom_site_type_symbol
_atom_site_label
_atom_site_fract_x
_atom_site_fract_y
_atom_site_fract_z
Si Si1 0.857741 0.180318 0.249610
Si Si2 0.579815 0.180237 0.204977
Si Si3 0.199476 0.678755 0.840957
Si Si4 0.879377 0.819263 0.647883
Si Si5 0.829584 0.676189 0.554191
Si Si6 0.105977 0.678842 0.596884
Si Si7 0.282986 0.684431 0.929911
O O1 0.865430 0.212371 0.180342
O O2 0.738015 0.243675 0.302246
O O3 0.954544 0.271867 0.249556
O O4 0.597187 0.000000 0.212074
O O5 0.367670 0.500000 0.258581
O O6 0.670148 0.284359 0.208094
O O7 0.616919 0.219572 0.129124
O O8 0.176843 0.500000 0.834423
O O9 0.189644 0.703740 0.910925
O O10 0.888313 0.791464 0.578029
O O11 0.982312 0.735125 0.643609
O O12 0.879673 0.000000 0.660805
O O13 0.848614 0.500000 0.567941
O O14 0.870100 0.686540 0.477607
O O15 0.700247 0.715889 0.593882
O O16 0.119755 0.500000 0.610126
O O17 0.307528 0.500000 0.924029
O O18 0.250000 0.750000 0.000000
#
# Coordination Sequence:
#
# PCOD9200895 Si02
#       7
#     8   8   8   8   8   8   8
#     4  12  24  40  60  84 115 154 199 242 289 347
#     4  10  20  37  60  85 117 154 191 236 289 342
#     4   9  20  38  59  85 117 152 191 237 288 340
#     4  12  25  39  58  85 117 153 196 241 288 346
#     4  10  21  39  62  88 118 151 190 239 292 346
#     4  10  21  39  62  88 118 151 190 238 293 347
#     4   9  18  34  60  89 120 153 193 239 287 342
#
# _framework density 22.302109999999999
#
# number of rings (size 3 to 8) (size 9 to 14) (size 15 to 20)
#    0.857    0.857    0.000    5.571    0.000    4.571 
#    0.000    6.429    0.000    4.286    0.000    0.000 
#    0.000    0.000    0.000    0.000    0.000    0.000 
#
# Total GULP energy -156470.483626 kJ/mol
# GULP energy per Si atom -5588.231558 kJ/mol
# Density = 2.225135 g / cm^3
# Si number density = 22.302110 Si / 1000 Ang^3
#
#
#
# Elastic Constant Matrix: (Units=GPa)
#
#
# Indices 1 2 3 4 5 6 
#
# 1 70.9913 -5.9703 -2.2626 0.0000 -0.2340 0.0000
# 2 -5.9703 96.3130 0.1888 0.0000 4.3480 0.0000
# 3 -2.2626 0.1888 56.0922 0.0000 9.7622 0.0000
# 4 0.0000 0.0000 0.0000 31.5661 0.0000 2.5655
# 5 -0.2340 4.3480 9.7622 0.0000 29.5348 0.0000
# 6 0.0000 0.0000 0.0000 2.5655 0.0000 33.3510
#
#
#
# Elastic Compliance Matrix: (Units=1/GPa)
#
#
# Indices 1 2 3 4 5 6 
#
# 1 0.014180 0.000888 0.000607 0.000000 -0.000219 0.000000
# 2 0.000888 0.010511 0.000285 0.000000 -0.001635 0.000000
# 3 0.000607 0.000285 0.018948 0.000000 -0.006300 0.000000
# 4 0.000000 0.000000 0.000000 0.031879 0.000000 -0.002452
# 5 -0.000219 -0.001635 -0.006300 0.000000 0.036180 0.000000
# 6 0.000000 0.000000 0.000000 -0.002452 0.000000 0.030173
#
#
# Mechanical properties :
#
#
# Convention : Reuss Voigt Hill
#
# Bulk Modulus (GPa) = 21.18749 23.03425 22.11087
# Shear Modulus (GPa) = 32.45851 34.31976 33.38913
#
# Velocity S-wave (km/s) = 3.81911 3.92708 3.87347
# Velocity P-wave (km/s) = 5.38222 5.55998 5.47182
#
# Compressibility (1/GPa) = 0.04719766
#
# Stress axis : x y z
#
# Youngs Moduli (GPa) = 70.52424 95.13783 52.77667
#
# Poissons Ratio (x) = -0.08445 -0.03204
# Poissons Ratio (y) = -0.06260 -0.01504
# Poissons Ratio (z) = -0.04281 -0.02711
#
# Static dielectric constant tensor:
#      x y z
#    x 1.816570 0.000000 0.051720 
#    y 0.000000 1.737260 0.000000 
#    z 0.051720 0.000000 1.953170 
# 
# From -- ./inp_files/359654.got.cif
#   From: 2010.05.17/outbox.cif.g08.bks.cpg/sg12_180_cif.got.tgz:359654.got - 2010.06.03 13:09:07.
