data_PCOD9200049
_publ_section_title
;
Structure prediction by ZEFSAII (Michael W. Deem and Ramdas Pophale) SiO2 
 PCOD9200049
Probable space group: C 2/M
;
_chemical_formula_sum "Si O2"
_cell_formula_units_Z 48
_cell_length_a 34.237000
_cell_length_b 7.876068
_cell_length_c 9.709211
_cell_angle_alpha 90.000000
_cell_angle_beta 96.084847
_cell_angle_gamma 90.000000
_cell_volume 2603.366854
_symmetry_space_group_name_H-M "C 2/M"
_symmetry_group_IT_number 12
_symmetry_cell_setting 'monoclinic'
loop_
_space_group_symop_operation_xyz
x,y,z
-x,y,-z
-x,-y,-z
x,-y,z
1/2+x,1/2+y,z
1/2-x,1/2+y,-z
1/2-x,1/2-y,-z
1/2+x,1/2-y,z
loop_
_atom_site_type_symbol
_atom_site_label
_atom_site_fract_x
_atom_site_fract_y
_atom_site_fract_z
Si Si1 0.659019 0.188692 0.252689
Si Si2 0.635909 0.295009 0.793619
Si Si3 0.463424 0.500000 0.887212
Si Si4 0.041925 0.000000 0.436869
Si Si5 0.205831 0.800700 0.016840
Si Si6 0.607026 0.202585 0.486966
Si Si7 0.415025 0.812734 0.978994
O O1 0.693284 0.263597 0.170112
O O2 0.637782 0.263306 0.379645
O O3 0.623703 0.179401 0.129638
O O4 0.671832 0.000000 0.298281
O O5 0.637164 0.500000 0.782099
O O6 0.628781 0.218082 0.641375
O O7 0.674291 0.231030 0.892880
O O8 0.599200 0.244265 0.876137
O O9 0.469692 0.500000 0.727656
O O10 0.440316 0.668925 0.918820
O O11 0.500000 0.500000 0.000000
O O12 0.069729 0.832600 0.473842
O O13 0.000000 0.000000 0.500000
O O14 0.202538 0.000000 0.999656
O O15 0.250000 0.750000 0.000000
O O16 0.597349 0.000000 0.457485
O O17 0.433148 0.000000 0.989471
#
# Coordination Sequence:
#
# PCOD9200049 Si02
#       7
#     8   8   4   4   8   8   8
#     4   9  19  36  61  86 111 155 208 250 297 365
#     4  10  20  36  63  91 120 161 209 256 305 364
#     4  12  26  40  62  88 124 156 206 254 322 370
#     4  12  28  44  64  90 132 166 202 274 324 366
#     4  10  21  35  59  91 128 163 199 252 313 364
#     4  11  23  41  66  91 120 165 215 255 310 381
#     4  10  20  38  61  85 114 156 205 255 300 365
#
# _framework density 18.437662
#
# number of rings (size 3 to 8) (size 9 to 14) (size 15 to 20)
#    0.000    1.667    3.333    1.000    4.667    2.667 
#    0.000    0.833    0.000    0.000    0.000    0.000 
#    0.000    0.000    0.000    0.000    0.000    0.000 
#
# Total GULP energy -133673.498171 kJ/mol
# GULP energy per Si atom -5569.729090 kJ/mol
# Density = 1.839570 g / cm^3
# Si number density = 18.437662 Si / 1000 Ang^3
#
#
#
# Elastic Constant Matrix: (Units=GPa)
#
#
# Indices 1 2 3 4 5 6 
#
# 1 108.1369 46.5884 61.6003 0.0000 -28.9620 0.0000
# 2 46.5884 92.0503 20.6027 0.0000 -14.3346 0.0000
# 3 61.6003 20.6027 150.1349 0.0000 -25.2027 0.0000
# 4 0.0000 0.0000 0.0000 -172.5109 0.0000 394.8280
# 5 -28.9620 -14.3346 -25.2027 0.0000 30.0766 0.0000
# 6 0.0000 0.0000 0.0000 394.8280 0.0000 -784.9173
#
#
#
# Elastic Compliance Matrix: (Units=1/GPa)
#
#
# Indices 1 2 3 4 5 6 
#
# 1 0.017065 -0.006108 -0.004531 0.000000 0.009724 0.000000
# 2 -0.006108 0.014000 0.000835 0.000000 0.001491 0.000000
# 3 -0.004531 0.000835 0.009006 0.000000 0.003582 0.000000
# 4 0.000000 0.000000 0.000000 0.038322 0.000000 0.019276
# 5 0.009724 0.001491 0.003582 0.000000 0.046324 0.000000
# 6 0.000000 0.000000 0.000000 0.019276 0.000000 0.008422
#
#
# Mechanical properties :
#
#
# Convention : Reuss Voigt Hill
#
# Bulk Modulus (GPa) = 48.86815 67.54499 58.20657
# Shear Modulus (GPa) = 31.33440 -170.70160 -69.68360
#
# Velocity S-wave (km/s) = 4.12695 -9.63245 -6.15437
# Velocity P-wave (km/s) = 7.01933 9.32729 4.34323
#
# Compressibility (1/GPa) = 0.02046323
#
# Stress axis : x y z
#
# Youngs Moduli (GPa) = 58.60054 71.42682 111.03197
#
# Poissons Ratio (x) = 0.43630 0.50309
# Poissons Ratio (y) = 0.35795 -0.09273
# Poissons Ratio (z) = 0.26552 -0.05966
#
# Static dielectric constant tensor:
#      x y z
#    x 1.575860 0.000000 -0.032290 
#    y 0.000000 1.668340 0.000000 
#    z -0.032290 0.000000 1.631910 
# 
# From -- ./inp_files/108831.got.cif
#   From: 2010.05.17/outbox.cif.g08.bks.cpg/sg12_55_cif.got.tgz:108831.got - 2010.06.03 13:09:07.
