data_PCOD9200827
_publ_section_title
;
Structure prediction by ZEFSAII (Michael W. Deem and Ramdas Pophale) SiO2 
 PCOD9200827
Probable space group: C 2/M
;
_chemical_formula_sum "Si O2"
_cell_formula_units_Z 56
_cell_length_a 19.104931
_cell_length_b 7.559483
_cell_length_c 28.148205
_cell_angle_alpha 90.000000
_cell_angle_beta 37.552982
_cell_angle_gamma 90.000000
_cell_volume 2477.754489
_symmetry_space_group_name_H-M "C 2/M"
_symmetry_group_IT_number 12
_symmetry_cell_setting 'monoclinic'
loop_
_space_group_symop_operation_xyz
x,y,z
-x,y,-z
-x,-y,-z
x,-y,z
1/2+x,1/2+y,z
1/2-x,1/2+y,-z
1/2-x,1/2-y,-z
1/2+x,1/2-y,z
loop_
_atom_site_type_symbol
_atom_site_label
_atom_site_fract_x
_atom_site_fract_y
_atom_site_fract_z
Si Si1 0.059592 0.296259 0.806113
Si Si2 0.638425 0.787444 0.664938
Si Si3 0.852752 0.711479 0.979680
Si Si4 0.264248 0.798520 0.759345
Si Si5 0.136302 0.711563 0.922987
Si Si6 0.025350 0.283432 0.627656
Si Si7 0.403469 0.787944 0.514905
O O1 0.023397 0.500000 0.819330
O O2 0.070387 0.217441 0.747732
O O3 0.183552 0.293961 0.764381
O O4 0.968355 0.217527 0.892492
O O5 0.591308 0.722188 0.639513
O O6 0.773035 0.750711 0.599250
O O7 0.625168 0.000000 0.671945
O O8 0.868981 0.500000 0.977717
O O9 0.750000 0.750000 0.000000
O O10 0.821043 0.777958 0.049002
O O11 0.197078 0.794938 0.845284
O O12 0.392013 0.728106 0.698764
O O13 0.276598 0.000000 0.735693
O O14 0.153401 0.500000 0.908109
O O15 0.000000 0.741764 0.000000
O O16 0.028337 0.500000 0.627142
O O17 0.078281 0.224279 0.549031
O O18 0.500000 0.721078 0.500000
O O19 0.416756 0.000000 0.506390
#
# Coordination Sequence:
#
# PCOD9200827 Si02
#       7
#     8   8   8   8   8   8   8
#     4  10  21  39  58  78 112 155 187 226 288 342
#     4  10  21  37  59  83 111 147 189 230 271 331
#     4  10  22  38  58  81 111 151 190 233 283 338
#     4  11  22  36  60  87 112 144 191 240 277 329
#     4  10  20  39  60  79 112 153 189 229 286 342
#     4   9  20  37  56  83 115 148 182 226 285 336
#     4  10  20  37  60  83 114 150 181 223 283 336
#
# _framework density 22.601108
#
# number of rings (size 3 to 8) (size 9 to 14) (size 15 to 20)
#    0.000    2.000    1.429    1.714    2.000    3.429 
#    0.000    2.857    0.000    0.000    0.000    0.000 
#    0.000    0.000    0.000    0.000    0.000    0.000 
#
# Total GULP energy -156430.180215 kJ/mol
# GULP energy per Si atom -5586.792151 kJ/mol
# Density = 2.254967 g / cm^3
# Si number density = 22.601108 Si / 1000 Ang^3
#
#
#
# Elastic Constant Matrix: (Units=GPa)
#
#
# Indices 1 2 3 4 5 6 
#
# 1 112.0774 -5.1797 12.7318 -0.0050 20.2177 0.0055
# 2 -5.1797 49.9024 -1.9502 -0.0168 4.1366 -0.0073
# 3 12.7318 -1.9502 82.0292 0.0009 17.6497 -0.0002
# 4 -0.0050 -0.0168 0.0009 25.4019 -0.0007 10.0002
# 5 20.2177 4.1366 17.6497 -0.0007 45.7961 -0.0005
# 6 0.0055 -0.0073 -0.0002 10.0002 -0.0005 33.3540
#
#
#
# Elastic Compliance Matrix: (Units=1/GPa)
#
#
# Indices 1 2 3 4 5 6 
#
# 1 0.009814 0.001347 -0.000581 0.000004 -0.004230 -0.000003
# 2 0.001347 0.020443 0.000875 0.000014 -0.002778 0.000000
# 3 -0.000581 0.000875 0.013372 0.000000 -0.004976 0.000000
# 4 0.000004 0.000014 0.000000 0.044636 -0.000002 -0.013383
# 5 -0.004230 -0.002778 -0.004976 -0.000002 0.025872 0.000001
# 6 -0.000003 0.000000 0.000000 -0.013383 0.000001 0.033994
#
#
# Mechanical properties :
#
#
# Convention : Reuss Voigt Hill
#
# Bulk Modulus (GPa) = 21.31724 28.35697 24.83711
# Shear Modulus (GPa) = 31.15511 36.80421 33.97966
#
# Velocity S-wave (km/s) = 3.71681 4.03975 3.88164
# Velocity P-wave (km/s) = 5.27940 5.85947 5.57698
#
# Compressibility (1/GPa) = 0.04691038
#
# Stress axis : x y z
#
# Youngs Moduli (GPa) = 101.89805 48.91557 74.78058
#
# Poissons Ratio (x) = -0.06587 0.04345
# Poissons Ratio (y) = -0.13721 -0.06542
# Poissons Ratio (z) = 0.05920 -0.04279
#
# Static dielectric constant tensor:
#      x y z
#    x 1.802090 -0.000010 -0.006200 
#    y -0.000010 1.686710 0.000000 
#    z -0.006200 0.000000 1.773000 
# 
# From -- ./inp_files/362920.got.cif
#   From: 2010.05.17/outbox.cif.g08.bks.cpg/sg12_182_cif.got.tgz:362920.got - 2010.06.03 13:09:07.
