data_PCOD9200419
_publ_section_title
;
Structure prediction by ZEFSAII (Michael W. Deem and Ramdas Pophale) SiO2 
 PCOD9200419
Probable space group: C 2/M
;
_chemical_formula_sum "Si O2"
_cell_formula_units_Z 56
_cell_length_a 26.430427
_cell_length_b 9.309117
_cell_length_c 12.949936
_cell_angle_alpha 90.000000
_cell_angle_beta 73.045004
_cell_angle_gamma 90.000000
_cell_volume 3047.759907
_symmetry_space_group_name_H-M "C 2/M"
_symmetry_group_IT_number 12
_symmetry_cell_setting 'monoclinic'
loop_
_space_group_symop_operation_xyz
x,y,z
-x,y,-z
-x,-y,-z
x,-y,z
1/2+x,1/2+y,z
1/2-x,1/2+y,-z
1/2-x,1/2-y,-z
1/2+x,1/2-y,z
loop_
_atom_site_type_symbol
_atom_site_label
_atom_site_fract_x
_atom_site_fract_y
_atom_site_fract_z
Si Si1 0.742433 0.331427 0.197250
Si Si2 0.364289 0.170071 0.063125
Si Si3 0.236428 0.832834 0.612523
Si Si4 0.445231 0.167301 0.398627
Si Si5 0.887393 0.167422 0.253799
Si Si6 0.928758 0.667647 0.641995
Si Si7 0.136066 0.170652 0.147187
O O1 0.738177 0.500000 0.227817
O O2 0.801143 0.308082 0.118037
O O3 0.736038 0.237753 0.304109
O O4 0.697157 0.300000 0.141221
O O5 0.391572 0.243606 0.145421
O O6 0.374565 0.000000 0.053771
O O7 0.378954 0.246371 0.947819
O O8 0.250000 0.750000 0.500000
O O9 0.173595 0.821570 0.672151
O O10 0.250601 0.000000 0.595014
O O11 0.423325 0.265950 0.321587
O O12 0.421578 0.203962 0.525410
O O13 0.508572 0.177584 0.372120
O O14 0.432261 0.000000 0.385081
O O15 0.899012 0.000000 0.229224
O O16 0.913446 0.500000 0.665832
O O17 0.897527 0.769669 0.737229
O O18 0.129468 0.000000 0.138256
#
# Coordination Sequence:
#
# PCOD9200419 Si02
#       7
#     8   8   8   8   8   8   8
#     4   9  20  36  53  77 110 147 185 223 268 321
#     4  10  20  37  58  79 108 149 190 224 265 326
#     4  10  21  34  50  76 111 146 182 224 266 319
#     4   9  19  38  61  82 109 143 182 226 272 328
#     4  10  21  36  56  81 110 143 180 225 279 327
#     4   9  20  38  58  83 111 142 183 226 270 328
#     4  11  22  35  55  83 115 144 180 232 278 319
#
# _framework density 18.374151000000001
#
# number of rings (size 3 to 8) (size 9 to 14) (size 15 to 20)
#    0.000    2.286    0.000    3.000    2.000    4.571 
#    0.000    2.143    0.000    4.286    0.000    0.000 
#    0.000    0.000    0.000    0.000    0.000    0.000 
#
# Total GULP energy -156349.263921 kJ/mol
# GULP energy per Si atom -5583.902283 kJ/mol
# Density = 1.833233 g / cm^3
# Si number density = 18.374151 Si / 1000 Ang^3
#
#
#
# Elastic Constant Matrix: (Units=GPa)
#
#
# Indices 1 2 3 4 5 6 
#
# 1 38.0959 35.6878 27.3716 0.0000 23.4940 0.0000
# 2 35.6878 73.4530 46.1274 0.0000 17.3123 0.0000
# 3 27.3716 46.1274 65.1715 0.0000 21.5113 0.0000
# 4 0.0000 0.0000 0.0000 36.3260 0.0000 3.6443
# 5 23.4940 17.3123 21.5113 0.0000 25.5042 0.0000
# 6 0.0000 0.0000 0.0000 3.6443 0.0000 28.6136
#
#
#
# Elastic Compliance Matrix: (Units=1/GPa)
#
#
# Indices 1 2 3 4 5 6 
#
# 1 0.100692 -0.036424 0.008239 0.000000 -0.074980 0.000000
# 2 -0.036424 0.037826 -0.019505 0.000000 0.024328 0.000000
# 3 0.008239 -0.019505 0.033015 0.000000 -0.022196 0.000000
# 4 0.000000 0.000000 0.000000 0.027885 0.000000 -0.003551
# 5 -0.074980 0.024328 -0.022196 0.000000 0.110487 0.000000
# 6 0.000000 0.000000 0.000000 -0.003551 0.000000 0.035401
#
#
# Mechanical properties :
#
#
# Convention : Reuss Voigt Hill
#
# Bulk Modulus (GPa) = 13.13127 43.89933 28.51530
# Shear Modulus (GPa) = 10.72802 22.59098 16.65950
#
# Velocity S-wave (km/s) = 2.41895 3.51022 3.01438
# Velocity P-wave (km/s) = 3.86832 6.35395 5.26006
#
# Compressibility (1/GPa) = 0.07615408
#
# Stress axis : x y z
#
# Youngs Moduli (GPa) = 9.93127 26.43696 30.28906
#
# Poissons Ratio (x) = 0.96294 -0.24955
# Poissons Ratio (y) = 0.36174 0.59078
# Poissons Ratio (z) = -0.08182 0.51564
#
# Static dielectric constant tensor:
#      x y z
#    x 1.629560 0.000000 -0.007160 
#    y 0.000000 1.611090 0.000000 
#    z -0.007160 0.000000 1.605310 
# 
# From -- ./inp_files/180753.got.cif
#   From: 2010.05.17/outbox.cif.g08.bks.cpg/sg12_91_cif.got.tgz:180753.got - 2010.06.03 13:09:07.
