data_PCOD9200082
_publ_section_title
;
Structure prediction by ZEFSAII (Michael W. Deem and Ramdas Pophale) SiO2 
 PCOD9200082
Probable space group: C 2/M
;
_chemical_formula_sum "Si O2"
_cell_formula_units_Z 56
_cell_length_a 9.296412
_cell_length_b 19.031562
_cell_length_c 27.293142
_cell_angle_alpha 90.000000
_cell_angle_beta 37.100999
_cell_angle_gamma 90.000000
_cell_volume 2912.865471
_symmetry_space_group_name_H-M "C 2/M"
_symmetry_group_IT_number 12
_symmetry_cell_setting 'monoclinic'
loop_
_space_group_symop_operation_xyz
x,y,z
-x,y,-z
-x,-y,-z
x,-y,z
1/2+x,1/2+y,z
1/2-x,1/2+y,-z
1/2-x,1/2-y,-z
1/2+x,1/2-y,z
loop_
_atom_site_type_symbol
_atom_site_label
_atom_site_fract_x
_atom_site_fract_y
_atom_site_fract_z
Si Si1 0.634523 0.336091 0.064443
Si Si2 0.778227 0.582595 0.778342
Si Si3 0.615139 0.198574 0.901721
Si Si4 0.318471 0.415454 0.663871
Si Si5 0.584836 0.312425 0.279194
Si Si6 0.845571 0.675419 0.671309
Si Si7 0.337157 0.676254 0.498439
O O1 0.432994 0.393838 0.128230
O O2 0.504856 0.275283 0.068806
O O3 0.718061 0.308491 0.095835
O O4 0.887471 0.353095 0.970274
O O5 0.778677 0.500000 0.772736
O O6 0.731388 0.620247 0.739514
O O7 0.045814 0.603953 0.722777
O O8 0.751920 0.191039 0.813516
O O9 0.343597 0.500000 0.654303
O O10 0.363677 0.383238 0.705099
O O11 0.510381 0.374622 0.577821
O O12 0.318484 0.309283 0.330571
O O13 0.624255 0.246885 0.305202
O O14 0.094519 0.643671 0.585381
O O15 0.500000 0.693560 0.500000
O O16 0.250000 0.750000 0.500000
#
# Coordination Sequence:
#
# PCOD9200082 Si02
#       7
#     8   8   8   8   8   8   8
#     4  10  21  37  60  98 122 164 209 261 318 371
#     4  11  23  42  62  89 127 169 214 258 315 379
#     4  10  20  36  63  94 128 157 209 264 316 365
#     4  11  27  45  64  91 130 171 210 262 321 379
#     4  12  22  40  66  95 130 162 213 264 313 376
#     4  12  23  38  67  96 121 167 214 261 315 370
#     4  12  24  41  67  97 126 161 212 266 313 372
#
# _framework density 19.225055000000001
#
# number of rings (size 3 to 8) (size 9 to 14) (size 15 to 20)
#    0.000    0.857    5.714    1.714    2.000    1.429 
#    0.000    2.857    0.000    1.714    0.000    0.000 
#    0.000    0.000    0.000    0.000    0.000    0.000 
#
# Total GULP energy -156310.106805 kJ/mol
# GULP energy per Si atom -5582.503814 kJ/mol
# Density = 1.918130 g / cm^3
# Si number density = 19.225055 Si / 1000 Ang^3
#
#
#
# Elastic Constant Matrix: (Units=GPa)
#
#
# Indices 1 2 3 4 5 6 
#
# 1 98.7796 30.5054 9.0951 0.0003 -7.5343 0.0035
# 2 30.5054 64.3935 10.1174 -0.0015 -9.1188 0.0060
# 3 9.0951 10.1174 82.9468 0.0001 -15.1830 -0.0089
# 4 0.0003 -0.0015 0.0001 29.1436 -0.0072 -3.8298
# 5 -7.5343 -9.1188 -15.1830 -0.0072 28.3875 0.0043
# 6 0.0035 0.0060 -0.0089 -3.8298 0.0043 22.1296
#
#
#
# Elastic Compliance Matrix: (Units=1/GPa)
#
#
# Indices 1 2 3 4 5 6 
#
# 1 0.011926 -0.005413 -0.000428 0.000000 0.001197 -0.000001
# 2 -0.005413 0.018824 -0.000952 0.000001 0.004101 -0.000005
# 3 -0.000428 -0.000952 0.013460 0.000002 0.006780 0.000005
# 4 0.000000 0.000001 0.000002 0.035111 0.000010 0.006076
# 5 0.001197 0.004101 0.006780 0.000010 0.040488 -0.000005
# 6 -0.000001 -0.000005 0.000005 0.006076 -0.000005 0.046240
#
#
# Mechanical properties :
#
#
# Convention : Reuss Voigt Hill
#
# Bulk Modulus (GPa) = 32.65413 38.39509 35.52461
# Shear Modulus (GPa) = 26.33751 29.02559 27.68155
#
# Velocity S-wave (km/s) = 3.70531 3.88980 3.79868
# Velocity P-wave (km/s) = 5.94372 6.33947 6.14478
#
# Compressibility (1/GPa) = 0.03062400
#
# Stress axis : x y z
#
# Youngs Moduli (GPa) = 83.85092 53.12343 74.29446
#
# Poissons Ratio (x) = 0.28755 0.03182
# Poissons Ratio (y) = 0.45387 0.07072
# Poissons Ratio (z) = 0.03591 0.05057
#
# Static dielectric constant tensor:
#      x y z
#    x 1.685730 0.000000 -0.020980 
#    y 0.000000 1.648360 0.000010 
#    z -0.020980 0.000010 1.769120 
# 
# From -- ./inp_files/356664.got.cif
#   From: 2010.05.17/outbox.cif.g08.bks.cpg/sg12_179_cif.got.tgz:356664.got - 2010.06.03 13:09:07.
