data_PCOD9200150
_publ_section_title
;
Structure prediction by ZEFSAII (Michael W. Deem and Ramdas Pophale) SiO2 
 PCOD9200150
Probable space group: C 2/M
;
_chemical_formula_sum "Si O2"
_cell_formula_units_Z 24
_cell_length_a 8.761028
_cell_length_b 15.803044
_cell_length_c 10.044430
_cell_angle_alpha 90.000000
_cell_angle_beta 109.538176
_cell_angle_gamma 90.000000
_cell_volume 1310.584678
_symmetry_space_group_name_H-M "C 2/M"
_symmetry_group_IT_number 12
_symmetry_cell_setting 'monoclinic'
loop_
_space_group_symop_operation_xyz
x,y,z
-x,y,-z
-x,-y,-z
x,-y,z
1/2+x,1/2+y,z
1/2-x,1/2+y,-z
1/2-x,1/2-y,-z
1/2+x,1/2-y,z
loop_
_atom_site_type_symbol
_atom_site_label
_atom_site_fract_x
_atom_site_fract_y
_atom_site_fract_z
Si Si1 0.854349 0.667533 0.060461
Si Si2 0.650023 0.500000 0.943657
Si Si3 0.335554 0.500000 0.367561
Si Si4 0.525897 0.096168 0.354418
O O1 0.933881 0.658774 0.229319
O O2 0.750000 0.750000 0.000000
O O3 0.750192 0.584046 0.004526
O O4 0.000000 0.665881 0.000000
O O5 0.620551 0.500000 0.775700
O O6 0.500000 0.500000 0.000000
O O7 0.500000 0.500000 0.500000
O O8 0.214163 0.578752 0.368816
O O9 0.500000 0.119846 0.500000
O O10 0.454994 0.000000 0.318486
#
# Coordination Sequence:
#
# PCOD9200150 Si02
#       4
#     8   4   4   8
#     4  12  23  44  64  96 131 172 220 273 326 388
#     4  12  24  39  66  96 131 173 220 270 323 391
#     4  10  20  36  64  96 129 162 223 261 335 383
#     4   9  19  39  66  92 127 169 211 267 333 380
#
# _framework density 18.312438
#
# number of rings (size 3 to 8) (size 9 to 14) (size 15 to 20)
#    1.000    0.333    5.000    1.500    4.667    0.000 
#    0.000    3.333    0.000    0.000    0.000    0.000 
#    0.000    0.000    0.000    0.000    0.000    0.000 
#
# Total GULP energy -66886.540393 kJ/mol
# GULP energy per Si atom -5573.878366 kJ/mol
# Density = 1.827076 g / cm^3
# Si number density = 18.312438 Si / 1000 Ang^3
#
#
#
# Elastic Constant Matrix: (Units=GPa)
#
#
# Indices 1 2 3 4 5 6 
#
# 1 169.9330 74.9543 98.3639 0.0000 -12.3188 0.0000
# 2 74.9543 120.2357 59.9379 0.0000 13.0324 0.0000
# 3 98.3639 59.9379 208.4620 0.0000 -7.1186 0.0000
# 4 0.0000 0.0000 0.0000 28.1379 0.0000 16.9101
# 5 -12.3188 13.0324 -7.1186 0.0000 40.6352 0.0000
# 6 0.0000 0.0000 0.0000 16.9101 0.0000 31.4899
#
#
#
# Elastic Compliance Matrix: (Units=1/GPa)
#
#
# Indices 1 2 3 4 5 6 
#
# 1 0.010434 -0.005360 -0.003235 0.000000 0.004315 0.000000
# 2 -0.005360 0.013023 -0.001422 0.000000 -0.006051 0.000000
# 3 -0.003235 -0.001422 0.006755 0.000000 0.000659 0.000000
# 4 0.000000 0.000000 0.000000 0.052474 0.000000 -0.028178
# 5 0.004315 -0.006051 0.000659 0.000000 0.027973 0.000000
# 6 0.000000 0.000000 0.000000 -0.028178 0.000000 0.046888
#
#
# Mechanical properties :
#
#
# Convention : Reuss Voigt Hill
#
# Bulk Modulus (GPa) = 98.24652 107.23812 102.74232
# Shear Modulus (GPa) = 27.62846 37.74425 32.68636
#
# Velocity S-wave (km/s) = 3.88845 4.54489 4.22942
# Velocity P-wave (km/s) = 8.59806 9.28594 8.94861
#
# Compressibility (1/GPa) = 0.01017848
#
# Stress axis : x y z
#
# Youngs Moduli (GPa) = 95.83980 76.78787 148.04190
#
# Poissons Ratio (x) = 0.41156 0.47891
# Poissons Ratio (y) = 0.51367 0.21052
# Poissons Ratio (z) = 0.31004 0.10920
#
# Static dielectric constant tensor:
#      x y z
#    x 1.615590 0.000000 -0.007220 
#    y 0.000000 1.614690 0.000000 
#    z -0.007220 0.000000 1.645860 
# 
# From -- ./inp_files/36447.got.cif
#   From: 2010.05.17/outbox.cif.g08.bks.cpg/sg12_19_cif.got.tgz:36447.got - 2010.06.03 13:09:07.
