data_PCOD9200469
_publ_section_title
;
Structure prediction by ZEFSAII (Michael W. Deem and Ramdas Pophale) SiO2 
 PCOD9200469
Probable space group: C 2/M
;
_chemical_formula_sum "Si O2"
_cell_formula_units_Z 56
_cell_length_a 29.121173
_cell_length_b 8.783928
_cell_length_c 14.598139
_cell_angle_alpha 90.000000
_cell_angle_beta 119.507529
_cell_angle_gamma 90.000000
_cell_volume 3249.822260
_symmetry_space_group_name_H-M "C 2/M"
_symmetry_group_IT_number 12
_symmetry_cell_setting 'monoclinic'
loop_
_space_group_symop_operation_xyz
x,y,z
-x,y,-z
-x,-y,-z
x,-y,z
1/2+x,1/2+y,z
1/2-x,1/2+y,-z
1/2-x,1/2-y,-z
1/2+x,1/2-y,z
loop_
_atom_site_type_symbol
_atom_site_label
_atom_site_fract_x
_atom_site_fract_y
_atom_site_fract_z
Si Si1 0.007346 0.315511 0.899428
Si Si2 0.696376 0.319632 0.491757
Si Si3 0.716408 0.178536 0.701579
Si Si4 0.824398 0.326416 0.823159
Si Si5 0.203857 0.818949 0.889862
Si Si6 0.104693 0.323982 0.282937
Si Si7 0.618092 0.319229 0.951237
O O1 0.012343 0.500000 0.902272
O O2 0.058996 0.240175 0.906769
O O3 0.955317 0.272542 0.790405
O O4 0.000000 0.273490 0.000000
O O5 0.702809 0.500000 0.498070
O O6 0.750000 0.250000 0.500000
O O7 0.689931 0.259426 0.588973
O O8 0.644903 0.270363 0.384184
O O9 0.778411 0.213422 0.748707
O O10 0.704388 0.246756 0.789707
O O11 0.705831 0.000000 0.689873
O O12 0.803834 0.500000 0.807091
O O13 0.870569 0.323674 0.794467
O O14 0.847142 0.272455 0.941297
O O15 0.147548 0.793760 0.883981
O O16 0.212757 0.000000 0.892583
O O17 0.250000 0.750000 0.000000
O O18 0.105020 0.500000 0.315320
O O19 0.620475 0.500000 0.973162
#
# Coordination Sequence:
#
# PCOD9200469 Si02
#       7
#     8   8   8   8   8   8   8
#     4  10  20  37  58  82 114 154 193 232 284 340
#     4  12  24  38  58  84 117 154 191 235 289 342
#     4  12  24  38  57  84 116 151 195 238 285 344
#     4  11  20  33  56  82 117 155 190 231 281 337
#     4  11  23  38  57  83 117 154 192 236 288 343
#     4  10  21  37  57  83 116 154 195 235 281 340
#     4  11  23  36  54  84 119 152 192 236 283 340
#
# _framework density 17.231711000000001
#
# number of rings (size 3 to 8) (size 9 to 14) (size 15 to 20)
#    0.000    1.000    4.286    3.857    0.000    3.143 
#    0.000    0.000    0.000    0.857    0.000    6.000 
#    0.000    0.000    0.000    0.000    0.000    0.000 
#
# Total GULP energy -156384.706097 kJ/mol
# GULP energy per Si atom -5585.168075 kJ/mol
# Density = 1.719249 g / cm^3
# Si number density = 17.231711 Si / 1000 Ang^3
#
#
#
# Elastic Constant Matrix: (Units=GPa)
#
#
# Indices 1 2 3 4 5 6 
#
# 1 84.2442 29.9017 26.8007 0.0000 -0.4138 0.0000
# 2 29.9017 101.5084 45.7551 0.0000 -4.5296 0.0000
# 3 26.8007 45.7551 91.4590 0.0000 -5.8844 0.0000
# 4 0.0000 0.0000 0.0000 26.6193 0.0000 0.0554
# 5 -0.4138 -4.5296 -5.8844 0.0000 26.0182 0.0000
# 6 0.0000 0.0000 0.0000 0.0554 0.0000 30.0709
#
#
#
# Elastic Compliance Matrix: (Units=1/GPa)
#
#
# Indices 1 2 3 4 5 6 
#
# 1 0.013732 -0.002899 -0.002630 0.000000 -0.000881 0.000000
# 2 -0.002899 0.013347 -0.005765 0.000000 0.000974 0.000000
# 3 -0.002630 -0.005765 0.014736 0.000000 0.002287 0.000000
# 4 0.000000 0.000000 0.000000 0.037567 0.000000 -0.000069
# 5 -0.000881 0.000974 0.002287 0.000000 0.039107 0.000000
# 6 0.000000 0.000000 0.000000 -0.000069 0.000000 0.033255
#
#
# Mechanical properties :
#
#
# Convention : Reuss Voigt Hill
#
# Bulk Modulus (GPa) = 52.01210 53.56962 52.79086
# Shear Modulus (GPa) = 27.66372 28.19195 27.92784
#
# Velocity S-wave (km/s) = 4.01109 4.04920 4.03019
# Velocity P-wave (km/s) = 7.19036 7.28125 7.23595
#
# Compressibility (1/GPa) = 0.01922630
#
# Stress axis : x y z
#
# Youngs Moduli (GPa) = 72.82486 74.92051 67.86029
#
# Poissons Ratio (x) = 0.21717 0.17850
# Poissons Ratio (y) = 0.21109 0.39124
# Poissons Ratio (z) = 0.19156 0.43195
#
# Static dielectric constant tensor:
#      x y z
#    x 1.579510 0.000000 0.001050 
#    y 0.000000 1.586820 0.000000 
#    z 0.001050 0.000000 1.585960 
# 
# From -- ./inp_files/248587.got.cif
#   From: 2010.05.17/outbox.cif.g08.bks.cpg/sg12_125_cif.got.tgz:248587.got - 2010.06.03 13:09:07.
