data_PCOD9200123
_publ_section_title
;
Structure prediction by ZEFSAII (Michael W. Deem and Ramdas Pophale) SiO2 
 PCOD9200123
Probable space group: C 2/M
;
_chemical_formula_sum "Si O2"
_cell_formula_units_Z 48
_cell_length_a 11.312323
_cell_length_b 28.821701
_cell_length_c 8.427855
_cell_angle_alpha 90.000000
_cell_angle_beta 61.524945
_cell_angle_gamma 90.000000
_cell_volume 2415.402849
_symmetry_space_group_name_H-M "C 2/M"
_symmetry_group_IT_number 12
_symmetry_cell_setting 'monoclinic'
loop_
_space_group_symop_operation_xyz
x,y,z
-x,y,-z
-x,-y,-z
x,-y,z
1/2+x,1/2+y,z
1/2-x,1/2+y,-z
1/2-x,1/2-y,-z
1/2+x,1/2-y,z
loop_
_atom_site_type_symbol
_atom_site_label
_atom_site_fract_x
_atom_site_fract_y
_atom_site_fract_z
Si Si1 0.779163 0.168794 0.554307
Si Si2 0.958997 0.853858 0.748112
Si Si3 0.350316 0.899016 0.600162
Si Si4 0.856566 0.266728 0.138865
Si Si5 0.224475 0.321945 0.104526
Si Si6 0.425431 0.551691 0.216922
O O1 0.863980 0.154734 0.656942
O O2 0.691064 0.128138 0.534222
O O3 0.680818 0.210070 0.670178
O O4 0.904303 0.176824 0.352703
O O5 0.009821 0.906671 0.723528
O O6 0.867906 0.842548 0.957569
O O7 0.500000 0.918568 0.500000
O O8 0.344898 0.859258 0.739435
O O9 0.230972 0.935269 0.706168
O O10 0.745936 0.227459 0.175741
O O11 0.847735 0.307937 0.012651
O O12 0.000000 0.246208 0.000000
O O13 0.439498 0.500000 0.275713
O O14 0.500000 0.552488 0.000000
#
# Coordination Sequence:
#
# PCOD9200123 Si02
#       6
#     8   8   8   8   8   8
#     4   9  20  35  54  81 112 148 188 234 282 322
#     4   9  18  38  58  80 112 146 189 236 282 332
#     4  11  22  37  57  84 115 150 182 232 289 340
#     4  10  21  35  51  76 109 152 193 235 270 332
#     4  10  21  36  53  77 108 151 192 229 281 327
#     4  10  20  36  64  91 109 143 190 234 280 342
#
# _framework density 19.872461000000001
#
# number of rings (size 3 to 8) (size 9 to 14) (size 15 to 20)
#    0.000    2.167    1.667    1.000    4.667    1.000 
#    9.000    6.667    0.000    0.000    0.000    2.333 
#    0.000    0.000    0.000    0.000    0.000    0.000 
#
# Total GULP energy -133833.292510 kJ/mol
# GULP energy per Si atom -5576.387188 kJ/mol
# Density = 1.982723 g / cm^3
# Si number density = 19.872461 Si / 1000 Ang^3
#
#
#
# Elastic Constant Matrix: (Units=GPa)
#
#
# Indices 1 2 3 4 5 6 
#
# 1 61.6261 -4.8584 11.9372 0.0000 -20.6483 0.0000
# 2 -4.8584 62.3955 20.3848 0.0000 -7.8375 0.0000
# 3 11.9372 20.3848 69.1230 0.0000 -18.9785 0.0000
# 4 0.0000 0.0000 0.0000 15.5552 0.0000 4.0326
# 5 -20.6483 -7.8375 -18.9785 0.0000 29.1058 0.0000
# 6 0.0000 0.0000 0.0000 4.0326 0.0000 15.7611
#
#
#
# Elastic Compliance Matrix: (Units=1/GPa)
#
#
# Indices 1 2 3 4 5 6 
#
# 1 0.022147 0.003945 -0.000466 0.000000 0.016470 0.000000
# 2 0.003945 0.018505 -0.004875 0.000000 0.004603 0.000000
# 3 -0.000466 -0.004875 0.018921 0.000000 0.010694 0.000000
# 4 0.000000 0.000000 0.000000 0.068854 0.000000 -0.017617
# 5 0.016470 0.004603 0.010694 0.000000 0.054254 0.000000
# 6 0.000000 0.000000 0.000000 -0.017617 0.000000 0.067955
#
#
# Mechanical properties :
#
#
# Convention : Reuss Voigt Hill
#
# Bulk Modulus (GPa) = 17.61120 27.56354 22.58737
# Shear Modulus (GPa) = 18.35848 23.12982 20.74415
#
# Velocity S-wave (km/s) = 3.04273 3.41532 3.23439
# Velocity P-wave (km/s) = 4.60713 5.42705 5.03381
#
# Compressibility (1/GPa) = 0.05678203
#
# Stress axis : x y z
#
# Youngs Moduli (GPa) = 45.15371 54.04000 52.85052
#
# Poissons Ratio (x) = -0.21321 0.02464
# Poissons Ratio (y) = -0.17815 0.25763
# Poissons Ratio (z) = 0.02105 0.26343
#
# Static dielectric constant tensor:
#      x y z
#    x 1.750140 0.000000 -0.009590 
#    y 0.000000 1.679430 0.000000 
#    z -0.009590 0.000000 1.761370 
# 
# From -- ./inp_files/52446.got.cif
#   From: 2010.05.17/outbox.cif.g08.bks.cpg/sg12_27_cif.got.tgz:52446.got - 2010.06.03 13:09:07.
