data_PCOD9200786
_publ_section_title
;
Structure prediction by ZEFSAII (Michael W. Deem and Ramdas Pophale) SiO2 
 PCOD9200786
Probable space group: C 2/M
;
_chemical_formula_sum "Si O2"
_cell_formula_units_Z 48
_cell_length_a 34.326141
_cell_length_b 14.055793
_cell_length_c 5.991957
_cell_angle_alpha 90.000000
_cell_angle_beta 126.869344
_cell_angle_gamma 90.000000
_cell_volume 2312.821720
_symmetry_space_group_name_H-M "C 2/M"
_symmetry_group_IT_number 12
_symmetry_cell_setting 'monoclinic'
loop_
_space_group_symop_operation_xyz
x,y,z
-x,y,-z
-x,-y,-z
x,-y,z
1/2+x,1/2+y,z
1/2-x,1/2+y,-z
1/2-x,1/2-y,-z
1/2+x,1/2-y,z
loop_
_atom_site_type_symbol
_atom_site_label
_atom_site_fract_x
_atom_site_fract_y
_atom_site_fract_z
Si Si1 0.398380 0.215093 0.499426
Si Si2 0.055810 0.892456 0.612601
Si Si3 0.219964 0.109235 0.787405
Si Si4 0.514210 0.109968 0.298948
Si Si5 0.368508 0.677699 0.783272
Si Si6 0.200190 0.742296 0.076649
O O1 0.425078 0.307797 0.481147
O O2 0.428077 0.125232 0.518130
O O3 0.397341 0.238801 0.756464
O O4 0.342625 0.206418 0.234059
O O5 0.000000 0.878701 0.500000
O O6 0.059352 0.000000 0.529385
O O7 0.093007 0.884086 0.948227
O O8 0.164915 0.120238 0.505728
O O9 0.258137 0.164083 0.760095
O O10 0.232292 0.000000 0.852275
O O11 0.222322 0.165576 0.028942
O O12 0.500000 0.147961 0.500000
O O13 0.498341 0.000000 0.242919
O O14 0.500000 0.150419 0.000000
O O15 0.329467 0.725881 0.811354
#
# Coordination Sequence:
#
# PCOD9200786 Si02
#       6
#     8   8   8   8   8   8
#     4  10  22  36  60  83 117 158 195 246 306 361
#     4  10  22  37  54  83 118 155 199 245 294 358
#     4  10  20  37  60  81 108 150 191 237 301 364
#     4  10  23  41  64  92 123 163 212 260 311 370
#     4  10  21  36  56  83 115 153 191 243 298 363
#     4   9  21  38  54  84 115 144 190 246 292 363
#
# _framework density 20.753868000000001
#
# number of rings (size 3 to 8) (size 9 to 14) (size 15 to 20)
#    0.000    2.167    0.000    1.500    7.000    8.000 
#    0.000    2.500    0.000    0.000    0.000    0.000 
#    0.000    0.000    0.000    0.000    0.000    0.000 
#
# Total GULP energy -133706.067590 kJ/mol
# GULP energy per Si atom -5571.086150 kJ/mol
# Density = 2.070663 g / cm^3
# Si number density = 20.753868 Si / 1000 Ang^3
#
#
#
# Elastic Constant Matrix: (Units=GPa)
#
#
# Indices 1 2 3 4 5 6 
#
# 1 108.3840 28.9451 33.0606 0.0000 7.4436 0.0000
# 2 28.9451 58.0766 15.2629 0.0000 3.6296 0.0000
# 3 33.0606 15.2629 57.4096 0.0000 -2.6029 0.0000
# 4 0.0000 0.0000 0.0000 10.5396 0.0000 9.8915
# 5 7.4436 3.6296 -2.6029 0.0000 36.2988 0.0000
# 6 0.0000 0.0000 0.0000 9.8915 0.0000 4.0120
#
#
#
# Elastic Compliance Matrix: (Units=1/GPa)
#
#
# Indices 1 2 3 4 5 6 
#
# 1 0.012449 -0.004441 -0.006104 0.000000 -0.002547 0.000000
# 2 -0.004441 0.020275 -0.002893 0.000000 -0.001324 0.000000
# 3 -0.006104 -0.002893 0.021844 0.000000 0.003107 0.000000
# 4 0.000000 0.000000 0.000000 -0.072216 0.000000 0.178045
# 5 -0.002547 -0.001324 0.003107 0.000000 0.028426 0.000000
# 6 0.000000 0.000000 0.000000 0.178045 0.000000 -0.189712
#
#
# Mechanical properties :
#
#
# Convention : Reuss Voigt Hill
#
# Bulk Modulus (GPa) = 36.11124 42.04529 39.07826
# Shear Modulus (GPa) = -35.00751 19.94354 -7.53199
#
# Velocity S-wave (km/s) = -4.11152 3.10329 -1.90711
# Velocity P-wave (km/s) = 2.25873 5.75704 3.74444
#
# Compressibility (1/GPa) = 0.02769221
#
# Stress axis : x y z
#
# Youngs Moduli (GPa) = 80.32544 49.32138 45.77984
#
# Poissons Ratio (x) = 0.21906 0.27944
# Poissons Ratio (y) = 0.35676 0.13243
# Poissons Ratio (z) = 0.49030 0.14267
#
# Static dielectric constant tensor:
#      x y z
#    x 1.772540 0.000000 -0.035410 
#    y 0.000000 1.754150 0.000000 
#    z -0.035410 0.000000 1.832150 
# 
# From -- ./inp_files/31314.got.cif
#   From: 2010.05.17/outbox.cif.g08.bks.cpg/sg12_16_cif.got.tgz:31314.got - 2010.06.03 13:09:07.
