data_PCOD9200595
_publ_section_title
;
Structure prediction by ZEFSAII (Michael W. Deem and Ramdas Pophale) SiO2 
 PCOD9200595
Probable space group: C 2/M
;
_chemical_formula_sum "Si O2"
_cell_formula_units_Z 64
_cell_length_a 32.335227
_cell_length_b 14.482730
_cell_length_c 9.413164
_cell_angle_alpha 90.000000
_cell_angle_beta 148.036835
_cell_angle_gamma 90.000000
_cell_volume 2333.589924
_symmetry_space_group_name_H-M "C 2/M"
_symmetry_group_IT_number 12
_symmetry_cell_setting 'monoclinic'
loop_
_space_group_symop_operation_xyz
x,y,z
-x,y,-z
-x,-y,-z
x,-y,z
1/2+x,1/2+y,z
1/2-x,1/2+y,-z
1/2-x,1/2-y,-z
1/2+x,1/2-y,z
loop_
_atom_site_type_symbol
_atom_site_label
_atom_site_fract_x
_atom_site_fract_y
_atom_site_fract_z
Si Si1 0.705415 0.652445 0.867560
Si Si2 0.674700 0.780062 0.157263
Si Si3 0.580607 0.108337 0.665812
Si Si4 0.980136 0.104038 0.145947
Si Si5 0.610048 0.392238 0.838444
Si Si6 0.309483 0.600075 0.501620
Si Si7 0.439459 0.792037 0.917531
Si Si8 0.641777 0.101964 0.535916
O O1 0.624408 0.643731 0.719719
O O2 0.771421 0.596475 0.144677
O O3 0.750000 0.750000 0.000000
O O4 0.687888 0.616815 0.659098
O O5 0.669269 0.674453 0.094821
O O6 0.759073 0.821667 0.430133
O O7 0.607672 0.806600 0.074828
O O8 0.648479 0.835595 0.938776
O O9 0.500000 0.142069 0.500000
O O10 0.587175 0.116349 0.516060
O O11 0.588442 0.000000 0.722505
O O12 0.963429 0.112800 0.265972
O O13 0.895552 0.098355 0.818660
O O14 0.997747 0.205388 0.132184
O O15 0.015670 0.000000 0.225140
O O16 0.628563 0.500000 0.891227
O O17 0.272984 0.500000 0.422581
O O18 0.367729 0.811262 0.597254
O O19 0.500000 0.852939 0.000000
O O20 0.626868 0.000000 0.427501
#
# Coordination Sequence:
#
# PCOD9200595 Si02
#       8
#     8   8   8   8   8   8   8   8
#     4  12  21  36  58  87 121 155 189 234 291 356
#     4  11  22  37  60  85 117 154 199 244 294 350
#     4  10  20  37  59  81 112 154 198 242 288 344
#     4   9  22  41  63  89 117 152 197 248 301 355
#     4  10  21  37  57  83 118 154 189 236 293 350
#     4  11  21  36  59  91 123 152 191 240 297 358
#     4  11  25  41  60  85 117 158 203 249 296 348
#     4  11  23  37  55  84 118 154 197 238 289 351
#
# _framework density 27.425557999999999
#
# number of rings (size 3 to 8) (size 9 to 14) (size 15 to 20)
#    0.000    1.375    2.500    3.000    1.750    2.500 
#    0.000    0.000    0.000    0.375    0.000    0.000 
#    0.000    0.000    0.000    0.000    0.000    0.000 
#
# Total GULP energy -178702.538884 kJ/mol
# GULP energy per Si atom -5584.454340 kJ/mol
# Density = 2.736314 g / cm^3
# Si number density = 27.425558 Si / 1000 Ang^3
#
#
#
# Elastic Constant Matrix: (Units=GPa)
#
#
# Indices 1 2 3 4 5 6 
#
# 1 172.5890 24.5957 14.7864 0.0000 -10.1155 0.0000
# 2 24.5957 136.1924 4.5860 0.0000 1.1312 0.0000
# 3 14.7864 4.5860 58.4796 0.0000 -21.9373 0.0000
# 4 0.0000 0.0000 0.0000 25.3115 0.0000 4.0842
# 5 -10.1155 1.1312 -21.9373 0.0000 52.4329 0.0000
# 6 0.0000 0.0000 0.0000 4.0842 0.0000 33.3294
#
#
#
# Elastic Compliance Matrix: (Units=1/GPa)
#
#
# Indices 1 2 3 4 5 6 
#
# 1 0.006089 -0.001065 -0.001194 0.000000 0.000698 0.000000
# 2 -0.001065 0.007558 -0.000548 0.000000 -0.000598 0.000000
# 3 -0.001194 -0.000548 0.020595 0.000000 0.008398 0.000000
# 4 0.000000 0.000000 0.000000 0.040305 0.000000 -0.004939
# 5 0.000698 -0.000598 0.008398 0.000000 0.022733 0.000000
# 6 0.000000 0.000000 0.000000 -0.004939 0.000000 0.030609
#
#
# Mechanical properties :
#
#
# Convention : Reuss Voigt Hill
#
# Bulk Modulus (GPa) = 34.93002 50.57746 42.75374
# Shear Modulus (GPa) = 34.95365 43.76761 39.36063
#
# Velocity S-wave (km/s) = 3.57388 3.99917 3.79249
# Velocity P-wave (km/s) = 5.45839 6.30922 5.89916
#
# Compressibility (1/GPa) = 0.02862867
#
# Stress axis : x y z
#
# Youngs Moduli (GPa) = 164.22657 132.30424 48.55474
#
# Poissons Ratio (x) = 0.14094 0.05798
# Poissons Ratio (y) = 0.17494 0.02659
# Poissons Ratio (z) = 0.19612 0.07245
#
# Static dielectric constant tensor:
#      x y z
#    x 2.154890 0.000000 0.076250 
#    y 0.000000 2.320030 0.000000 
#    z 0.076250 0.000000 2.317460 
# 
# From -- ./inp_files/112011.got.cif
#   From: 2010.05.17/outbox.cif.g08.bks.cpg/sg12_57_cif.got.tgz:112011.got - 2010.06.03 13:09:07.
