data_PCOD9200482
_publ_section_title
;
Structure prediction by ZEFSAII (Michael W. Deem and Ramdas Pophale) SiO2 
 PCOD9200482
Probable space group: C 2/M
;
_chemical_formula_sum "Si O2"
_cell_formula_units_Z 48
_cell_length_a 14.072471
_cell_length_b 8.150976
_cell_length_c 22.414900
_cell_angle_alpha 90.000000
_cell_angle_beta 109.830052
_cell_angle_gamma 90.000000
_cell_volume 2418.629231
_symmetry_space_group_name_H-M "C 2/M"
_symmetry_group_IT_number 12
_symmetry_cell_setting 'monoclinic'
loop_
_space_group_symop_operation_xyz
x,y,z
-x,y,-z
-x,-y,-z
x,-y,z
1/2+x,1/2+y,z
1/2-x,1/2+y,-z
1/2-x,1/2-y,-z
1/2+x,1/2-y,z
loop_
_atom_site_type_symbol
_atom_site_label
_atom_site_fract_x
_atom_site_fract_y
_atom_site_fract_z
Si Si1 0.073402 0.193084 0.237527
Si Si2 0.277814 0.186995 0.353648
Si Si3 0.003715 0.683449 0.661929
Si Si4 0.963308 0.310906 0.903179
Si Si5 0.347386 0.688651 0.986086
Si Si6 0.442195 0.500000 0.580418
Si Si7 0.163346 0.000000 0.563298
O O1 0.185247 0.214724 0.288888
O O2 0.065578 0.256203 0.168913
O O3 0.001188 0.287284 0.268405
O O4 0.049386 0.000000 0.233841
O O5 0.383076 0.193706 0.339566
O O6 0.283323 0.334223 0.402339
O O7 0.269509 0.000000 0.376299
O O8 0.965148 0.500000 0.639593
O O9 0.942165 0.834329 0.619577
O O10 0.994568 0.500000 0.909709
O O11 0.056463 0.208955 0.949876
O O12 0.873411 0.287042 0.931563
O O13 0.335274 0.500000 0.966728
O O14 0.250000 0.750000 0.000000
O O15 0.551859 0.500000 0.570750
O O16 0.358027 0.500000 0.511495
#
# Coordination Sequence:
#
# PCOD9200482 Si02
#       7
#     8   8   8   8   8   4   4
#     4  11  22  39  60  84 121 155 194 244 292 348
#     4   9  21  37  57  83 115 152 194 244 297 354
#     4  10  20  37  58  83 115 153 195 244 298 354
#     4  11  23  39  60  91 120 158 201 240 295 354
#     4  11  22  41  64  88 123 159 197 246 292 345
#     4   9  18  36  56  88 109 152 189 251 292 360
#     4   9  18  34  62  80 115 146 199 237 304 350
#
# _framework density 19.845952
#
# number of rings (size 3 to 8) (size 9 to 14) (size 15 to 20)
#    0.000    1.833    0.833    4.500    2.333    2.000 
#    0.000    9.167    0.000    0.000    0.000    0.000 
#    0.000    0.000    0.000    0.000    0.000    0.000 
#
# Total GULP energy -134086.391506 kJ/mol
# GULP energy per Si atom -5586.932979 kJ/mol
# Density = 1.980078 g / cm^3
# Si number density = 19.845952 Si / 1000 Ang^3
#
#
#
# Elastic Constant Matrix: (Units=GPa)
#
#
# Indices 1 2 3 4 5 6 
#
# 1 63.3522 10.4796 11.0591 0.0000 -11.7211 0.0000
# 2 10.4796 96.4667 23.8438 0.0000 -2.9669 0.0000
# 3 11.0591 23.8438 101.0749 0.0000 -17.0644 0.0000
# 4 0.0000 0.0000 0.0000 26.3399 0.0000 0.6753
# 5 -11.7211 -2.9669 -17.0644 0.0000 17.4241 0.0000
# 6 0.0000 0.0000 0.0000 0.6753 0.0000 26.6053
#
#
#
# Elastic Compliance Matrix: (Units=1/GPa)
#
#
# Indices 1 2 3 4 5 6 
#
# 1 0.018297 -0.001731 0.000521 0.000000 0.012524 0.000000
# 2 -0.001731 0.011181 -0.002784 0.000000 -0.001987 0.000000
# 3 0.000521 -0.002784 0.012547 0.000000 0.012164 0.000000
# 4 0.000000 0.000000 0.000000 0.037990 0.000000 -0.000964
# 5 0.012524 -0.001987 0.012164 0.000000 0.077392 0.000000
# 6 0.000000 0.000000 0.000000 -0.000964 0.000000 0.037611
#
#
# Mechanical properties :
#
#
# Convention : Reuss Voigt Hill
#
# Bulk Modulus (GPa) = 29.37951 39.07319 34.22635
# Shear Modulus (GPa) = 23.32608 28.44128 25.88368
#
# Velocity S-wave (km/s) = 3.43207 3.78974 3.61533
# Velocity P-wave (km/s) = 5.52642 6.23542 5.89160
#
# Compressibility (1/GPa) = 0.03403732
#
# Stress axis : x y z
#
# Youngs Moduli (GPa) = 54.65273 89.43504 79.69987
#
# Poissons Ratio (x) = 0.15484 -0.04151
# Poissons Ratio (y) = 0.09462 0.22186
# Poissons Ratio (z) = -0.02846 0.24896
#
# Static dielectric constant tensor:
#      x y z
#    x 1.714180 0.000000 -0.012840 
#    y 0.000000 1.700260 0.000000 
#    z -0.012840 0.000000 1.654900 
# 
# From -- ./inp_files/308619.got.cif
#   From: 2010.05.17/outbox.cif.g08.bks.cpg/sg12_155_cif.got.tgz:308619.got - 2010.06.03 13:09:07.
