data_PCOD9200483
_publ_section_title
;
Structure prediction by ZEFSAII (Michael W. Deem and Ramdas Pophale) SiO2 
 PCOD9200483
Probable space group: C 2/M
;
_chemical_formula_sum "Si O2"
_cell_formula_units_Z 52
_cell_length_a 26.823900
_cell_length_b 16.797815
_cell_length_c 8.897195
_cell_angle_alpha 90.000000
_cell_angle_beta 138.030785
_cell_angle_gamma 90.000000
_cell_volume 2680.892639
_symmetry_space_group_name_H-M "C 2/M"
_symmetry_group_IT_number 12
_symmetry_cell_setting 'monoclinic'
loop_
_space_group_symop_operation_xyz
x,y,z
-x,y,-z
-x,-y,-z
x,-y,z
1/2+x,1/2+y,z
1/2-x,1/2+y,-z
1/2-x,1/2-y,-z
1/2+x,1/2-y,z
loop_
_atom_site_type_symbol
_atom_site_label
_atom_site_fract_x
_atom_site_fract_y
_atom_site_fract_z
Si Si1 0.699325 0.864901 0.443099
Si Si2 0.249111 0.170414 0.897869
Si Si3 0.517890 0.809415 0.372955
Si Si4 0.121993 0.409022 0.988768
Si Si5 0.500000 0.279067 0.000000
Si Si6 0.836673 0.414130 0.316801
Si Si7 0.660472 0.320336 0.415025
O O1 0.635558 0.901106 0.195709
O O2 0.695938 0.907270 0.592141
O O3 0.680865 0.772147 0.429478
O O4 0.779222 0.870812 0.542377
O O5 0.320569 0.157554 0.947969
O O6 0.178033 0.166022 0.630521
O O7 0.250000 0.250000 0.000000
O O8 0.266817 0.099959 0.051445
O O9 0.500000 0.770130 0.500000
O O10 0.505110 0.766798 0.177901
O O11 0.601233 0.845362 0.563624
O O12 0.459742 0.882408 0.238608
O O13 0.139001 0.500000 0.983634
O O14 0.423873 0.329036 0.825898
O O15 0.871944 0.500000 0.372245
#
# Coordination Sequence:
#
# PCOD9200483 Si02
#       7
#     8   8   8   8   4   8   8
#     4  10  20  37  58  83 115 161 204 254 297 353
#     4  11  21  36  55  79 113 160 203 248 292 346
#     4  12  23  35  57  88 131 172 200 234 291 372
#     4  11  22  36  54  82 122 164 202 241 295 361
#     4  12  22  42  59  92 125 164 206 256 302 368
#     4  12  23  37  59  91 126 163 203 244 302 371
#     4  10  21  37  60  82 117 158 204 253 305 345
#
# _framework density 19.396522999999998
#
# number of rings (size 3 to 8) (size 9 to 14) (size 15 to 20)
#    0.000    0.923    6.154    1.385    0.000    0.615 
#    0.000    2.308    0.000    0.000    0.000   20.462 
#    0.000    0.000    0.000    0.000    0.000    0.000 
#
# Total GULP energy -144762.698521 kJ/mol
# GULP energy per Si atom -5567.796097 kJ/mol
# Density = 1.935238 g / cm^3
# Si number density = 19.396523 Si / 1000 Ang^3
#
#
#
# Elastic Constant Matrix: (Units=GPa)
#
#
# Indices 1 2 3 4 5 6 
#
# 1 77.2009 10.6910 49.7761 0.0000 -23.8641 0.0000
# 2 10.6910 22.7885 10.4884 0.0000 3.9339 0.0000
# 3 49.7761 10.4884 150.3675 0.0000 -6.8228 0.0000
# 4 0.0000 0.0000 0.0000 -39.2313 0.0000 55.2685
# 5 -23.8641 3.9339 -6.8228 0.0000 45.0908 0.0000
# 6 0.0000 0.0000 0.0000 55.2685 0.0000 -38.1412
#
#
#
# Elastic Compliance Matrix: (Units=1/GPa)
#
#
# Indices 1 2 3 4 5 6 
#
# 1 0.021617 -0.009344 -0.005989 0.000000 0.011350 0.000000
# 2 -0.009344 0.050287 -0.000844 0.000000 -0.009460 0.000000
# 3 -0.005989 -0.000844 0.008610 0.000000 -0.001793 0.000000
# 4 0.000000 0.000000 0.000000 0.024477 0.000000 0.035468
# 5 0.011350 -0.009460 -0.001793 0.000000 0.028738 0.000000
# 6 0.000000 0.000000 0.000000 0.035468 0.000000 0.025176
#
#
# Mechanical properties :
#
#
# Convention : Reuss Voigt Hill
#
# Bulk Modulus (GPa) = 20.76391 43.58531 32.17461
# Shear Modulus (GPa) = 24.11803 5.50372 14.81088
#
# Velocity S-wave (km/s) = 3.53004 1.68631 2.76630
# Velocity P-wave (km/s) = 5.22907 5.12942 5.17948
#
# Compressibility (1/GPa) = 0.04816049
#
# Stress axis : x y z
#
# Youngs Moduli (GPa) = 46.25930 19.88583 116.13806
#
# Poissons Ratio (x) = 0.18582 0.69557
# Poissons Ratio (y) = 0.43226 0.09797
# Poissons Ratio (z) = 0.27706 0.01678
#
# Static dielectric constant tensor:
#      x y z
#    x 1.749750 0.000000 -0.061380 
#    y 0.000000 1.672420 0.000000 
#    z -0.061380 0.000000 1.722430 
# 
# From -- ./inp_files/105862.got.cif
#   From: 2010.05.17/outbox.cif.g08.bks.cpg/sg12_53_cif.got.tgz:105862.got - 2010.06.03 13:09:07.
