data_PCOD9200853
_publ_section_title
;
Structure prediction by ZEFSAII (Michael W. Deem and Ramdas Pophale) SiO2 
 PCOD9200853
Probable space group: C 2/M
;
_chemical_formula_sum "Si O2"
_cell_formula_units_Z 48
_cell_length_a 30.227219
_cell_length_b 7.743172
_cell_length_c 19.328763
_cell_angle_alpha 90.000000
_cell_angle_beta 149.693594
_cell_angle_gamma 90.000000
_cell_volume 2282.912119
_symmetry_space_group_name_H-M "C 2/M"
_symmetry_group_IT_number 12
_symmetry_cell_setting 'monoclinic'
loop_
_space_group_symop_operation_xyz
x,y,z
-x,y,-z
-x,-y,-z
x,-y,z
1/2+x,1/2+y,z
1/2-x,1/2+y,-z
1/2-x,1/2-y,-z
1/2+x,1/2-y,z
loop_
_atom_site_type_symbol
_atom_site_label
_atom_site_fract_x
_atom_site_fract_y
_atom_site_fract_z
Si Si1 0.956166 0.788998 0.369831
Si Si2 0.259611 0.703963 0.432079
Si Si3 0.409021 0.699974 0.050300
Si Si4 0.258503 0.705834 0.091333
Si Si5 0.598149 0.708152 0.113676
Si Si6 0.548011 0.287443 0.350328
O O1 0.855700 0.734329 0.240281
O O2 0.000000 0.733502 0.500000
O O3 0.004356 0.732809 0.364253
O O4 0.956801 0.000000 0.368313
O O5 0.268357 0.500000 0.441329
O O6 0.250000 0.750000 0.500000
O O7 0.174599 0.746839 0.271016
O O8 0.351983 0.772621 0.525952
O O9 0.433975 0.500000 0.072757
O O10 0.486784 0.772289 0.203583
O O11 0.320089 0.709293 0.973429
O O12 0.389297 0.773940 0.947867
O O13 0.252220 0.500000 0.093536
O O14 0.250000 0.750000 0.000000
O O15 0.597974 0.500000 0.113172
O O16 0.500000 0.766394 0.000000
O O17 0.546469 0.500000 0.348545
#
# Coordination Sequence:
#
# PCOD9200853 Si02
#       6
#     8   8   8   8   8   8
#     4   9  18  32  54  81 110 147 193 235 272 333
#     4  11  23  39  63  89 119 153 195 244 294 353
#     4  10  20  37  60  84 114 151 194 240 289 350
#     4  11  21  35  58  84 114 151 195 240 287 343
#     4  10  22  41  64  87 117 157 198 240 296 360
#     4   9  18  35  57  81 111 154 196 232 284 349
#
# _framework density 21.025777999999999
#
# number of rings (size 3 to 8) (size 9 to 14) (size 15 to 20)
#    0.000    2.000    1.667    2.000    2.333    3.667 
#    0.000    3.333    0.000    2.000    0.000    0.000 
#    0.000    0.000    0.000    0.000    0.000    0.000 
#
# Total GULP energy -133956.157333 kJ/mol
# GULP energy per Si atom -5581.506556 kJ/mol
# Density = 2.097792 g / cm^3
# Si number density = 21.025778 Si / 1000 Ang^3
#
#
#
# Elastic Constant Matrix: (Units=GPa)
#
#
# Indices 1 2 3 4 5 6 
#
# 1 130.2742 -2.5243 92.3142 0.0000 -7.4178 0.0000
# 2 -2.5243 33.0227 4.3669 0.0000 -0.7506 0.0000
# 3 92.3142 4.3669 233.5224 0.0000 -5.9008 0.0000
# 4 0.0000 0.0000 0.0000 18.9517 0.0000 5.1529
# 5 -7.4178 -0.7506 -5.9008 0.0000 41.6473 0.0000
# 6 0.0000 0.0000 0.0000 5.1529 0.0000 16.4452
#
#
#
# Elastic Compliance Matrix: (Units=1/GPa)
#
#
# Indices 1 2 3 4 5 6 
#
# 1 0.010800 0.001420 -0.004262 0.000000 0.001345 0.000000
# 2 0.001420 0.030553 -0.001116 0.000000 0.000645 0.000000
# 3 -0.004262 -0.001116 0.005990 0.000000 0.000069 0.000000
# 4 0.000000 0.000000 0.000000 0.057680 0.000000 -0.018073
# 5 0.001345 0.000645 0.000069 0.000000 0.024272 0.000000
# 6 0.000000 0.000000 0.000000 -0.018073 0.000000 0.066471
#
#
# Mechanical properties :
#
#
# Convention : Reuss Voigt Hill
#
# Bulk Modulus (GPa) = 25.36396 65.01477 45.18936
# Shear Modulus (GPa) = 23.06002 35.58635 29.32319
#
# Velocity S-wave (km/s) = 3.31531 4.11848 3.73853
# Velocity P-wave (km/s) = 5.17151 7.32150 6.33833
#
# Compressibility (1/GPa) = 0.03942601
#
# Stress axis : x y z
#
# Youngs Moduli (GPa) = 92.58903 32.72996 166.95247
#
# Poissons Ratio (x) = -0.04647 0.71157
# Poissons Ratio (y) = -0.13146 0.18637
# Poissons Ratio (z) = 0.39462 0.03654
#
# Static dielectric constant tensor:
#      x y z
#    x 1.700830 0.000000 -0.007570 
#    y 0.000000 1.822090 0.000000 
#    z -0.007570 0.000000 1.731390 
# 
# From -- ./inp_files/274606.got.cif
#   From: 2010.05.17/outbox.cif.g08.bks.cpg/sg12_138_cif.got.tgz:274606.got - 2010.06.03 13:09:07.
