data_PCOD9200795
_publ_section_title
;
Structure prediction by ZEFSAII (Michael W. Deem and Ramdas Pophale) SiO2 
 PCOD9200795
Probable space group: C 2/M
;
_chemical_formula_sum "Si O2"
_cell_formula_units_Z 64
_cell_length_a 26.673388
_cell_length_b 7.688779
_cell_length_c 14.887707
_cell_angle_alpha 90.000000
_cell_angle_beta 117.332999
_cell_angle_gamma 90.000000
_cell_volume 2712.369877
_symmetry_space_group_name_H-M "C 2/M"
_symmetry_group_IT_number 12
_symmetry_cell_setting 'monoclinic'
loop_
_space_group_symop_operation_xyz
x,y,z
-x,y,-z
-x,-y,-z
x,-y,z
1/2+x,1/2+y,z
1/2-x,1/2+y,-z
1/2-x,1/2-y,-z
1/2+x,1/2-y,z
loop_
_atom_site_type_symbol
_atom_site_label
_atom_site_fract_x
_atom_site_fract_y
_atom_site_fract_z
Si Si1 0.021565 0.208649 0.920961
Si Si2 0.769117 0.299253 0.886911
Si Si3 0.834504 0.807389 0.774542
Si Si4 0.572800 0.713102 0.294403
Si Si5 0.634104 0.206989 0.918430
Si Si6 0.102978 0.798907 0.514684
Si Si7 0.264174 0.697446 0.412120
Si Si8 0.354690 0.295628 0.267352
O O1 0.085106 0.253957 0.948625
O O2 0.982103 0.267628 0.806178
O O3 0.016604 0.000000 0.919541
O O4 0.000000 0.274494 0.000000
O O5 0.756794 0.500000 0.896466
O O6 0.817197 0.294906 0.848844
O O7 0.709403 0.223654 0.802125
O O8 0.805024 0.220783 0.998878
O O9 0.875731 0.736651 0.730641
O O10 0.773436 0.819172 0.678873
O O11 0.856187 0.000000 0.817758
O O12 0.575972 0.500000 0.302342
O O13 0.575901 0.775566 0.400439
O O14 0.617955 0.279896 0.807794
O O15 0.639725 0.000000 0.914377
O O16 0.169529 0.795970 0.546640
O O17 0.106717 0.723207 0.619351
O O18 0.082467 0.000000 0.504577
O O19 0.246111 0.500000 0.377563
O O20 0.250000 0.750000 0.500000
O O21 0.347399 0.500000 0.284725
#
# Coordination Sequence:
#
# PCOD9200795 Si02
#       8
#     8   8   8   8   8   8   8   8
#     4  10  21  40  65  88 111 145 192 238 280 335
#     4  10  21  37  56  82 116 154 189 231 285 347
#     4  11  20  31  53  85 118 152 189 234 286 340
#     4   9  18  33  55  84 114 147 192 239 282 334
#     4  11  24  40  59  84 116 148 186 238 295 342
#     4   9  17  32  54  79 112 150 188 234 278 327
#     4  11  19  31  49  75 116 158 195 232 279 341
#     4  10  20  37  60  82 110 151 193 230 281 340
#
# _framework density 23.595604000000002
#
# number of rings (size 3 to 8) (size 9 to 14) (size 15 to 20)
#    0.000    1.875    2.500    2.250    0.000    2.750 
#    0.000    1.875    0.000    3.750    0.000    0.000 
#    0.000    0.000    0.000    0.000    0.000    0.000 
#
# Total GULP energy -178475.190256 kJ/mol
# GULP energy per Si atom -5577.349695 kJ/mol
# Density = 2.354190 g / cm^3
# Si number density = 23.595604 Si / 1000 Ang^3
#
#
#
# Elastic Constant Matrix: (Units=GPa)
#
#
# Indices 1 2 3 4 5 6 
#
# 1 73.9989 0.8866 48.1802 0.0000 -8.9367 0.0000
# 2 0.8866 51.2520 11.9033 0.0000 3.1213 0.0000
# 3 48.1802 11.9033 174.4347 0.0000 -2.1881 0.0000
# 4 0.0000 0.0000 0.0000 10.9226 0.0000 -3.8856
# 5 -8.9367 3.1213 -2.1881 0.0000 40.7914 0.0000
# 6 0.0000 0.0000 0.0000 -3.8856 0.0000 14.5516
#
#
#
# Elastic Compliance Matrix: (Units=1/GPa)
#
#
# Indices 1 2 3 4 5 6 
#
# 1 0.016970 0.000586 -0.004684 0.000000 0.003422 0.000000
# 2 0.000586 0.019950 -0.001542 0.000000 -0.001481 0.000000
# 3 -0.004684 -0.001542 0.007125 0.000000 -0.000526 0.000000
# 4 0.000000 0.000000 0.000000 0.101163 0.000000 0.027013
# 5 0.003422 -0.001481 -0.000526 0.000000 0.025350 0.000000
# 6 0.000000 0.000000 0.000000 0.027013 0.000000 0.075934
#
#
# Mechanical properties :
#
#
# Convention : Reuss Voigt Hill
#
# Bulk Modulus (GPa) = 30.52083 46.84730 38.68406
# Shear Modulus (GPa) = 18.60864 29.16749 23.88806
#
# Velocity S-wave (km/s) = 2.81134 3.51969 3.18527
# Velocity P-wave (km/s) = 4.84780 6.03449 5.47340
#
# Compressibility (1/GPa) = 0.03276451
#
# Stress axis : x y z
#
# Youngs Moduli (GPa) = 58.92819 50.12641 140.34617
#
# Poissons Ratio (x) = -0.02937 0.65742
# Poissons Ratio (y) = -0.03453 0.21638
# Poissons Ratio (z) = 0.27603 0.07728
#
# Static dielectric constant tensor:
#      x y z
#    x 1.866210 0.000000 -0.032290 
#    y 0.000000 1.822170 0.000000 
#    z -0.032290 0.000000 1.976220 
# 
# From -- ./inp_files/244169.got.cif
#   From: 2010.05.17/outbox.cif.g08.bks.cpg/sg12_123_cif.got.tgz:244169.got - 2010.06.03 13:09:07.
