data_PCOD9200691
_publ_section_title
;
Structure prediction by ZEFSAII (Michael W. Deem and Ramdas Pophale) SiO2 
 PCOD9200691
Probable space group: C 2/M
;
_chemical_formula_sum "Si O2"
_cell_formula_units_Z 56
_cell_length_a 31.342709
_cell_length_b 9.246849
_cell_length_c 12.030220
_cell_angle_alpha 90.000000
_cell_angle_beta 119.429428
_cell_angle_gamma 90.000000
_cell_volume 3036.706742
_symmetry_space_group_name_H-M "C 2/M"
_symmetry_group_IT_number 12
_symmetry_cell_setting 'monoclinic'
loop_
_space_group_symop_operation_xyz
x,y,z
-x,y,-z
-x,-y,-z
x,-y,z
1/2+x,1/2+y,z
1/2-x,1/2+y,-z
1/2-x,1/2-y,-z
1/2+x,1/2-y,z
loop_
_atom_site_type_symbol
_atom_site_label
_atom_site_fract_x
_atom_site_fract_y
_atom_site_fract_z
Si Si1 0.058749 0.670198 0.072487
Si Si2 0.422448 0.327873 0.130244
Si Si3 0.713949 0.172946 0.538822
Si Si4 0.249676 0.829984 0.167314
Si Si5 0.017731 0.826679 0.399033
Si Si6 0.600533 0.174317 0.368583
Si Si7 0.672088 0.829863 0.926595
O O1 0.069705 0.500000 0.068266
O O2 0.080943 0.712554 0.220155
O O3 0.078087 0.761923 0.993905
O O4 0.000000 0.686545 0.000000
O O5 0.416644 0.500000 0.119218
O O6 0.473816 0.294764 0.256432
O O7 0.378400 0.255743 0.141594
O O8 0.750000 0.250000 0.500000
O O9 0.732655 0.203063 0.686864
O O10 0.657259 0.216955 0.452933
O O11 0.715871 0.000000 0.523939
O O12 0.294755 0.807734 0.140220
O O13 0.235907 0.000000 0.142564
O O14 0.204782 0.733264 0.068724
O O15 0.065926 0.747426 0.416026
O O16 0.000000 0.784500 0.500000
O O17 0.025812 0.000000 0.410144
O O18 0.597016 0.000000 0.375170
O O19 0.663290 0.000000 0.929290
#
# Coordination Sequence:
#
# PCOD9200691 Si02
#       7
#     8   8   8   8   8   8   8
#     4  10  20  37  59  85 116 148 189 238 287 340
#     4  11  23  37  58  87 119 153 192 237 287 346
#     4  10  23  41  60  86 118 154 199 244 292 349
#     4   9  20  40  60  83 116 151 194 244 293 349
#     4  10  23  41  59  86 123 159 197 238 286 350
#     4  10  22  40  62  87 117 154 197 246 293 344
#     4  10  21  37  61  88 115 149 191 241 295 347
#
# _framework density 18.441029
#
# number of rings (size 3 to 8) (size 9 to 14) (size 15 to 20)
#    0.000    2.000    1.429    0.857    4.000    3.429 
#    0.000    0.000    0.000    0.000    0.000    0.000 
#    0.000    0.000    0.000    0.000    0.000    0.000 
#
# Total GULP energy -156396.250649 kJ/mol
# GULP energy per Si atom -5585.580380 kJ/mol
# Density = 1.839906 g / cm^3
# Si number density = 18.441029 Si / 1000 Ang^3
#
#
#
# Elastic Constant Matrix: (Units=GPa)
#
#
# Indices 1 2 3 4 5 6 
#
# 1 122.0639 55.0463 64.9624 0.0000 7.3555 0.0000
# 2 55.0463 40.1473 40.3869 0.0000 0.3559 0.0000
# 3 64.9624 40.3869 102.3035 0.0000 -9.8447 0.0000
# 4 0.0000 0.0000 0.0000 16.9359 0.0000 -5.5123
# 5 7.3555 0.3559 -9.8447 0.0000 26.0112 0.0000
# 6 0.0000 0.0000 0.0000 -5.5123 0.0000 37.9060
#
#
#
# Elastic Compliance Matrix: (Units=1/GPa)
#
#
# Indices 1 2 3 4 5 6 
#
# 1 0.023719 -0.027367 -0.005051 0.000000 -0.008245 0.000000
# 2 -0.027367 0.074155 -0.011675 0.000000 0.002306 0.000000
# 3 -0.005051 -0.011675 0.018415 0.000000 0.008558 0.000000
# 4 0.000000 0.000000 0.000000 0.061980 0.000000 0.009013
# 5 -0.008245 0.002306 0.008558 0.000000 0.043984 0.000000
# 6 0.000000 0.000000 0.000000 0.009013 0.000000 0.027692
#
#
# Mechanical properties :
#
#
# Convention : Reuss Voigt Hill
#
# Bulk Modulus (GPa) = 35.58310 65.03400 50.30855
# Shear Modulus (GPa) = 14.38860 23.11190 18.75025
#
# Velocity S-wave (km/s) = 2.79632 3.54402 3.19214
# Velocity P-wave (km/s) = 5.45559 7.21729 6.39737
#
# Compressibility (1/GPa) = 0.02810322
#
# Stress axis : x y z
#
# Youngs Moduli (GPa) = 42.16065 13.48522 54.30449
#
# Poissons Ratio (x) = 0.36905 0.27429
# Poissons Ratio (y) = 1.15380 0.63400
# Poissons Ratio (z) = 0.21295 0.15744
#
# Static dielectric constant tensor:
#      x y z
#    x 1.613120 0.000000 0.000190 
#    y 0.000000 1.615460 0.000000 
#    z 0.000190 0.000000 1.621350 
# 
# From -- ./inp_files/180790.got.cif
#   From: 2010.05.17/outbox.cif.g08.bks.cpg/sg12_91_cif.got.tgz:180790.got - 2010.06.03 13:09:07.
