data_PCOD9200230
_publ_section_title
;
Structure prediction by ZEFSAII (Michael W. Deem and Ramdas Pophale) SiO2 
 PCOD9200230
Probable space group: C 2/M
;
_chemical_formula_sum "Si O2"
_cell_formula_units_Z 48
_cell_length_a 20.751537
_cell_length_b 17.457421
_cell_length_c 21.433220
_cell_angle_alpha 90.000000
_cell_angle_beta 159.156955
_cell_angle_gamma 90.000000
_cell_volume 2762.707579
_symmetry_space_group_name_H-M "C 2/M"
_symmetry_group_IT_number 12
_symmetry_cell_setting 'monoclinic'
loop_
_space_group_symop_operation_xyz
x,y,z
-x,y,-z
-x,-y,-z
x,-y,z
1/2+x,1/2+y,z
1/2-x,1/2+y,-z
1/2-x,1/2-y,-z
1/2+x,1/2-y,z
loop_
_atom_site_type_symbol
_atom_site_label
_atom_site_fract_x
_atom_site_fract_y
_atom_site_fract_z
Si Si1 0.435920 0.412634 0.373998
Si Si2 0.661793 0.304621 0.973068
Si Si3 0.736259 0.294186 0.421566
Si Si4 0.406213 0.182841 0.979974
Si Si5 0.809381 0.633310 0.668794
Si Si6 0.503302 0.909740 0.713891
O O1 0.500000 0.384051 0.500000
O O2 0.370647 0.500000 0.321895
O O3 0.278722 0.361710 0.202507
O O4 0.622472 0.411493 0.504285
O O5 0.637477 0.252854 0.012882
O O6 0.795806 0.374925 0.104415
O O7 0.750000 0.250000 0.000000
O O8 0.463858 0.327381 0.769371
O O9 0.750000 0.250000 0.500000
O O10 0.750409 0.223043 0.387147
O O11 0.885710 0.359741 0.558691
O O12 0.500000 0.206496 0.000000
O O13 0.549801 0.128522 0.146715
O O14 0.915849 0.609403 0.702662
O O15 0.497623 0.000000 0.697842
#
# Coordination Sequence:
#
# PCOD9200230 Si02
#       6
#     8   8   8   8   8   8
#     4  11  23  34  49  77 117 154 185 224 272 329
#     4  11  20  38  59  82 111 148 192 236 278 327
#     4   9  18  33  56  75 108 145 182 232 273 328
#     4  11  22  38  58  79 108 151 197 231 270 329
#     4  10  20  37  54  79 112 148 190 226 272 331
#     4  11  22  35  57  88 117 146 184 235 290 337
#
# _framework density 17.37426
#
# number of rings (size 3 to 8) (size 9 to 14) (size 15 to 20)
#    0.000    1.500    6.667    1.500    2.333    2.333 
#    0.000    0.000    0.000    0.500    0.000    4.667 
#    0.000    0.000    0.000    0.000    0.000    0.000 
#
# Total GULP energy -133823.432156 kJ/mol
# GULP energy per Si atom -5575.976340 kJ/mol
# Density = 1.733472 g / cm^3
# Si number density = 17.374260 Si / 1000 Ang^3
#
#
#
# Elastic Constant Matrix: (Units=GPa)
#
#
# Indices 1 2 3 4 5 6 
#
# 1 64.7241 5.6203 24.9748 -0.0030 1.7276 -0.0016
# 2 5.6203 102.6219 59.1933 -0.0045 1.6205 -0.0041
# 3 24.9748 59.1933 153.8554 -0.0080 -1.4167 -0.0023
# 4 -0.0030 -0.0045 -0.0080 6.5362 -0.0027 1.4430
# 5 1.7276 1.6205 -1.4167 -0.0027 23.2741 -0.0007
# 6 -0.0016 -0.0041 -0.0023 1.4430 -0.0007 15.9093
#
#
#
# Elastic Compliance Matrix: (Units=1/GPa)
#
#
# Indices 1 2 3 4 5 6 
#
# 1 0.016587 0.000869 -0.003040 0.000004 -0.001477 0.000001
# 2 0.000869 0.012601 -0.005000 0.000002 -0.001246 0.000002
# 3 -0.003040 -0.005000 0.008927 0.000007 0.001117 -0.000001
# 4 0.000004 0.000002 0.000007 0.156120 0.000018 -0.014160
# 5 -0.001477 -0.001246 0.001117 0.000018 0.043231 0.000000
# 6 0.000001 0.000002 -0.000001 -0.014160 0.000000 0.064141
#
#
# Mechanical properties :
#
#
# Convention : Reuss Voigt Hill
#
# Bulk Modulus (GPa) = 42.06791 55.64204 48.85497
# Shear Modulus (GPa) = 15.43805 24.57147 20.00476
#
# Velocity S-wave (km/s) = 2.98410 3.76473 3.39691
# Velocity P-wave (km/s) = 6.01153 7.14091 6.60042
#
# Compressibility (1/GPa) = 0.02377109
#
# Stress axis : x y z
#
# Youngs Moduli (GPa) = 60.28694 79.35923 112.01639
#
# Poissons Ratio (x) = -0.06893 0.34057
# Poissons Ratio (y) = -0.05236 0.56013
# Poissons Ratio (z) = 0.18329 0.39683
#
# Static dielectric constant tensor:
#      x y z
#    x 1.616020 -0.000010 0.007760 
#    y -0.000010 1.610260 -0.000010 
#    z 0.007760 -0.000010 1.619710 
# 
# From -- ./inp_files/322593.got.cif
#   From: 2010.05.17/outbox.cif.g08.bks.cpg/sg12_162_cif.got.tgz:322593.got - 2010.06.03 13:09:07.
