data_PCOD9200720
_publ_section_title
;
Structure prediction by ZEFSAII (Michael W. Deem and Ramdas Pophale) SiO2 
 PCOD9200720
Probable space group: C 2/M
;
_chemical_formula_sum "Si O2"
_cell_formula_units_Z 64
_cell_length_a 14.841150
_cell_length_b 7.969755
_cell_length_c 23.524495
_cell_angle_alpha 90.000000
_cell_angle_beta 95.845711
_cell_angle_gamma 90.000000
_cell_volume 2768.015452
_symmetry_space_group_name_H-M "C 2/M"
_symmetry_group_IT_number 12
_symmetry_cell_setting 'monoclinic'
loop_
_space_group_symop_operation_xyz
x,y,z
-x,y,-z
-x,-y,-z
x,-y,z
1/2+x,1/2+y,z
1/2-x,1/2+y,-z
1/2-x,1/2-y,-z
1/2+x,1/2-y,z
loop_
_atom_site_type_symbol
_atom_site_label
_atom_site_fract_x
_atom_site_fract_y
_atom_site_fract_z
Si Si1 0.579531 0.296537 0.341635
Si Si2 0.542283 0.298304 0.561495
Si Si3 0.685852 0.192859 0.755006
Si Si4 0.788090 0.298059 0.366271
Si Si5 0.678350 0.311163 0.041547
Si Si6 0.388978 0.195697 0.777919
Si Si7 0.017064 0.203623 0.098932
Si Si8 0.327190 0.304988 0.124330
O O1 0.576714 0.500000 0.338974
O O2 0.514537 0.236588 0.387682
O O3 0.683450 0.244904 0.362465
O O4 0.558070 0.228759 0.277415
O O5 0.500000 0.234699 0.500000
O O6 0.534444 0.500000 0.560511
O O7 0.646787 0.254574 0.578827
O O8 0.669730 0.264937 0.691068
O O9 0.795519 0.201649 0.767133
O O10 0.649681 0.286549 0.807946
O O11 0.655769 0.000000 0.756277
O O12 0.787547 0.500000 0.362528
O O13 0.656622 0.500000 0.023756
O O14 0.583254 0.230400 0.053718
O O15 0.738787 0.299764 0.102721
O O16 0.750000 0.250000 0.000000
O O17 0.442760 0.243530 0.837716
O O18 0.364179 0.000000 0.779774
O O19 0.912318 0.254218 0.092373
O O20 0.017673 0.000000 0.096976
O O21 0.307428 0.500000 0.111326
#
# Coordination Sequence:
#
# PCOD9200720 Si02
#       8
#     8   8   8   8   8   8   8   8
#     4   9  20  39  58  80 117 159 192 238 306 362
#     4  10  22  39  59  84 115 154 201 247 295 357
#     4  10  20  37  59  86 125 161 192 241 309 362
#     4   9  20  37  57  82 115 155 195 239 296 358
#     4  11  24  44  67  88 122 167 206 254 303 353
#     4  11  21  34  59  91 121 154 202 250 292 357
#     4  10  23  41  61  88 125 164 197 242 309 361
#     4  11  23  39  62  93 122 158 206 248 296 362
#
# _framework density 23.121258999999998
#
# number of rings (size 3 to 8) (size 9 to 14) (size 15 to 20)
#    0.000    1.875    1.250    3.000    1.750    5.750 
#    0.000    2.500    0.000    0.000    0.000    0.000 
#    0.000    0.000    0.000    0.000    0.000    0.000 
#
# Total GULP energy -178860.851456 kJ/mol
# GULP energy per Si atom -5589.401608 kJ/mol
# Density = 2.306863 g / cm^3
# Si number density = 23.121259 Si / 1000 Ang^3
#
#
#
# Elastic Constant Matrix: (Units=GPa)
#
#
# Indices 1 2 3 4 5 6 
#
# 1 79.9588 0.8473 23.9933 0.0000 -8.1904 0.0000
# 2 0.8473 32.5392 0.0945 0.0000 -3.8243 0.0000
# 3 23.9933 0.0945 74.4905 0.0000 3.4682 0.0000
# 4 0.0000 0.0000 0.0000 24.0722 0.0000 2.5567
# 5 -8.1904 -3.8243 3.4682 0.0000 40.4496 0.0000
# 6 0.0000 0.0000 0.0000 2.5567 0.0000 14.4453
#
#
#
# Elastic Compliance Matrix: (Units=1/GPa)
#
#
# Indices 1 2 3 4 5 6 
#
# 1 0.014269 0.000030 -0.004750 0.000000 0.003299 0.000000
# 2 0.000030 0.031080 -0.000187 0.000000 0.002961 0.000000
# 3 -0.004750 -0.000187 0.015060 0.000000 -0.002271 0.000000
# 4 0.000000 0.000000 0.000000 0.042338 0.000000 -0.007493
# 5 0.003299 0.002961 -0.002271 0.000000 0.025865 0.000000
# 6 0.000000 0.000000 0.000000 -0.007493 0.000000 0.070553
#
#
# Mechanical properties :
#
#
# Convention : Reuss Voigt Hill
#
# Bulk Modulus (GPa) = 19.76436 26.31763 23.04100
# Shear Modulus (GPa) = 22.13922 26.59701 24.36812
#
# Velocity S-wave (km/s) = 3.09775 3.39533 3.24995
# Velocity P-wave (km/s) = 4.62184 5.17476 4.90610
#
# Compressibility (1/GPa) = 0.05059613
#
# Stress axis : x y z
#
# Youngs Moduli (GPa) = 70.08025 32.17520 66.39931
#
# Poissons Ratio (x) = -0.00096 0.31538
# Poissons Ratio (y) = -0.00210 0.01241
# Poissons Ratio (z) = 0.33287 0.00601
#
# Static dielectric constant tensor:
#      x y z
#    x 1.877320 0.000000 -0.023740 
#    y 0.000000 1.828370 0.000000 
#    z -0.023740 0.000000 1.902330 
# 
# From -- ./inp_files/338777.got.cif
#   From: 2010.05.17/outbox.cif.g08.bks.cpg/sg12_170_cif.got.tgz:338777.got - 2010.06.03 13:09:07.
