data_PCOD9200342
_publ_section_title
;
Structure prediction by ZEFSAII (Michael W. Deem and Ramdas Pophale) SiO2 
 PCOD9200342
Probable space group: C 2/M
;
_chemical_formula_sum "Si O2"
_cell_formula_units_Z 64
_cell_length_a 34.420392
_cell_length_b 8.548769
_cell_length_c 26.218746
_cell_angle_alpha 90.000000
_cell_angle_beta 153.534526
_cell_angle_gamma 90.000000
_cell_volume 3438.218376
_symmetry_space_group_name_H-M "C 2/M"
_symmetry_group_IT_number 12
_symmetry_cell_setting 'monoclinic'
loop_
_space_group_symop_operation_xyz
x,y,z
-x,y,-z
-x,-y,-z
x,-y,z
1/2+x,1/2+y,z
1/2-x,1/2+y,-z
1/2-x,1/2-y,-z
1/2+x,1/2-y,z
loop_
_atom_site_type_symbol
_atom_site_label
_atom_site_fract_x
_atom_site_fract_y
_atom_site_fract_z
Si Si1 0.485455 0.319677 0.043798
Si Si2 0.282746 0.812487 0.326032
Si Si3 0.928921 0.689332 0.580569
Si Si4 0.286048 0.686216 0.961518
Si Si5 0.197869 0.314038 0.133010
Si Si6 0.880293 0.187256 0.174271
Si Si7 0.835753 0.320305 0.729357
Si Si8 0.710522 0.179241 0.504224
O O1 0.496666 0.500000 0.073389
O O2 0.562348 0.211158 0.155011
O O3 0.500000 0.316378 0.000000
O O4 0.391867 0.259757 0.951319
O O5 0.370029 0.774091 0.461196
O O6 0.275184 0.758503 0.258775
O O7 0.204185 0.722916 0.262610
O O8 0.269466 0.000000 0.313697
O O9 0.934310 0.500000 0.588865
O O10 0.873745 0.746201 0.565297
O O11 0.024590 0.760090 0.695858
O O12 0.290187 0.500000 0.958218
O O13 0.294983 0.770243 0.917948
O O14 0.194313 0.731880 0.879611
O O15 0.358688 0.728789 0.089724
O O16 0.197027 0.500000 0.138327
O O17 0.871363 0.000000 0.168233
O O18 0.814877 0.500000 0.692440
O O19 0.786054 0.201093 0.634434
O O20 0.750000 0.250000 0.500000
O O21 0.690900 0.000000 0.470723
#
# Coordination Sequence:
#
# PCOD9200342 Si02
#       8
#     8   8   8   8   8   8   8   8
#     4  11  22  36  56  79 111 154 195 235 283 343
#     4  10  20  37  57  81 115 155 194 232 283 348
#     4   9  20  37  60  85 113 153 193 232 286 350
#     4  10  22  41  63  87 119 156 188 232 294 354
#     4  12  24  37  58  88 120 152 195 247 294 345
#     4  10  21  39  65  92 116 146 191 241 291 346
#     4  11  21  34  54  79 109 147 193 239 287 338
#     4  10  21  37  55  79 114 153 195 239 288 342
#
# _framework density 18.614291000000001
#
# number of rings (size 3 to 8) (size 9 to 14) (size 15 to 20)
#    0.000    1.625    1.250    4.875    0.000    6.000 
#    0.000    3.125    0.000    3.750    0.000    0.000 
#    0.000    0.000    0.000    0.000    0.000    0.000 
#
# Total GULP energy -178548.312454 kJ/mol
# GULP energy per Si atom -5579.634764 kJ/mol
# Density = 1.857192 g / cm^3
# Si number density = 18.614291 Si / 1000 Ang^3
#
#
#
# Elastic Constant Matrix: (Units=GPa)
#
#
# Indices 1 2 3 4 5 6 
#
# 1 80.6914 17.6235 31.3313 0.0000 -14.3266 0.0000
# 2 17.6235 58.0345 12.8441 0.0000 1.3770 0.0000
# 3 31.3313 12.8441 95.9774 0.0000 7.9214 0.0000
# 4 0.0000 0.0000 0.0000 28.7923 0.0000 1.7340
# 5 -14.3266 1.3770 7.9214 0.0000 18.9018 0.0000
# 6 0.0000 0.0000 0.0000 1.7340 0.0000 29.4032
#
#
#
# Elastic Compliance Matrix: (Units=1/GPa)
#
#
# Indices 1 2 3 4 5 6 
#
# 1 0.019439 -0.004738 -0.007205 0.000000 0.018098 0.000000
# 2 -0.004738 0.018914 -0.000595 0.000000 -0.004719 0.000000
# 3 -0.007205 -0.000595 0.013774 0.000000 -0.011191 0.000000
# 4 0.000000 0.000000 0.000000 0.034855 0.000000 -0.002056
# 5 0.018098 -0.004719 -0.011191 0.000000 0.071656 0.000000
# 6 0.000000 0.000000 0.000000 -0.002056 0.000000 0.034131
#
#
# Mechanical properties :
#
#
# Convention : Reuss Voigt Hill
#
# Bulk Modulus (GPa) = 36.96779 39.81125 38.38952
# Shear Modulus (GPa) = 22.03983 26.94642 24.49313
#
# Velocity S-wave (km/s) = 3.44470 3.80889 3.63136
# Velocity P-wave (km/s) = 5.97698 6.38572 6.18473
#
# Compressibility (1/GPa) = 0.02705058
#
# Stress axis : x y z
#
# Youngs Moduli (GPa) = 51.44385 52.87221 72.59805
#
# Poissons Ratio (x) = 0.25050 0.52309
# Poissons Ratio (y) = 0.24373 0.04319
# Poissons Ratio (z) = 0.37067 0.03146
#
# Static dielectric constant tensor:
#      x y z
#    x 1.684320 0.000000 -0.042060 
#    y 0.000000 1.631520 0.000000 
#    z -0.042060 0.000000 1.654520 
# 
# From -- ./inp_files/353584.got.cif
#   From: 2010.05.17/outbox.cif.g08.bks.cpg/sg12_177_cif.got.tgz:353584.got - 2010.06.03 13:09:07.
