data_PCOD9200964
_publ_section_title
;
Structure prediction by ZEFSAII (Michael W. Deem and Ramdas Pophale) SiO2 
 PCOD9200964
Probable space group: C 2/M
;
_chemical_formula_sum "Si O2"
_cell_formula_units_Z 40
_cell_length_a 27.866278
_cell_length_b 8.643579
_cell_length_c 9.241260
_cell_angle_alpha 90.000000
_cell_angle_beta 108.478731
_cell_angle_gamma 90.000000
_cell_volume 2111.126479
_symmetry_space_group_name_H-M "C 2/M"
_symmetry_group_IT_number 12
_symmetry_cell_setting 'monoclinic'
loop_
_space_group_symop_operation_xyz
x,y,z
-x,y,-z
-x,-y,-z
x,-y,z
1/2+x,1/2+y,z
1/2-x,1/2+y,-z
1/2-x,1/2-y,-z
1/2+x,1/2-y,z
loop_
_atom_site_type_symbol
_atom_site_label
_atom_site_fract_x
_atom_site_fract_y
_atom_site_fract_z
Si Si1 0.798619 0.315009 0.962303
Si Si2 0.995141 0.822089 0.670718
Si Si3 0.110410 0.682590 0.448884
Si Si4 0.107015 0.186713 0.771158
Si Si5 0.296438 0.315754 0.637459
O O1 0.799154 0.500000 0.971444
O O2 0.795768 0.260378 0.794447
O O3 0.750000 0.250000 0.000000
O O4 0.848790 0.246742 0.084599
O O5 0.946332 0.721235 0.659393
O O6 0.000000 0.822212 0.500000
O O7 0.050736 0.770754 0.774265
O O8 0.986117 0.000000 0.706785
O O9 0.119760 0.500000 0.453353
O O10 0.113812 0.742226 0.617668
O O11 0.151924 0.770419 0.394252
O O12 0.108248 0.000000 0.760243
O O13 0.292007 0.500000 0.645985
O O14 0.250000 0.250000 0.500000
#
# Coordination Sequence:
#
# PCOD9200964 Si02
#       5
#     8   8   8   8   8
#     4  12  25  42  62  87 117 150 191 237 289 345
#     4   8  16  32  55  83 116 154 194 235 282 337
#     4  11  21  35  58  89 121 154 194 239 286 337
#     4  10  20  37  60  87 119 156 196 237 285 339
#     4  12  25  43  63  85 115 151 192 238 290 344
#
# _framework density 18.947229
#
# number of rings (size 3 to 8) (size 9 to 14) (size 15 to 20)
#    0.000    1.400    0.000    8.400    0.000    4.400 
#    0.000    1.000    0.000    6.000    0.000    0.000 
#    0.000    0.000    0.000    0.000    0.000    0.000 
#
# Total GULP energy -111798.061198 kJ/mol
# GULP energy per Si atom -5589.903060 kJ/mol
# Density = 1.890410 g / cm^3
# Si number density = 18.947229 Si / 1000 Ang^3
#
#
#
# Elastic Constant Matrix: (Units=GPa)
#
#
# Indices 1 2 3 4 5 6 
#
# 1 118.4112 17.0924 51.6927 0.0000 26.7012 0.0000
# 2 17.0924 84.3756 10.7106 0.0000 15.1623 0.0000
# 3 51.6927 10.7106 91.5159 0.0000 22.2655 0.0000
# 4 0.0000 0.0000 0.0000 32.3214 0.0000 1.9372
# 5 26.7012 15.1623 22.2655 0.0000 34.8924 0.0000
# 6 0.0000 0.0000 0.0000 1.9372 0.0000 35.2397
#
#
#
# Elastic Compliance Matrix: (Units=1/GPa)
#
#
# Indices 1 2 3 4 5 6 
#
# 1 0.012177 -0.000787 -0.005448 0.000000 -0.005500 0.000000
# 2 -0.000787 0.012909 0.000180 0.000000 -0.005122 0.000000
# 3 -0.005448 0.000180 0.015375 0.000000 -0.005720 0.000000
# 4 0.000000 0.000000 0.000000 0.031042 0.000000 -0.001706
# 5 -0.005500 -0.005122 -0.005720 0.000000 0.038744 0.000000
# 6 0.000000 0.000000 0.000000 -0.001706 0.000000 0.028471
#
#
# Mechanical properties :
#
#
# Convention : Reuss Voigt Hill
#
# Bulk Modulus (GPa) = 35.27217 50.36601 42.81909
# Shear Modulus (GPa) = 31.19567 34.81117 33.00342
#
# Velocity S-wave (km/s) = 4.06205 4.29099 4.17809
# Velocity P-wave (km/s) = 6.37626 7.15472 6.77668
#
# Compressibility (1/GPa) = 0.02835097
#
# Stress axis : x y z
#
# Youngs Moduli (GPa) = 82.11945 77.46679 65.04035
#
# Poissons Ratio (x) = 0.06096 0.35435
# Poissons Ratio (y) = 0.06462 -0.01170
# Poissons Ratio (z) = 0.44740 -0.01393
#
# Static dielectric constant tensor:
#      x y z
#    x 1.685080 0.000000 -0.070040 
#    y 0.000000 1.629540 0.000000 
#    z -0.070040 0.000000 1.932630 
# 
# From -- ./inp_files/101195.got.cif
#   From: 2010.05.17/outbox.cif.g08.bks.cpg/sg12_51_cif.got.tgz:101195.got - 2010.06.03 13:09:07.
