data_PCOD9200982
_publ_section_title
;
Structure prediction by ZEFSAII (Michael W. Deem and Ramdas Pophale) SiO2 
 PCOD9200982
Probable space group: C 2/M
;
_chemical_formula_sum "Si O2"
_cell_formula_units_Z 64
_cell_length_a 17.855146
_cell_length_b 28.181078
_cell_length_c 8.909234
_cell_angle_alpha 90.000000
_cell_angle_beta 42.337480
_cell_angle_gamma 90.000000
_cell_volume 3019.232254
_symmetry_space_group_name_H-M "C 2/M"
_symmetry_group_IT_number 12
_symmetry_cell_setting 'monoclinic'
loop_
_space_group_symop_operation_xyz
x,y,z
-x,y,-z
-x,-y,-z
x,-y,z
1/2+x,1/2+y,z
1/2-x,1/2+y,-z
1/2-x,1/2-y,-z
1/2+x,1/2-y,z
loop_
_atom_site_type_symbol
_atom_site_label
_atom_site_fract_x
_atom_site_fract_y
_atom_site_fract_z
Si Si1 0.377580 0.268499 0.622044
Si Si2 0.218047 0.053393 0.341898
Si Si3 0.770830 0.084496 0.014405
Si Si4 0.113121 0.619962 0.738922
Si Si5 0.091455 0.447660 0.491683
Si Si6 0.981238 0.944432 0.852065
Si Si7 0.169884 0.316018 0.080169
Si Si8 0.450783 0.781593 0.228952
O O1 0.500000 0.284065 0.500000
O O2 0.276435 0.302273 0.819512
O O3 0.396225 0.256180 0.420685
O O4 0.344735 0.219744 0.757877
O O5 0.217842 0.060286 0.163873
O O6 0.293968 0.092949 0.305192
O O7 0.096001 0.058356 0.591955
O O8 0.258748 0.000000 0.317234
O O9 0.698074 0.131868 0.097556
O O10 0.892249 0.090025 0.906463
O O11 0.705977 0.053578 0.232107
O O12 0.094750 0.592101 0.612038
O O13 0.133404 0.675454 0.680686
O O14 0.000000 0.617276 0.000000
O O15 0.071004 0.500000 0.588199
O O16 0.000000 0.439025 0.500000
O O17 0.944495 0.000000 0.895547
O O18 0.000000 0.934042 0.000000
O O19 0.055924 0.306969 0.157730
O O20 0.500000 0.762205 0.000000
#
# Coordination Sequence:
#
# PCOD9200982 Si02
#       8
#     8   8   8   8   8   8   8   8
#     4   9  20  39  62  86 115 149 189 238 297 360
#     4  11  23  38  57  83 116 156 201 247 295 349
#     4  12  22  37  61  86 116 154 202 249 294 351
#     4  11  22  37  57  83 118 157 197 242 297 352
#     4  11  22  34  52  81 115 153 197 243 291 343
#     4  10  22  40  59  82 116 157 199 246 299 349
#     4  10  21  38  61  86 114 153 194 237 293 357
#     4  10  20  37  60  88 120 152 191 240 298 359
#
# _framework density 21.197441000000001
#
# number of rings (size 3 to 8) (size 9 to 14) (size 15 to 20)
#    0.000    1.500    0.000    6.375    0.000    6.500 
#    0.000    0.000    0.000    7.500    0.000    0.000 
#    0.000    0.000    0.000    0.000    0.000    0.000 
#
# Total GULP energy -178891.344295 kJ/mol
# GULP energy per Si atom -5590.354509 kJ/mol
# Density = 2.114919 g / cm^3
# Si number density = 21.197441 Si / 1000 Ang^3
#
#
#
# Elastic Constant Matrix: (Units=GPa)
#
#
# Indices 1 2 3 4 5 6 
#
# 1 37.3754 0.2112 -1.0821 0.0000 2.0610 0.0000
# 2 0.2112 32.2013 6.0419 0.0000 -1.4801 0.0000
# 3 -1.0821 6.0419 66.6540 0.0000 13.2214 0.0000
# 4 0.0000 0.0000 0.0000 27.1086 0.0000 8.6723
# 5 2.0610 -1.4801 13.2214 0.0000 43.1003 0.0000
# 6 0.0000 0.0000 0.0000 8.6723 0.0000 19.9440
#
#
#
# Elastic Compliance Matrix: (Units=1/GPa)
#
#
# Indices 1 2 3 4 5 6 
#
# 1 0.026865 -0.000392 0.000776 0.000000 -0.001536 0.000000
# 2 -0.000392 0.031776 -0.003308 0.000000 0.002125 0.000000
# 3 0.000776 -0.003308 0.016339 0.000000 -0.005163 0.000000
# 4 0.000000 0.000000 0.000000 0.042849 0.000000 -0.018632
# 5 -0.001536 0.002125 -0.005163 0.000000 0.024932 0.000000
# 6 0.000000 0.000000 0.000000 -0.018632 0.000000 0.058242
#
#
# Mechanical properties :
#
#
# Convention : Reuss Voigt Hill
#
# Bulk Modulus (GPa) = 14.46514 16.28584 15.37549
# Shear Modulus (GPa) = 21.74897 26.76788 24.25843
#
# Velocity S-wave (km/s) = 3.20663 3.55743 3.38657
# Velocity P-wave (km/s) = 4.53307 4.95715 4.74985
#
# Compressibility (1/GPa) = 0.06913171
#
# Stress axis : x y z
#
# Youngs Moduli (GPa) = 37.22318 31.47068 61.20158
#
# Poissons Ratio (x) = 0.01235 -0.04752
# Poissons Ratio (y) = 0.01461 0.20246
# Poissons Ratio (z) = -0.02890 0.10411
#
# Static dielectric constant tensor:
#      x y z
#    x 1.751510 0.000000 0.039490 
#    y 0.000000 1.782480 0.000000 
#    z 0.039490 0.000000 1.642740 
# 
# From -- ./inp_files/80690.got.cif
#   From: 2010.05.17/outbox.cif.g08.bks.cpg/sg12_41_cif.got.tgz:80690.got - 2010.06.03 13:09:07.
