data_PCOD9200639
_publ_section_title
;
Structure prediction by ZEFSAII (Michael W. Deem and Ramdas Pophale) SiO2 
 PCOD9200639
Probable space group: C 2/M
;
_chemical_formula_sum "Si O2"
_cell_formula_units_Z 56
_cell_length_a 28.961253
_cell_length_b 8.894318
_cell_length_c 11.775064
_cell_angle_alpha 90.000000
_cell_angle_beta 121.772663
_cell_angle_gamma 90.000000
_cell_volume 2578.610696
_symmetry_space_group_name_H-M "C 2/M"
_symmetry_group_IT_number 12
_symmetry_cell_setting 'monoclinic'
loop_
_space_group_symop_operation_xyz
x,y,z
-x,y,-z
-x,-y,-z
x,-y,z
1/2+x,1/2+y,z
1/2-x,1/2+y,-z
1/2-x,1/2-y,-z
1/2+x,1/2-y,z
loop_
_atom_site_type_symbol
_atom_site_label
_atom_site_fract_x
_atom_site_fract_y
_atom_site_fract_z
Si Si1 0.532095 0.179927 0.658839
Si Si2 0.350963 0.678134 0.219367
Si Si3 0.557770 0.179589 0.275021
Si Si4 0.170012 0.328717 0.026164
Si Si5 0.219090 0.674764 0.324442
Si Si6 0.661255 0.317410 0.535627
Si Si7 0.890360 0.177005 0.860034
O O1 0.500000 0.211790 0.500000
O O2 0.587942 0.268578 0.728425
O O3 0.494676 0.219333 0.718203
O O4 0.542005 0.000000 0.674117
O O5 0.346272 0.500000 0.208776
O O6 0.339356 0.726354 0.332601
O O7 0.316536 0.748133 0.072733
O O8 0.609644 0.240753 0.411863
O O9 0.563227 0.250607 0.157170
O O10 0.560909 0.000000 0.269885
O O11 0.155096 0.500000 0.983622
O O12 0.217001 0.328998 0.182413
O O13 0.120491 0.249817 0.031045
O O14 0.209421 0.500000 0.347320
O O15 0.279210 0.726499 0.434293
O O16 0.166939 0.779535 0.277212
O O17 0.657129 0.500000 0.521174
O O18 0.896282 0.000000 0.875240
#
# Coordination Sequence:
#
# PCOD9200639 Si02
#       7
#     8   8   8   8   8   8   8
#     4  10  21  39  59  82 113 150 189 228 275 339
#     4  11  22  35  58  88 118 147 185 235 287 331
#     4  11  22  37  59  84 113 149 191 231 280 337
#     4   9  19  38  60  80 112 154 191 229 275 331
#     4   8  18  37  57  80 113 153 191 227 274 333
#     4  10  21  36  55  85 118 150 189 232 280 333
#     4  10  20  37  59  83 113 147 187 236 285 328
#
# _framework density 21.717120000000001
#
# number of rings (size 3 to 8) (size 9 to 14) (size 15 to 20)
#    0.857    1.286    1.429    2.143    0.000    3.714 
#    0.000    0.714    0.000    4.286    0.000    0.000 
#    0.000    0.000    0.000    0.000    0.000    0.000 
#
# Total GULP energy -156313.155716 kJ/mol
# GULP energy per Si atom -5582.612704 kJ/mol
# Density = 2.166769 g / cm^3
# Si number density = 21.717120 Si / 1000 Ang^3
#
#
#
# Elastic Constant Matrix: (Units=GPa)
#
#
# Indices 1 2 3 4 5 6 
#
# 1 102.2957 26.8767 11.7694 0.0000 -17.9424 0.0000
# 2 26.8767 50.1925 -2.5577 0.0000 -13.2581 0.0000
# 3 11.7694 -2.5577 50.3588 0.0000 -13.0394 0.0000
# 4 0.0000 0.0000 0.0000 29.9844 0.0000 -4.1870
# 5 -17.9424 -13.2581 -13.0394 0.0000 28.1539 0.0000
# 6 0.0000 0.0000 0.0000 -4.1870 0.0000 25.3441
#
#
#
# Elastic Compliance Matrix: (Units=1/GPa)
#
#
# Indices 1 2 3 4 5 6 
#
# 1 0.012203 -0.005519 -0.002036 0.000000 0.004235 0.000000
# 2 -0.005519 0.026170 0.005567 0.000000 0.011384 0.000000
# 3 -0.002036 0.005567 0.023815 0.000000 0.012354 0.000000
# 4 0.000000 0.000000 0.000000 0.034138 0.000000 0.005640
# 5 0.004235 0.011384 0.012354 0.000000 0.049301 0.000000
# 6 0.000000 0.000000 0.000000 0.005640 0.000000 0.040389
#
#
# Mechanical properties :
#
#
# Convention : Reuss Voigt Hill
#
# Bulk Modulus (GPa) = 17.17900 30.55818 23.86859
# Shear Modulus (GPa) = 23.87836 27.81371 25.84603
#
# Velocity S-wave (km/s) = 3.31949 3.58261 3.45356
# Velocity P-wave (km/s) = 4.75600 5.58704 5.18819
#
# Compressibility (1/GPa) = 0.05821062
#
# Stress axis : x y z
#
# Youngs Moduli (GPa) = 81.94912 38.21233 41.99064
#
# Poissons Ratio (x) = 0.21091 0.08548
# Poissons Ratio (y) = 0.45231 -0.23376
# Poissons Ratio (z) = 0.16683 -0.21272
#
# Static dielectric constant tensor:
#      x y z
#    x 1.801630 0.000000 -0.014290 
#    y 0.000000 1.724420 0.000000 
#    z -0.014290 0.000000 1.872860 
# 
# From -- ./inp_files/186860.got.cif
#   From: 2010.05.17/outbox.cif.g08.bks.cpg/sg12_94_cif.got.tgz:186860.got - 2010.06.03 13:09:07.
