data_PCOD9200384
_publ_section_title
;
Structure prediction by ZEFSAII (Michael W. Deem and Ramdas Pophale) SiO2 
 PCOD9200384
Probable space group: C 2/M
;
_chemical_formula_sum "Si O2"
_cell_formula_units_Z 64
_cell_length_a 8.975630
_cell_length_b 19.207919
_cell_length_c 22.737746
_cell_angle_alpha 90.000000
_cell_angle_beta 128.980865
_cell_angle_gamma 90.000000
_cell_volume 3047.282194
_symmetry_space_group_name_H-M "C 2/M"
_symmetry_group_IT_number 12
_symmetry_cell_setting 'monoclinic'
loop_
_space_group_symop_operation_xyz
x,y,z
-x,y,-z
-x,-y,-z
x,-y,z
1/2+x,1/2+y,z
1/2-x,1/2+y,-z
1/2-x,1/2-y,-z
1/2+x,1/2-y,z
loop_
_atom_site_type_symbol
_atom_site_label
_atom_site_fract_x
_atom_site_fract_y
_atom_site_fract_z
Si Si1 0.944243 0.151604 0.927013
Si Si2 0.574035 0.277643 0.581340
Si Si3 0.170459 0.678909 0.196330
Si Si4 0.924217 0.417409 0.217361
Si Si5 0.680867 0.282585 0.888916
Si Si6 0.715927 0.077184 0.530620
Si Si7 0.908569 0.806645 0.648905
Si Si8 0.783459 0.416503 0.607360
O O1 0.785666 0.115275 0.845860
O O2 0.828923 0.218122 0.925584
O O3 0.129498 0.173865 0.934512
O O4 0.000000 0.109947 0.000000
O O5 0.500000 0.254173 0.500000
O O6 0.757088 0.234882 0.648672
O O7 0.415146 0.263860 0.589858
O O8 0.630085 0.359664 0.592542
O O9 0.064240 0.615788 0.202693
O O10 0.226691 0.672682 0.141205
O O11 0.025584 0.743822 0.171300
O O12 0.379604 0.690233 0.275000
O O13 0.913142 0.500000 0.208230
O O14 0.025699 0.403265 0.305938
O O15 0.500000 0.075577 0.500000
O O16 0.828547 0.120614 0.607157
O O17 0.704425 0.099077 0.459256
O O18 0.799100 0.000000 0.550162
O O19 0.739586 0.500000 0.602809
#
# Coordination Sequence:
#
# PCOD9200384 Si02
#       8
#     8   8   8   8   8   8   8   8
#     4  10  20  37  63  93 123 154 189 233 289 352
#     4  12  24  37  53  84 114 147 193 246 300 346
#     4  10  20  37  57  88 117 155 195 240 290 345
#     4  10  22  40  61  85 116 154 198 244 292 348
#     4   9  20  36  60  90 123 155 192 235 284 351
#     4  10  23  41  57  78 110 153 203 249 295 345
#     4  12  24  35  57  84 116 151 190 247 300 344
#     4  10  22  40  60  77 107 154 202 241 285 347
#
# _framework density 21.002320000000001
#
# number of rings (size 3 to 8) (size 9 to 14) (size 15 to 20)
#    0.000    1.625    2.500    1.875    5.250    2.500 
#    0.000    0.625    0.000    0.750    0.000    0.000 
#    0.000    0.000    0.000    0.000    0.000    0.000 
#
# Total GULP energy -178407.786672 kJ/mol
# GULP energy per Si atom -5575.243334 kJ/mol
# Density = 2.095452 g / cm^3
# Si number density = 21.002320 Si / 1000 Ang^3
#
#
#
# Elastic Constant Matrix: (Units=GPa)
#
#
# Indices 1 2 3 4 5 6 
#
# 1 75.7712 4.2067 1.5764 0.0000 -3.7265 0.0000
# 2 4.2067 61.5728 8.7823 0.0000 -2.3958 0.0000
# 3 1.5764 8.7823 63.9716 0.0000 -0.8201 0.0000
# 4 0.0000 0.0000 0.0000 12.4220 0.0000 -3.2876
# 5 -3.7265 -2.3958 -0.8201 0.0000 31.7980 0.0000
# 6 0.0000 0.0000 0.0000 -3.2876 0.0000 14.7238
#
#
#
# Elastic Compliance Matrix: (Units=1/GPa)
#
#
# Indices 1 2 3 4 5 6 
#
# 1 0.013321 -0.000824 -0.000196 0.000000 0.001494 0.000000
# 2 -0.000824 0.016661 -0.002253 0.000000 0.001101 0.000000
# 3 -0.000196 -0.002253 0.015949 0.000000 0.000219 0.000000
# 4 0.000000 0.000000 0.000000 0.085558 0.000000 0.019104
# 5 0.001494 0.001101 0.000219 0.000000 0.031712 0.000000
# 6 0.000000 0.000000 0.000000 0.019104 0.000000 0.072183
#
#
# Mechanical properties :
#
#
# Convention : Reuss Voigt Hill
#
# Bulk Modulus (GPa) = 25.39015 25.60515 25.49765
# Shear Modulus (GPa) = 19.60333 24.23877 21.92105
#
# Velocity S-wave (km/s) = 3.05846 3.40089 3.23421
# Velocity P-wave (km/s) = 4.95859 5.25732 5.11014
#
# Compressibility (1/GPa) = 0.03938536
#
# Stress axis : x y z
#
# Youngs Moduli (GPa) = 75.06983 60.01890 62.70036
#
# Poissons Ratio (x) = 0.04946 0.01229
# Poissons Ratio (y) = 0.06186 0.14126
# Poissons Ratio (z) = 0.01471 0.13522
#
# Static dielectric constant tensor:
#      x y z
#    x 1.768750 0.000000 -0.032200 
#    y 0.000000 1.777500 0.000000 
#    z -0.032200 0.000000 1.822300 
# 
# From -- ./inp_files/333754.got.cif
#   From: 2010.05.17/outbox.cif.g08.bks.cpg/sg12_167_cif.got.tgz:333754.got - 2010.06.03 13:09:07.
