data_PCOD9200184
_publ_section_title
;
Structure prediction by ZEFSAII (Michael W. Deem and Ramdas Pophale) SiO2 
 PCOD9200184
Probable space group: C 2/M
;
_chemical_formula_sum "Si O2"
_cell_formula_units_Z 38
_cell_length_a 9.273087
_cell_length_b 23.644438
_cell_length_c 7.477032
_cell_angle_alpha 90.000000
_cell_angle_beta 84.305270
_cell_angle_gamma 90.000000
_cell_volume 1631.300202
_symmetry_space_group_name_H-M "C 2/M"
_symmetry_group_IT_number 12
_symmetry_cell_setting 'monoclinic'
loop_
_space_group_symop_operation_xyz
x,y,z
-x,y,-z
-x,-y,-z
x,-y,z
1/2+x,1/2+y,z
1/2-x,1/2+y,-z
1/2-x,1/2-y,-z
1/2+x,1/2-y,z
loop_
_atom_site_type_symbol
_atom_site_label
_atom_site_fract_x
_atom_site_fract_y
_atom_site_fract_z
Si Si1 0.500000 0.896841 0.000000
Si Si2 0.156629 0.291048 0.142236
Si Si3 0.222176 0.500000 0.368977
Si Si4 0.570272 0.289745 0.685780
Si Si5 0.470885 0.584195 0.289190
Si Si6 0.000000 0.000000 0.000000
Si Si7 0.904010 0.500000 0.239698
O O1 0.387246 0.853527 0.918326
O O2 0.592198 0.941175 0.868912
O O3 0.257221 0.291132 0.308092
O O4 0.005041 0.260880 0.201048
O O5 0.250000 0.250000 0.000000
O O6 0.314519 0.553391 0.290656
O O7 0.207747 0.500000 0.583788
O O8 0.064696 0.500000 0.307191
O O9 0.500000 0.286920 0.500000
O O10 0.522533 0.350881 0.762778
O O11 0.500000 0.578744 0.500000
O O12 0.558676 0.548534 0.134565
#
# Coordination Sequence:
#
# PCOD9200184 Si02
#       7
#     4   8   4   8   8   2   4
#     4  11  24  45  66 107 144 179 246 282 358 429
#     4  12  24  46  71 103 142 182 235 295 351 424
#     4  10  20  46  66  96 138 180 237 279 356 417
#     4  11  25  46  70 100 141 185 235 290 362 423
#     4  10  23  43  66 102 135 180 239 292 350 432
#     4  10  20  36  66  94 136 176 216 286 358 398
#     4  10  24  44  69  99 139 192 219 297 347 421
#
# _framework density 23.294301999999998
#
# number of rings (size 3 to 8) (size 9 to 14) (size 15 to 20)
#    0.000    1.263    2.105    3.158    2.947    3.368 
#   26.526    0.000    0.000    0.000    0.000    0.000 
#    0.000    0.000    0.000    0.000    0.000    0.000 
#
# Total GULP energy -105800.458232 kJ/mol
# GULP energy per Si atom -5568.445170 kJ/mol
# Density = 2.324128 g / cm^3
# Si number density = 23.294302 Si / 1000 Ang^3
#
#
#
# Elastic Constant Matrix: (Units=GPa)
#
#
# Indices 1 2 3 4 5 6 
#
# 1 119.8516 32.8916 21.6509 0.0000 23.5752 0.0000
# 2 32.8916 197.2969 53.6495 0.0000 1.7696 0.0000
# 3 21.6509 53.6495 74.9615 0.0000 14.5948 0.0000
# 4 0.0000 0.0000 0.0000 6.8094 0.0000 32.5007
# 5 23.5752 1.7696 14.5948 0.0000 38.7995 0.0000
# 6 0.0000 0.0000 0.0000 32.5007 0.0000 18.7204
#
#
#
# Elastic Compliance Matrix: (Units=1/GPa)
#
#
# Indices 1 2 3 4 5 6 
#
# 1 0.009993 -0.001406 -0.000766 0.000000 -0.005720 0.000000
# 2 -0.001406 0.006575 -0.004756 0.000000 0.002344 0.000000
# 3 -0.000766 -0.004756 0.018163 0.000000 -0.006150 0.000000
# 4 0.000000 0.000000 0.000000 -0.020155 0.000000 0.034991
# 5 -0.005720 0.002344 -0.006150 0.000000 0.031455 0.000000
# 6 0.000000 0.000000 0.000000 0.034991 0.000000 -0.007331
#
#
# Mechanical properties :
#
#
# Convention : Reuss Voigt Hill
#
# Bulk Modulus (GPa) = 47.90658 67.61045 57.75851
# Shear Modulus (GPa) = 84.01316 31.79373 57.90345
#
# Velocity S-wave (km/s) = 6.01201 3.69842 4.99112
# Velocity P-wave (km/s) = 8.29474 6.87934 7.61998
#
# Compressibility (1/GPa) = 0.02087396
#
# Stress axis : x y z
#
# Youngs Moduli (GPa) = 100.06938 152.08716 55.05830
#
# Poissons Ratio (x) = 0.21388 0.04218
# Poissons Ratio (y) = 0.14073 0.26185
# Poissons Ratio (z) = 0.07667 0.72332
#
# Static dielectric constant tensor:
#      x y z
#    x 1.957290 0.000000 -0.001730 
#    y 0.000000 1.820270 0.000000 
#    z -0.001730 0.000000 2.015870 
# 
# From -- ./inp_files/39292.got.cif
#   From: 2010.05.17/outbox.cif.g08.bks.cpg/sg12_20_cif.got.tgz:39292.got - 2010.06.03 13:09:07.
