data_PCOD9200826
_publ_section_title
;
Structure prediction by ZEFSAII (Michael W. Deem and Ramdas Pophale) SiO2 
 PCOD9200826
Probable space group: C 2/M
;
_chemical_formula_sum "Si O2"
_cell_formula_units_Z 56
_cell_length_a 17.867893
_cell_length_b 28.476843
_cell_length_c 9.422495
_cell_angle_alpha 90.000000
_cell_angle_beta 35.762227
_cell_angle_gamma 90.000000
_cell_volume 2801.936460
_symmetry_space_group_name_H-M "C 2/M"
_symmetry_group_IT_number 12
_symmetry_cell_setting 'monoclinic'
loop_
_space_group_symop_operation_xyz
x,y,z
-x,y,-z
-x,-y,-z
x,-y,z
1/2+x,1/2+y,z
1/2-x,1/2+y,-z
1/2-x,1/2-y,-z
1/2+x,1/2-y,z
loop_
_atom_site_type_symbol
_atom_site_label
_atom_site_fract_x
_atom_site_fract_y
_atom_site_fract_z
Si Si1 0.849234 0.377005 0.966092
Si Si2 0.848937 0.300560 0.195814
Si Si3 0.757939 0.051997 0.681421
Si Si4 0.970980 0.946874 0.883980
Si Si5 0.911803 0.444254 0.336329
Si Si6 0.757346 0.611407 0.802221
Si Si7 0.345224 0.689773 0.245244
O O1 0.839614 0.375734 0.812432
O O2 0.972558 0.407595 0.824029
O O3 0.836218 0.327734 0.066613
O O4 0.740261 0.409939 0.199525
O O5 0.738318 0.316893 0.479526
O O6 0.833432 0.244359 0.219034
O O7 0.000000 0.309680 0.000000
O O8 0.894123 0.051025 0.398750
O O9 0.657559 0.062260 0.708574
O O10 0.728123 0.000000 0.783647
O O11 0.918125 0.000000 0.973676
O O12 0.000000 0.930972 0.000000
O O13 0.877013 0.911934 0.949889
O O14 0.941962 0.500000 0.301769
O O15 0.819474 0.427976 0.605222
O O16 0.725895 0.656464 0.756366
O O17 0.500000 0.679974 0.000000
#
# Coordination Sequence:
#
# PCOD9200826 Si02
#       7
#     8   8   8   8   8   8   8
#     4  12  25  37  58  92 130 160 195 255 320 374
#     4  10  22  44  69  94 122 160 215 268 315 372
#     4  10  21  38  60  84 115 160 209 252 293 347
#     4  10  20  37  60  83 113 159 210 252 291 353
#     4  11  23  41  64  89 123 172 219 256 304 376
#     4  12  24  37  60  92 126 161 198 251 320 379
#     4  10  23  43  70  94 118 165 219 262 310 383
#
# _framework density 19.986179
#
# number of rings (size 3 to 8) (size 9 to 14) (size 15 to 20)
#    0.000    1.286    1.429    4.714    2.000    5.143 
#    0.000    1.429    0.000    5.143    0.000    0.000 
#    0.000    0.000    0.000    0.000    0.000    0.000 
#
# Total GULP energy -156233.736901 kJ/mol
# GULP energy per Si atom -5579.776318 kJ/mol
# Density = 1.994069 g / cm^3
# Si number density = 19.986179 Si / 1000 Ang^3
#
#
#
# Elastic Constant Matrix: (Units=GPa)
#
#
# Indices 1 2 3 4 5 6 
#
# 1 55.8793 37.7737 28.5983 0.0000 7.6160 0.0000
# 2 37.7737 74.3514 23.7654 0.0000 4.2046 0.0000
# 3 28.5983 23.7654 93.4806 0.0000 -12.9520 0.0000
# 4 0.0000 0.0000 0.0000 18.4444 0.0000 12.8683
# 5 7.6160 4.2046 -12.9520 0.0000 22.0877 0.0000
# 6 0.0000 0.0000 0.0000 12.8683 0.0000 -9.3683
#
#
#
# Elastic Compliance Matrix: (Units=1/GPa)
#
#
# Indices 1 2 3 4 5 6 
#
# 1 0.033300 -0.013325 -0.008750 0.000000 -0.014076 0.000000
# 2 -0.013325 0.020590 -0.001159 0.000000 -0.000004 0.000000
# 3 -0.008750 -0.001159 0.015366 0.000000 0.012248 0.000000
# 4 0.000000 0.000000 0.000000 0.027685 0.000000 0.038029
# 5 -0.014076 -0.000004 0.012248 0.000000 0.057311 0.000000
# 6 0.000000 0.000000 0.000000 0.038029 0.000000 -0.054507
#
#
# Mechanical properties :
#
#
# Convention : Reuss Voigt Hill
#
# Bulk Modulus (GPa) = 43.88227 44.88735 44.38481
# Shear Modulus (GPa) = 32.50805 15.13768 23.82286
#
# Velocity S-wave (km/s) = 4.03740 2.75509 3.45623
# Velocity P-wave (km/s) = 6.61348 5.71215 6.17927
#
# Compressibility (1/GPa) = 0.02278825
#
# Stress axis : x y z
#
# Youngs Moduli (GPa) = 30.03011 48.56755 65.07915
#
# Poissons Ratio (x) = 0.64716 0.56945
# Poissons Ratio (y) = 0.40015 0.07541
# Poissons Ratio (z) = 0.26277 0.05628
#
# Static dielectric constant tensor:
#      x y z
#    x 1.697690 0.000000 -0.054560 
#    y 0.000000 1.707770 0.000000 
#    z -0.054560 0.000000 1.835170 
# 
# From -- ./inp_files/80009.got.cif
#   From: 2010.05.17/outbox.cif.g08.bks.cpg/sg12_41_cif.got.tgz:80009.got - 2010.06.03 13:09:07.
