data_PCOD9200462
_publ_section_title
;
Structure prediction by ZEFSAII (Michael W. Deem and Ramdas Pophale) SiO2 
 PCOD9200462
Probable space group: C 2/M
;
_chemical_formula_sum "Si O2"
_cell_formula_units_Z 56
_cell_length_a 19.359107
_cell_length_b 8.744962
_cell_length_c 27.764031
_cell_angle_alpha 90.000000
_cell_angle_beta 40.729616
_cell_angle_gamma 90.000000
_cell_volume 3066.900997
_symmetry_space_group_name_H-M "C 2/M"
_symmetry_group_IT_number 12
_symmetry_cell_setting 'monoclinic'
loop_
_space_group_symop_operation_xyz
x,y,z
-x,y,-z
-x,-y,-z
x,-y,z
1/2+x,1/2+y,z
1/2-x,1/2+y,-z
1/2-x,1/2-y,-z
1/2+x,1/2-y,z
loop_
_atom_site_type_symbol
_atom_site_label
_atom_site_fract_x
_atom_site_fract_y
_atom_site_fract_z
Si Si1 0.285060 0.325563 0.705844
Si Si2 0.927377 0.684458 0.083009
Si Si3 0.228695 0.314911 0.564731
Si Si4 0.625299 0.174140 0.431926
Si Si5 0.180362 0.179074 0.206001
Si Si6 0.936325 0.822690 0.179937
Si Si7 0.020581 0.318187 0.738146
O O1 0.242505 0.500000 0.727084
O O2 0.349664 0.287258 0.624901
O O3 0.347271 0.310097 0.722689
O O4 0.189170 0.207459 0.756000
O O5 0.927455 0.500000 0.085887
O O6 0.804070 0.728780 0.138623
O O7 0.970588 0.746545 0.111181
O O8 0.000000 0.732471 0.000000
O O9 0.233191 0.500000 0.561170
O O10 0.250000 0.250000 0.500000
O O11 0.319532 0.244146 0.550497
O O12 0.117079 0.271622 0.650729
O O13 0.500000 0.164954 0.500000
O O14 0.665800 0.000000 0.402690
O O15 0.092940 0.270084 0.222975
O O16 0.176377 0.000000 0.194054
O O17 0.969162 0.751091 0.213691
O O18 0.963437 0.000000 0.165286
O O19 0.028001 0.500000 0.738493
#
# Coordination Sequence:
#
# PCOD9200462 Si02
#       7
#     8   8   8   8   8   8   8
#     4  10  20  37  58  82 111 148 194 239 288 346
#     4   9  19  39  65  91 122 156 191 235 287 346
#     4  11  25  42  60  82 114 156 201 248 301 353
#     4  11  24  39  57  83 114 147 192 245 297 350
#     4   9  20  36  58  88 117 149 191 236 287 346
#     4  11  21  35  60  88 116 152 193 238 286 342
#     4  11  23  39  59  84 117 156 198 244 292 349
#
# _framework density 18.259474000000001
#
# number of rings (size 3 to 8) (size 9 to 14) (size 15 to 20)
#    0.000    1.714    1.429    3.857    2.000    6.000 
#    0.000    0.714    0.000    0.000    0.000    0.000 
#    0.000    0.000    0.000    0.000    0.000    0.000 
#
# Total GULP energy -156115.563964 kJ/mol
# GULP energy per Si atom -5575.555856 kJ/mol
# Density = 1.821792 g / cm^3
# Si number density = 18.259474 Si / 1000 Ang^3
#
#
#
# Elastic Constant Matrix: (Units=GPa)
#
#
# Indices 1 2 3 4 5 6 
#
# 1 135.7323 52.3916 75.5210 0.0000 15.4540 0.0003
# 2 52.3916 61.6927 34.2745 0.0000 9.5352 0.0001
# 3 75.5210 34.2745 106.7412 0.0000 29.5300 0.0000
# 4 0.0000 0.0000 0.0000 23.2488 0.0000 -0.0068
# 5 15.4540 9.5352 29.5300 0.0000 26.4703 0.0000
# 6 0.0003 0.0001 0.0000 -0.0068 0.0000 28.0544
#
#
#
# Elastic Compliance Matrix: (Units=1/GPa)
#
#
# Indices 1 2 3 4 5 6 
#
# 1 0.015375 -0.008541 -0.009406 0.000000 0.004594 0.000000
# 2 -0.008541 0.024474 -0.001094 0.000000 -0.002609 0.000000
# 3 -0.009406 -0.001094 0.021329 0.000000 -0.017909 0.000000
# 4 0.000000 0.000000 0.000000 0.043013 0.000000 0.000010
# 5 0.004594 -0.002609 -0.017909 0.000000 0.056015 0.000000
# 6 0.000000 0.000000 0.000000 0.000010 0.000000 0.035645
#
#
# Mechanical properties :
#
#
# Convention : Reuss Voigt Hill
#
# Bulk Modulus (GPa) = 43.29809 69.83783 56.56796
# Shear Modulus (GPa) = 20.69264 25.01997 22.85631
#
# Velocity S-wave (km/s) = 3.37004 3.70570 3.54185
# Velocity P-wave (km/s) = 6.23755 7.52596 6.91184
#
# Compressibility (1/GPa) = 0.02309571
#
# Stress axis : x y z
#
# Youngs Moduli (GPa) = 65.04147 40.86039 46.88376
#
# Poissons Ratio (x) = 0.34899 0.44101
# Poissons Ratio (y) = 0.55552 0.05127
# Poissons Ratio (z) = 0.61180 0.04469
#
# Static dielectric constant tensor:
#      x y z
#    x 1.604820 0.000000 0.015820 
#    y 0.000000 1.641360 0.000000 
#    z 0.015820 0.000000 1.652160 
# 
# From -- ./inp_files/362891.got.cif
#   From: 2010.05.17/outbox.cif.g08.bks.cpg/sg12_182_cif.got.tgz:362891.got - 2010.06.03 13:09:07.
