data_PCOD9200371
_publ_section_title
;
Structure prediction by ZEFSAII (Michael W. Deem and Ramdas Pophale) SiO2 
 PCOD9200371
Probable space group: C 2/M
;
_chemical_formula_sum "Si O2"
_cell_formula_units_Z 56
_cell_length_a 19.852591
_cell_length_b 13.955072
_cell_length_c 14.684470
_cell_angle_alpha 90.000000
_cell_angle_beta 131.712536
_cell_angle_gamma 90.000000
_cell_volume 3036.918026
_symmetry_space_group_name_H-M "C 2/M"
_symmetry_group_IT_number 12
_symmetry_cell_setting 'monoclinic'
loop_
_space_group_symop_operation_xyz
x,y,z
-x,y,-z
-x,-y,-z
x,-y,z
1/2+x,1/2+y,z
1/2-x,1/2+y,-z
1/2-x,1/2-y,-z
1/2+x,1/2-y,z
loop_
_atom_site_type_symbol
_atom_site_label
_atom_site_fract_x
_atom_site_fract_y
_atom_site_fract_z
Si Si1 0.028725 0.799681 0.432010
Si Si2 0.486891 0.613532 0.198686
Si Si3 0.171647 0.610132 0.941678
Si Si4 0.816268 0.203266 0.945699
Si Si5 0.810787 0.693434 0.483358
Si Si6 0.658032 0.611614 0.224569
Si Si7 0.997542 0.608086 0.671154
O O1 0.134092 0.771725 0.525917
O O2 0.979959 0.695231 0.377182
O O3 0.000000 0.846494 0.500000
O O4 0.007308 0.855512 0.320300
O O5 0.471813 0.500000 0.180656
O O6 0.572580 0.636167 0.211391
O O7 0.399981 0.667071 0.082008
O O8 0.194687 0.500000 0.982026
O O9 0.229482 0.647891 0.907491
O O10 0.067016 0.614649 0.817032
O O11 0.192964 0.684194 0.041346
O O12 0.835741 0.175205 0.859963
O O13 0.750000 0.750000 0.500000
O O14 0.747336 0.628504 0.364477
O O15 0.893518 0.633107 0.601743
O O16 0.649804 0.500000 0.190382
O O17 0.004131 0.500000 0.640172
#
# Coordination Sequence:
#
# PCOD9200371 Si02
#       7
#     8   8   8   8   8   8   8
#     4  10  22  37  58  85 118 155 197 242 303 351
#     4  11  22  40  59  83 119 156 199 251 301 354
#     4  10  21  37  61  88 119 159 198 241 300 360
#     4  11  22  38  61  88 121 156 200 248 297 355
#     4  10  20  37  57  84 121 157 188 239 299 356
#     4  11  22  35  59  91 117 154 202 250 302 358
#     4   9  19  36  59  87 118 150 190 242 297 352
#
# _framework density 18.439746
#
# number of rings (size 3 to 8) (size 9 to 14) (size 15 to 20)
#    0.857    0.857    2.857    2.143    2.000    1.714 
#    0.000    0.000    0.000    6.857    0.000    0.000 
#    0.000    0.000    0.000    0.000    0.000    0.000 
#
# Total GULP energy -156058.629651 kJ/mol
# GULP energy per Si atom -5573.522488 kJ/mol
# Density = 1.839778 g / cm^3
# Si number density = 18.439746 Si / 1000 Ang^3
#
#
#
# Elastic Constant Matrix: (Units=GPa)
#
#
# Indices 1 2 3 4 5 6 
#
# 1 88.3552 29.3607 38.1046 0.0000 -9.0182 0.0000
# 2 29.3607 102.5708 36.1842 0.0000 -12.8473 0.0000
# 3 38.1046 36.1842 48.5306 0.0000 -10.4103 0.0000
# 4 0.0000 0.0000 0.0000 19.1341 0.0000 4.3568
# 5 -9.0182 -12.8473 -10.4103 0.0000 39.9518 0.0000
# 6 0.0000 0.0000 0.0000 4.3568 0.0000 18.0562
#
#
#
# Elastic Compliance Matrix: (Units=1/GPa)
#
#
# Indices 1 2 3 4 5 6 
#
# 1 0.017121 -0.000191 -0.013224 0.000000 0.000357 0.000000
# 2 -0.000191 0.013352 -0.009420 0.000000 0.001796 0.000000
# 3 -0.013224 -0.009420 0.038896 0.000000 0.004121 0.000000
# 4 0.000000 0.000000 0.000000 0.055301 0.000000 -0.013344
# 5 0.000357 0.001796 0.004121 0.000000 0.026762 0.000000
# 6 0.000000 0.000000 0.000000 -0.013344 0.000000 0.058602
#
#
# Mechanical properties :
#
#
# Convention : Reuss Voigt Hill
#
# Bulk Modulus (GPa) = 42.19509 49.63952 45.91730
# Shear Modulus (GPa) = 18.96789 24.48221 21.72505
#
# Velocity S-wave (km/s) = 3.21072 3.64770 3.43616
# Velocity P-wave (km/s) = 6.05618 6.68724 6.37952
#
# Compressibility (1/GPa) = 0.02369944
#
# Stress axis : x y z
#
# Youngs Moduli (GPa) = 58.40848 74.89436 25.70976
#
# Poissons Ratio (x) = 0.01431 0.33997
# Poissons Ratio (y) = 0.01116 0.24219
# Poissons Ratio (z) = 0.77236 0.70550
#
# Static dielectric constant tensor:
#      x y z
#    x 1.640270 0.000000 0.021290 
#    y 0.000000 1.655710 0.000000 
#    z 0.021290 0.000000 1.628570 
# 
# From -- ./inp_files/156711.got.cif
#   From: 2010.05.17/outbox.cif.g08.bks.cpg/sg12_79_cif.got.tgz:156711.got - 2010.06.03 13:09:07.
