data_PCOD9200629
_publ_section_title
;
Structure prediction by ZEFSAII (Michael W. Deem and Ramdas Pophale) SiO2 
 PCOD9200629
Probable space group: C 2/M
;
_chemical_formula_sum "Si O2"
_cell_formula_units_Z 56
_cell_length_a 18.697548
_cell_length_b 14.155441
_cell_length_c 12.549685
_cell_angle_alpha 90.000000
_cell_angle_beta 112.578821
_cell_angle_gamma 90.000000
_cell_volume 3066.961167
_symmetry_space_group_name_H-M "C 2/M"
_symmetry_group_IT_number 12
_symmetry_cell_setting 'monoclinic'
loop_
_space_group_symop_operation_xyz
x,y,z
-x,y,-z
-x,-y,-z
x,-y,z
1/2+x,1/2+y,z
1/2-x,1/2+y,-z
1/2-x,1/2-y,-z
1/2+x,1/2-y,z
loop_
_atom_site_type_symbol
_atom_site_label
_atom_site_fract_x
_atom_site_fract_y
_atom_site_fract_z
Si Si1 0.423609 0.293051 0.672951
Si Si2 0.162115 0.217682 0.960002
Si Si3 0.180510 0.110209 0.556666
Si Si4 0.415790 0.611993 0.899168
Si Si5 0.415326 0.387902 0.280162
Si Si6 0.641554 0.890392 0.281132
Si Si7 0.588774 0.107556 0.014050
O O1 0.356096 0.325134 0.554785
O O2 0.414026 0.343829 0.781550
O O3 0.504369 0.330591 0.671791
O O4 0.415470 0.182368 0.693758
O O5 0.133808 0.154108 0.845748
O O6 0.250000 0.250000 0.000000
O O7 0.146349 0.158761 0.058313
O O8 0.110894 0.312538 0.943145
O O9 0.132471 0.122580 0.638399
O O10 0.270847 0.127480 0.630862
O O11 0.171685 0.000000 0.519856
O O12 0.405842 0.500000 0.887859
O O13 0.500000 0.631363 0.000000
O O14 0.430841 0.500000 0.272185
O O15 0.637004 0.877135 0.150650
O O16 0.621586 0.000000 0.289513
O O17 0.601726 0.000000 0.984197
O O18 0.500000 0.116284 0.000000
#
# Coordination Sequence:
#
# PCOD9200629 Si02
#       7
#     8   8   8   8   8   8   8
#     4  12  21  37  64  91 117 154 203 248 296 356
#     4  12  23  36  57  84 120 156 189 232 298 361
#     4  10  22  39  60  89 119 154 201 247 298 353
#     4  11  22  38  60  89 122 153 192 247 309 359
#     4  11  23  39  61  87 121 158 198 247 298 352
#     4  10  21  38  59  86 119 155 196 248 299 351
#     4  10  20  37  59  83 111 151 201 242 279 344
#
# _framework density 18.259115999999999
#
# number of rings (size 3 to 8) (size 9 to 14) (size 15 to 20)
#    0.000    1.143    2.857    4.714    0.000    3.429 
#    0.000    0.000    0.000    2.571    0.000    0.000 
#    0.000    0.000    0.000    0.000    0.000    0.000 
#
# Total GULP energy -156514.302326 kJ/mol
# GULP energy per Si atom -5589.796512 kJ/mol
# Density = 1.821756 g / cm^3
# Si number density = 18.259116 Si / 1000 Ang^3
#
#
#
# Elastic Constant Matrix: (Units=GPa)
#
#
# Indices 1 2 3 4 5 6 
#
# 1 71.7685 51.7825 12.8424 0.0000 3.2112 0.0000
# 2 51.7825 125.3928 37.5554 0.0000 -6.4527 0.0000
# 3 12.8424 37.5554 71.5714 0.0000 4.3141 0.0000
# 4 0.0000 0.0000 0.0000 16.6429 0.0000 -0.5021
# 5 3.2112 -6.4527 4.3141 0.0000 21.8978 0.0000
# 6 0.0000 0.0000 0.0000 -0.5021 0.0000 26.3577
#
#
#
# Elastic Compliance Matrix: (Units=1/GPa)
#
#
# Indices 1 2 3 4 5 6 
#
# 1 0.020637 -0.009296 0.001541 0.000000 -0.006069 0.000000
# 2 -0.009296 0.013975 -0.006067 0.000000 0.006676 0.000000
# 3 0.001541 -0.006067 0.017205 0.000000 -0.005403 0.000000
# 4 0.000000 0.000000 0.000000 0.060120 0.000000 0.001145
# 5 -0.006069 0.006676 -0.005403 0.000000 0.049589 0.000000
# 6 0.000000 0.000000 0.000000 0.001145 0.000000 0.037961
#
#
# Mechanical properties :
#
#
# Convention : Reuss Voigt Hill
#
# Bulk Modulus (GPa) = 41.37141 52.56593 46.96867
# Shear Modulus (GPa) = 21.25951 24.08316 22.67134
#
# Velocity S-wave (km/s) = 3.41592 3.63570 3.52752
# Velocity P-wave (km/s) = 6.18588 6.81731 6.50926
#
# Compressibility (1/GPa) = 0.02417128
#
# Stress axis : x y z
#
# Youngs Moduli (GPa) = 48.45713 71.55862 58.12281
#
# Poissons Ratio (x) = 0.66521 -0.08955
# Poissons Ratio (y) = 0.45046 0.35264
# Poissons Ratio (z) = -0.07466 0.43416
#
# Static dielectric constant tensor:
#      x y z
#    x 1.620070 0.000000 0.020860 
#    y 0.000000 1.632490 0.000000 
#    z 0.020860 0.000000 1.613480 
# 
# From -- ./inp_files/156148.got.cif
#   From: 2010.05.17/outbox.cif.g08.bks.cpg/sg12_79_cif.got.tgz:156148.got - 2010.06.03 13:09:07.
