data_PCOD9200187
_publ_section_title
;
Structure prediction by ZEFSAII (Michael W. Deem and Ramdas Pophale) SiO2 
 PCOD9200187
Probable space group: C 2/M
;
_chemical_formula_sum "Si O2"
_cell_formula_units_Z 52
_cell_length_a 18.817717
_cell_length_b 9.322051
_cell_length_c 22.527259
_cell_angle_alpha 90.000000
_cell_angle_beta 145.121945
_cell_angle_gamma 90.000000
_cell_volume 2259.721872
_symmetry_space_group_name_H-M "C 2/M"
_symmetry_group_IT_number 12
_symmetry_cell_setting 'monoclinic'
loop_
_space_group_symop_operation_xyz
x,y,z
-x,y,-z
-x,-y,-z
x,-y,z
1/2+x,1/2+y,z
1/2-x,1/2+y,-z
1/2-x,1/2-y,-z
1/2+x,1/2-y,z
loop_
_atom_site_type_symbol
_atom_site_label
_atom_site_fract_x
_atom_site_fract_y
_atom_site_fract_z
Si Si1 0.045959 0.664264 0.463772
Si Si2 0.197194 0.500000 0.954256
Si Si3 0.660378 0.665142 0.751312
Si Si4 0.127800 0.213049 0.970281
Si Si5 0.002760 0.153371 0.760360
Si Si6 0.792676 0.329079 0.661608
Si Si7 0.866700 0.169856 0.836084
O O1 0.065604 0.500000 0.456573
O O2 0.170301 0.759327 0.549531
O O3 0.000000 0.657233 0.500000
O O4 0.938959 0.745973 0.354971
O O5 0.151409 0.375660 0.969704
O O6 0.246345 0.623772 0.940430
O O7 0.673031 0.500000 0.738997
O O8 0.600914 0.659628 0.775357
O O9 0.790095 0.747450 0.833935
O O10 0.072177 0.146573 0.870590
O O11 0.015413 0.187940 0.938470
O O12 0.909480 0.285969 0.700410
O O13 0.932754 0.000000 0.705942
O O14 0.783458 0.500000 0.663019
O O15 0.820299 0.247923 0.743061
O O16 0.837538 0.000000 0.814531
#
# Coordination Sequence:
#
# PCOD9200187 Si02
#       7
#     8   4   8   8   8   8   8
#     4  11  22  38  58  84 117 159 198 253 295 337
#     4  10  20  36  66  96 114 146 194 236 292 342
#     4  11  24  38  60  85 118 161 203 240 295 344
#     4  10  20  38  64  93 117 150 190 243 283 351
#     4  10  22  41  58  86 124 160 190 242 298 350
#     4  11  22  35  61  87 114 153 209 250 286 338
#     4  11  21  37  57  87 121 158 194 243 291 348
#
# _framework density 23.011682
#
# number of rings (size 3 to 8) (size 9 to 14) (size 15 to 20)
#    0.000    1.385    3.077    3.692    5.385    2.462 
#    0.000    0.000    0.000    5.538    0.000    0.000 
#    0.000    0.000    0.000    0.000    0.000    0.000 
#
# Total GULP energy -144891.218778 kJ/mol
# GULP energy per Si atom -5572.739184 kJ/mol
# Density = 2.295931 g / cm^3
# Si number density = 23.011682 Si / 1000 Ang^3
#
#
#
# Elastic Constant Matrix: (Units=GPa)
#
#
# Indices 1 2 3 4 5 6 
#
# 1 91.1039 34.9893 11.5855 0.0000 22.5625 0.0000
# 2 34.9893 268.1040 41.9407 0.0000 14.3802 0.0000
# 3 11.5855 41.9407 72.6126 0.0001 1.2071 0.0000
# 4 0.0000 0.0000 0.0001 35.3636 0.0000 11.0540
# 5 22.5625 14.3802 1.2071 0.0000 30.5211 0.0000
# 6 0.0000 0.0000 0.0000 11.0540 0.0000 29.9831
#
#
#
# Elastic Compliance Matrix: (Units=1/GPa)
#
#
# Indices 1 2 3 4 5 6 
#
# 1 0.013997 -0.001075 -0.001450 0.000000 -0.009783 0.000000
# 2 -0.001075 0.004289 -0.002287 0.000000 -0.001135 0.000000
# 3 -0.001450 -0.002287 0.015298 0.000000 0.001544 0.000000
# 4 0.000000 0.000000 0.000000 0.031961 0.000000 -0.011783
# 5 -0.009783 -0.001135 0.001544 0.000000 0.040470 0.000000
# 6 0.000000 0.000000 0.000000 -0.011783 0.000000 0.037696
#
#
# Mechanical properties :
#
#
# Convention : Reuss Voigt Hill
#
# Bulk Modulus (GPa) = 41.73521 67.65016 54.69269
# Shear Modulus (GPa) = 30.99414 42.06056 36.52735
#
# Velocity S-wave (km/s) = 3.67398 4.27991 3.98847
# Velocity P-wave (km/s) = 6.01443 7.34067 6.71040
#
# Compressibility (1/GPa) = 0.02396058
#
# Stress axis : x y z
#
# Youngs Moduli (GPa) = 71.44609 233.16286 65.36728
#
# Poissons Ratio (x) = 0.25069 0.09475
# Poissons Ratio (y) = 0.07682 0.14948
# Poissons Ratio (z) = 0.10356 0.53320
#
# Static dielectric constant tensor:
#      x y z
#    x 1.923140 0.000000 0.010190 
#    y 0.000000 1.843410 0.000000 
#    z 0.010190 0.000000 1.971980 
# 
# From -- ./inp_files/362677.got.cif
#   From: 2010.05.17/outbox.cif.g08.bks.cpg/sg12_182_cif.got.tgz:362677.got - 2010.06.03 13:09:07.
