data_PCOD9200206
_publ_section_title
;
Structure prediction by ZEFSAII (Michael W. Deem and Ramdas Pophale) SiO2 
 PCOD9200206
Probable space group: C 2/M
;
_chemical_formula_sum "Si O2"
_cell_formula_units_Z 44
_cell_length_a 20.466607
_cell_length_b 12.036202
_cell_length_c 9.861608
_cell_angle_alpha 90.000000
_cell_angle_beta 72.177494
_cell_angle_gamma 90.000000
_cell_volume 2312.726184
_symmetry_space_group_name_H-M "C 2/M"
_symmetry_group_IT_number 12
_symmetry_cell_setting 'monoclinic'
loop_
_space_group_symop_operation_xyz
x,y,z
-x,y,-z
-x,-y,-z
x,-y,z
1/2+x,1/2+y,z
1/2-x,1/2+y,-z
1/2-x,1/2-y,-z
1/2+x,1/2-y,z
loop_
_atom_site_type_symbol
_atom_site_label
_atom_site_fract_x
_atom_site_fract_y
_atom_site_fract_z
Si Si1 0.338901 0.500000 0.800853
Si Si2 0.479301 0.249603 0.169683
Si Si3 0.061833 0.368611 0.352066
Si Si4 0.646502 0.500000 0.905267
Si Si5 0.165295 0.201525 0.690025
Si Si6 0.682103 0.705767 0.373860
Si Si7 0.980941 0.000000 0.829237
O O1 0.317321 0.609126 0.736393
O O2 0.421815 0.500000 0.752222
O O3 0.316037 0.500000 0.972931
O O4 0.531607 0.184427 0.233183
O O5 0.399859 0.217969 0.243641
O O6 0.482641 0.381486 0.204103
O O7 0.500000 0.236923 0.000000
O O8 0.076564 0.500000 0.327813
O O9 0.128408 0.300762 0.360892
O O10 0.000000 0.356295 0.500000
O O11 0.660740 0.605973 0.805242
O O12 0.567268 0.500000 0.005130
O O13 0.240233 0.252899 0.659738
O O14 0.159823 0.163234 0.537138
#
# Coordination Sequence:
#
# PCOD9200206 Si02
#       7
#     4   8   8   4   8   8   4
#     4  10  21  42  67  96 130 158 213 269 321 378
#     4  12  21  42  65  97 131 166 213 268 323 379
#     4  11  24  44  65  86 128 173 218 261 315 385
#     4  10  20  41  64 101 128 173 198 270 330 376
#     4  11  24  39  64  95 131 170 211 260 326 372
#     4  11  24  45  63  97 127 171 218 264 318 389
#     4  10  20  36  68  97 132 152 205 271 313 385
#
# _framework density 19.025167
#
# number of rings (size 3 to 8) (size 9 to 14) (size 15 to 20)
#    0.545    0.545    5.455    1.364    1.273    1.091 
#    3.273    1.818    0.000    0.000    0.000    0.000 
#    0.000    0.000    0.000    0.000    0.000    0.000 
#
# Total GULP energy -122737.673248 kJ/mol
# GULP energy per Si atom -5578.985148 kJ/mol
# Density = 1.898186 g / cm^3
# Si number density = 19.025167 Si / 1000 Ang^3
#
#
#
# Elastic Constant Matrix: (Units=GPa)
#
#
# Indices 1 2 3 4 5 6 
#
# 1 116.0827 38.6256 50.7984 0.0000 9.6621 0.0000
# 2 38.6256 100.4437 47.9811 0.0000 19.7656 0.0000
# 3 50.7984 47.9811 131.7133 0.0000 25.1428 0.0000
# 4 0.0000 0.0000 0.0000 29.5052 0.0000 6.7103
# 5 9.6621 19.7656 25.1428 0.0000 38.5531 0.0000
# 6 0.0000 0.0000 0.0000 6.7103 0.0000 13.1388
#
#
#
# Elastic Compliance Matrix: (Units=1/GPa)
#
#
# Indices 1 2 3 4 5 6 
#
# 1 0.010941 -0.002766 -0.003380 0.000000 0.000880 0.000000
# 2 -0.002766 0.013257 -0.002967 0.000000 -0.004169 0.000000
# 3 -0.003380 -0.002967 0.010879 0.000000 -0.004727 0.000000
# 4 0.000000 0.000000 0.000000 0.038346 0.000000 -0.019584
# 5 0.000880 -0.004169 -0.004727 0.000000 0.030937 0.000000
# 6 0.000000 0.000000 0.000000 -0.019584 0.000000 0.086113
#
#
# Mechanical properties :
#
#
# Convention : Reuss Voigt Hill
#
# Bulk Modulus (GPa) = 59.34343 69.22778 64.28560
# Shear Modulus (GPa) = 23.33008 30.29505 26.81256
#
# Velocity S-wave (km/s) = 3.50562 3.99478 3.75816
# Velocity P-wave (km/s) = 6.90258 7.59896 7.25912
#
# Compressibility (1/GPa) = 0.01685106
#
# Stress axis : x y z
#
# Youngs Moduli (GPa) = 91.40169 75.43187 91.92122
#
# Poissons Ratio (x) = 0.20864 0.31070
# Poissons Ratio (y) = 0.25281 0.27272
# Poissons Ratio (z) = 0.30894 0.22379
#
# Static dielectric constant tensor:
#      x y z
#    x 1.708940 0.000000 0.007020 
#    y 0.000000 1.653360 0.000000 
#    z 0.007020 0.000000 1.660230 
# 
# From -- ./inp_files/84117.got.cif
#   From: 2010.05.17/outbox.cif.g08.bks.cpg/sg12_43_cif.got.tgz:84117.got - 2010.06.03 13:09:07.
