data_PCOD9200519
_publ_section_title
;
Structure prediction by ZEFSAII (Michael W. Deem and Ramdas Pophale) SiO2 
 PCOD9200519
Probable space group: C 2/M
;
_chemical_formula_sum "Si O2"
_cell_formula_units_Z 56
_cell_length_a 10.805131
_cell_length_b 19.429783
_cell_length_c 12.140636
_cell_angle_alpha 90.000000
_cell_angle_beta 87.046894
_cell_angle_gamma 90.000000
_cell_volume 2545.436773
_symmetry_space_group_name_H-M "C 2/M"
_symmetry_group_IT_number 12
_symmetry_cell_setting 'monoclinic'
loop_
_space_group_symop_operation_xyz
x,y,z
-x,y,-z
-x,-y,-z
x,-y,z
1/2+x,1/2+y,z
1/2-x,1/2+y,-z
1/2-x,1/2-y,-z
1/2+x,1/2-y,z
loop_
_atom_site_type_symbol
_atom_site_label
_atom_site_fract_x
_atom_site_fract_y
_atom_site_fract_z
Si Si1 0.487402 0.577519 0.259368
Si Si2 0.428753 0.726585 0.307073
Si Si3 0.131263 0.337357 0.510238
Si Si4 0.823454 0.699078 0.741732
Si Si5 0.229084 0.420364 0.698276
Si Si6 0.614531 0.083161 0.919895
Si Si7 0.770861 0.079592 0.110233
O O1 0.455410 0.500000 0.302521
O O2 0.443954 0.645000 0.327019
O O3 0.635301 0.581508 0.253261
O O4 0.411729 0.584800 0.147794
O O5 0.404050 0.769351 0.418724
O O6 0.308301 0.736337 0.235628
O O7 0.555184 0.755209 0.247760
O O8 0.177870 0.319893 0.387697
O O9 0.221634 0.378397 0.586165
O O10 0.000000 0.376294 0.500000
O O11 0.812795 0.629693 0.811855
O O12 0.201356 0.500000 0.675565
O O13 0.131709 0.393139 0.793847
O O14 0.602779 0.000000 0.911912
O O15 0.500000 0.107889 0.000000
O O16 0.738090 0.096837 0.986284
O O17 0.733534 0.000000 0.128496
#
# Coordination Sequence:
#
# PCOD9200519 Si02
#       7
#     8   8   8   8   8   8   8
#     4   9  19  37  62  87 116 151 189 245 297 344
#     4  10  20  37  58  85 117 151 200 237 285 356
#     4  10  22  36  57  86 117 162 197 238 295 342
#     4  10  21  36  61  87 115 161 198 240 294 344
#     4  10  21  37  58  89 120 151 196 243 294 346
#     4   9  19  34  57  85 117 156 191 237 290 345
#     4   9  19  37  60  89 119 153 198 237 288 350
#
# _framework density 22.000153999999998
#
# number of rings (size 3 to 8) (size 9 to 14) (size 15 to 20)
#    0.000    2.429    0.000    1.286    4.000    3.714 
#    0.000    5.000    0.000   22.714    0.000    0.000 
#    0.000    0.000    0.000    0.000    0.000    0.000 
#
# Total GULP energy -156135.340741 kJ/mol
# GULP energy per Si atom -5576.262169 kJ/mol
# Density = 2.195008 g / cm^3
# Si number density = 22.000154 Si / 1000 Ang^3
#
#
#
# Elastic Constant Matrix: (Units=GPa)
#
#
# Indices 1 2 3 4 5 6 
#
# 1 116.3332 22.6788 12.1407 0.0000 15.8910 0.0000
# 2 22.6788 80.8935 19.7782 0.0000 -0.1712 0.0000
# 3 12.1407 19.7782 41.0582 0.0000 13.4323 0.0000
# 4 0.0000 0.0000 0.0000 5.7366 0.0000 -5.5827
# 5 15.8910 -0.1712 13.4323 0.0000 25.1059 0.0000
# 6 0.0000 0.0000 0.0000 -5.5827 0.0000 7.4324
#
#
#
# Elastic Compliance Matrix: (Units=1/GPa)
#
#
# Indices 1 2 3 4 5 6 
#
# 1 0.010028 -0.002991 0.000677 0.000000 -0.006730 0.000000
# 2 -0.002991 0.015336 -0.008675 0.000000 0.006639 0.000000
# 3 0.000677 -0.008675 0.034539 0.000000 -0.018968 0.000000
# 4 0.000000 0.000000 0.000000 0.648005 0.000000 0.486738
# 5 -0.006730 0.006639 -0.018968 0.000000 0.054285 0.000000
# 6 0.000000 0.000000 0.000000 0.486738 0.000000 0.500151
#
#
# Mechanical properties :
#
#
# Convention : Reuss Voigt Hill
#
# Bulk Modulus (GPa) = 26.36741 38.60892 32.48816
# Shear Modulus (GPa) = 3.85516 19.90077 11.87797
#
# Velocity S-wave (km/s) = 1.32519 3.01088 2.32610
# Velocity P-wave (km/s) = 3.78849 5.44744 4.69187
#
# Compressibility (1/GPa) = 0.03792561
#
# Stress axis : x y z
#
# Youngs Moduli (GPa) = 99.72336 65.20798 28.95243
#
# Poissons Ratio (x) = 0.19505 -0.01962
# Poissons Ratio (y) = 0.29829 0.25116
# Poissons Ratio (z) = -0.06756 0.56567
#
# Static dielectric constant tensor:
#      x y z
#    x 1.910850 0.000000 0.023790 
#    y 0.000000 1.823000 0.000000 
#    z 0.023790 0.000000 1.761500 
# 
# From -- ./inp_files/133208.got.cif
#   From: 2010.05.17/outbox.cif.g08.bks.cpg/sg12_67_cif.got.tgz:133208.got - 2010.06.03 13:09:07.
