data_PCOD9200022
_publ_section_title
;
Structure prediction by ZEFSAII (Michael W. Deem and Ramdas Pophale) SiO2 
 PCOD9200022
Probable space group: C 2/M
;
_chemical_formula_sum "Si O2"
_cell_formula_units_Z 64
_cell_length_a 22.777737
_cell_length_b 24.315145
_cell_length_c 19.142491
_cell_angle_alpha 90.000000
_cell_angle_beta 19.110019
_cell_angle_gamma 90.000000
_cell_volume 3470.900698
_symmetry_space_group_name_H-M "C 2/M"
_symmetry_group_IT_number 12
_symmetry_cell_setting 'monoclinic'
loop_
_space_group_symop_operation_xyz
x,y,z
-x,y,-z
-x,-y,-z
x,-y,z
1/2+x,1/2+y,z
1/2-x,1/2+y,-z
1/2-x,1/2-y,-z
1/2+x,1/2-y,z
loop_
_atom_site_type_symbol
_atom_site_label
_atom_site_fract_x
_atom_site_fract_y
_atom_site_fract_z
Si Si1 0.060475 0.731737 0.745567
Si Si2 0.335447 0.162769 0.234258
Si Si3 0.510254 0.062908 0.252789
Si Si4 0.286132 0.726118 0.245218
Si Si5 0.446217 0.828758 0.385244
Si Si6 0.250812 0.936779 0.418693
Si Si7 0.713377 0.326704 0.901396
Si Si8 0.622578 0.436308 0.080404
O O1 0.250000 0.750000 0.500000
O O2 0.092404 0.694762 0.777901
O O3 0.989486 0.694972 0.761271
O O4 0.933128 0.782890 0.906279
O O5 0.223067 0.210164 0.319874
O O6 0.242102 0.108501 0.368141
O O7 0.500000 0.146551 0.000000
O O8 0.412472 0.107127 0.411088
O O9 0.429195 0.071441 0.266284
O O10 0.466550 0.000000 0.319354
O O11 0.721135 0.070788 0.035527
O O12 0.223670 0.698702 0.387255
O O13 0.500000 0.730240 0.000000
O O14 0.240428 0.688975 0.230172
O O15 0.605798 0.818383 0.258957
O O16 0.074424 0.929666 0.665059
O O17 0.252048 0.000000 0.392474
O O18 0.652521 0.388904 0.988856
O O19 0.638910 0.500000 0.037423
#
# Coordination Sequence:
#
# PCOD9200022 Si02
#       8
#     8   8   8   8   8   8   8   8
#     4  12  20  35  58  82 109 150 194 238 284 348
#     4  11  21  37  57  82 118 154 191 235 298 342
#     4   9  19  36  58  88 118 145 188 250 293 332
#     4  11  22  38  55  78 117 160 184 232 291 346
#     4  11  22  35  58  85 112 148 198 239 283 350
#     4  10  20  36  63  87 112 154 198 238 288 348
#     4  11  22  37  56  85 117 151 189 237 297 344
#     4   9  20  37  60  90 118 146 194 246 289 342
#
# _framework density 18.439018000000001
#
# number of rings (size 3 to 8) (size 9 to 14) (size 15 to 20)
#    0.000    1.500    5.000    1.500    1.750    0.250 
#    0.000    0.625    0.000    3.750    0.000    3.500 
#    0.000    0.000    0.000    0.000    0.000    0.000 
#
# Total GULP energy -178262.539907 kJ/mol
# GULP energy per Si atom -5570.704372 kJ/mol
# Density = 1.839705 g / cm^3
# Si number density = 18.439018 Si / 1000 Ang^3
#
#
#
# Elastic Constant Matrix: (Units=GPa)
#
#
# Indices 1 2 3 4 5 6 
#
# 1 74.8870 35.8638 20.7418 -0.0402 14.9172 0.0149
# 2 35.8638 123.1521 39.6487 -0.0423 12.7208 0.0316
# 3 20.7418 39.6487 52.0126 -0.0616 14.8340 0.0516
# 4 -0.0402 -0.0423 -0.0616 27.7889 0.0376 6.4691
# 5 14.9172 12.7208 14.8340 0.0376 25.5484 -0.0319
# 6 0.0149 0.0316 0.0516 6.4691 -0.0319 31.0841
#
#
#
# Elastic Compliance Matrix: (Units=1/GPa)
#
#
# Indices 1 2 3 4 5 6 
#
# 1 0.017025 -0.003568 -0.002087 0.000027 -0.006953 -0.000014
# 2 -0.003568 0.011520 -0.007570 -0.000006 0.000743 0.000005
# 3 -0.002087 -0.007570 0.029250 0.000083 -0.011996 -0.000069
# 4 0.000027 -0.000006 0.000083 0.037818 -0.000126 -0.007871
# 5 -0.006953 0.000743 -0.011996 -0.000126 0.049796 0.000100
# 6 -0.000014 0.000005 -0.000069 -0.007871 0.000100 0.033809
#
#
# Mechanical properties :
#
#
# Convention : Reuss Voigt Hill
#
# Bulk Modulus (GPa) = 31.90271 49.17337 40.53804
# Shear Modulus (GPa) = 23.13559 27.13742 25.13650
#
# Velocity S-wave (km/s) = 3.54603 3.84049 3.69619
# Velocity P-wave (km/s) = 5.83995 6.81115 6.34416
#
# Compressibility (1/GPa) = 0.03134530
#
# Stress axis : x y z
#
# Youngs Moduli (GPa) = 58.73686 86.80841 34.18750
#
# Poissons Ratio (x) = 0.30974 0.07133
# Poissons Ratio (y) = 0.20958 0.25881
# Poissons Ratio (z) = 0.12256 0.65717
#
# Static dielectric constant tensor:
#      x y z
#    x 1.671890 -0.000030 -0.032400 
#    y -0.000030 1.681880 0.000060 
#    z -0.032400 0.000060 1.627620 
# 
# From -- ./inp_files/286423.got.cif
#   From: 2010.05.17/outbox.cif.g08.bks.cpg/sg12_144_cif.got.tgz:286423.got - 2010.06.03 13:09:07.
