data_PCOD9200638
_publ_section_title
;
Structure prediction by ZEFSAII (Michael W. Deem and Ramdas Pophale) SiO2 
 PCOD9200638
Probable space group: C 2/M
;
_chemical_formula_sum "Si O2"
_cell_formula_units_Z 64
_cell_length_a 23.124875
_cell_length_b 8.488966
_cell_length_c 16.612725
_cell_angle_alpha 90.000000
_cell_angle_beta 88.993450
_cell_angle_gamma 90.000000
_cell_volume 3260.678984
_symmetry_space_group_name_H-M "C 2/M"
_symmetry_group_IT_number 12
_symmetry_cell_setting 'monoclinic'
loop_
_space_group_symop_operation_xyz
x,y,z
-x,y,-z
-x,-y,-z
x,-y,z
1/2+x,1/2+y,z
1/2-x,1/2+y,-z
1/2-x,1/2-y,-z
1/2+x,1/2-y,z
loop_
_atom_site_type_symbol
_atom_site_label
_atom_site_fract_x
_atom_site_fract_y
_atom_site_fract_z
Si Si1 0.025367 0.187159 0.912007
Si Si2 0.076130 0.308380 0.672788
Si Si3 0.664668 0.687022 0.218299
Si Si4 0.746158 0.186192 0.090531
Si Si5 0.838192 0.309535 0.462132
Si Si6 0.961820 0.686419 0.758488
Si Si7 0.281669 0.310452 0.618062
Si Si8 0.137819 0.688780 0.837280
O O1 0.092210 0.234395 0.900000
O O2 0.991354 0.281514 0.844095
O O3 0.018748 0.000000 0.897805
O O4 0.000000 0.223312 0.000000
O O5 0.075470 0.500000 0.672230
O O6 0.106006 0.256493 0.589533
O O7 0.116304 0.263641 0.748318
O O8 0.010703 0.258286 0.693657
O O9 0.672132 0.500000 0.209094
O O10 0.686849 0.767568 0.136539
O O11 0.598720 0.725495 0.241026
O O12 0.702905 0.744280 0.293124
O O13 0.798072 0.260128 0.141650
O O14 0.752606 0.000000 0.088830
O O15 0.750000 0.250000 0.000000
O O16 0.838409 0.500000 0.465683
O O17 0.781107 0.259674 0.412869
O O18 0.828571 0.245544 0.551632
O O19 0.952209 0.500000 0.747978
O O20 0.281476 0.500000 0.619450
O O21 0.133552 0.500000 0.842057
#
# Coordination Sequence:
#
# PCOD9200638 Si02
#       8
#     8   8   8   8   8   8   8   8
#     4  10  21  36  56  81 111 146 188 236 284 336
#     4   8  16  33  57  83 111 147 187 232 284 334
#     4  11  23  41  61  80 114 155 191 234 289 348
#     4  12  26  42  60  84 113 147 189 234 285 343
#     4   9  16  31  57  84 112 144 187 235 280 337
#     4  10  21  37  57  82 111 148 196 241 288 345
#     4   9  19  34  54  84 116 149 185 229 289 344
#     4  10  20  37  59  83 113 146 187 233 281 337
#
# _framework density 19.627814000000001
#
# number of rings (size 3 to 8) (size 9 to 14) (size 15 to 20)
#    0.000    2.125    0.000    4.125    1.750    4.000 
#    0.000    6.875    0.000    3.750    0.000    0.000 
#    0.000    0.000    0.000    0.000    0.000    0.000 
#
# Total GULP energy -178678.369934 kJ/mol
# GULP energy per Si atom -5583.699060 kJ/mol
# Density = 1.958314 g / cm^3
# Si number density = 19.627814 Si / 1000 Ang^3
#
#
#
# Elastic Constant Matrix: (Units=GPa)
#
#
# Indices 1 2 3 4 5 6 
#
# 1 58.7318 -3.1501 26.7990 0.0000 -18.1348 0.0000
# 2 -3.1501 24.2690 11.5385 0.0000 -5.5650 0.0000
# 3 26.7990 11.5385 89.3564 0.0000 -32.7226 0.0000
# 4 0.0000 0.0000 0.0000 23.9163 0.0000 -1.3903
# 5 -18.1348 -5.5650 -32.7226 0.0000 32.7291 0.0000
# 6 0.0000 0.0000 0.0000 -1.3903 0.0000 31.1010
#
#
#
# Elastic Compliance Matrix: (Units=1/GPa)
#
#
# Indices 1 2 3 4 5 6 
#
# 1 0.022170 0.006983 -0.004129 0.000000 0.009343 0.000000
# 2 0.006983 0.046267 -0.005949 0.000000 0.005788 0.000000
# 3 -0.004129 -0.005949 0.018915 0.000000 0.015611 0.000000
# 4 0.000000 0.000000 0.000000 0.041921 0.000000 0.001874
# 5 0.009343 0.005788 0.015611 0.000000 0.052323 0.000000
# 6 0.000000 0.000000 0.000000 0.001874 0.000000 0.032237
#
#
# Mechanical properties :
#
#
# Convention : Reuss Voigt Hill
#
# Bulk Modulus (GPa) = 12.32106 26.97021 19.64564
# Shear Modulus (GPa) = 20.23654 26.69394 23.46524
#
# Velocity S-wave (km/s) = 3.21442 3.69183 3.46137
# Velocity P-wave (km/s) = 4.47969 5.65185 5.09956
#
# Compressibility (1/GPa) = 0.08116184
#
# Stress axis : x y z
#
# Youngs Moduli (GPa) = 45.10557 21.61368 52.86885
#
# Poissons Ratio (x) = -0.15094 0.21832
# Poissons Ratio (y) = -0.31499 0.31452
# Poissons Ratio (z) = 0.18626 0.12858
#
# Static dielectric constant tensor:
#      x y z
#    x 1.710220 0.000000 -0.016110 
#    y 0.000000 1.664300 0.000000 
#    z -0.016110 0.000000 1.694380 
# 
# From -- ./inp_files/281273.got.cif
#   From: 2010.05.17/outbox.cif.g08.bks.cpg/sg12_141_cif.got.tgz:281273.got - 2010.06.03 13:09:07.
