data_PCOD9200670
_publ_section_title
;
Structure prediction by ZEFSAII (Michael W. Deem and Ramdas Pophale) SiO2 
 PCOD9200670
Probable space group: C 2/M
;
_chemical_formula_sum "Si O2"
_cell_formula_units_Z 60
_cell_length_a 18.778612
_cell_length_b 9.488014
_cell_length_c 22.043772
_cell_angle_alpha 90.000000
_cell_angle_beta 138.973242
_cell_angle_gamma 90.000000
_cell_volume 2578.106436
_symmetry_space_group_name_H-M "C 2/M"
_symmetry_group_IT_number 12
_symmetry_cell_setting 'monoclinic'
loop_
_space_group_symop_operation_xyz
x,y,z
-x,y,-z
-x,-y,-z
x,-y,z
1/2+x,1/2+y,z
1/2-x,1/2+y,-z
1/2-x,1/2-y,-z
1/2+x,1/2-y,z
loop_
_atom_site_type_symbol
_atom_site_label
_atom_site_fract_x
_atom_site_fract_y
_atom_site_fract_z
Si Si1 0.877079 0.835752 0.870087
Si Si2 0.103316 0.162655 0.855036
Si Si3 0.185921 0.663088 0.600923
Si Si4 0.760027 0.500000 0.525030
Si Si5 0.305124 0.338316 0.949213
Si Si6 0.383421 0.161839 0.312730
Si Si7 0.597918 0.242014 0.413152
Si Si8 0.402406 0.168851 0.765517
O O1 0.890945 0.807984 0.950803
O O2 0.744422 0.826262 0.781721
O O3 0.916119 0.729962 0.843343
O O4 0.906623 0.000000 0.875080
O O5 0.203639 0.233267 0.884445
O O6 0.995741 0.256690 0.786072
O O7 0.084022 0.000000 0.825850
O O8 0.142201 0.165498 0.950635
O O9 0.225328 0.500000 0.629144
O O10 0.110893 0.685776 0.611196
O O11 0.126522 0.683410 0.499405
O O12 0.285275 0.770234 0.671080
O O13 0.668459 0.379598 0.451080
O O14 0.851816 0.622079 0.596038
O O15 0.267384 0.500000 0.915287
O O16 0.468498 0.257288 0.331529
O O17 0.415360 0.000000 0.320776
O O18 0.406907 0.000000 0.768191
#
# Coordination Sequence:
#
# PCOD9200670 Si02
#       8
#     8   8   8   4   8   8   8   8
#     4   9  19  38  60  85 114 148 189 233 285 343
#     4  10  20  37  59  84 117 154 192 233 282 343
#     4  10  20  37  61  81 106 145 190 235 280 335
#     4  10  24  36  54  76 120 146 184 234 274 332
#     4   9  19  37  60  87 116 151 193 233 281 344
#     4   9  17  34  60  81 104 141 186 230 274 331
#     4  11  20  40  54  82 110 152 187 230 276 333
#     4  11  23  38  56  84 117 148 191 242 287 338
#
# _framework density 23.272894999999998
#
# number of rings (size 3 to 8) (size 9 to 14) (size 15 to 20)
#    0.000    2.133    1.333    2.800    0.933    2.667 
#    9.600    3.333    0.000    0.000    0.000    0.000 
#    0.000    0.000    0.000    0.000    0.000    0.000 
#
# Total GULP energy -167285.300302 kJ/mol
# GULP energy per Si atom -5576.176677 kJ/mol
# Density = 2.321992 g / cm^3
# Si number density = 23.272895 Si / 1000 Ang^3
#
#
#
# Elastic Constant Matrix: (Units=GPa)
#
#
# Indices 1 2 3 4 5 6 
#
# 1 113.9368 69.6414 7.9448 0.0000 9.4478 0.0000
# 2 69.6414 181.5266 26.7954 0.0000 26.4804 0.0000
# 3 7.9448 26.7954 55.8523 0.0000 2.7979 0.0000
# 4 0.0000 0.0000 0.0000 8.4295 0.0000 18.7744
# 5 9.4478 26.4804 2.7979 0.0000 49.6742 0.0000
# 6 0.0000 0.0000 0.0000 18.7744 0.0000 44.9051
#
#
#
# Elastic Compliance Matrix: (Units=1/GPa)
#
#
# Indices 1 2 3 4 5 6 
#
# 1 0.011481 -0.004509 0.000521 0.000000 0.000191 0.000000
# 2 -0.004509 0.008185 -0.003118 0.000000 -0.003330 0.000000
# 3 0.000521 -0.003118 0.019303 0.000000 0.000476 0.000000
# 4 0.000000 0.000000 0.000000 1.724020 0.000000 -0.720798
# 5 0.000191 -0.003330 0.000476 0.000000 0.021843 0.000000
# 6 0.000000 0.000000 0.000000 -0.720798 0.000000 0.323629
#
#
# Mechanical properties :
#
#
# Convention : Reuss Voigt Hill
#
# Bulk Modulus (GPa) = 40.39731 62.23097 51.31414
# Shear Modulus (GPa) = 2.34640 37.06402 19.70521
#
# Velocity S-wave (km/s) = 1.00519 3.99505 2.91297
# Velocity P-wave (km/s) = 4.32932 6.93385 5.78019
#
# Compressibility (1/GPa) = 0.02475412
#
# Stress axis : x y z
#
# Youngs Moduli (GPa) = 87.10162 122.17697 51.80662
#
# Poissons Ratio (x) = 0.55093 -0.02697
# Poissons Ratio (y) = 0.39276 0.16156
# Poissons Ratio (z) = -0.04535 0.38101
#
# Static dielectric constant tensor:
#      x y z
#    x 1.935770 0.000000 -0.065970 
#    y 0.000000 1.778790 0.000000 
#    z -0.065970 0.000000 2.022100 
# 
# From -- ./inp_files/365493.got.cif
#   From: 2010.05.17/outbox.cif.g08.bks.cpg/sg12_183_cif.got.tgz:365493.got - 2010.06.03 13:09:07.
