data_PCOD9200938
_publ_section_title
;
Structure prediction by ZEFSAII (Michael W. Deem and Ramdas Pophale) SiO2 
 PCOD9200938
Probable space group: C 2/M
;
_chemical_formula_sum "Si O2"
_cell_formula_units_Z 56
_cell_length_a 16.280211
_cell_length_b 8.858814
_cell_length_c 23.190392
_cell_angle_alpha 90.000000
_cell_angle_beta 121.360339
_cell_angle_gamma 90.000000
_cell_volume 2855.988368
_symmetry_space_group_name_H-M "C 2/M"
_symmetry_group_IT_number 12
_symmetry_cell_setting 'monoclinic'
loop_
_space_group_symop_operation_xyz
x,y,z
-x,y,-z
-x,-y,-z
x,-y,z
1/2+x,1/2+y,z
1/2-x,1/2+y,-z
1/2-x,1/2-y,-z
1/2+x,1/2-y,z
loop_
_atom_site_type_symbol
_atom_site_label
_atom_site_fract_x
_atom_site_fract_y
_atom_site_fract_z
Si Si1 0.831961 0.677389 0.569488
Si Si2 0.715339 0.680028 0.847208
Si Si3 0.938191 0.683822 0.922238
Si Si4 0.537723 0.180767 0.838714
Si Si5 0.494083 0.675846 0.429271
Si Si6 0.628485 0.677870 0.293499
Si Si7 0.202303 0.176671 0.710573
O O1 0.815264 0.500000 0.569352
O O2 0.750000 0.750000 0.500000
O O3 0.932407 0.714413 0.575300
O O4 0.836230 0.753263 0.633475
O O5 0.713176 0.500000 0.857226
O O6 0.826812 0.730568 0.887368
O O7 0.645066 0.760669 0.866293
O O8 0.677308 0.705131 0.768038
O O9 0.936774 0.500000 0.920565
O O10 0.990222 0.731106 0.882013
O O11 0.000000 0.731690 0.000000
O O12 0.469483 0.245988 0.763771
O O13 0.536271 0.000000 0.836536
O O14 0.500000 0.697605 0.500000
O O15 0.521089 0.500000 0.427286
O O16 0.388152 0.697683 0.364476
O O17 0.615071 0.500000 0.293967
O O18 0.710220 0.719976 0.277163
O O19 0.233193 0.000000 0.718065
#
# Coordination Sequence:
#
# PCOD9200938 Si02
#       7
#     8   8   8   8   8   8   8
#     4  12  25  41  61  86 120 159 205 256 310 371
#     4  10  20  37  61  90 125 166 210 258 316 378
#     4   9  19  38  63  90 126 171 212 254 314 384
#     4  11  22  39  63  93 126 164 212 261 314 375
#     4  10  21  37  58  85 119 158 200 250 310 373
#     4  12  24  39  62  90 122 160 206 258 313 371
#     4  10  20  37  60  86 119 160 203 252 313 375
#
# _framework density 19.607923
#
# number of rings (size 3 to 8) (size 9 to 14) (size 15 to 20)
#    0.000    1.429    1.429    4.714    0.000    4.286 
#    0.000    0.000    0.000    3.000    0.000    0.000 
#    0.000    0.000    0.000    0.000    0.000    0.000 
#
# Total GULP energy -156527.756362 kJ/mol
# GULP energy per Si atom -5590.277013 kJ/mol
# Density = 1.956329 g / cm^3
# Si number density = 19.607923 Si / 1000 Ang^3
#
#
#
# Elastic Constant Matrix: (Units=GPa)
#
#
# Indices 1 2 3 4 5 6 
#
# 1 129.0579 52.9118 52.1665 0.0000 3.8007 0.0000
# 2 52.9118 71.9882 32.4571 0.0000 -1.4943 0.0000
# 3 52.1665 32.4571 118.8066 0.0000 5.2098 0.0000
# 4 0.0000 0.0000 0.0000 13.1851 0.0000 3.7422
# 5 3.8007 -1.4943 5.2098 0.0000 21.1639 0.0000
# 6 0.0000 0.0000 0.0000 3.7422 0.0000 39.7653
#
#
#
# Elastic Compliance Matrix: (Units=1/GPa)
#
#
# Indices 1 2 3 4 5 6 
#
# 1 0.012203 -0.007563 -0.003207 0.000000 -0.001936 0.000000
# 2 -0.007563 0.020633 -0.002466 0.000000 0.003422 0.000000
# 3 -0.003207 -0.002466 0.010596 0.000000 -0.002206 0.000000
# 4 0.000000 0.000000 0.000000 0.077924 0.000000 -0.007333
# 5 -0.001936 0.003422 -0.002206 0.000000 0.048383 0.000000
# 6 0.000000 0.000000 0.000000 -0.007333 0.000000 0.025838
#
#
# Mechanical properties :
#
#
# Convention : Reuss Voigt Hill
#
# Bulk Modulus (GPa) = 58.96556 66.10261 62.53409
# Shear Modulus (GPa) = 21.95864 26.97737 24.46801
#
# Velocity S-wave (km/s) = 3.35010 3.71326 3.53634
# Velocity P-wave (km/s) = 6.71579 7.22286 6.97394
#
# Compressibility (1/GPa) = 0.01695905
#
# Stress axis : x y z
#
# Youngs Moduli (GPa) = 81.95005 48.46591 94.37921
#
# Poissons Ratio (x) = 0.36656 0.30266
# Poissons Ratio (y) = 0.61981 0.23273
# Poissons Ratio (z) = 0.26280 0.11951
#
# Static dielectric constant tensor:
#      x y z
#    x 1.690140 0.000000 -0.001090 
#    y 0.000000 1.654200 0.000000 
#    z -0.001090 0.000000 1.699520 
# 
# From -- ./inp_files/339036.got.cif
#   From: 2010.05.17/outbox.cif.g08.bks.cpg/sg12_170_cif.got.tgz:339036.got - 2010.06.03 13:09:07.
