data_PCOD9200066
_publ_section_title
;
Structure prediction by ZEFSAII (Michael W. Deem and Ramdas Pophale) SiO2 
 PCOD9200066
Probable space group: C 2/M
;
_chemical_formula_sum "Si O2"
_cell_formula_units_Z 52
_cell_length_a 11.726560
_cell_length_b 24.955964
_cell_length_c 8.246278
_cell_angle_alpha 90.000000
_cell_angle_beta 86.960830
_cell_angle_gamma 90.000000
_cell_volume 2409.859354
_symmetry_space_group_name_H-M "C 2/M"
_symmetry_group_IT_number 12
_symmetry_cell_setting 'monoclinic'
loop_
_space_group_symop_operation_xyz
x,y,z
-x,y,-z
-x,-y,-z
x,-y,z
1/2+x,1/2+y,z
1/2-x,1/2+y,-z
1/2-x,1/2-y,-z
1/2+x,1/2-y,z
loop_
_atom_site_type_symbol
_atom_site_label
_atom_site_fract_x
_atom_site_fract_y
_atom_site_fract_z
Si Si1 0.971333 0.226250 0.195588
Si Si2 0.073454 0.938701 0.766642
Si Si3 0.500000 0.917238 0.500000
Si Si4 0.017604 0.653132 0.186733
Si Si5 0.640828 0.642489 0.241316
Si Si6 0.220227 0.151276 0.882890
Si Si7 0.254465 0.441922 0.544406
O O1 0.857210 0.191732 0.215085
O O2 0.962650 0.288916 0.223817
O O3 0.069179 0.195882 0.290751
O O4 0.000000 0.220566 0.000000
O O5 0.166891 0.907792 0.867118
O O6 0.139595 0.939864 0.589570
O O7 0.960649 0.901676 0.780491
O O8 0.049869 0.000000 0.813690
O O9 0.515371 0.886283 0.668045
O O10 0.627689 0.942597 0.475357
O O11 0.153519 0.658580 0.186539
O O12 0.000000 0.636317 0.000000
O O13 0.725458 0.611323 0.352483
O O14 0.708548 0.660232 0.075475
O O15 0.265160 0.500000 0.631254
#
# Coordination Sequence:
#
# PCOD9200066 Si02
#       7
#     8   8   4   8   8   8   8
#     4   8  19  37  61  90 123 159 195 248 315 362
#     4  10  20  37  60  87 122 159 196 254 318 364
#     4  12  25  44  62  92 122 168 215 254 300 370
#     4  11  23  42  65  89 125 167 210 252 304 368
#     4  10  20  36  63  93 118 154 204 249 315 372
#     4  10  20  39  60  89 125 157 198 260 307 362
#     4  11  23  40  61  84 123 167 202 255 313 363
#
# _framework density 21.578021
#
# number of rings (size 3 to 8) (size 9 to 14) (size 15 to 20)
#    0.000    1.846    1.538    3.462    0.000    9.846 
#    5.538    1.538    0.000    2.308    0.000    0.000 
#    0.000    0.000    0.000    0.000    0.000    0.000 
#
# Total GULP energy -144911.037702 kJ/mol
# GULP energy per Si atom -5573.501450 kJ/mol
# Density = 2.152891 g / cm^3
# Si number density = 21.578021 Si / 1000 Ang^3
#
#
#
# Elastic Constant Matrix: (Units=GPa)
#
#
# Indices 1 2 3 4 5 6 
#
# 1 86.0303 8.3553 4.0619 0.0000 -5.8481 0.0000
# 2 8.3553 74.0456 28.8064 0.0000 7.3719 0.0000
# 3 4.0619 28.8064 50.5895 0.0000 -1.2989 0.0000
# 4 0.0000 0.0000 0.0000 24.1362 0.0000 -1.3382
# 5 -5.8481 7.3719 -1.2989 0.0000 32.3023 0.0000
# 6 0.0000 0.0000 0.0000 -1.3382 0.0000 32.2094
#
#
#
# Elastic Compliance Matrix: (Units=1/GPa)
#
#
# Indices 1 2 3 4 5 6 
#
# 1 0.011951 -0.001609 0.000022 0.000000 0.002532 0.000000
# 2 -0.001609 0.018201 -0.010360 0.000000 -0.004862 0.000000
# 3 0.000022 -0.010360 0.025751 0.000000 0.003404 0.000000
# 4 0.000000 0.000000 0.000000 0.041527 0.000000 0.001725
# 5 0.002532 -0.004862 0.003404 0.000000 0.032662 0.000000
# 6 0.000000 0.000000 0.000000 0.001725 0.000000 0.031119
#
#
# Mechanical properties :
#
#
# Convention : Reuss Voigt Hill
#
# Bulk Modulus (GPa) = 31.24050 32.56808 31.90429
# Shear Modulus (GPa) = 25.53945 29.02570 27.28257
#
# Velocity S-wave (km/s) = 3.44406 3.67161 3.55965
# Velocity P-wave (km/s) = 5.50679 5.75328 5.63138
#
# Compressibility (1/GPa) = 0.03200973
#
# Stress axis : x y z
#
# Youngs Moduli (GPa) = 83.67386 54.94195 38.83270
#
# Poissons Ratio (x) = 0.08840 -0.00084
# Poissons Ratio (y) = 0.13464 0.40229
# Poissons Ratio (z) = -0.00181 0.56917
#
# Static dielectric constant tensor:
#      x y z
#    x 1.805300 0.000000 0.021760 
#    y 0.000000 1.831930 0.000000 
#    z 0.021760 0.000000 1.864590 
# 
# From -- ./inp_files/52565.got.cif
#   From: 2010.05.17/outbox.cif.g08.bks.cpg/sg12_27_cif.got.tgz:52565.got - 2010.06.03 13:09:07.
