data_PCOD9200142
_publ_section_title
;
Structure prediction by ZEFSAII (Michael W. Deem and Ramdas Pophale) SiO2 
 PCOD9200142
Probable space group: C 2/M
;
_chemical_formula_sum "Si O2"
_cell_formula_units_Z 40
_cell_length_a 15.551086
_cell_length_b 17.258098
_cell_length_c 9.599407
_cell_angle_alpha 90.000000
_cell_angle_beta 135.768344
_cell_angle_gamma 90.000000
_cell_volume 1797.133365
_symmetry_space_group_name_H-M "C 2/M"
_symmetry_group_IT_number 12
_symmetry_cell_setting 'monoclinic'
loop_
_space_group_symop_operation_xyz
x,y,z
-x,y,-z
-x,-y,-z
x,-y,z
1/2+x,1/2+y,z
1/2-x,1/2+y,-z
1/2-x,1/2-y,-z
1/2+x,1/2-y,z
loop_
_atom_site_type_symbol
_atom_site_label
_atom_site_fract_x
_atom_site_fract_y
_atom_site_fract_z
Si Si1 0.368864 0.665197 0.922647
Si Si2 0.171451 0.092525 0.834096
Si Si3 0.168786 0.641244 0.490205
Si Si4 0.694187 0.297520 0.623500
Si Si5 0.445411 0.913277 0.078460
O O1 0.266774 0.614357 0.719243
O O2 0.302620 0.749043 0.829695
O O3 0.500000 0.666185 0.000000
O O4 0.383321 0.632896 0.093591
O O5 0.135619 0.138171 0.652574
O O6 0.148703 0.000000 0.804991
O O7 0.319266 0.109798 0.006332
O O8 0.247925 0.661641 0.444404
O O9 0.114188 0.724726 0.477267
O O10 0.056332 0.588925 0.315990
O O11 0.412203 0.000000 0.993096
O O12 0.500000 0.874787 0.000000
#
# Coordination Sequence:
#
# PCOD9200142 Si02
#       5
#     8   8   8   8   8
#     4  10  23  41  61  89 130 176 212 261 301 373
#     4  11  23  39  64  96 129 169 211 254 326 382
#     4   9  20  36  63  94 124 162 210 260 323 369
#     4   9  20  39  60  95 121 164 217 266 308 371
#     4  10  20  36  64  95 128 159 195 266 329 377
#
# _framework density 22.257669
#
# number of rings (size 3 to 8) (size 9 to 14) (size 15 to 20)
#    1.200    1.000    2.000    0.600    2.800    2.000 
#    0.000    5.000    0.000    1.200    0.000    0.000 
#    0.000    0.800    0.000    0.000    0.000    0.000 
#
# Total GULP energy -111377.767107 kJ/mol
# GULP energy per Si atom -5568.888355 kJ/mol
# Density = 2.220701 g / cm^3
# Si number density = 22.257669 Si / 1000 Ang^3
#
#
#
# Elastic Constant Matrix: (Units=GPa)
#
#
# Indices 1 2 3 4 5 6 
#
# 1 91.2821 35.8289 0.6889 0.0000 -18.8224 0.0000
# 2 35.8289 49.9227 4.7390 0.0000 -21.8886 0.0000
# 3 0.6889 4.7390 33.0151 0.0000 -11.6106 0.0000
# 4 0.0000 0.0000 0.0000 17.1808 0.0000 -1.5950
# 5 -18.8224 -21.8886 -11.6106 0.0000 46.4884 0.0000
# 6 0.0000 0.0000 0.0000 -1.5950 0.0000 3.8506
#
#
#
# Elastic Compliance Matrix: (Units=1/GPa)
#
#
# Indices 1 2 3 4 5 6 
#
# 1 0.015410 -0.010456 0.001800 0.000000 0.001766 0.000000
# 2 -0.010456 0.032348 -0.000611 0.000000 0.010845 0.000000
# 3 0.001800 -0.000611 0.033431 0.000000 0.008790 0.000000
# 4 0.000000 0.000000 0.000000 0.060532 0.000000 0.025073
# 5 0.001766 0.010845 0.008790 0.000000 0.029527 0.000000
# 6 0.000000 0.000000 0.000000 0.025073 0.000000 0.270083
#
#
# Mechanical properties :
#
#
# Convention : Reuss Voigt Hill
#
# Bulk Modulus (GPa) = 15.96069 28.52597 22.24333
# Shear Modulus (GPa) = 10.40043 22.36818 16.38431
#
# Velocity S-wave (km/s) = 2.16400 3.17356 2.71610
# Velocity P-wave (km/s) = 3.66474 5.12569 4.45550
#
# Compressibility (1/GPa) = 0.06265393
#
# Stress axis : x y z
#
# Youngs Moduli (GPa) = 64.89457 30.91385 29.91265
#
# Poissons Ratio (x) = 0.32324 -0.05385
# Poissons Ratio (y) = 0.67854 0.01829
# Poissons Ratio (z) = -0.11682 0.01890
#
# Static dielectric constant tensor:
#      x y z
#    x 1.826230 0.000000 0.012630 
#    y 0.000000 1.854360 0.000000 
#    z 0.012630 0.000000 1.890560 
# 
# From -- ./inp_files/63783.got.cif
#   From: 2010.05.17/outbox.cif.g08.bks.cpg/sg12_32_cif.got.tgz:63783.got - 2010.06.03 13:09:07.
