data_PCOD9200360
_publ_section_title
;
Structure prediction by ZEFSAII (Michael W. Deem and Ramdas Pophale) SiO2 
 PCOD9200360
Probable space group: C 2/M
;
_chemical_formula_sum "Si O2"
_cell_formula_units_Z 56
_cell_length_a 23.220829
_cell_length_b 11.364062
_cell_length_c 11.269267
_cell_angle_alpha 90.000000
_cell_angle_beta 94.614095
_cell_angle_gamma 90.000000
_cell_volume 2964.129687
_symmetry_space_group_name_H-M "C 2/M"
_symmetry_group_IT_number 12
_symmetry_cell_setting 'monoclinic'
loop_
_space_group_symop_operation_xyz
x,y,z
-x,y,-z
-x,-y,-z
x,-y,z
1/2+x,1/2+y,z
1/2-x,1/2+y,-z
1/2-x,1/2-y,-z
1/2+x,1/2-y,z
loop_
_atom_site_type_symbol
_atom_site_label
_atom_site_fract_x
_atom_site_fract_y
_atom_site_fract_z
Si Si1 0.148114 0.869395 0.233361
Si Si2 0.160144 0.697579 0.448247
Si Si3 0.431547 0.634218 0.009666
Si Si4 0.104665 0.639024 0.839828
Si Si5 0.234253 0.715612 0.863117
Si Si6 0.446830 0.867407 0.422842
Si Si7 0.779223 0.128669 0.359272
O O1 0.139037 0.776183 0.335119
O O2 0.211499 0.850483 0.186740
O O3 0.145314 0.000000 0.284322
O O4 0.102340 0.858498 0.120366
O O5 0.107101 0.630413 0.496900
O O6 0.185094 0.779425 0.557136
O O7 0.215150 0.628768 0.405924
O O8 0.418147 0.500000 0.056027
O O9 0.413531 0.752167 0.078096
O O10 0.500000 0.638123 0.000000
O O11 0.089528 0.500000 0.865713
O O12 0.174420 0.644894 0.847020
O O13 0.076642 0.673612 0.708224
O O14 0.225159 0.828404 0.776646
O O15 0.250000 0.750000 0.000000
O O16 0.500000 0.805811 0.500000
O O17 0.466684 0.000000 0.399075
O O18 0.805090 0.000000 0.371425
#
# Coordination Sequence:
#
# PCOD9200360 Si02
#       7
#     8   8   8   8   8   8   8
#     4  10  21  37  59  85 116 155 197 243 296 356
#     4  10  20  37  57  83 114 148 197 241 296 353
#     4  10  23  43  63  86 121 164 203 244 299 357
#     4  11  23  41  65  93 121 157 206 254 304 359
#     4  11  21  38  57  88 122 157 193 246 304 363
#     4  10  22  40  61  84 116 155 195 251 307 353
#     4  10  21  35  57  84 115 154 194 240 295 357
#
# _framework density 18.892562000000002
#
# number of rings (size 3 to 8) (size 9 to 14) (size 15 to 20)
#    0.000    1.714    2.857    1.286    2.000    2.000 
#    0.000    0.714    0.000    2.143    0.000    0.000 
#    0.000    0.000    0.000    0.000    0.000    0.000 
#
# Total GULP energy -156010.088880 kJ/mol
# GULP energy per Si atom -5571.788889 kJ/mol
# Density = 1.884956 g / cm^3
# Si number density = 18.892562 Si / 1000 Ang^3
#
#
#
# Elastic Constant Matrix: (Units=GPa)
#
#
# Indices 1 2 3 4 5 6 
#
# 1 68.3697 12.4851 14.3488 0.0000 21.5437 0.0000
# 2 12.4851 99.6260 39.6244 0.0000 1.4257 0.0000
# 3 14.3488 39.6244 107.4530 0.0000 14.9621 0.0000
# 4 0.0000 0.0000 0.0000 2.9284 0.0000 8.7272
# 5 21.5437 1.4257 14.9621 0.0000 28.5930 0.0000
# 6 0.0000 0.0000 0.0000 8.7272 0.0000 39.0093
#
#
#
# Elastic Compliance Matrix: (Units=1/GPa)
#
#
# Indices 1 2 3 4 5 6 
#
# 1 0.019682 -0.002382 0.000322 0.000000 -0.014880 0.000000
# 2 -0.002382 0.012139 -0.004664 0.000000 0.003630 0.000000
# 3 0.000322 -0.004664 0.011848 0.000000 -0.006210 0.000000
# 4 0.000000 0.000000 0.000000 1.024602 0.000000 -0.229224
# 5 -0.014880 0.003630 -0.006210 0.000000 0.049253 0.000000
# 6 0.000000 0.000000 0.000000 -0.229224 0.000000 0.076917
#
#
# Mechanical properties :
#
#
# Convention : Reuss Voigt Hill
#
# Bulk Modulus (GPa) = 33.08842 45.37395 39.23118
# Shear Modulus (GPa) = 4.10522 28.03885 16.07203
#
# Velocity S-wave (km/s) = 1.47568 3.85661 2.91985
# Velocity P-wave (km/s) = 4.52278 6.62572 5.67255
#
# Compressibility (1/GPa) = 0.03022205
#
# Stress axis : x y z
#
# Youngs Moduli (GPa) = 50.80697 82.37923 84.40332
#
# Poissons Ratio (x) = 0.19620 -0.02716
# Poissons Ratio (y) = 0.12101 0.39364
# Poissons Ratio (z) = -0.01635 0.38420
#
# Static dielectric constant tensor:
#      x y z
#    x 1.652210 0.000000 0.011100 
#    y 0.000000 1.667440 0.000000 
#    z 0.011100 0.000000 1.645910 
# 
# From -- ./inp_files/165050.got.cif
#   From: 2010.05.17/outbox.cif.g08.bks.cpg/sg12_83_cif.got.tgz:165050.got - 2010.06.03 13:09:07.
