data_PCOD9200033
_publ_section_title
;
Structure prediction by ZEFSAII (Michael W. Deem and Ramdas Pophale) SiO2 
 PCOD9200033
Probable space group: C 2/M
;
_chemical_formula_sum "Si O2"
_cell_formula_units_Z 56
_cell_length_a 28.274062
_cell_length_b 14.112143
_cell_length_c 12.008818
_cell_angle_alpha 90.000000
_cell_angle_beta 40.214632
_cell_angle_gamma 90.000000
_cell_volume 3093.715862
_symmetry_space_group_name_H-M "C 2/M"
_symmetry_group_IT_number 12
_symmetry_cell_setting 'monoclinic'
loop_
_space_group_symop_operation_xyz
x,y,z
-x,y,-z
-x,-y,-z
x,-y,z
1/2+x,1/2+y,z
1/2-x,1/2+y,-z
1/2-x,1/2-y,-z
1/2+x,1/2-y,z
loop_
_atom_site_type_symbol
_atom_site_label
_atom_site_fract_x
_atom_site_fract_y
_atom_site_fract_z
Si Si1 0.460049 0.390865 0.691400
Si Si2 0.713527 0.610377 0.025410
Si Si3 0.073749 0.783085 0.626720
Si Si4 0.810267 0.272763 0.297032
Si Si5 0.586756 0.609691 0.824730
Si Si6 0.071817 0.391774 0.794063
Si Si7 0.278200 0.277616 0.768886
O O1 0.500000 0.382628 0.500000
O O2 0.470848 0.500000 0.710489
O O3 0.373710 0.374466 0.834262
O O4 0.499657 0.320229 0.704468
O O5 0.729233 0.500000 0.980997
O O6 0.732196 0.644173 0.116781
O O7 0.756200 0.678018 0.864143
O O8 0.098622 0.858795 0.675788
O O9 0.065725 0.683947 0.705627
O O10 0.137845 0.776799 0.421345
O O11 0.750000 0.250000 0.500000
O O12 0.864186 0.181641 0.192185
O O13 0.859676 0.357935 0.254727
O O14 0.771133 0.292886 0.251366
O O15 0.604357 0.500000 0.812986
O O16 0.500000 0.624117 0.000000
O O17 0.080134 0.500000 0.741527
O O18 0.000000 0.384585 0.000000
#
# Coordination Sequence:
#
# PCOD9200033 Si02
#       7
#     8   8   8   8   8   8   8
#     4  10  20  36  63  90 111 145 191 243 304 355
#     4  10  24  42  60  87 121 158 203 249 294 351
#     4  11  20  38  60  86 120 153 194 245 293 356
#     4  11  21  39  59  89 120 155 193 243 300 355
#     4  10  22  37  57  91 125 153 187 238 306 367
#     4  10  23  41  59  82 115 160 203 237 284 351
#     4  11  23  39  59  88 123 161 196 239 303 352
#
# _framework density 18.101209999999998
#
# number of rings (size 3 to 8) (size 9 to 14) (size 15 to 20)
#    0.000    1.571    4.286    2.143    4.000    2.857 
#    0.000    0.000    0.000    0.429    0.000    0.000 
#    0.000    0.000    0.000    0.000    0.000    0.000 
#
# Total GULP energy -156392.148448 kJ/mol
# GULP energy per Si atom -5585.433873 kJ/mol
# Density = 1.806001 g / cm^3
# Si number density = 18.101210 Si / 1000 Ang^3
#
#
#
# Elastic Constant Matrix: (Units=GPa)
#
#
# Indices 1 2 3 4 5 6 
#
# 1 117.0185 39.1399 10.4697 0.0000 1.4625 0.0000
# 2 39.1399 82.5370 10.1525 0.0000 -6.5597 0.0000
# 3 10.4697 10.1525 70.7262 0.0000 -1.7769 0.0000
# 4 0.0000 0.0000 0.0000 18.9771 0.0000 -2.4368
# 5 1.4625 -6.5597 -1.7769 0.0000 24.4581 0.0000
# 6 0.0000 0.0000 0.0000 -2.4368 0.0000 2.5949
#
#
#
# Elastic Compliance Matrix: (Units=1/GPa)
#
#
# Indices 1 2 3 4 5 6 
#
# 1 0.010299 -0.004937 -0.000866 0.000000 -0.002003 0.000000
# 2 -0.004937 0.014953 -0.001310 0.000000 0.004210 0.000000
# 3 -0.000866 -0.001310 0.014474 0.000000 0.000752 0.000000
# 4 0.000000 0.000000 0.000000 0.059921 0.000000 0.056271
# 5 -0.002003 0.004210 0.000752 0.000000 0.042190 0.000000
# 6 0.000000 0.000000 0.000000 0.056271 0.000000 0.438220
#
#
# Mechanical properties :
#
#
# Convention : Reuss Voigt Hill
#
# Bulk Modulus (GPa) = 39.21495 43.31178 41.26336
# Shear Modulus (GPa) = 8.29486 23.24065 15.76775
#
# Velocity S-wave (km/s) = 2.14300 3.58708 2.95462
# Velocity P-wave (km/s) = 5.27585 6.41371 5.87240
#
# Compressibility (1/GPa) = 0.02550048
#
# Stress axis : x y z
#
# Youngs Moduli (GPa) = 97.09293 66.87820 69.08846
#
# Poissons Ratio (x) = 0.33016 0.05985
# Poissons Ratio (y) = 0.47932 0.09049
# Poissons Ratio (z) = 0.08411 0.08760
#
# Static dielectric constant tensor:
#      x y z
#    x 1.618430 0.000000 0.000470 
#    y 0.000000 1.602860 0.000000 
#    z 0.000470 0.000000 1.627890 
# 
# From -- ./inp_files/183491.got.cif
#   From: 2010.05.17/outbox.cif.g08.bks.cpg/sg12_92_cif.got.tgz:183491.got - 2010.06.03 13:09:07.
