data_PCOD9200608
_publ_section_title
;
Structure prediction by ZEFSAII (Michael W. Deem and Ramdas Pophale) SiO2 
 PCOD9200608
Probable space group: C 2/M
;
_chemical_formula_sum "Si O2"
_cell_formula_units_Z 44
_cell_length_a 23.745479
_cell_length_b 8.263498
_cell_length_c 30.244141
_cell_angle_alpha 90.000000
_cell_angle_beta 159.975559
_cell_angle_gamma 90.000000
_cell_volume 2032.106471
_symmetry_space_group_name_H-M "C 2/M"
_symmetry_group_IT_number 12
_symmetry_cell_setting 'monoclinic'
loop_
_space_group_symop_operation_xyz
x,y,z
-x,y,-z
-x,-y,-z
x,-y,z
1/2+x,1/2+y,z
1/2-x,1/2+y,-z
1/2-x,1/2-y,-z
1/2+x,1/2-y,z
loop_
_atom_site_type_symbol
_atom_site_label
_atom_site_fract_x
_atom_site_fract_y
_atom_site_fract_z
Si Si1 0.892478 0.688708 0.830640
Si Si2 0.050355 0.681885 0.597771
Si Si3 0.690053 0.195293 0.323472
Si Si4 0.500000 0.244706 0.000000
Si Si5 0.897423 0.694027 0.641473
Si Si6 0.374881 0.677954 0.258511
O O1 0.942857 0.500000 0.875693
O O2 0.694825 0.698430 0.689784
O O3 0.922669 0.736587 0.802163
O O4 0.960030 0.801995 0.920078
O O5 0.092440 0.500000 0.615587
O O6 0.052847 0.697568 0.652790
O O7 0.869977 0.729075 0.449605
O O8 0.630475 0.244471 0.328291
O O9 0.705639 0.000000 0.334583
O O10 0.679674 0.171799 0.121922
O O11 0.904648 0.500000 0.645639
O O12 0.750000 0.750000 0.500000
O O13 0.063822 0.768546 0.744011
O O14 0.444410 0.500000 0.319723
#
# Coordination Sequence:
#
# PCOD9200608 Si02
#       6
#     8   8   8   4   8   8
#     4  10  20  37  59  82 111 152 198 241 285 345
#     4  11  21  33  54  85 119 151 188 239 296 349
#     4  10  21  36  56  82 116 153 191 235 291 352
#     4  10  21  40  65  86 109 152 207 246 285 344
#     4  11  22  37  58  87 120 157 194 238 293 350
#     4  11  21  37  61  87 116 154 199 243 288 347
#
# _framework density 21.652408999999999
#
# number of rings (size 3 to 8) (size 9 to 14) (size 15 to 20)
#    0.000    1.455    1.818    6.000    0.000    3.636 
#    0.000   12.273    0.000    0.000    0.000    0.000 
#    0.000    0.000    0.000    0.000    0.000    0.000 
#
# Total GULP energy -122578.187117 kJ/mol
# GULP energy per Si atom -5571.735778 kJ/mol
# Density = 2.160313 g / cm^3
# Si number density = 21.652409 Si / 1000 Ang^3
#
#
#
# Elastic Constant Matrix: (Units=GPa)
#
#
# Indices 1 2 3 4 5 6 
#
# 1 142.0773 14.6528 47.6023 0.0029 -38.3650 0.0010
# 2 14.6528 57.1844 14.8115 0.0003 -7.0403 0.0008
# 3 47.6023 14.8115 76.0822 0.0019 -23.4719 0.0009
# 4 0.0029 0.0003 0.0019 -17.3339 -0.0013 -9.3918
# 5 -38.3650 -7.0403 -23.4719 -0.0013 42.0860 -0.0010
# 6 0.0010 0.0008 0.0009 -9.3918 -0.0010 12.6812
#
#
#
# Elastic Compliance Matrix: (Units=1/GPa)
#
#
# Indices 1 2 3 4 5 6 
#
# 1 0.010422 -0.000714 -0.004213 0.000000 0.007032 0.000000
# 2 -0.000714 0.018524 -0.002904 0.000000 0.000829 -0.000001
# 3 -0.004213 -0.002904 0.018129 0.000001 0.005785 0.000000
# 4 0.000000 0.000000 0.000001 -0.041170 -0.000001 -0.030491
# 5 0.007032 0.000829 0.005785 -0.000001 0.033536 0.000001
# 6 0.000000 -0.000001 0.000000 -0.030491 0.000001 0.056275
#
#
# Mechanical properties :
#
#
# Convention : Reuss Voigt Hill
#
# Bulk Modulus (GPa) = 31.83151 47.71967 39.77559
# Shear Modulus (GPa) = 41.03398 20.70512 30.86955
#
# Velocity S-wave (km/s) = 4.35802 3.09568 3.77992
# Velocity P-wave (km/s) = 6.32900 5.90462 6.12049
#
# Compressibility (1/GPa) = 0.03141542
#
# Stress axis : x y z
#
# Youngs Moduli (GPa) = 95.94843 53.98288 55.15888
#
# Poissons Ratio (x) = 0.03853 0.23236
# Poissons Ratio (y) = 0.06848 0.16019
# Poissons Ratio (z) = 0.40418 0.15677
#
# Static dielectric constant tensor:
#      x y z
#    x 1.878150 0.000000 -0.046910 
#    y 0.000000 1.765090 0.000000 
#    z -0.046910 0.000000 1.780690 
# 
# From -- ./inp_files/171943.got.cif
#   From: 2010.05.17/outbox.cif.g08.bks.cpg/sg12_86_cif.got.tgz:171943.got - 2010.06.03 13:09:07.
