data_PCOD9200292
_publ_section_title
;
Structure prediction by ZEFSAII (Michael W. Deem and Ramdas Pophale) SiO2 
 PCOD9200292
Probable space group: C 2/M
;
_chemical_formula_sum "Si O2"
_cell_formula_units_Z 48
_cell_length_a 21.336019
_cell_length_b 13.569620
_cell_length_c 18.067830
_cell_angle_alpha 90.000000
_cell_angle_beta 24.224813
_cell_angle_gamma 90.000000
_cell_volume 2146.385108
_symmetry_space_group_name_H-M "C 2/M"
_symmetry_group_IT_number 12
_symmetry_cell_setting 'monoclinic'
loop_
_space_group_symop_operation_xyz
x,y,z
-x,y,-z
-x,-y,-z
x,-y,z
1/2+x,1/2+y,z
1/2-x,1/2+y,-z
1/2-x,1/2-y,-z
1/2+x,1/2-y,z
loop_
_atom_site_type_symbol
_atom_site_label
_atom_site_fract_x
_atom_site_fract_y
_atom_site_fract_z
Si Si1 0.740055 0.706730 0.233353
Si Si2 0.599740 0.387139 0.999152
Si Si3 0.531886 0.718627 0.583708
Si Si4 0.543974 0.887798 0.107043
Si Si5 0.195896 0.116296 0.061740
Si Si6 0.694509 0.282681 0.640324
O O1 0.657925 0.666322 0.394936
O O2 0.603794 0.740724 0.325844
O O3 0.845458 0.805406 0.119482
O O4 0.835584 0.623002 0.089459
O O5 0.622146 0.500000 0.951360
O O6 0.688858 0.369193 0.981409
O O7 0.425278 0.368318 0.213186
O O8 0.449391 0.663027 0.739741
O O9 0.644985 0.802232 0.491710
O O10 0.409293 0.814046 0.230740
O O11 0.494867 0.000000 0.171383
O O12 0.645655 0.852204 0.068763
O O13 0.187038 0.000000 0.084959
O O14 0.750000 0.250000 0.500000
#
# Coordination Sequence:
#
# PCOD9200292 Si02
#       6
#     8   8   8   8   8   8
#     4   9  21  38  60  79 110 153 184 224 269 334
#     4  10  21  38  57  82 111 149 190 226 275 328
#     4  10  20  37  56  84 112 142 188 225 279 325
#     4   9  20  35  54  82 113 146 183 220 273 334
#     4   9  18  34  58  83 111 147 187 228 269 329
#     4  11  22  34  56  83 114 144 178 235 283 323
#
# _framework density 22.363181999999998
#
# number of rings (size 3 to 8) (size 9 to 14) (size 15 to 20)
#    0.000    2.333    1.667    0.000    2.333    6.667 
#    0.000    8.333    0.000    0.000    0.000    0.000 
#    0.000    0.000    0.000    0.000    0.000    0.000 
#
# Total GULP energy -133608.024690 kJ/mol
# GULP energy per Si atom -5567.001029 kJ/mol
# Density = 2.231228 g / cm^3
# Si number density = 22.363182 Si / 1000 Ang^3
#
#
#
# Elastic Constant Matrix: (Units=GPa)
#
#
# Indices 1 2 3 4 5 6 
#
# 1 36.1047 -5.2628 15.8436 -0.0001 -9.1488 0.0000
# 2 -5.2628 85.1569 18.5083 -0.0002 -6.6013 0.0001
# 3 15.8436 18.5083 104.9043 0.0000 4.4880 0.0001
# 4 -0.0001 -0.0002 0.0000 16.2310 0.0000 -6.0431
# 5 -9.1488 -6.6013 4.4880 0.0000 43.0371 0.0000
# 6 0.0000 0.0001 0.0001 -6.0431 0.0000 12.7127
#
#
#
# Elastic Compliance Matrix: (Units=1/GPa)
#
#
# Indices 1 2 3 4 5 6 
#
# 1 0.033027 0.003996 -0.006047 0.000000 0.008264 0.000000
# 2 0.003996 0.012888 -0.003012 0.000000 0.003140 0.000000
# 3 -0.006047 -0.003012 0.011101 0.000000 -0.002905 0.000000
# 4 0.000000 0.000000 0.000000 0.074859 0.000000 0.035585
# 5 0.008264 0.003140 -0.002905 0.000000 0.025777 0.000000
# 6 0.000000 0.000000 0.000000 0.035585 0.000000 0.095577
#
#
# Mechanical properties :
#
#
# Convention : Reuss Voigt Hill
#
# Bulk Modulus (GPa) = 21.32564 31.59379 26.45971
# Shear Modulus (GPa) = 17.92206 27.53462 22.72834
#
# Velocity S-wave (km/s) = 2.83399 3.51272 3.19145
# Velocity P-wave (km/s) = 4.50171 5.53268 5.04361
#
# Compressibility (1/GPa) = 0.04689191
#
# Stress axis : x y z
#
# Youngs Moduli (GPa) = 30.27798 77.59153 90.07903
#
# Poissons Ratio (x) = -0.31006 0.54468
# Poissons Ratio (y) = -0.12099 0.27129
# Poissons Ratio (z) = 0.18308 0.23368
#
# Static dielectric constant tensor:
#      x y z
#    x 2.000590 0.000000 0.027630 
#    y 0.000000 1.817540 0.000000 
#    z 0.027630 0.000000 1.897580 
# 
# From -- ./inp_files/111493.got.cif
#   From: 2010.05.17/outbox.cif.g08.bks.cpg/sg12_56_cif.got.tgz:111493.got - 2010.06.03 13:09:07.
