data_PCOD9200333
_publ_section_title
;
Structure prediction by ZEFSAII (Michael W. Deem and Ramdas Pophale) SiO2 
 PCOD9200333
Probable space group: C 2/M
;
_chemical_formula_sum "Si O2"
_cell_formula_units_Z 48
_cell_length_a 9.083736
_cell_length_b 10.172582
_cell_length_c 25.851338
_cell_angle_alpha 90.000000
_cell_angle_beta 73.176702
_cell_angle_gamma 90.000000
_cell_volume 2286.558288
_symmetry_space_group_name_H-M "C 2/M"
_symmetry_group_IT_number 12
_symmetry_cell_setting 'monoclinic'
loop_
_space_group_symop_operation_xyz
x,y,z
-x,y,-z
-x,-y,-z
x,-y,z
1/2+x,1/2+y,z
1/2-x,1/2+y,-z
1/2-x,1/2-y,-z
1/2+x,1/2-y,z
loop_
_atom_site_type_symbol
_atom_site_label
_atom_site_fract_x
_atom_site_fract_y
_atom_site_fract_z
Si Si1 0.382592 0.154121 0.389028
Si Si2 0.148963 0.352795 0.725973
Si Si3 0.001039 0.144970 0.128899
Si Si4 0.134186 0.649797 0.444170
Si Si5 0.171618 0.275803 0.201170
Si Si6 0.620696 0.849162 0.034148
O O1 0.375767 0.195811 0.329902
O O2 0.266557 0.243713 0.433006
O O3 0.549857 0.165434 0.397408
O O4 0.340373 0.000000 0.397304
O O5 0.210140 0.500000 0.715970
O O6 0.262510 0.273087 0.750878
O O7 0.983021 0.354944 0.770875
O O8 0.819704 0.155432 0.160440
O O9 0.107206 0.163379 0.169089
O O10 0.043817 0.269443 0.089094
O O11 0.032383 0.000000 0.102743
O O12 0.192511 0.500000 0.443123
O O13 0.000000 0.666219 0.500000
O O14 0.669206 0.000000 0.042578
O O15 0.500000 0.859911 0.000000
O O16 0.750000 0.750000 0.000000
#
# Coordination Sequence:
#
# PCOD9200333 Si02
#       6
#     8   8   8   8   8   8
#     4  10  21  36  57  84 112 148 193 237 285 342
#     4  10  20  37  57  80 114 151 189 235 284 336
#     4  11  23  39  61  89 118 151 193 235 281 338
#     4  10  21  37  56  81 114 149 188 237 290 344
#     4  10  22  37  58  85 116 152 190 233 283 336
#     4  11  25  43  64  90 120 154 192 236 285 337
#
# _framework density 20.992249000000001
#
# number of rings (size 3 to 8) (size 9 to 14) (size 15 to 20)
#    0.000    1.667    0.000    4.000    0.000    9.000 
#    0.000    4.167    0.000    0.000    0.000    0.000 
#    0.000    0.000    0.000    0.000    0.000    0.000 
#
# Total GULP energy -133954.775597 kJ/mol
# GULP energy per Si atom -5581.448983 kJ/mol
# Density = 2.094447 g / cm^3
# Si number density = 20.992249 Si / 1000 Ang^3
#
#
#
# Elastic Constant Matrix: (Units=GPa)
#
#
# Indices 1 2 3 4 5 6 
#
# 1 77.1704 36.7327 3.4212 0.0000 0.3495 0.0000
# 2 36.7327 117.0535 23.8126 0.0000 -8.9059 0.0000
# 3 3.4212 23.8126 62.9661 0.0000 4.2282 0.0000
# 4 0.0000 0.0000 0.0000 24.5649 0.0000 -4.9598
# 5 0.3495 -8.9059 4.2282 0.0000 36.1945 0.0000
# 6 0.0000 0.0000 0.0000 -4.9598 0.0000 4.0235
#
#
#
# Elastic Compliance Matrix: (Units=1/GPa)
#
#
# Indices 1 2 3 4 5 6 
#
# 1 0.015385 -0.005199 0.001236 0.000000 -0.001572 0.000000
# 2 -0.005199 0.011283 -0.004207 0.000000 0.003318 0.000000
# 3 0.001236 -0.004207 0.017614 0.000000 -0.003105 0.000000
# 4 0.000000 0.000000 0.000000 0.054198 0.000000 0.066811
# 5 -0.001572 0.003318 -0.003105 0.000000 0.028823 0.000000
# 6 0.000000 0.000000 0.000000 0.066811 0.000000 0.330898
#
#
# Mechanical properties :
#
#
# Convention : Reuss Voigt Hill
#
# Bulk Modulus (GPa) = 35.78945 42.79144 39.29045
# Shear Modulus (GPa) = 10.33364 25.83816 18.08590
#
# Velocity S-wave (km/s) = 2.22110 3.51214 2.93840
# Velocity P-wave (km/s) = 4.86453 6.07252 5.50178
#
# Compressibility (1/GPa) = 0.02794119
#
# Stress axis : x y z
#
# Youngs Moduli (GPa) = 64.99655 88.62889 56.77290
#
# Poissons Ratio (x) = 0.46079 -0.07016
# Poissons Ratio (y) = 0.33793 0.23886
# Poissons Ratio (z) = -0.08033 0.37289
#
# Static dielectric constant tensor:
#      x y z
#    x 1.724610 0.000000 0.017230 
#    y 0.000000 1.760730 0.000000 
#    z 0.017230 0.000000 1.793600 
# 
# From -- ./inp_files/332225.got.cif
#   From: 2010.05.17/outbox.cif.g08.bks.cpg/sg12_167_cif.got.tgz:332225.got - 2010.06.03 13:09:07.
