data_PCOD9200276
_publ_section_title
;
Structure prediction by ZEFSAII (Michael W. Deem and Ramdas Pophale) SiO2 
 PCOD9200276
Probable space group: C 2/M
;
_chemical_formula_sum "Si O2"
_cell_formula_units_Z 48
_cell_length_a 22.790155
_cell_length_b 11.324075
_cell_length_c 9.018857
_cell_angle_alpha 90.000000
_cell_angle_beta 110.466150
_cell_angle_gamma 90.000000
_cell_volume 2180.645086
_symmetry_space_group_name_H-M "C 2/M"
_symmetry_group_IT_number 12
_symmetry_cell_setting 'monoclinic'
loop_
_space_group_symop_operation_xyz
x,y,z
-x,y,-z
-x,-y,-z
x,-y,z
1/2+x,1/2+y,z
1/2-x,1/2+y,-z
1/2-x,1/2-y,-z
1/2+x,1/2-y,z
loop_
_atom_site_type_symbol
_atom_site_label
_atom_site_fract_x
_atom_site_fract_y
_atom_site_fract_z
Si Si1 0.249982 0.378136 0.169708
Si Si2 0.657085 0.300423 0.977359
Si Si3 0.405151 0.866908 0.318929
Si Si4 0.416836 0.368532 0.816963
Si Si5 0.546417 0.864079 0.316858
Si Si6 0.288932 0.370380 0.518112
O O1 0.213495 0.500000 0.149864
O O2 0.290349 0.376874 0.056964
O O3 0.297176 0.373010 0.348309
O O4 0.198898 0.277285 0.125424
O O5 0.631665 0.219512 0.821726
O O6 0.603487 0.358176 0.028770
O O7 0.476058 0.866868 0.319003
O O8 0.410198 0.840045 0.499229
O O9 0.379769 0.000000 0.283036
O O10 0.446241 0.500000 0.818383
O O11 0.449023 0.246061 0.792422
O O12 0.352883 0.368726 0.664568
O O13 0.559855 0.000000 0.275173
O O14 0.258394 0.500000 0.529011
O O15 0.250000 0.250000 0.500000
#
# Coordination Sequence:
#
# PCOD9200276 Si02
#       6
#     8   8   8   8   8   8
#     4  10  21  36  54  79 112 153 195 235 280 339
#     4  11  21  35  57  81 119 151 194 233 294 340
#     4   9  19  39  63  88 112 147 196 248 292 343
#     4  11  23  38  57  87 124 156 192 238 291 346
#     4   9  20  40  65  87 114 149 196 244 292 348
#     4  10  20  37  56  80 112 149 191 233 277 335
#
# _framework density 22.011834
#
# number of rings (size 3 to 8) (size 9 to 14) (size 15 to 20)
#    0.000    2.000    1.667    3.000    0.000    2.667 
#    0.000    7.500    0.000    0.000    0.000    0.000 
#    0.000    0.000    0.000    0.000    0.000    0.000 
#
# Total GULP energy -133698.038015 kJ/mol
# GULP energy per Si atom -5570.751584 kJ/mol
# Density = 2.196173 g / cm^3
# Si number density = 22.011834 Si / 1000 Ang^3
#
#
#
# Elastic Constant Matrix: (Units=GPa)
#
#
# Indices 1 2 3 4 5 6 
#
# 1 26.7410 33.8163 -0.0342 0.0000 -8.2924 0.0000
# 2 33.8163 157.3330 22.1995 0.0000 -13.5821 0.0000
# 3 -0.0342 22.1995 56.3599 0.0000 3.1115 0.0000
# 4 0.0000 0.0000 0.0000 17.8254 0.0000 -12.6526
# 5 -8.2924 -13.5821 3.1115 0.0000 37.2716 0.0000
# 6 0.0000 0.0000 0.0000 -12.6526 0.0000 54.7753
#
#
#
# Elastic Compliance Matrix: (Units=1/GPa)
#
#
# Indices 1 2 3 4 5 6 
#
# 1 0.054467 -0.011651 0.004207 0.000000 0.007521 0.000000
# 2 -0.011651 0.009501 -0.003815 0.000000 0.001189 0.000000
# 3 0.004207 -0.003815 0.019363 0.000000 -0.002071 0.000000
# 4 0.000000 0.000000 0.000000 0.067101 0.000000 0.015500
# 5 0.007521 0.001189 -0.002071 0.000000 0.029109 0.000000
# 6 0.000000 0.000000 0.000000 0.015500 0.000000 0.021837
#
#
# Mechanical properties :
#
#
# Convention : Reuss Voigt Hill
#
# Bulk Modulus (GPa) = 16.44390 39.15523 27.79957
# Shear Modulus (GPa) = 20.47768 34.27129 27.37449
#
# Velocity S-wave (km/s) = 3.05340 3.95010 3.53033
# Velocity P-wave (km/s) = 4.46292 6.21541 5.41059
#
# Compressibility (1/GPa) = 0.06081282
#
# Stress axis : x y z
#
# Youngs Moduli (GPa) = 18.35959 105.25085 51.64571
#
# Poissons Ratio (x) = 1.22631 -0.21728
# Poissons Ratio (y) = 0.21391 0.19703
# Poissons Ratio (z) = -0.07724 0.40154
#
# Static dielectric constant tensor:
#      x y z
#    x 1.781030 0.000000 0.003700 
#    y 0.000000 1.880150 0.000000 
#    z 0.003700 0.000000 1.811010 
# 
# From -- ./inp_files/94908.got.cif
#   From: 2010.05.17/outbox.cif.g08.bks.cpg/sg12_48_cif.got.tgz:94908.got - 2010.06.03 13:09:07.
