data_PCOD9200499
_publ_section_title
;
Structure prediction by ZEFSAII (Michael W. Deem and Ramdas Pophale) SiO2 
 PCOD9200499
Probable space group: C 2/M
;
_chemical_formula_sum "Si O2"
_cell_formula_units_Z 40
_cell_length_a 8.781276
_cell_length_b 28.802888
_cell_length_c 13.735000
_cell_angle_alpha 90.000000
_cell_angle_beta 35.292734
_cell_angle_gamma 90.000000
_cell_volume 2007.083213
_symmetry_space_group_name_H-M "C 2/M"
_symmetry_group_IT_number 12
_symmetry_cell_setting 'monoclinic'
loop_
_space_group_symop_operation_xyz
x,y,z
-x,y,-z
-x,-y,-z
x,-y,z
1/2+x,1/2+y,z
1/2-x,1/2+y,-z
1/2-x,1/2-y,-z
1/2+x,1/2-y,z
loop_
_atom_site_type_symbol
_atom_site_label
_atom_site_fract_x
_atom_site_fract_y
_atom_site_fract_z
Si Si1 0.066557 0.692762 0.672701
Si Si2 0.700601 0.000000 0.626134
Si Si3 0.000000 0.739434 0.500000
Si Si4 0.000000 0.161630 0.000000
Si Si5 0.437536 0.593930 0.209720
Si Si6 0.171175 0.598168 0.540631
Si Si7 0.209398 0.500000 0.981071
O O1 0.248028 0.726722 0.640568
O O2 0.170964 0.640002 0.617730
O O3 0.064882 0.708712 0.560169
O O4 0.761306 0.691929 0.857916
O O5 0.687831 0.047004 0.572978
O O6 0.000000 0.000000 0.500000
O O7 0.475743 0.000000 0.826432
O O8 0.956466 0.129427 0.926877
O O9 0.404525 0.606871 0.340684
O O10 0.599841 0.545587 0.118918
O O11 0.127882 0.595482 0.343778
O O12 0.000000 0.500000 0.000000
#
# Coordination Sequence:
#
# PCOD9200499 Si02
#       7
#     8   4   4   4   8   8   4
#     4  10  21  39  63  89 121 158 203 252 305 368
#     4  12  25  38  57  86 120 161 198 237 299 354
#     4  10  22  40  62  88 120 160 202 250 312 372
#     4  10  20  37  64  88 116 152 198 253 304 364
#     4  10  20  37  58  84 115 156 201 240 296 351
#     4  10  21  39  63  85 118 160 196 242 292 368
#     4  12  23  36  53  83 124 155 202 254 285 342
#
# _framework density 19.929418999999999
#
# number of rings (size 3 to 8) (size 9 to 14) (size 15 to 20)
#    0.000    1.600    0.000    7.200    1.400    3.600 
#    3.600    0.000    0.000    0.000    0.000    0.000 
#    0.000    0.000    0.000    0.000    0.000    0.000 
#
# Total GULP energy -111402.271573 kJ/mol
# GULP energy per Si atom -5570.113579 kJ/mol
# Density = 1.988406 g / cm^3
# Si number density = 19.929419 Si / 1000 Ang^3
#
#
#
# Elastic Constant Matrix: (Units=GPa)
#
#
# Indices 1 2 3 4 5 6 
#
# 1 13.1377 2.5959 -9.9438 0.0000 2.4850 0.0000
# 2 2.5959 72.6998 14.5863 0.0000 -10.9940 0.0000
# 3 -9.9438 14.5863 101.3493 0.0000 0.5429 0.0000
# 4 0.0000 0.0000 0.0000 17.7720 0.0000 -34.0236
# 5 2.4850 -10.9940 0.5429 0.0000 25.2639 0.0000
# 6 0.0000 0.0000 0.0000 -34.0236 0.0000 33.0594
#
#
#
# Elastic Compliance Matrix: (Units=1/GPa)
#
#
# Indices 1 2 3 4 5 6 
#
# 1 0.086917 -0.006794 0.009568 0.000000 -0.011711 0.000000
# 2 -0.006794 0.015741 -0.002973 0.000000 0.007582 0.000000
# 3 0.009568 -0.002973 0.011247 0.000000 -0.002476 0.000000
# 4 0.000000 0.000000 0.000000 -0.057992 0.000000 -0.059683
# 5 -0.011711 0.007582 -0.002476 0.000000 0.044087 0.000000
# 6 0.000000 0.000000 0.000000 -0.059683 0.000000 -0.031175
#
#
# Mechanical properties :
#
#
# Convention : Reuss Voigt Hill
#
# Bulk Modulus (GPa) = 8.81005 22.40709 15.60857
# Shear Modulus (GPa) = 46.70381 27.21563 36.95972
#
# Velocity S-wave (km/s) = 4.84618 3.69941 4.31110
# Velocity P-wave (km/s) = 5.97865 5.43279 5.71224
#
# Compressibility (1/GPa) = 0.11350678
#
# Stress axis : x y z
#
# Youngs Moduli (GPa) = 11.50527 63.52905 88.91459
#
# Poissons Ratio (x) = 0.43164 -0.85077
# Poissons Ratio (y) = 0.07817 0.26431
# Poissons Ratio (z) = -0.11009 0.18885
#
# Static dielectric constant tensor:
#      x y z
#    x 1.660130 0.000000 0.020380 
#    y 0.000000 1.668770 0.000000 
#    z 0.020380 0.000000 1.688890 
# 
# From -- ./inp_files/201152.got.cif
#   From: 2010.05.17/outbox.cif.g08.bks.cpg/sg12_101_cif.got.tgz:201152.got - 2010.06.03 13:09:07.
