data_PCOD9200561
_publ_section_title
;
Structure prediction by ZEFSAII (Michael W. Deem and Ramdas Pophale) SiO2 
 PCOD9200561
Probable space group: C 2/M
;
_chemical_formula_sum "Si O2"
_cell_formula_units_Z 60
_cell_length_a 5.669137
_cell_length_b 25.202966
_cell_length_c 22.848968
_cell_angle_alpha 90.000000
_cell_angle_beta 55.518416
_cell_angle_gamma 90.000000
_cell_volume 2691.068889
_symmetry_space_group_name_H-M "C 2/M"
_symmetry_group_IT_number 12
_symmetry_cell_setting 'monoclinic'
loop_
_space_group_symop_operation_xyz
x,y,z
-x,y,-z
-x,-y,-z
x,-y,z
1/2+x,1/2+y,z
1/2-x,1/2+y,-z
1/2-x,1/2-y,-z
1/2+x,1/2-y,z
loop_
_atom_site_type_symbol
_atom_site_label
_atom_site_fract_x
_atom_site_fract_y
_atom_site_fract_z
Si Si1 0.559103 0.262284 0.200710
Si Si2 0.830118 0.557872 0.811758
Si Si3 0.657655 0.723661 0.361487
Si Si4 0.654913 0.500000 0.543466
Si Si5 0.626448 0.391063 0.418083
Si Si6 0.697360 0.060761 0.920927
Si Si7 0.230246 0.440408 0.320072
Si Si8 0.272782 0.377612 0.789600
O O1 0.386486 0.256245 0.164443
O O2 0.361480 0.231530 0.275932
O O3 0.574074 0.323508 0.217226
O O4 0.975137 0.500000 0.805718
O O5 0.533260 0.558188 0.888360
O O6 0.789299 0.555338 0.747953
O O7 0.969346 0.615458 0.801687
O O8 0.354369 0.750965 0.386033
O O9 0.606585 0.662297 0.383374
O O10 0.500000 0.500000 0.500000
O O11 0.535650 0.443603 0.583541
O O12 0.000000 0.500000 0.500000
O O13 0.500000 0.379763 0.500000
O O14 0.957350 0.407811 0.378973
O O15 0.700136 0.092942 0.860571
O O16 0.602245 0.000000 0.923635
O O17 0.500000 0.082891 0.000000
O O18 0.225182 0.500000 0.344456
O O19 0.528031 0.410593 0.282302
#
# Coordination Sequence:
#
# PCOD9200561 Si02
#       8
#     8   8   8   4   8   8   8   8
#     4  10  23  40  63  93 124 165 220 280 336 392
#     4   9  19  33  55  93 127 166 216 263 323 394
#     4  10  23  42  67  96 127 167 224 280 344 403
#     4  10  24  48  68  96 130 176 225 268 347 424
#     4  11  24  44  67  91 131 176 224 284 344 420
#     4   9  19  36  60  95 139 175 212 265 325 398
#     4  10  20  37  58  90 130 164 218 272 334 400
#     4  11  21  35  65  89 129 172 219 272 334 397
#
# _framework density 22.295971999999999
#
# number of rings (size 3 to 8) (size 9 to 14) (size 15 to 20)
#    0.000    2.000    0.667    3.600    7.467    3.200 
#    4.800    2.000    0.000    0.800    0.000    0.000 
#    0.000    0.000    0.000    0.000    0.000    0.000 
#
# Total GULP energy -167332.663818 kJ/mol
# GULP energy per Si atom -5577.755461 kJ/mol
# Density = 2.224523 g / cm^3
# Si number density = 22.295972 Si / 1000 Ang^3
#
#
#
# Elastic Constant Matrix: (Units=GPa)
#
#
# Indices 1 2 3 4 5 6 
#
# 1 105.1943 35.8584 15.9972 0.0000 -10.2555 0.0000
# 2 35.8584 122.2836 35.6128 0.0000 4.2912 0.0000
# 3 15.9972 35.6128 120.6327 0.0000 -4.9334 0.0000
# 4 0.0000 0.0000 0.0000 12.5853 0.0000 4.7504
# 5 -10.2555 4.2912 -4.9334 0.0000 18.8934 0.0000
# 6 0.0000 0.0000 0.0000 4.7504 0.0000 27.0344
#
#
#
# Elastic Compliance Matrix: (Units=1/GPa)
#
#
# Indices 1 2 3 4 5 6 
#
# 1 0.011418 -0.003538 -0.000185 0.000000 0.006953 0.000000
# 2 -0.003538 0.010187 -0.002741 0.000000 -0.004950 0.000000
# 3 -0.000185 -0.002741 0.009243 0.000000 0.002935 0.000000
# 4 0.000000 0.000000 0.000000 0.085102 0.000000 -0.014954
# 5 0.006953 -0.004950 0.002935 0.000000 0.058594 0.000000
# 6 0.000000 0.000000 0.000000 -0.014954 0.000000 0.039618
#
#
# Mechanical properties :
#
#
# Convention : Reuss Voigt Hill
#
# Bulk Modulus (GPa) = 55.80240 58.11637 56.95939
# Shear Modulus (GPa) = 21.45334 29.07878 25.26606
#
# Velocity S-wave (km/s) = 3.10531 3.61531 3.36997
# Velocity P-wave (km/s) = 6.15952 6.59922 6.38316
#
# Compressibility (1/GPa) = 0.01792038
#
# Stress axis : x y z
#
# Youngs Moduli (GPa) = 87.57770 98.16267 108.18623
#
# Poissons Ratio (x) = 0.34734 0.02004
# Poissons Ratio (y) = 0.30988 0.29650
# Poissons Ratio (z) = 0.01622 0.26903
#
# Static dielectric constant tensor:
#      x y z
#    x 1.977780 0.000000 0.003270 
#    y 0.000000 1.878550 0.000000 
#    z 0.003270 0.000000 1.787030 
# 
# From -- ./inp_files/355232.got.cif
#   From: 2010.05.17/outbox.cif.g08.bks.cpg/sg12_178_cif.got.tgz:355232.got - 2010.06.03 13:09:07.
