data_PCOD9200927
_publ_section_title
;
Structure prediction by ZEFSAII (Michael W. Deem and Ramdas Pophale) SiO2 
 PCOD9200927
Probable space group: C 2/M
;
_chemical_formula_sum "Si O2"
_cell_formula_units_Z 64
_cell_length_a 17.962044
_cell_length_b 14.258793
_cell_length_c 18.902962
_cell_angle_alpha 90.000000
_cell_angle_beta 44.926107
_cell_angle_gamma 90.000000
_cell_volume 3418.948519
_symmetry_space_group_name_H-M "C 2/M"
_symmetry_group_IT_number 12
_symmetry_cell_setting 'monoclinic'
loop_
_space_group_symop_operation_xyz
x,y,z
-x,y,-z
-x,-y,-z
x,-y,z
1/2+x,1/2+y,z
1/2-x,1/2+y,-z
1/2-x,1/2-y,-z
1/2+x,1/2-y,z
loop_
_atom_site_type_symbol
_atom_site_label
_atom_site_fract_x
_atom_site_fract_y
_atom_site_fract_z
Si Si1 0.873108 0.234024 0.919595
Si Si2 0.749739 0.392541 0.253235
Si Si3 0.622182 0.255871 0.438024
Si Si4 0.511004 0.611713 0.912326
Si Si5 0.505119 0.890132 0.912305
Si Si6 0.606404 0.606341 0.578384
Si Si7 0.306935 0.611727 0.320991
Si Si8 0.381055 0.394981 0.787316
O O1 0.935085 0.322195 0.910800
O O2 0.901516 0.192885 0.823778
O O3 0.905422 0.147425 0.947057
O O4 0.750000 0.250000 0.000000
O O5 0.722645 0.500000 0.289530
O O6 0.675497 0.321720 0.343589
O O7 0.725516 0.383394 0.185792
O O8 0.871646 0.377803 0.189000
O O9 0.500000 0.238761 0.500000
O O10 0.633601 0.314561 0.503365
O O11 0.696014 0.164466 0.390755
O O12 0.517369 0.500000 0.909272
O O13 0.609218 0.643596 0.796392
O O14 0.500000 0.646138 0.000000
O O15 0.476559 0.000000 0.921984
O O16 0.500000 0.870282 0.000000
O O17 0.643377 0.500000 0.534683
O O18 0.645932 0.626711 0.631775
O O19 0.479785 0.602414 0.668145
O O20 0.294415 0.500000 0.320997
O O21 0.380051 0.500000 0.822330
#
# Coordination Sequence:
#
# PCOD9200927 Si02
#       8
#     8   8   8   8   8   8   8   8
#     4  12  23  34  57  89 118 152 193 244 294 356
#     4  10  21  37  60  87 117 152 195 246 297 357
#     4  12  23  36  60  91 120 153 197 254 299 353
#     4  10  21  40  64  88 115 153 201 246 288 345
#     4  10  22  41  60  82 119 164 201 240 299 364
#     4  10  20  38  62  86 116 152 195 247 301 356
#     4  10  22  41  62  84 117 162 202 241 296 359
#     4  10  20  37  60  86 116 153 195 243 300 354
#
# _framework density 18.719206
#
# number of rings (size 3 to 8) (size 9 to 14) (size 15 to 20)
#    0.000    1.500    2.500    3.000    0.000    3.750 
#    0.000    0.000    0.000    0.750    0.000    0.000 
#    0.000    0.000    0.000    0.000    0.000    0.000 
#
# Total GULP energy -178450.928830 kJ/mol
# GULP energy per Si atom -5576.591526 kJ/mol
# Density = 1.867660 g / cm^3
# Si number density = 18.719206 Si / 1000 Ang^3
#
#
#
# Elastic Constant Matrix: (Units=GPa)
#
#
# Indices 1 2 3 4 5 6 
#
# 1 111.8674 56.4337 49.6547 0.0000 -10.8005 0.0000
# 2 56.4337 94.8880 45.3519 0.0000 1.9357 0.0000
# 3 49.6547 45.3519 80.9785 0.0000 -1.3055 0.0000
# 4 0.0000 0.0000 0.0000 8.5370 0.0000 -10.9628
# 5 -10.8005 1.9357 -1.3055 0.0000 30.7576 0.0000
# 6 0.0000 0.0000 0.0000 -10.9628 0.0000 20.1934
#
#
#
# Elastic Compliance Matrix: (Units=1/GPa)
#
#
# Indices 1 2 3 4 5 6 
#
# 1 0.015242 -0.006491 -0.005622 0.000000 0.005522 0.000000
# 2 -0.006491 0.017203 -0.005713 0.000000 -0.003604 0.000000
# 3 -0.005622 -0.005713 0.018983 0.000000 -0.000809 0.000000
# 4 0.000000 0.000000 0.000000 0.386792 0.000000 0.209986
# 5 0.005522 -0.003604 -0.000809 0.000000 0.034644 0.000000
# 6 0.000000 0.000000 0.000000 0.209986 0.000000 0.163520
#
#
# Mechanical properties :
#
#
# Convention : Reuss Voigt Hill
#
# Bulk Modulus (GPa) = 63.38376 65.62383 64.50380
# Shear Modulus (GPa) = 7.38232 20.98385 14.18308
#
# Velocity S-wave (km/s) = 1.98803 3.35174 2.75558
# Velocity P-wave (km/s) = 6.26127 7.07898 6.68264
#
# Compressibility (1/GPa) = 0.01577691
#
# Stress axis : x y z
#
# Youngs Moduli (GPa) = 65.60760 58.12990 52.67971
#
# Poissons Ratio (x) = 0.37730 0.29617
# Poissons Ratio (y) = 0.42584 0.30094
# Poissons Ratio (z) = 0.36885 0.33207
#
# Static dielectric constant tensor:
#      x y z
#    x 1.681780 0.000000 0.025530 
#    y 0.000000 1.669590 0.000000 
#    z 0.025530 0.000000 1.688400 
# 
# From -- ./inp_files/278141.got.cif
#   From: 2010.05.17/outbox.cif.g08.bks.cpg/sg12_140_cif.got.tgz:278141.got - 2010.06.03 13:09:07.
