data_PCOD9200235
_publ_section_title
;
Structure prediction by ZEFSAII (Michael W. Deem and Ramdas Pophale) SiO2 
 PCOD9200235
Probable space group: C 2/M
;
_chemical_formula_sum "Si O2"
_cell_formula_units_Z 56
_cell_length_a 26.279549
_cell_length_b 22.920827
_cell_length_c 5.060343
_cell_angle_alpha 90.000000
_cell_angle_beta 95.378297
_cell_angle_gamma 90.000000
_cell_volume 3034.673422
_symmetry_space_group_name_H-M "C 2/M"
_symmetry_group_IT_number 12
_symmetry_cell_setting 'monoclinic'
loop_
_space_group_symop_operation_xyz
x,y,z
-x,y,-z
-x,-y,-z
x,-y,z
1/2+x,1/2+y,z
1/2-x,1/2+y,-z
1/2-x,1/2-y,-z
1/2+x,1/2-y,z
loop_
_atom_site_type_symbol
_atom_site_label
_atom_site_fract_x
_atom_site_fract_y
_atom_site_fract_z
Si Si1 0.259123 0.434233 0.243499
Si Si2 0.710789 0.845023 0.607061
Si Si3 0.848182 0.435953 0.123701
Si Si4 0.943259 0.297906 0.427021
Si Si5 0.342581 0.733073 0.541703
Si Si6 0.443249 0.122198 0.924898
Si Si7 0.698165 0.669034 0.994335
O O1 0.273843 0.500000 0.321938
O O2 0.247257 0.391142 0.479512
O O3 0.204194 0.437298 0.070061
O O4 0.299040 0.399525 0.079571
O O5 0.689617 0.792464 0.421788
O O6 0.744778 0.819720 0.862479
O O7 0.663050 0.882731 0.685188
O O8 0.853789 0.500000 0.252954
O O9 0.897197 0.420783 0.972539
O O10 0.898591 0.253781 0.483055
O O11 0.938606 0.323466 0.129155
O O12 0.000000 0.272697 0.500000
O O13 0.940601 0.352212 0.630266
O O14 0.338753 0.691369 0.791935
O O15 0.316217 0.702667 0.278088
O O16 0.500000 0.096958 0.000000
#
# Coordination Sequence:
#
# PCOD9200235 Si02
#       7
#     8   8   8   8   8   8   8
#     4  10  22  39  56  77 114 153 189 224 268 329
#     4  11  21  35  57  77 113 151 185 226 275 327
#     4  10  21  34  52  78 105 148 200 238 275 317
#     4  10  21  37  58  80 107 146 182 221 283 341
#     4  12  22  35  58  82 116 140 179 231 276 326
#     4  10  20  37  55  76 104 142 191 238 284 323
#     4  11  24  36  54  87 110 145 182 224 274 325
#
# _framework density 18.453385999999998
#
# number of rings (size 3 to 8) (size 9 to 14) (size 15 to 20)
#    0.000    1.429    2.857    3.000    4.000    0.857 
#    0.000    0.000    0.000    2.571    0.000    0.000 
#    0.000    3.429    0.000    0.000    0.000    0.000 
#
# Total GULP energy -156329.412647 kJ/mol
# GULP energy per Si atom -5583.193309 kJ/mol
# Density = 1.841138 g / cm^3
# Si number density = 18.453386 Si / 1000 Ang^3
#
#
#
# Elastic Constant Matrix: (Units=GPa)
#
#
# Indices 1 2 3 4 5 6 
#
# 1 60.5279 39.6281 -2.8665 0.0000 -7.7978 0.0000
# 2 39.6281 85.0970 20.9444 0.0000 -1.3108 0.0000
# 3 -2.8665 20.9444 67.1974 0.0000 -7.8541 0.0000
# 4 0.0000 0.0000 0.0000 16.6937 0.0000 -1.6203
# 5 -7.7978 -1.3108 -7.8541 0.0000 20.8768 0.0000
# 6 0.0000 0.0000 0.0000 -1.6203 0.0000 13.4020
#
#
#
# Elastic Compliance Matrix: (Units=1/GPa)
#
#
# Indices 1 2 3 4 5 6 
#
# 1 0.028015 -0.014626 0.007186 0.000000 0.012249 0.000000
# 2 -0.014626 0.020374 -0.007806 0.000000 -0.007121 0.000000
# 3 0.007186 -0.007806 0.018700 0.000000 0.009229 0.000000
# 4 0.000000 0.000000 0.000000 0.060614 0.000000 0.007328
# 5 0.012249 -0.007121 0.009229 0.000000 0.055500 0.000000
# 6 0.000000 0.000000 0.000000 0.007328 0.000000 0.075502
#
#
# Mechanical properties :
#
#
# Convention : Reuss Voigt Hill
#
# Bulk Modulus (GPa) = 27.32595 36.47047 31.89821
# Shear Modulus (GPa) = 16.58935 20.53558 18.56246
#
# Velocity S-wave (km/s) = 3.00156 3.33954 3.17505
# Velocity P-wave (km/s) = 5.18196 5.88867 5.54659
#
# Compressibility (1/GPa) = 0.03659526
#
# Stress axis : x y z
#
# Youngs Moduli (GPa) = 35.69453 49.08197 53.47623
#
# Poissons Ratio (x) = 0.71788 -0.38425
# Poissons Ratio (y) = 0.52207 0.41746
# Poissons Ratio (z) = -0.25648 0.38316
#
# Static dielectric constant tensor:
#      x y z
#    x 1.649460 0.000000 -0.011650 
#    y 0.000000 1.653770 0.000000 
#    z -0.011650 0.000000 1.692890 
# 
# From -- ./inp_files/29053.got.cif
#   From: 2010.05.17/outbox.cif.g08.bks.cpg/sg12_15_cif.got.tgz:29053.got - 2010.06.03 13:09:07.
