data_PCOD9200928
_publ_section_title
;
Structure prediction by ZEFSAII (Michael W. Deem and Ramdas Pophale) SiO2 
 PCOD9200928
Probable space group: C 2/M
;
_chemical_formula_sum "Si O2"
_cell_formula_units_Z 56
_cell_length_a 18.498371
_cell_length_b 13.378176
_cell_length_c 11.564750
_cell_angle_alpha 90.000000
_cell_angle_beta 105.420072
_cell_angle_gamma 90.000000
_cell_volume 2758.955630
_symmetry_space_group_name_H-M "C 2/M"
_symmetry_group_IT_number 12
_symmetry_cell_setting 'monoclinic'
loop_
_space_group_symop_operation_xyz
x,y,z
-x,y,-z
-x,-y,-z
x,-y,z
1/2+x,1/2+y,z
1/2-x,1/2+y,-z
1/2-x,1/2-y,-z
1/2+x,1/2-y,z
loop_
_atom_site_type_symbol
_atom_site_label
_atom_site_fract_x
_atom_site_fract_y
_atom_site_fract_z
Si Si1 0.452677 0.270986 0.369887
Si Si2 0.408048 0.323468 0.692990
Si Si3 0.649126 0.235263 0.874347
Si Si4 0.150401 0.386016 0.303921
Si Si5 0.410502 0.612561 0.956241
Si Si6 0.180361 0.884863 0.556755
Si Si7 0.720951 0.112405 0.092937
O O1 0.500000 0.228354 0.500000
O O2 0.510441 0.345935 0.327965
O O3 0.412590 0.210652 0.248742
O O4 0.381890 0.324928 0.398828
O O5 0.403912 0.202730 0.683401
O O6 0.394314 0.355914 0.817807
O O7 0.344702 0.370637 0.585743
O O8 0.717197 0.303164 0.854714
O O9 0.616970 0.307422 0.961869
O O10 0.684273 0.141078 0.955262
O O11 0.132008 0.500000 0.331320
O O12 0.233037 0.358217 0.387317
O O13 0.160224 0.384193 0.169531
O O14 0.381804 0.500000 0.966625
O O15 0.500000 0.609834 0.000000
O O16 0.174717 0.000000 0.589534
O O17 0.752102 0.000000 0.107093
#
# Coordination Sequence:
#
# PCOD9200928 Si02
#       7
#     8   8   8   8   8   8   8
#     4  10  22  36  58  85 116 156 195 237 291 351
#     4  11  21  37  55  85 122 153 191 240 297 351
#     4  11  20  38  59  82 121 150 192 249 292 348
#     4  10  20  37  60  86 116 154 202 244 286 344
#     4  11  22  33  51  80 114 149 177 224 296 353
#     4  10  21  37  59  86 116 156 201 240 285 349
#     4  10  21  36  60  87 112 153 202 244 289 348
#
# _framework density 20.297535
#
# number of rings (size 3 to 8) (size 9 to 14) (size 15 to 20)
#    0.000    1.571    4.286    1.286    0.000    3.714 
#    0.000    0.714    0.000   10.286    0.000    0.000 
#    0.000    0.000    0.000    0.000    0.000    0.000 
#
# Total GULP energy -156134.484461 kJ/mol
# GULP energy per Si atom -5576.231588 kJ/mol
# Density = 2.025134 g / cm^3
# Si number density = 20.297535 Si / 1000 Ang^3
#
#
#
# Elastic Constant Matrix: (Units=GPa)
#
#
# Indices 1 2 3 4 5 6 
#
# 1 28.8890 9.1897 13.9841 0.0000 -2.7491 0.0000
# 2 9.1897 49.4920 6.2413 0.0000 3.9620 0.0000
# 3 13.9841 6.2413 136.9482 0.0000 19.2674 0.0000
# 4 0.0000 0.0000 0.0000 17.9226 0.0000 2.0877
# 5 -2.7491 3.9620 19.2674 0.0000 34.9798 0.0000
# 6 0.0000 0.0000 0.0000 2.0877 0.0000 13.0821
#
#
#
# Elastic Compliance Matrix: (Units=1/GPa)
#
#
# Indices 1 2 3 4 5 6 
#
# 1 0.039818 -0.007329 -0.004649 0.000000 0.006520 0.000000
# 2 -0.007329 0.021794 0.000199 0.000000 -0.003154 0.000000
# 3 -0.004649 0.000199 0.008479 0.000000 -0.005058 0.000000
# 4 0.000000 0.000000 0.000000 0.056852 0.000000 -0.009073
# 5 0.006520 -0.003154 -0.005058 0.000000 0.032244 0.000000
# 6 0.000000 0.000000 0.000000 -0.009073 0.000000 0.077888
#
#
# Mechanical properties :
#
#
# Convention : Reuss Voigt Hill
#
# Bulk Modulus (GPa) = 21.49065 30.46218 25.97642
# Shear Modulus (GPa) = 18.10650 25.59118 21.84884
#
# Velocity S-wave (km/s) = 2.98997 3.55463 3.28446
# Velocity P-wave (km/s) = 4.74665 5.64691 5.21624
#
# Compressibility (1/GPa) = 0.04653185
#
# Stress axis : x y z
#
# Youngs Moduli (GPa) = 25.11456 45.88518 117.93300
#
# Poissons Ratio (x) = 0.33629 0.54829
# Poissons Ratio (y) = 0.18406 -0.02346
# Poissons Ratio (z) = 0.11676 -0.00913
#
# Static dielectric constant tensor:
#      x y z
#    x 1.748520 0.000000 -0.002730 
#    y 0.000000 1.708450 0.000000 
#    z -0.002730 0.000000 1.760100 
# 
# From -- ./inp_files/165617.got.cif
#   From: 2010.05.17/outbox.cif.g08.bks.cpg/sg12_83_cif.got.tgz:165617.got - 2010.06.03 13:09:07.
