data_PCOD9200647
_publ_section_title
;
Structure prediction by ZEFSAII (Michael W. Deem and Ramdas Pophale) SiO2 
 PCOD9200647
Probable space group: C 2/M
;
_chemical_formula_sum "Si O2"
_cell_formula_units_Z 64
_cell_length_a 14.766474
_cell_length_b 8.622112
_cell_length_c 25.448856
_cell_angle_alpha 90.000000
_cell_angle_beta 91.471953
_cell_angle_gamma 90.000000
_cell_volume 3239.033180
_symmetry_space_group_name_H-M "C 2/M"
_symmetry_group_IT_number 12
_symmetry_cell_setting 'monoclinic'
loop_
_space_group_symop_operation_xyz
x,y,z
-x,y,-z
-x,-y,-z
x,-y,z
1/2+x,1/2+y,z
1/2-x,1/2+y,-z
1/2-x,1/2-y,-z
1/2+x,1/2-y,z
loop_
_atom_site_type_symbol
_atom_site_label
_atom_site_fract_x
_atom_site_fract_y
_atom_site_fract_z
Si Si1 0.004654 0.812923 0.084112
Si Si2 0.954860 0.315086 0.801082
Si Si3 0.812198 0.818099 0.454908
Si Si4 0.703721 0.685177 0.263211
Si Si5 0.832699 0.816942 0.619126
Si Si6 0.519655 0.185453 0.594945
Si Si7 0.648582 0.687100 0.998184
Si Si8 0.908582 0.311195 0.288191
O O1 0.015683 0.749057 0.142373
O O2 0.089166 0.765868 0.048203
O O3 0.004542 0.000000 0.085823
O O4 0.912371 0.764313 0.052908
O O5 0.959277 0.500000 0.802259
O O6 0.854397 0.263264 0.782976
O O7 0.021839 0.258984 0.755611
O O8 0.750000 0.750000 0.500000
O O9 0.751841 0.780158 0.402873
O O10 0.908164 0.735559 0.447657
O O11 0.825237 0.000000 0.462403
O O12 0.704382 0.500000 0.254675
O O13 0.656323 0.714409 0.318859
O O14 0.807147 0.738727 0.271745
O O15 0.922861 0.767938 0.589966
O O16 0.813268 0.000000 0.612168
O O17 0.560643 0.233129 0.652690
O O18 0.507582 0.000000 0.594062
O O19 0.652148 0.500000 0.998019
O O20 0.750000 0.750000 0.000000
O O21 0.907668 0.500000 0.288710
#
# Coordination Sequence:
#
# PCOD9200647 Si02
#       8
#     8   8   8   8   8   8   8   8
#     4   9  20  39  57  80 117 159 192 234 295 356
#     4  11  22  36  56  87 121 154 197 248 292 342
#     4  12  26  44  65  92 122 157 200 251 305 362
#     4  10  20  37  59  83 115 158 197 236 291 355
#     4  11  22  39  64  93 121 157 200 244 299 362
#     4  11  21  40  65  90 122 158 196 247 300 356
#     4   9  19  37  62  85 112 151 197 241 293 351
#     4   9  19  36  57  82 115 155 194 235 291 348
#
# _framework density 19.758983000000001
#
# number of rings (size 3 to 8) (size 9 to 14) (size 15 to 20)
#    0.000    1.750    2.500    3.000    0.000    3.000 
#    0.000    8.750    0.000    0.000    0.000    0.000 
#    0.000    0.000    0.000    0.000    0.000    0.000 
#
# Total GULP energy -178779.881503 kJ/mol
# GULP energy per Si atom -5586.871297 kJ/mol
# Density = 1.971401 g / cm^3
# Si number density = 19.758983 Si / 1000 Ang^3
#
#
#
# Elastic Constant Matrix: (Units=GPa)
#
#
# Indices 1 2 3 4 5 6 
#
# 1 89.3593 -0.5833 -8.9571 0.0000 -3.4769 0.0000
# 2 -0.5833 28.0632 8.2710 0.0000 -0.4470 0.0000
# 3 -8.9571 8.2710 50.3979 0.0000 0.3224 0.0000
# 4 0.0000 0.0000 0.0000 29.0578 0.0000 0.7746
# 5 -3.4769 -0.4470 0.3224 0.0000 17.3330 0.0000
# 6 0.0000 0.0000 0.0000 0.7746 0.0000 32.2245
#
#
#
# Elastic Compliance Matrix: (Units=1/GPa)
#
#
# Indices 1 2 3 4 5 6 
#
# 1 0.011485 -0.000339 0.002082 0.000000 0.002256 0.000000
# 2 -0.000339 0.037475 -0.006217 0.000000 0.001014 0.000000
# 3 0.002082 -0.006217 0.021233 0.000000 -0.000137 0.000000
# 4 0.000000 0.000000 0.000000 0.034436 0.000000 -0.000828
# 5 0.002256 0.001014 -0.000137 0.000000 0.058175 0.000000
# 6 0.000000 0.000000 0.000000 -0.000828 0.000000 0.031052
#
#
# Mechanical properties :
#
#
# Convention : Reuss Voigt Hill
#
# Bulk Modulus (GPa) = 16.32747 18.36461 17.34604
# Shear Modulus (GPa) = 22.39948 26.99571 24.69759
#
# Velocity S-wave (km/s) = 3.37060 3.70029 3.53929
# Velocity P-wave (km/s) = 4.84037 5.25078 5.04975
#
# Compressibility (1/GPa) = 0.06124648
#
# Stress axis : x y z
#
# Youngs Moduli (GPa) = 87.06935 26.68431 47.09565
#
# Poissons Ratio (x) = 0.00905 -0.09807
# Poissons Ratio (y) = 0.02952 0.29279
# Poissons Ratio (z) = -0.18132 0.16590
#
# Static dielectric constant tensor:
#      x y z
#    x 1.694260 0.000000 -0.001370 
#    y 0.000000 1.665690 0.000000 
#    z -0.001370 0.000000 1.703910 
# 
# From -- ./inp_files/338661.got.cif
#   From: 2010.05.17/outbox.cif.g08.bks.cpg/sg12_170_cif.got.tgz:338661.got - 2010.06.03 13:09:07.
