data_PCOD9200689
_publ_section_title
;
Structure prediction by ZEFSAII (Michael W. Deem and Ramdas Pophale) SiO2 
 PCOD9200689
Probable space group: C 2/M
;
_chemical_formula_sum "Si O2"
_cell_formula_units_Z 56
_cell_length_a 24.700392
_cell_length_b 16.539867
_cell_length_c 10.115882
_cell_angle_alpha 90.000000
_cell_angle_beta 132.813833
_cell_angle_gamma 90.000000
_cell_volume 3031.647422
_symmetry_space_group_name_H-M "C 2/M"
_symmetry_group_IT_number 12
_symmetry_cell_setting 'monoclinic'
loop_
_space_group_symop_operation_xyz
x,y,z
-x,y,-z
-x,-y,-z
x,-y,z
1/2+x,1/2+y,z
1/2-x,1/2+y,-z
1/2-x,1/2-y,-z
1/2+x,1/2-y,z
loop_
_atom_site_type_symbol
_atom_site_label
_atom_site_fract_x
_atom_site_fract_y
_atom_site_fract_z
Si Si1 0.975897 0.184535 0.320473
Si Si2 0.445214 0.406677 0.786366
Si Si3 0.398274 0.187805 0.490137
Si Si4 0.433551 0.907676 0.809874
Si Si5 0.832092 0.284875 0.107822
Si Si6 0.194594 0.192785 0.492561
Si Si7 0.810296 0.408096 0.831703
O O1 0.890563 0.211827 0.177716
O O2 0.000000 0.146276 0.500000
O O3 0.007522 0.129515 0.256598
O O4 0.023527 0.267364 0.394094
O O5 0.422745 0.500000 0.724482
O O6 0.374601 0.348807 0.695710
O O7 0.500000 0.405360 0.000000
O O8 0.409155 0.126077 0.628318
O O9 0.365486 0.168269 0.291801
O O10 0.340744 0.252023 0.453265
O O11 0.368994 0.905722 0.809959
O O12 0.456488 0.000000 0.821637
O O13 0.500000 0.864487 0.000000
O O14 0.750000 0.250000 0.000000
O O15 0.829366 0.345172 0.978945
O O16 0.250000 0.250000 0.500000
O O17 0.236806 0.121720 0.637591
O O18 0.805744 0.500000 0.873773
#
# Coordination Sequence:
#
# PCOD9200689 Si02
#       7
#     8   8   8   8   8   8   8
#     4   9  21  38  59  85 114 157 202 245 300 366
#     4  10  23  40  61  90 122 159 206 260 311 362
#     4  10  20  37  59  85 115 153 202 246 296 361
#     4  10  21  37  58  86 119 155 196 243 301 367
#     4  11  22  37  60  87 119 154 206 255 300 370
#     4  11  21  37  62  90 118 159 203 253 309 364
#     4  11  23  38  58  87 124 160 196 248 312 368
#
# _framework density 18.471805
#
# number of rings (size 3 to 8) (size 9 to 14) (size 15 to 20)
#    0.000    1.714    2.857    1.286    2.000    3.143 
#    0.000    0.714    0.000    5.143    0.000    0.000 
#    0.000    0.000    0.000    0.000    0.000    0.000 
#
# Total GULP energy -156020.950747 kJ/mol
# GULP energy per Si atom -5572.176812 kJ/mol
# Density = 1.842976 g / cm^3
# Si number density = 18.471805 Si / 1000 Ang^3
#
#
#
# Elastic Constant Matrix: (Units=GPa)
#
#
# Indices 1 2 3 4 5 6 
#
# 1 93.2697 30.4967 33.3464 0.0000 5.6127 0.0000
# 2 30.4967 61.1360 38.4801 0.0000 -8.5557 0.0000
# 3 33.3464 38.4801 111.6721 0.0000 -7.6807 0.0000
# 4 0.0000 0.0000 0.0000 13.3084 0.0000 10.6231
# 5 5.6127 -8.5557 -7.6807 0.0000 36.9584 0.0000
# 6 0.0000 0.0000 0.0000 10.6231 0.0000 4.2637
#
#
#
# Elastic Compliance Matrix: (Units=1/GPa)
#
#
# Indices 1 2 3 4 5 6 
#
# 1 0.013732 -0.005938 -0.002326 0.000000 -0.003943 0.000000
# 2 -0.005938 0.023882 -0.006101 0.000000 0.005162 0.000000
# 3 -0.002326 -0.006101 0.011848 0.000000 0.001403 0.000000
# 4 0.000000 0.000000 0.000000 -0.075990 0.000000 0.189333
# 5 -0.003943 0.005162 0.001403 0.000000 0.029143 0.000000
# 6 0.000000 0.000000 0.000000 0.189333 0.000000 -0.237192
#
#
# Mechanical properties :
#
#
# Convention : Reuss Voigt Hill
#
# Bulk Modulus (GPa) = 48.23364 52.30269 50.26816
# Shear Modulus (GPa) = -25.13354 21.82307 -1.65523
#
# Velocity S-wave (km/s) = -3.69269 3.44092 -0.94765
# Velocity P-wave (km/s) = 2.82620 6.64552 5.10638
#
# Compressibility (1/GPa) = 0.02073242
#
# Stress axis : x y z
#
# Youngs Moduli (GPa) = 72.82296 41.87333 84.40255
#
# Poissons Ratio (x) = 0.24865 0.19628
# Poissons Ratio (y) = 0.43243 0.51493
# Poissons Ratio (z) = 0.16936 0.25546
#
# Static dielectric constant tensor:
#      x y z
#    x 1.853970 0.000000 0.345070 
#    y 0.000000 1.638970 0.000000 
#    z 0.345070 0.000000 2.277270 
# 
# From -- ./inp_files/98191.got.cif
#   From: 2010.05.17/outbox.cif.g08.bks.cpg/sg12_50_cif.got.tgz:98191.got - 2010.06.03 13:09:07.
