data_PCOD9200395
_publ_section_title
;
Structure prediction by ZEFSAII (Michael W. Deem and Ramdas Pophale) SiO2 
 PCOD9200395
Probable space group: C 2/M
;
_chemical_formula_sum "Si O2"
_cell_formula_units_Z 42
_cell_length_a 20.145855
_cell_length_b 12.548353
_cell_length_c 11.132606
_cell_angle_alpha 90.000000
_cell_angle_beta 39.195537
_cell_angle_gamma 90.000000
_cell_volume 1778.545591
_symmetry_space_group_name_H-M "C 2/M"
_symmetry_group_IT_number 12
_symmetry_cell_setting 'monoclinic'
loop_
_space_group_symop_operation_xyz
x,y,z
-x,y,-z
-x,-y,-z
x,-y,z
1/2+x,1/2+y,z
1/2-x,1/2+y,-z
1/2-x,1/2-y,-z
1/2+x,1/2-y,z
loop_
_atom_site_type_symbol
_atom_site_label
_atom_site_fract_x
_atom_site_fract_y
_atom_site_fract_z
Si Si1 0.897526 0.318626 0.262436
Si Si2 0.675000 0.500000 0.291934
Si Si3 0.205417 0.874848 0.709527
Si Si4 0.822814 0.234522 0.726306
Si Si5 0.468177 0.732498 0.738516
Si Si6 0.980423 0.000000 0.722234
Si Si7 0.500000 0.000000 0.000000
O O1 0.880486 0.203997 0.226384
O O2 0.801312 0.354682 0.481435
O O3 0.998766 0.315107 0.207322
O O4 0.912437 0.407686 0.144579
O O5 0.726539 0.615948 0.209282
O O6 0.602836 0.500000 0.512584
O O7 0.591346 0.500000 0.297843
O O8 0.248803 0.823257 0.772476
O O9 0.180833 0.000000 0.752016
O O10 0.928318 0.227232 0.494002
O O11 0.869682 0.257745 0.792251
O O12 0.457279 0.614409 0.810274
#
# Coordination Sequence:
#
# PCOD9200395 Si02
#       7
#     8   4   8   8   8   4   2
#     4  10  22  37  60  83 121 157 209 243 300 353
#     4   7  10  19  36  69 104 143 163 213 278 356
#     4  10  20  37  57  93 120 155 192 260 304 353
#     4   8  14  26  48  82 122 143 191 243 310 341
#     4   8  14  27  47  83 111 154 191 248 290 353
#     4   7  10  18  40  65 106 130 173 220 284 325
#     4  12  24  46  58  84 116 168 208 244 284 388
#
# _framework density 23.614799000000001
#
# number of rings (size 3 to 8) (size 9 to 14) (size 15 to 20)
#    0.000    3.238    0.952    2.286    1.333    0.762 
#    6.857    2.381    0.000    1.143    0.000    0.000 
#    0.000    0.000    0.000    0.000    0.000    0.000 
#
# Total GULP energy -116953.675693 kJ/mol
# GULP energy per Si atom -5569.222652 kJ/mol
# Density = 2.356105 g / cm^3
# Si number density = 23.614799 Si / 1000 Ang^3
#
#
#
# Elastic Constant Matrix: (Units=GPa)
#
#
# Indices 1 2 3 4 5 6 
#
# 1 118.6210 60.2509 23.3768 0.0000 5.6873 0.0000
# 2 60.2509 177.1497 28.3442 0.0000 10.1874 0.0000
# 3 23.3768 28.3442 52.5536 0.0000 -7.7850 0.0000
# 4 0.0000 0.0000 0.0000 8.8240 0.0000 -11.1047
# 5 5.6873 10.1874 -7.7850 0.0000 12.7621 0.0000
# 6 0.0000 0.0000 0.0000 -11.1047 0.0000 23.7970
#
#
#
# Elastic Compliance Matrix: (Units=1/GPa)
#
#
# Indices 1 2 3 4 5 6 
#
# 1 0.010886 -0.002744 -0.004130 0.000000 -0.005180 0.000000
# 2 -0.002744 0.007634 -0.003978 0.000000 -0.007298 0.000000
# 3 -0.004130 -0.003978 0.026114 0.000000 0.020946 0.000000
# 4 0.000000 0.000000 0.000000 0.274573 0.000000 0.128128
# 5 -0.005180 -0.007298 0.020946 0.000000 0.099269 0.000000
# 6 0.000000 0.000000 0.000000 0.128128 0.000000 0.101812
#
#
# Mechanical properties :
#
#
# Convention : Reuss Voigt Hill
#
# Bulk Modulus (GPa) = 43.61021 63.58536 53.59778
# Shear Modulus (GPa) = 9.09694 24.83344 16.96519
#
# Velocity S-wave (km/s) = 1.96484 3.24636 2.68323
# Velocity P-wave (km/s) = 4.86363 6.40596 5.68732
#
# Compressibility (1/GPa) = 0.02293041
#
# Stress axis : x y z
#
# Youngs Moduli (GPa) = 91.86002 130.98693 38.29430
#
# Poissons Ratio (x) = 0.35940 0.15815
# Poissons Ratio (y) = 0.25205 0.15234
# Poissons Ratio (z) = 0.37937 0.52108
#
# Static dielectric constant tensor:
#      x y z
#    x 1.881100 0.000000 0.016760 
#    y 0.000000 2.129880 0.000000 
#    z 0.016760 0.000000 2.007080 
# 
# From -- ./inp_files/164651.got.cif
#   From: 2010.05.17/outbox.cif.g08.bks.cpg/sg12_83_cif.got.tgz:164651.got - 2010.06.03 13:09:07.
