data_PCOD9200018
_publ_section_title
;
Structure prediction by ZEFSAII (Michael W. Deem and Ramdas Pophale) SiO2 
 PCOD9200018
Probable space group: C 2/M
;
_chemical_formula_sum "Si O2"
_cell_formula_units_Z 40
_cell_length_a 15.169842
_cell_length_b 26.156537
_cell_length_c 7.642087
_cell_angle_alpha 90.000000
_cell_angle_beta 142.527309
_cell_angle_gamma 90.000000
_cell_volume 1844.805177
_symmetry_space_group_name_H-M "C 2/M"
_symmetry_group_IT_number 12
_symmetry_cell_setting 'monoclinic'
loop_
_space_group_symop_operation_xyz
x,y,z
-x,y,-z
-x,-y,-z
x,-y,z
1/2+x,1/2+y,z
1/2-x,1/2+y,-z
1/2-x,1/2-y,-z
1/2+x,1/2-y,z
loop_
_atom_site_type_symbol
_atom_site_label
_atom_site_fract_x
_atom_site_fract_y
_atom_site_fract_z
Si Si1 0.787944 0.390874 0.814140
Si Si2 0.329302 0.500000 0.250287
Si Si3 0.287976 0.701622 0.798411
Si Si4 0.399071 0.701885 0.567084
Si Si5 0.148069 0.500000 0.626117
Si Si6 0.894991 0.390162 0.586264
O O1 0.729741 0.448194 0.752526
O O2 0.661960 0.348629 0.624771
O O3 0.849518 0.382864 0.715802
O O4 0.931881 0.383235 0.158704
O O5 0.500000 0.500000 0.500000
O O6 0.272751 0.500000 0.963722
O O7 0.346824 0.701765 0.689363
O O8 0.179011 0.749176 0.640206
O O9 0.197598 0.649497 0.672420
O O10 0.427628 0.704942 0.142936
O O11 0.147293 0.448180 0.518320
O O12 0.000000 0.500000 0.500000
#
# Coordination Sequence:
#
# PCOD9200018 Si02
#       6
#     8   4   8   8   4   8
#     4  10  20  38  59  87 115 150 191 237 282 333
#     4  12  27  41  57  81 118 155 189 236 291 340
#     4   9  17  30  52  85 115 149 183 233 284 333
#     4   9  17  30  52  83 119 146 185 231 284 334
#     4  12  23  41  59  83 112 154 195 234 284 343
#     4  10  20  36  63  86 113 148 195 238 278 335
#
# _framework density 21.682506
#
# number of rings (size 3 to 8) (size 9 to 14) (size 15 to 20)
#    0.000    2.000    2.000    1.800    2.800    6.400 
#    0.000    1.000    0.000    2.400    0.000    0.000 
#    0.000    0.000    0.000    0.000    0.000    0.000 
#
# Total GULP energy -111769.048871 kJ/mol
# GULP energy per Si atom -5588.452444 kJ/mol
# Density = 2.163316 g / cm^3
# Si number density = 21.682506 Si / 1000 Ang^3
#
#
#
# Elastic Constant Matrix: (Units=GPa)
#
#
# Indices 1 2 3 4 5 6 
#
# 1 56.8484 11.9960 27.1487 0.0000 10.4392 0.0000
# 2 11.9960 189.1257 108.9275 0.0000 26.0593 0.0000
# 3 27.1487 108.9275 225.8651 0.0000 49.1711 0.0000
# 4 0.0000 0.0000 0.0000 38.9474 0.0000 8.5368
# 5 10.4392 26.0593 49.1711 0.0000 27.0999 0.0000
# 6 0.0000 0.0000 0.0000 8.5368 0.0000 0.7293
#
#
#
# Elastic Compliance Matrix: (Units=1/GPa)
#
#
# Indices 1 2 3 4 5 6 
#
# 1 0.019116 0.000245 -0.001259 0.000000 -0.005316 0.000000
# 2 0.000245 0.007342 -0.003327 0.000000 -0.001118 0.000000
# 3 -0.001259 -0.003327 0.008895 0.000000 -0.012455 0.000000
# 4 0.000000 0.000000 0.000000 -0.016398 0.000000 0.191954
# 5 -0.005316 -0.001118 -0.012455 0.000000 0.062621 0.000000
# 6 0.000000 0.000000 0.000000 0.191954 0.000000 -0.875748
#
#
# Mechanical properties :
#
#
# Convention : Reuss Voigt Hill
#
# Bulk Modulus (GPa) = 37.49326 85.33153 61.41239
# Shear Modulus (GPa) = -6.43832 34.93978 14.25073
#
# Velocity S-wave (km/s) = -1.72505 4.01861 2.56646
# Velocity P-wave (km/s) = 3.65537 7.80851 6.09650
#
# Compressibility (1/GPa) = 0.02667146
#
# Stress axis : x y z
#
# Youngs Moduli (GPa) = 52.31174 136.19967 112.42839
#
# Poissons Ratio (x) = -0.03334 0.14150
# Poissons Ratio (y) = -0.01281 0.37404
# Poissons Ratio (z) = 0.06584 0.45312
#
# Static dielectric constant tensor:
#      x y z
#    x 1.841660 0.000000 -0.008920 
#    y 0.000000 1.821880 0.000000 
#    z -0.008920 0.000000 1.761910 
# 
# From -- ./inp_files/79966.got.cif
#   From: 2010.05.17/outbox.cif.g08.bks.cpg/sg12_40_cif.got.tgz:79966.got - 2010.06.03 13:09:07.
