data_PCOD9200012
_publ_section_title
;
Structure prediction by ZEFSAII (Michael W. Deem and Ramdas Pophale) SiO2 
 PCOD9200012
Probable space group: C 2/M
;
_chemical_formula_sum "Si O2"
_cell_formula_units_Z 64
_cell_length_a 28.660385
_cell_length_b 14.801893
_cell_length_c 9.442064
_cell_angle_alpha 90.000000
_cell_angle_beta 49.915338
_cell_angle_gamma 90.000000
_cell_volume 3064.650160
_symmetry_space_group_name_H-M "C 2/M"
_symmetry_group_IT_number 12
_symmetry_cell_setting 'monoclinic'
loop_
_space_group_symop_operation_xyz
x,y,z
-x,y,-z
-x,-y,-z
x,-y,z
1/2+x,1/2+y,z
1/2-x,1/2+y,-z
1/2-x,1/2-y,-z
1/2+x,1/2-y,z
loop_
_atom_site_type_symbol
_atom_site_label
_atom_site_fract_x
_atom_site_fract_y
_atom_site_fract_z
Si Si1 0.856817 0.792266 0.134524
Si Si2 0.243331 0.831797 0.902920
Si Si3 0.155203 0.398904 0.760820
Si Si4 0.949472 0.764358 0.482410
Si Si5 0.629325 0.896556 0.476510
Si Si6 0.301337 0.396979 0.496961
Si Si7 0.018336 0.893477 0.129676
Si Si8 0.851299 0.097229 0.716278
O O1 0.799462 0.804064 0.143775
O O2 0.874705 0.686900 0.104757
O O3 0.833553 0.824874 0.333949
O O4 0.913362 0.855601 0.984837
O O5 0.307574 0.866779 0.721108
O O6 0.250000 0.750000 0.000000
O O7 0.204660 0.903344 0.067220
O O8 0.139174 0.500000 0.843840
O O9 0.139721 0.393988 0.625045
O O10 0.228391 0.388053 0.633823
O O11 0.921683 0.674858 0.468369
O O12 0.895588 0.820644 0.663223
O O13 0.000000 0.743783 0.500000
O O14 0.975345 0.832577 0.312527
O O15 0.614941 0.000000 0.465518
O O16 0.316208 0.500000 0.419119
O O17 0.325087 0.388018 0.609921
O O18 0.014326 0.000000 0.171744
O O19 0.000000 0.882939 0.000000
O O20 0.883269 0.000000 0.657681
#
# Coordination Sequence:
#
# PCOD9200012 Si02
#       8
#     8   8   8   8   8   8   8   8
#     4  12  23  38  68  96 132 173 209 268 320 385
#     4  12  24  39  64  99 135 165 206 261 330 391
#     4  10  21  38  63  98 131 167 210 258 322 391
#     4  12  26  45  65  89 126 173 226 266 314 375
#     4  11  24  44  69  94 128 170 218 270 322 385
#     4  10  20  36  62  98 133 166 206 251 321 397
#     4  11  25  44  67  97 131 169 217 266 318 381
#     4  11  23  40  65  96 134 169 203 259 325 389
#
# _framework density 20.883296000000001
#
# number of rings (size 3 to 8) (size 9 to 14) (size 15 to 20)
#    0.000    0.875    2.500    5.250    0.000    5.750 
#    0.000    1.250    0.000    2.250    0.000    0.000 
#    0.000    0.000    0.000    0.000    0.000    0.000 
#
# Total GULP energy -179075.320085 kJ/mol
# GULP energy per Si atom -5596.103753 kJ/mol
# Density = 2.083576 g / cm^3
# Si number density = 20.883296 Si / 1000 Ang^3
#
#
#
# Elastic Constant Matrix: (Units=GPa)
#
#
# Indices 1 2 3 4 5 6 
#
# 1 98.5257 60.3933 14.3804 0.0000 -9.5834 0.0000
# 2 60.3933 166.6916 38.3743 0.0000 -7.9584 0.0000
# 3 14.3804 38.3743 59.1248 0.0000 -0.4854 0.0000
# 4 0.0000 0.0000 0.0000 23.2172 0.0000 -9.4964
# 5 -9.5834 -7.9584 -0.4854 0.0000 20.8513 0.0000
# 6 0.0000 0.0000 0.0000 -9.4964 0.0000 16.7836
#
#
#
# Elastic Compliance Matrix: (Units=1/GPa)
#
#
# Indices 1 2 3 4 5 6 
#
# 1 0.013435 -0.004600 -0.000246 0.000000 0.004413 0.000000
# 2 -0.004600 0.008770 -0.004564 0.000000 0.001127 0.000000
# 3 -0.000246 -0.004564 0.019924 0.000000 -0.001391 0.000000
# 4 0.000000 0.000000 0.000000 0.056041 0.000000 0.031709
# 5 0.004413 0.001127 -0.001391 0.000000 0.050385 0.000000
# 6 0.000000 0.000000 0.000000 0.031709 0.000000 0.077523
#
#
# Mechanical properties :
#
#
# Convention : Reuss Voigt Hill
#
# Bulk Modulus (GPa) = 42.90207 61.18204 52.04206
# Shear Modulus (GPa) = 19.78884 26.25002 23.01943
#
# Velocity S-wave (km/s) = 3.08164 3.54925 3.32368
# Velocity P-wave (km/s) = 5.76631 6.79389 6.30108
#
# Compressibility (1/GPa) = 0.02330890
#
# Stress axis : x y z
#
# Youngs Moduli (GPa) = 74.43519 114.02139 50.19071
#
# Poissons Ratio (x) = 0.52452 0.01233
# Poissons Ratio (y) = 0.34241 0.22908
# Poissons Ratio (z) = 0.01828 0.52041
#
# Static dielectric constant tensor:
#      x y z
#    x 1.730090 0.000000 -0.006330 
#    y 0.000000 1.778510 0.000000 
#    z -0.006330 0.000000 1.748960 
# 
# From -- ./inp_files/111998.got.cif
#   From: 2010.05.17/outbox.cif.g08.bks.cpg/sg12_56_cif.got.tgz:111998.got - 2010.06.03 13:09:07.
