data_PCOD9200357
_publ_section_title
;
Structure prediction by ZEFSAII (Michael W. Deem and Ramdas Pophale) SiO2 
 PCOD9200357
Probable space group: C 2/M
;
_chemical_formula_sum "Si O2"
_cell_formula_units_Z 48
_cell_length_a 5.142887
_cell_length_b 28.843071
_cell_length_c 15.924019
_cell_angle_alpha 90.000000
_cell_angle_beta 89.687535
_cell_angle_gamma 90.000000
_cell_volume 2362.080585
_symmetry_space_group_name_H-M "C 2/M"
_symmetry_group_IT_number 12
_symmetry_cell_setting 'monoclinic'
loop_
_space_group_symop_operation_xyz
x,y,z
-x,y,-z
-x,-y,-z
x,-y,z
1/2+x,1/2+y,z
1/2-x,1/2+y,-z
1/2-x,1/2-y,-z
1/2+x,1/2-y,z
loop_
_atom_site_type_symbol
_atom_site_label
_atom_site_fract_x
_atom_site_fract_y
_atom_site_fract_z
Si Si1 0.920646 0.625349 0.850122
Si Si2 0.065017 0.721801 0.766112
Si Si3 0.837197 0.948002 0.255171
Si Si4 0.038453 0.888762 0.405394
Si Si5 0.036729 0.674544 0.405846
Si Si6 0.070863 0.083142 0.088612
O O1 0.997871 0.674959 0.815505
O O2 0.143535 0.603592 0.906965
O O3 0.880146 0.589325 0.772706
O O4 0.643590 0.623807 0.897079
O O5 0.353172 0.738870 0.785429
O O6 0.026658 0.709933 0.667867
O O7 0.983290 0.926424 0.334370
O O8 0.018444 0.947458 0.171352
O O9 0.743282 0.000000 0.270691
O O10 0.823180 0.847682 0.395620
O O11 0.000000 0.907221 0.500000
O O12 0.322876 0.866419 0.398818
O O13 0.000000 0.693947 0.500000
O O14 0.000000 0.060611 0.000000
#
# Coordination Sequence:
#
# PCOD9200357 Si02
#       6
#     8   8   8   8   8   8
#     4  10  22  41  61  88 126 155 198 245 302 359
#     4  12  23  36  62  89 118 160 205 245 304 363
#     4  10  23  38  64  93 123 161 203 247 301 361
#     4  10  20  37  60  84 123 168 202 246 294 347
#     4  10  20  37  57  82 119 159 202 256 305 349
#     4  10  21  40  66  89 121 161 195 245 311 362
#
# _framework density 20.321068
#
# number of rings (size 3 to 8) (size 9 to 14) (size 15 to 20)
#    1.000    0.667    1.667    3.500    0.000    2.000 
#    0.000    0.833    0.000   13.000    0.000    0.000 
#    0.000    0.000    0.000    0.000    0.000    0.000 
#
# Total GULP energy -133895.614832 kJ/mol
# GULP energy per Si atom -5578.983951 kJ/mol
# Density = 2.027482 g / cm^3
# Si number density = 20.321068 Si / 1000 Ang^3
#
#
#
# Elastic Constant Matrix: (Units=GPa)
#
#
# Indices 1 2 3 4 5 6 
#
# 1 43.2246 -11.7621 34.0911 0.0000 3.5640 0.0000
# 2 -11.7621 55.0352 19.4147 0.0000 -4.7496 0.0000
# 3 34.0911 19.4147 70.4336 0.0000 13.7874 0.0000
# 4 0.0000 0.0000 0.0000 -17.7336 0.0000 -10.8442
# 5 3.5640 -4.7496 13.7874 0.0000 28.0644 0.0000
# 6 0.0000 0.0000 0.0000 -10.8442 0.0000 4.6778
#
#
#
# Elastic Compliance Matrix: (Units=1/GPa)
#
#
# Indices 1 2 3 4 5 6 
#
# 1 0.063269 0.030021 -0.042397 0.000000 0.017875 0.000000
# 2 0.030021 0.035612 -0.027417 0.000000 0.015684 0.000000
# 3 -0.042397 -0.027417 0.046613 0.000000 -0.022156 0.000000
# 4 0.000000 0.000000 0.000000 -0.023325 0.000000 -0.054072
# 5 0.017875 0.015684 -0.022156 0.000000 0.046901 0.000000
# 6 0.000000 0.000000 0.000000 -0.054072 0.000000 0.088425
#
#
# Mechanical properties :
#
#
# Convention : Reuss Voigt Hill
#
# Bulk Modulus (GPa) = 15.17287 28.02006 21.59647
# Shear Modulus (GPa) = 13.92562 11.46504 12.69533
#
# Velocity S-wave (km/s) = 2.62062 2.37786 2.50219
# Velocity P-wave (km/s) = 4.07918 4.62142 4.35874
#
# Compressibility (1/GPa) = 0.06590709
#
# Stress axis : x y z
#
# Youngs Moduli (GPa) = 15.80552 28.08077 21.45321
#
# Poissons Ratio (x) = -0.84301 0.90956
# Poissons Ratio (y) = -0.47450 0.58818
# Poissons Ratio (z) = 0.67011 0.76989
#
# Static dielectric constant tensor:
#      x y z
#    x 1.723800 0.000000 -0.023550 
#    y 0.000000 1.692940 0.000000 
#    z -0.023550 0.000000 1.754580 
# 
# From -- ./inp_files/253165.got.cif
#   From: 2010.05.17/outbox.cif.g08.bks.cpg/sg12_127_cif.got.tgz:253165.got - 2010.06.03 13:09:07.
