data_PCOD9200247
_publ_section_title
;
Structure prediction by ZEFSAII (Michael W. Deem and Ramdas Pophale) SiO2 
 PCOD9200247
Probable space group: C 2/M
;
_chemical_formula_sum "Si O2"
_cell_formula_units_Z 56
_cell_length_a 16.630480
_cell_length_b 12.188736
_cell_length_c 16.555444
_cell_angle_alpha 90.000000
_cell_angle_beta 54.577375
_cell_angle_gamma 90.000000
_cell_volume 2734.689760
_symmetry_space_group_name_H-M "C 2/M"
_symmetry_group_IT_number 12
_symmetry_cell_setting 'monoclinic'
loop_
_space_group_symop_operation_xyz
x,y,z
-x,y,-z
-x,-y,-z
x,-y,z
1/2+x,1/2+y,z
1/2-x,1/2+y,-z
1/2-x,1/2-y,-z
1/2+x,1/2-y,z
loop_
_atom_site_type_symbol
_atom_site_label
_atom_site_fract_x
_atom_site_fract_y
_atom_site_fract_z
Si Si1 0.760872 0.304913 0.341074
Si Si2 0.629459 0.128841 0.171617
Si Si3 0.609139 0.124776 0.449525
Si Si4 0.066863 0.000000 0.325977
Si Si5 0.270894 0.664691 0.819516
Si Si6 0.426305 0.875968 0.974418
Si Si7 0.081382 0.377700 0.651112
Si Si8 0.864657 0.000000 0.525798
O O1 0.694597 0.198877 0.365817
O O2 0.773716 0.350375 0.244056
O O3 0.864153 0.290480 0.325103
O O4 0.700725 0.389549 0.433762
O O5 0.708731 0.212353 0.160983
O O6 0.535290 0.135017 0.285253
O O7 0.659485 0.000000 0.147615
O O8 0.587676 0.168354 0.108495
O O9 0.500000 0.173202 0.500000
O O10 0.623533 0.123241 0.537148
O O11 0.609134 0.000000 0.418491
O O12 0.123358 0.897925 0.250377
O O13 0.094401 0.000000 0.405558
O O14 0.948015 0.000000 0.407185
O O15 0.185116 0.620427 0.926873
O O16 0.464551 0.000000 0.939717
O O17 0.500000 0.825887 0.000000
O O18 0.097782 0.500000 0.677591
#
# Coordination Sequence:
#
# PCOD9200247 Si02
#       8
#     8   8   8   4   8   8   8   4
#     4  11  21  34  58  80 112 148 189 236 278 331
#     4  10  22  37  59  86 115 148 187 228 276 342
#     4  10  22  37  53  76 110 152 192 227 271 335
#     4   9  20  34  51  82 115 148 183 230 278 331
#     4  11  21  36  58  86 115 147 182 232 282 335
#     4  10  20  37  62  88 114 142 183 236 288 332
#     4  10  20  37  55  82 112 145 189 237 280 322
#     4   9  20  32  52  82 113 144 190 230 284 322
#
# _framework density 20.477643
#
# number of rings (size 3 to 8) (size 9 to 14) (size 15 to 20)
#    0.000    1.857    1.429    2.571    6.000    2.857 
#    0.000    0.000    0.000    0.429    0.000    0.000 
#    0.000    0.000    0.000    0.000    0.000    0.000 
#
# Total GULP energy -156032.350951 kJ/mol
# GULP energy per Si atom -5572.583963 kJ/mol
# Density = 2.043103 g / cm^3
# Si number density = 20.477643 Si / 1000 Ang^3
#
#
#
# Elastic Constant Matrix: (Units=GPa)
#
#
# Indices 1 2 3 4 5 6 
#
# 1 61.0477 18.8427 -7.4838 0.0000 7.3202 0.0000
# 2 18.8427 56.5996 0.4184 0.0000 -4.4388 0.0000
# 3 -7.4838 0.4184 71.4666 0.0000 -2.8372 0.0000
# 4 0.0000 0.0000 0.0000 16.4280 0.0000 1.9195
# 5 7.3202 -4.4388 -2.8372 0.0000 29.2273 0.0000
# 6 0.0000 0.0000 0.0000 1.9195 0.0000 7.7876
#
#
#
# Elastic Compliance Matrix: (Units=1/GPa)
#
#
# Indices 1 2 3 4 5 6 
#
# 1 0.019436 -0.006934 0.001848 0.000000 -0.005742 0.000000
# 2 -0.006934 0.020355 -0.000656 0.000000 0.004764 0.000000
# 3 0.001848 -0.000656 0.014222 0.000000 0.000818 0.000000
# 4 0.000000 0.000000 0.000000 0.062677 0.000000 -0.015449
# 5 -0.005742 0.004764 0.000818 0.000000 0.036456 0.000000
# 6 0.000000 0.000000 0.000000 -0.015449 0.000000 0.132218
#
#
# Mechanical properties :
#
#
# Convention : Reuss Voigt Hill
#
# Bulk Modulus (GPa) = 23.51387 23.62983 23.57185
# Shear Modulus (GPa) = 16.07589 22.51102 19.29346
#
# Velocity S-wave (km/s) = 2.80491 3.31916 3.07281
# Velocity P-wave (km/s) = 4.69016 5.12382 4.91178
#
# Compressibility (1/GPa) = 0.04252809
#
# Stress axis : x y z
#
# Youngs Moduli (GPa) = 51.45090 49.12792 70.31169
#
# Poissons Ratio (x) = 0.34067 -0.12993
# Poissons Ratio (y) = 0.35678 0.04614
# Poissons Ratio (z) = -0.09508 0.03224
#
# Static dielectric constant tensor:
#      x y z
#    x 1.767160 0.000000 -0.010170 
#    y 0.000000 1.774640 0.000000 
#    z -0.010170 0.000000 1.721070 
# 
# From -- ./inp_files/223750.got.cif
#   From: 2010.05.17/outbox.cif.g08.bks.cpg/sg12_112_cif.got.tgz:223750.got - 2010.06.03 13:09:07.
