data_PCOD9200685
_publ_section_title
;
Structure prediction by ZEFSAII (Michael W. Deem and Ramdas Pophale) SiO2 
 PCOD9200685
Probable space group: C 2/M
;
_chemical_formula_sum "Si O2"
_cell_formula_units_Z 42
_cell_length_a 10.116301
_cell_length_b 9.295053
_cell_length_c 30.810608
_cell_angle_alpha 90.000000
_cell_angle_beta 132.068748
_cell_angle_gamma 90.000000
_cell_volume 2150.688794
_symmetry_space_group_name_H-M "C 2/M"
_symmetry_group_IT_number 12
_symmetry_cell_setting 'monoclinic'
loop_
_space_group_symop_operation_xyz
x,y,z
-x,y,-z
-x,-y,-z
x,-y,z
1/2+x,1/2+y,z
1/2-x,1/2+y,-z
1/2-x,1/2-y,-z
1/2+x,1/2-y,z
loop_
_atom_site_type_symbol
_atom_site_label
_atom_site_fract_x
_atom_site_fract_y
_atom_site_fract_z
Si Si1 0.936602 0.831749 0.535929
Si Si2 0.286988 0.830030 0.850126
Si Si3 0.262162 0.828440 0.342504
Si Si4 0.500000 0.500000 0.000000
Si Si5 0.348543 0.841484 0.099955
Si Si6 0.857652 0.170337 0.277786
O O1 0.750000 0.750000 0.500000
O O2 0.000000 0.825489 0.500000
O O3 0.084356 0.753196 0.597485
O O4 0.919330 0.000000 0.544587
O O5 0.495345 0.784893 0.896491
O O6 0.180234 0.751648 0.864026
O O7 0.217488 0.797554 0.786617
O O8 0.270569 0.000000 0.854140
O O9 0.069914 0.802833 0.322055
O O10 0.267542 0.765114 0.295084
O O11 0.292762 0.000000 0.348516
O O12 0.340580 0.376564 0.963070
O O13 0.415881 0.000000 0.129585
O O14 0.830742 0.000000 0.280589
#
# Coordination Sequence:
#
# PCOD9200685 Si02
#       6
#     8   8   8   2   8   8
#     4  11  24  41  62  87 117 156 198 240 289 345
#     4  10  20  37  59  85 113 151 194 238 290 349
#     4  11  23  38  58  87 117 150 194 239 288 348
#     4   8  20  40  54  82 120 152 190 242 286 340
#     4   9  20  37  56  81 116 149 189 238 286 342
#     4  10  22  38  58  85 118 150 190 242 293 345
#
# _framework density 19.528627
#
# number of rings (size 3 to 8) (size 9 to 14) (size 15 to 20)
#    0.571    1.333    0.000    3.429    0.000    8.381 
#    0.000    0.476    0.000    0.000    0.000    0.000 
#    0.000    0.000    0.000    0.000    0.000    0.000 
#
# Total GULP energy -116951.057463 kJ/mol
# GULP energy per Si atom -5569.097974 kJ/mol
# Density = 1.948418 g / cm^3
# Si number density = 19.528627 Si / 1000 Ang^3
#
#
#
# Elastic Constant Matrix: (Units=GPa)
#
#
# Indices 1 2 3 4 5 6 
#
# 1 61.7947 32.0365 -5.5837 0.0000 -1.2679 0.0000
# 2 32.0365 63.7577 5.6509 0.0000 -2.8372 0.0000
# 3 -5.5837 5.6509 34.1074 0.0000 18.2485 0.0000
# 4 0.0000 0.0000 0.0000 26.7980 0.0000 -6.8039
# 5 -1.2679 -2.8372 18.2485 0.0000 33.9647 0.0000
# 6 0.0000 0.0000 0.0000 -6.8039 0.0000 28.4268
#
#
#
# Elastic Compliance Matrix: (Units=1/GPa)
#
#
# Indices 1 2 3 4 5 6 
#
# 1 0.023466 -0.012756 0.008500 0.000000 -0.004756 0.000000
# 2 -0.012756 0.023220 -0.009429 0.000000 0.006529 0.000000
# 3 0.008500 -0.009429 0.045646 0.000000 -0.024995 0.000000
# 4 0.000000 0.000000 0.000000 0.039731 0.000000 0.009510
# 5 -0.004756 0.006529 -0.024995 0.000000 0.043239 0.000000
# 6 0.000000 0.000000 0.000000 0.009510 0.000000 0.037454
#
#
# Mechanical properties :
#
#
# Convention : Reuss Voigt Hill
#
# Bulk Modulus (GPa) = 15.39362 24.87415 20.13389
# Shear Modulus (GPa) = 19.09995 26.34163 22.72079
#
# Velocity S-wave (km/s) = 3.13077 3.67668 3.41465
# Velocity P-wave (km/s) = 4.57916 5.54878 5.08712
#
# Compressibility (1/GPa) = 0.06496196
#
# Stress axis : x y z
#
# Youngs Moduli (GPa) = 42.61421 43.06583 21.90788
#
# Poissons Ratio (x) = 0.54936 -0.18621
# Poissons Ratio (y) = 0.54360 0.20657
# Poissons Ratio (z) = -0.36222 0.40606
#
# Static dielectric constant tensor:
#      x y z
#    x 1.667930 0.000000 0.019560 
#    y 0.000000 1.662900 0.000000 
#    z 0.019560 0.000000 1.692890 
# 
# From -- ./inp_files/371790.got.cif
#   From: 2010.05.17/outbox.cif.g08.bks.cpg/sg12_186_cif.got.tgz:371790.got - 2010.06.03 13:09:07.
