data_PCOD9200111
_publ_section_title
;
Structure prediction by ZEFSAII (Michael W. Deem and Ramdas Pophale) SiO2 
 PCOD9200111
Probable space group: C 2/M
;
_chemical_formula_sum "Si O2"
_cell_formula_units_Z 40
_cell_length_a 10.836247
_cell_length_b 25.004097
_cell_length_c 12.311408
_cell_angle_alpha 90.000000
_cell_angle_beta 32.956625
_cell_angle_gamma 90.000000
_cell_volume 1814.679226
_symmetry_space_group_name_H-M "C 2/M"
_symmetry_group_IT_number 12
_symmetry_cell_setting 'monoclinic'
loop_
_space_group_symop_operation_xyz
x,y,z
-x,y,-z
-x,-y,-z
x,-y,z
1/2+x,1/2+y,z
1/2-x,1/2+y,-z
1/2-x,1/2-y,-z
1/2+x,1/2-y,z
loop_
_atom_site_type_symbol
_atom_site_label
_atom_site_fract_x
_atom_site_fract_y
_atom_site_fract_z
Si Si1 0.248414 0.756640 0.132616
Si Si2 0.256465 0.862100 0.847856
Si Si3 0.850938 0.562628 0.447690
Si Si4 0.239804 0.558925 0.730888
Si Si5 0.392711 0.368154 0.796509
O O1 0.172262 0.698789 0.233844
O O2 0.088196 0.808210 0.266619
O O3 0.500000 0.766283 0.000000
O O4 0.250000 0.750000 0.000000
O O5 0.427473 0.906091 0.675689
O O6 0.229955 0.864223 0.997602
O O7 0.000000 0.870755 0.000000
O O8 0.827002 0.500000 0.497769
O O9 0.885064 0.562844 0.291162
O O10 0.626646 0.598421 0.635549
O O11 0.500000 0.562926 0.500000
O O12 0.212644 0.500000 0.797753
O O13 0.232254 0.600697 0.832073
#
# Coordination Sequence:
#
# PCOD9200111 Si02
#       5
#     8   8   8   8   8
#     4   9  20  37  60  89 121 159 207 253 301 366
#     4  10  23  41  58  84 123 161 205 253 295 353
#     4  10  22  39  61  91 123 155 201 253 302 364
#     4   8  16  32  54  86 119 143 185 247 297 352
#     4  10  20  36  64  86 117 158 200 247 310 359
#
# _framework density 22.042462
#
# number of rings (size 3 to 8) (size 9 to 14) (size 15 to 20)
#    0.000    2.600    0.000    1.800    5.600    3.600 
#    0.000    3.000    4.400    0.000    0.000    0.000 
#    0.000    0.000    0.000    0.000    0.000    0.000 
#
# Total GULP energy -111467.688010 kJ/mol
# GULP energy per Si atom -5573.384401 kJ/mol
# Density = 2.199229 g / cm^3
# Si number density = 22.042462 Si / 1000 Ang^3
#
#
#
# Elastic Constant Matrix: (Units=GPa)
#
#
# Indices 1 2 3 4 5 6 
#
# 1 59.3006 30.4258 15.5821 0.0000 -4.9367 0.0000
# 2 30.4258 206.2061 70.1159 0.0000 -27.2561 0.0000
# 3 15.5821 70.1159 76.1953 0.0000 -21.9996 0.0000
# 4 0.0000 0.0000 0.0000 33.8628 0.0000 -6.4766
# 5 -4.9367 -27.2561 -21.9996 0.0000 37.6535 0.0000
# 6 0.0000 0.0000 0.0000 -6.4766 0.0000 35.5243
#
#
#
# Elastic Compliance Matrix: (Units=1/GPa)
#
#
# Indices 1 2 3 4 5 6 
#
# 1 0.018422 -0.002102 -0.001894 0.000000 -0.000213 0.000000
# 2 -0.002102 0.007377 -0.005890 0.000000 0.001623 0.000000
# 3 -0.001894 -0.005890 0.021206 0.000000 0.007878 0.000000
# 4 0.000000 0.000000 0.000000 0.030598 0.000000 0.005578
# 5 -0.000213 0.001623 0.007878 0.000000 0.032308 0.000000
# 6 0.000000 0.000000 0.000000 0.005578 0.000000 0.029167
#
#
# Mechanical properties :
#
#
# Convention : Reuss Voigt Hill
#
# Bulk Modulus (GPa) = 36.72150 63.77218 50.24684
# Shear Modulus (GPa) = 29.77475 36.44669 33.11072
#
# Velocity S-wave (km/s) = 3.67930 4.07071 3.87994
# Velocity P-wave (km/s) = 5.89451 7.14762 6.55110
#
# Compressibility (1/GPa) = 0.02723200
#
# Stress axis : x y z
#
# Youngs Moduli (GPa) = 54.28339 135.55751 47.15622
#
# Poissons Ratio (x) = 0.28497 0.08933
# Poissons Ratio (y) = 0.11411 0.27774
# Poissons Ratio (z) = 0.10284 0.79841
#
# Static dielectric constant tensor:
#      x y z
#    x 2.261810 0.000000 0.165210 
#    y 0.000000 1.848470 0.000000 
#    z 0.165210 0.000000 1.894370 
# 
# From -- ./inp_files/208544.got.cif
#   From: 2010.05.17/outbox.cif.g08.bks.cpg/sg12_105_cif.got.tgz:208544.got - 2010.06.03 13:09:07.
