data_PCOD9200890
_publ_section_title
;
Structure prediction by ZEFSAII (Michael W. Deem and Ramdas Pophale) SiO2 
 PCOD9200890
Probable space group: C 2/M
;
_chemical_formula_sum "Si O2"
_cell_formula_units_Z 64
_cell_length_a 11.449560
_cell_length_b 16.501227
_cell_length_c 32.532145
_cell_angle_alpha 90.000000
_cell_angle_beta 29.137283
_cell_angle_gamma 90.000000
_cell_volume 2992.684571
_symmetry_space_group_name_H-M "C 2/M"
_symmetry_group_IT_number 12
_symmetry_cell_setting 'monoclinic'
loop_
_space_group_symop_operation_xyz
x,y,z
-x,y,-z
-x,-y,-z
x,-y,z
1/2+x,1/2+y,z
1/2-x,1/2+y,-z
1/2-x,1/2-y,-z
1/2+x,1/2-y,z
loop_
_atom_site_type_symbol
_atom_site_label
_atom_site_fract_x
_atom_site_fract_y
_atom_site_fract_z
Si Si1 0.390459 0.591548 0.832104
Si Si2 0.040199 0.411753 0.333713
Si Si3 0.353116 0.275999 0.777168
Si Si4 0.721200 0.355224 0.959194
Si Si5 0.355302 0.301605 0.505022
Si Si6 0.711633 0.091139 0.764419
Si Si7 0.632533 0.673064 0.077104
Si Si8 0.808078 0.633965 0.323687
O O1 0.320349 0.500000 0.842562
O O2 0.296243 0.661372 0.831164
O O3 0.323589 0.613779 0.898840
O O4 0.680660 0.597690 0.742183
O O5 0.963777 0.500000 0.372363
O O6 0.873205 0.345265 0.405156
O O7 0.985796 0.407341 0.301768
O O8 0.371503 0.334064 0.731815
O O9 0.138276 0.210563 0.840476
O O10 0.593207 0.225861 0.710958
O O11 0.958924 0.389409 0.864552
O O12 0.724433 0.256663 0.959153
O O13 0.500000 0.383676 0.000000
O O14 0.692104 0.371735 0.016376
O O15 0.500000 0.264019 0.500000
O O16 0.250000 0.250000 0.500000
O O17 0.548304 0.362374 0.424800
O O18 0.689451 0.097028 0.722234
O O19 0.792202 0.000000 0.750569
#
# Coordination Sequence:
#
# PCOD9200890 Si02
#       8
#     8   8   8   8   8   8   8   8
#     4  11  22  37  61  89 122 160 201 250 308 363
#     4  10  22  40  61  93 127 157 199 256 310 355
#     4  11  21  39  64  87 119 160 204 252 299 361
#     4  10  21  36  58  85 116 153 200 251 301 355
#     4  10  23  38  64  94 122 160 207 254 301 364
#     4  11  25  40  59  89 124 158 197 249 309 361
#     4  10  20  37  60  85 115 156 204 246 298 368
#     4  11  22  38  66  87 120 159 207 245 295 365
#
# _framework density 21.385482
#
# number of rings (size 3 to 8) (size 9 to 14) (size 15 to 20)
#    0.000    1.500    1.250    4.500    3.500    3.500 
#    0.000    0.000    0.000    8.250    0.000    0.000 
#    0.000    0.000    0.000    0.000    0.000    0.000 
#
# Total GULP energy -178740.775042 kJ/mol
# GULP energy per Si atom -5585.649220 kJ/mol
# Density = 2.133681 g / cm^3
# Si number density = 21.385482 Si / 1000 Ang^3
#
#
#
# Elastic Constant Matrix: (Units=GPa)
#
#
# Indices 1 2 3 4 5 6 
#
# 1 87.0693 17.2136 21.1945 0.0724 24.7009 -0.0123
# 2 17.2136 65.7428 8.5079 0.0326 11.7231 0.0049
# 3 21.1945 8.5079 46.5822 0.0918 23.1396 -0.0967
# 4 0.0724 0.0326 0.0918 6.8625 -0.0659 -0.7115
# 5 24.7009 11.7231 23.1396 -0.0659 37.1318 0.0047
# 6 -0.0123 0.0049 -0.0967 -0.7115 0.0047 10.7306
#
#
#
# Elastic Compliance Matrix: (Units=1/GPa)
#
#
# Indices 1 2 3 4 5 6 
#
# 1 0.014657 -0.002175 -0.002562 -0.000183 -0.007468 -0.000014
# 2 -0.002175 0.016453 -0.000223 -0.000089 -0.003609 -0.000016
# 3 -0.002562 -0.000223 0.031566 -0.000539 -0.017898 0.000254
# 4 -0.000183 -0.000089 -0.000539 0.146744 0.000745 0.009725
# 5 -0.007468 -0.003609 -0.017898 0.000745 0.044193 -0.000138
# 6 -0.000014 -0.000016 0.000254 0.009725 -0.000138 0.093839
#
#
# Mechanical properties :
#
#
# Convention : Reuss Voigt Hill
#
# Bulk Modulus (GPa) = 18.95451 32.58069 25.76760
# Shear Modulus (GPa) = 13.33493 21.11021 17.22257
#
# Velocity S-wave (km/s) = 2.49981 3.14527 2.84093
# Velocity P-wave (km/s) = 4.14904 5.33463 4.77875
#
# Compressibility (1/GPa) = 0.05275789
#
# Stress axis : x y z
#
# Youngs Moduli (GPa) = 68.22552 60.78069 31.67974
#
# Poissons Ratio (x) = 0.13217 0.08116
# Poissons Ratio (y) = 0.14836 0.00705
# Poissons Ratio (z) = 0.17479 0.01352
#
# Static dielectric constant tensor:
#      x y z
#    x 1.808340 0.000000 -0.006110 
#    y 0.000000 1.780480 -0.000010 
#    z -0.006110 -0.000010 1.775020 
# 
# From -- ./inp_files/374412.got.cif
#   From: 2010.05.17/outbox.cif.g08.bks.cpg/sg12_188_cif.got.tgz:374412.got - 2010.06.03 13:09:07.
