data_PCOD9200659
_publ_section_title
;
Structure prediction by ZEFSAII (Michael W. Deem and Ramdas Pophale) SiO2 
 PCOD9200659
Probable space group: C 2/M
;
_chemical_formula_sum "Si O2"
_cell_formula_units_Z 56
_cell_length_a 30.929639
_cell_length_b 8.401864
_cell_length_c 12.019489
_cell_angle_alpha 90.000000
_cell_angle_beta 115.775147
_cell_angle_gamma 90.000000
_cell_volume 2812.702669
_symmetry_space_group_name_H-M "C 2/M"
_symmetry_group_IT_number 12
_symmetry_cell_setting 'monoclinic'
loop_
_space_group_symop_operation_xyz
x,y,z
-x,y,-z
-x,-y,-z
x,-y,z
1/2+x,1/2+y,z
1/2-x,1/2+y,-z
1/2-x,1/2-y,-z
1/2+x,1/2-y,z
loop_
_atom_site_type_symbol
_atom_site_label
_atom_site_fract_x
_atom_site_fract_y
_atom_site_fract_z
Si Si1 0.820315 0.687347 0.493290
Si Si2 0.951600 0.193671 0.882488
Si Si3 0.593346 0.185926 0.802873
Si Si4 0.639065 0.311034 0.074292
Si Si5 0.098447 0.187386 0.571312
Si Si6 0.984313 0.192789 0.678401
Si Si7 0.280770 0.188600 0.687930
O O1 0.831549 0.500000 0.502200
O O2 0.861806 0.783011 0.478159
O O3 0.769634 0.721256 0.376180
O O4 0.811182 0.735212 0.611412
O O5 0.904656 0.248022 0.895630
O O6 0.956450 0.241599 0.759785
O O7 0.950952 0.000000 0.884702
O O8 0.000000 0.244708 0.000000
O O9 0.611016 0.223205 0.698398
O O10 0.537912 0.241863 0.743005
O O11 0.595916 0.000000 0.829406
O O12 0.623128 0.275684 0.931031
O O13 0.644074 0.500000 0.095298
O O14 0.687553 0.229152 0.169929
O O15 0.047534 0.241347 0.462702
O O16 0.094754 0.000000 0.591967
O O17 0.987264 0.000000 0.680947
O O18 0.271463 0.000000 0.669814
#
# Coordination Sequence:
#
# PCOD9200659 Si02
#       7
#     8   8   8   8   8   8   8
#     4  10  21  39  63  91 122 153 190 237 289 343
#     4   9  16  30  55  83 112 145 185 233 282 336
#     4  12  25  39  55  80 118 158 198 244 294 346
#     4  11  21  37  61  86 117 156 199 240 290 348
#     4  11  23  39  61  85 113 153 201 246 292 345
#     4  10  20  37  59  84 113 152 198 241 289 348
#     4  10  21  38  62  92 124 153 188 234 289 348
#
# _framework density 19.909676999999999
#
# number of rings (size 3 to 8) (size 9 to 14) (size 15 to 20)
#    0.000    1.571    1.429    4.286    0.000    5.714 
#    0.000    2.857    0.000    0.000    0.000    0.000 
#    0.000    0.000    0.000    0.000    0.000    0.000 
#
# Total GULP energy -156523.609578 kJ/mol
# GULP energy per Si atom -5590.128914 kJ/mol
# Density = 1.986436 g / cm^3
# Si number density = 19.909677 Si / 1000 Ang^3
#
#
#
# Elastic Constant Matrix: (Units=GPa)
#
#
# Indices 1 2 3 4 5 6 
#
# 1 29.1913 -6.8000 17.5086 0.0000 0.3781 0.0000
# 2 -6.8000 20.8056 -4.5662 0.0000 -3.0436 0.0000
# 3 17.5086 -4.5662 86.0863 0.0000 12.3329 0.0000
# 4 0.0000 0.0000 0.0000 22.6920 0.0000 -1.2922
# 5 0.3781 -3.0436 12.3329 0.0000 23.8954 0.0000
# 6 0.0000 0.0000 0.0000 -1.2922 0.0000 24.2270
#
#
#
# Elastic Compliance Matrix: (Units=1/GPa)
#
#
# Indices 1 2 3 4 5 6 
#
# 1 0.042387 0.012736 -0.008727 0.000000 0.005456 0.000000
# 2 0.012736 0.053075 -0.000772 0.000000 0.006957 0.000000
# 3 -0.008727 -0.000772 0.014410 0.000000 -0.007398 0.000000
# 4 0.000000 0.000000 0.000000 0.044203 0.000000 0.002358
# 5 0.005456 0.006957 -0.007398 0.000000 0.046467 0.000000
# 6 0.000000 0.000000 0.000000 0.002358 0.000000 0.041402
#
#
# Mechanical properties :
#
#
# Convention : Reuss Voigt Hill
#
# Bulk Modulus (GPa) = 8.59493 16.48534 12.54013
# Shear Modulus (GPa) = 18.23146 22.82560 20.52853
#
# Velocity S-wave (km/s) = 3.02935 3.38961 3.21453
# Velocity P-wave (km/s) = 4.06968 4.85977 4.48217
#
# Compressibility (1/GPa) = 0.11634770
#
# Stress axis : x y z
#
# Youngs Moduli (GPa) = 23.59198 18.84124 69.39615
#
# Poissons Ratio (x) = -0.23997 0.60562
# Poissons Ratio (y) = -0.30048 0.05357
# Poissons Ratio (z) = 0.20589 0.01454
#
# Static dielectric constant tensor:
#      x y z
#    x 1.689520 0.000000 -0.010260 
#    y 0.000000 1.672930 0.000000 
#    z -0.010260 0.000000 1.690920 
# 
# From -- ./inp_files/187764.got.cif
#   From: 2010.05.17/outbox.cif.g08.bks.cpg/sg12_94_cif.got.tgz:187764.got - 2010.06.03 13:09:07.
