data_PCOD9200602
_publ_section_title
;
Structure prediction by ZEFSAII (Michael W. Deem and Ramdas Pophale) SiO2 
 PCOD9200602
Probable space group: C 2/M
;
_chemical_formula_sum "Si O2"
_cell_formula_units_Z 60
_cell_length_a 15.762622
_cell_length_b 14.554507
_cell_length_c 15.230535
_cell_angle_alpha 90.000000
_cell_angle_beta 57.303398
_cell_angle_gamma 90.000000
_cell_volume 2940.473963
_symmetry_space_group_name_H-M "C 2/M"
_symmetry_group_IT_number 12
_symmetry_cell_setting 'monoclinic'
loop_
_space_group_symop_operation_xyz
x,y,z
-x,y,-z
-x,-y,-z
x,-y,z
1/2+x,1/2+y,z
1/2-x,1/2+y,-z
1/2-x,1/2-y,-z
1/2+x,1/2-y,z
loop_
_atom_site_type_symbol
_atom_site_label
_atom_site_fract_x
_atom_site_fract_y
_atom_site_fract_z
Si Si1 0.242893 0.331573 0.216623
Si Si2 0.865168 0.895872 0.992856
Si Si3 0.721850 0.888324 0.563649
Si Si4 0.500000 0.233836 0.000000
Si Si5 0.092816 0.714754 0.780461
Si Si6 0.594697 0.690228 0.209312
Si Si7 0.110637 0.391787 0.450195
Si Si8 0.046471 0.890372 0.564669
O O1 0.340378 0.300327 0.219742
O O2 0.181313 0.245487 0.211778
O O3 0.171867 0.379501 0.326809
O O4 0.274078 0.390515 0.113806
O O5 0.854489 0.870661 0.896234
O O6 0.908077 0.000000 0.974637
O O7 0.928545 0.807648 0.990882
O O8 0.664197 0.845290 0.678893
O O9 0.667348 0.857115 0.504700
O O10 0.838262 0.858908 0.491431
O O11 0.718558 0.000000 0.571907
O O12 0.445300 0.174724 0.105059
O O13 0.992042 0.743895 0.784437
O O14 0.528259 0.633439 0.315023
O O15 0.099571 0.500000 0.472844
O O16 0.000000 0.351235 0.500000
O O17 0.000000 0.855940 0.500000
O O18 0.052362 0.000000 0.556734
#
# Coordination Sequence:
#
# PCOD9200602 Si02
#       8
#     8   8   8   4   8   8   8   8
#     4  11  22  36  57  83 111 143 182 228 275 324
#     4  10  20  37  59  82 110 144 181 222 275 330
#     4  10  21  37  56  79 111 149 186 224 269 323
#     4   8  19  36  57  86 112 138 176 228 275 324
#     4  10  21  37  57  80 111 143 179 228 275 320
#     4  11  22  36  57  83 111 143 182 228 275 324
#     4  10  21  36  54  79 111 145 182 224 271 326
#     4  10  21  36  54  79 111 145 182 224 271 326
#
# _framework density 20.404874
#
# number of rings (size 3 to 8) (size 9 to 14) (size 15 to 20)
#    0.000    1.867    0.000    3.800    0.000    4.800 
#    0.000    5.667    0.000    0.000    0.000    0.000 
#    0.000    0.000    0.000    0.000    0.000    0.000 
#
# Total GULP energy -167244.579001 kJ/mol
# GULP energy per Si atom -5574.819300 kJ/mol
# Density = 2.035843 g / cm^3
# Si number density = 20.404874 Si / 1000 Ang^3
#
#
#
# Elastic Constant Matrix: (Units=GPa)
#
#
# Indices 1 2 3 4 5 6 
#
# 1 88.5728 9.4917 37.5782 0.0000 12.0554 0.0000
# 2 9.4917 63.2737 26.8878 0.0000 8.5702 0.0000
# 3 37.5782 26.8878 160.8003 0.0000 12.0712 0.0000
# 4 0.0000 0.0000 0.0000 460.3883 0.0000 -89.0323
# 5 12.0554 8.5702 12.0712 0.0000 26.3058 0.0000
# 6 0.0000 0.0000 0.0000 -89.0323 0.0000 -4.0263
#
#
#
# Elastic Compliance Matrix: (Units=1/GPa)
#
#
# Indices 1 2 3 4 5 6 
#
# 1 0.013085 -0.000189 -0.002673 0.000000 -0.004709 0.000000
# 2 -0.000189 0.017520 -0.002551 0.000000 -0.004450 0.000000
# 3 -0.002673 -0.002551 0.007370 0.000000 -0.001326 0.000000
# 4 0.000000 0.000000 0.000000 0.000412 0.000000 -0.009103
# 5 -0.004709 -0.004450 -0.001326 0.000000 0.042230 0.000000
# 6 0.000000 0.000000 0.000000 -0.009103 0.000000 -0.047072
#
#
# Mechanical properties :
#
#
# Convention : Reuss Voigt Hill
#
# Bulk Modulus (GPa) = 36.83538 51.17357 44.00447
# Shear Modulus (GPa) = 93.59756 112.44617 103.02186
#
# Velocity S-wave (km/s) = 6.78010 7.43150 7.11326
# Velocity P-wave (km/s) = 8.90980 9.93830 9.43807
#
# Compressibility (1/GPa) = 0.02714782
#
# Stress axis : x y z
#
# Youngs Moduli (GPa) = 76.42168 57.07882 135.69204
#
# Poissons Ratio (x) = 0.01081 0.36268
# Poissons Ratio (y) = 0.01447 0.34617
# Poissons Ratio (z) = 0.20426 0.14562
#
# Static dielectric constant tensor:
#      x y z
#    x 1.735430 0.000000 -0.008180 
#    y 0.000000 1.720520 0.000000 
#    z -0.008180 0.000000 1.751120 
# 
# From -- ./inp_files/215192.got.cif
#   From: 2010.05.17/outbox.cif.g08.bks.cpg/sg12_108_cif.got.tgz:215192.got - 2010.06.03 13:09:07.
