data_PCOD9200669
_publ_section_title
;
Structure prediction by ZEFSAII (Michael W. Deem and Ramdas Pophale) SiO2 
 PCOD9200669
Probable space group: C 2/M
;
_chemical_formula_sum "Si O2"
_cell_formula_units_Z 48
_cell_length_a 31.897033
_cell_length_b 8.744046
_cell_length_c 20.412482
_cell_angle_alpha 90.000000
_cell_angle_beta 152.224368
_cell_angle_gamma 90.000000
_cell_volume 2653.103121
_symmetry_space_group_name_H-M "C 2/M"
_symmetry_group_IT_number 12
_symmetry_cell_setting 'monoclinic'
loop_
_space_group_symop_operation_xyz
x,y,z
-x,y,-z
-x,-y,-z
x,-y,z
1/2+x,1/2+y,z
1/2-x,1/2+y,-z
1/2-x,1/2-y,-z
1/2+x,1/2-y,z
loop_
_atom_site_type_symbol
_atom_site_label
_atom_site_fract_x
_atom_site_fract_y
_atom_site_fract_z
Si Si1 0.303654 0.817093 0.136507
Si Si2 0.704081 0.181221 0.125264
Si Si3 0.013718 0.181907 0.656612
Si Si4 0.819063 0.682651 0.398218
Si Si5 0.474530 0.680570 0.170907
Si Si6 0.681118 0.316541 0.457143
O O1 0.258288 0.752338 0.139075
O O2 0.406444 0.762027 0.272243
O O3 0.297826 0.000000 0.127468
O O4 0.250000 0.750000 0.000000
O O5 0.743067 0.255920 0.244657
O O6 0.716889 0.000000 0.144439
O O7 0.600215 0.222939 0.969353
O O8 0.032827 0.205289 0.760775
O O9 0.915585 0.251380 0.508314
O O10 0.013085 0.000000 0.643718
O O11 0.821975 0.500000 0.402205
O O12 0.804048 0.744413 0.450835
O O13 0.458433 0.500000 0.137114
O O14 0.577311 0.717220 0.294772
O O15 0.689114 0.500000 0.473048
O O16 0.750000 0.250000 0.500000
#
# Coordination Sequence:
#
# PCOD9200669 Si02
#       6
#     8   8   8   8   8   8
#     4  12  23  36  56  84 117 156 203 247 290 341
#     4  12  24  38  58  85 119 157 198 245 295 345
#     4  10  20  37  59  84 116 154 200 247 291 342
#     4  11  23  40  61  86 120 156 194 240 297 353
#     4   9  19  36  59  85 117 153 191 236 290 348
#     4  10  21  40  66  93 120 150 191 236 288 351
#
# _framework density 18.092020999999999
#
# number of rings (size 3 to 8) (size 9 to 14) (size 15 to 20)
#    0.000    1.333    1.667    6.500    0.000    4.000 
#    0.000    4.167    0.000    5.000    0.000    0.000 
#    0.000    0.000    0.000    0.000    0.000    0.000 
#
# Total GULP energy -134192.548165 kJ/mol
# GULP energy per Si atom -5591.356174 kJ/mol
# Density = 1.805084 g / cm^3
# Si number density = 18.092021 Si / 1000 Ang^3
#
#
#
# Elastic Constant Matrix: (Units=GPa)
#
#
# Indices 1 2 3 4 5 6 
#
# 1 104.8599 53.6820 52.4172 0.0000 17.6029 0.0000
# 2 53.6820 141.3179 74.7795 0.0000 3.9754 0.0000
# 3 52.4172 74.7795 108.6309 0.0000 1.1574 0.0000
# 4 0.0000 0.0000 0.0000 33.2139 0.0000 2.4534
# 5 17.6029 3.9754 1.1574 0.0000 20.8495 0.0000
# 6 0.0000 0.0000 0.0000 2.4534 0.0000 32.3562
#
#
#
# Elastic Compliance Matrix: (Units=1/GPa)
#
#
# Indices 1 2 3 4 5 6 
#
# 1 0.015846 -0.002660 -0.005681 0.000000 -0.012556 0.000000
# 2 -0.002660 0.011638 -0.006732 0.000000 0.000400 0.000000
# 3 -0.005681 -0.006732 0.016526 0.000000 0.005163 0.000000
# 4 0.000000 0.000000 0.000000 0.030277 0.000000 -0.002296
# 5 -0.012556 0.000400 0.005163 0.000000 0.058201 0.000000
# 6 0.000000 0.000000 0.000000 -0.002296 0.000000 0.031080
#
#
# Mechanical properties :
#
#
# Convention : Reuss Voigt Hill
#
# Bulk Modulus (GPa) = 72.13252 79.61847 75.87549
# Shear Modulus (GPa) = 25.20986 28.87927 27.04456
#
# Velocity S-wave (km/s) = 3.73691 3.99964 3.87050
# Velocity P-wave (km/s) = 7.65347 8.08903 7.87427
#
# Compressibility (1/GPa) = 0.01386337
#
# Stress axis : x y z
#
# Youngs Moduli (GPa) = 63.10760 85.92811 60.51058
#
# Poissons Ratio (x) = 0.22855 0.34378
# Poissons Ratio (y) = 0.16786 0.40736
# Poissons Ratio (z) = 0.35854 0.57847
#
# Static dielectric constant tensor:
#      x y z
#    x 1.595000 0.000000 0.006840 
#    y 0.000000 1.598370 0.000000 
#    z 0.006840 0.000000 1.617230 
# 
# From -- ./inp_files/274091.got.cif
#   From: 2010.05.17/outbox.cif.g08.bks.cpg/sg12_138_cif.got.tgz:274091.got - 2010.06.03 13:09:07.
