data_PCOD9200502
_publ_section_title
;
Structure prediction by ZEFSAII (Michael W. Deem and Ramdas Pophale) SiO2 
 PCOD9200502
Probable space group: C 2/M
;
_chemical_formula_sum "Si O2"
_cell_formula_units_Z 58
_cell_length_a 15.155182
_cell_length_b 8.006643
_cell_length_c 19.854104
_cell_angle_alpha 90.000000
_cell_angle_beta 103.622145
_cell_angle_gamma 90.000000
_cell_volume 2341.370325
_symmetry_space_group_name_H-M "C 2/M"
_symmetry_group_IT_number 12
_symmetry_cell_setting 'monoclinic'
loop_
_space_group_symop_operation_xyz
x,y,z
-x,y,-z
-x,-y,-z
x,-y,z
1/2+x,1/2+y,z
1/2-x,1/2+y,-z
1/2-x,1/2-y,-z
1/2+x,1/2-y,z
loop_
_atom_site_type_symbol
_atom_site_label
_atom_site_fract_x
_atom_site_fract_y
_atom_site_fract_z
Si Si1 0.000000 0.500000 0.000000
Si Si2 0.393597 0.185688 0.544690
Si Si3 0.502506 0.693146 0.686390
Si Si4 0.519205 0.299388 0.171917
Si Si5 0.310985 0.690994 0.126678
Si Si6 0.791627 0.814329 0.404750
Si Si7 0.122637 0.803067 0.054544
Si Si8 0.300205 0.817187 0.266386
O O1 0.923009 0.653305 0.995960
O O2 0.450434 0.293419 0.607118
O O3 0.295116 0.177256 0.562596
O O4 0.373437 0.246081 0.465546
O O5 0.432294 0.000000 0.550653
O O6 0.528589 0.500000 0.701424
O O7 0.452058 0.747361 0.746663
O O8 0.592435 0.803140 0.699938
O O9 0.517339 0.500000 0.169102
O O10 0.414521 0.242243 0.143685
O O11 0.583700 0.252297 0.122174
O O12 0.312727 0.500000 0.103173
O O13 0.231093 0.787597 0.075292
O O14 0.284357 0.695947 0.201317
O O15 0.762200 0.715421 0.333443
O O16 0.816473 0.000000 0.386344
O O17 0.099234 0.000000 0.036347
O O18 0.272243 0.000000 0.237472
#
# Coordination Sequence:
#
# PCOD9200502 Si02
#       8
#     2   8   8   8   8   8   8   8
#     4  12  26  48  68 110 136 178 222 264 312 390
#     4  10  21  36  53  78 111 150 200 256 312 376
#     4  10  20  37  58  84 116 154 201 256 311 375
#     4   8  19  39  66  95 132 171 216 267 323 382
#     4  10  20  41  67  98 134 171 217 269 325 383
#     4  10  21  37  54  76 110 155 202 253 313 376
#     4  11  23  45  73 100 138 179 217 269 319 376
#     4  11  22  36  56  87 119 154 202 258 311 374
#
# _framework density 24.771818
#
# number of rings (size 3 to 8) (size 9 to 14) (size 15 to 20)
#    0.000    1.931    0.690    3.931    1.931    2.207 
#    7.448    3.448    0.000    0.000    0.000    0.000 
#    0.000    0.000    0.000    0.000    0.000    0.000 
#
# Total GULP energy -161735.895778 kJ/mol
# GULP energy per Si atom -5577.099854 kJ/mol
# Density = 2.471544 g / cm^3
# Si number density = 24.771818 Si / 1000 Ang^3
#
#
#
# Elastic Constant Matrix: (Units=GPa)
#
#
# Indices 1 2 3 4 5 6 
#
# 1 62.0176 5.7376 53.2589 0.0000 2.3703 0.0000
# 2 5.7376 101.4246 12.1450 0.0000 6.3698 0.0000
# 3 53.2589 12.1450 93.6050 0.0000 -2.2381 0.0000
# 4 0.0000 0.0000 0.0000 0.5094 0.0000 16.5281
# 5 2.3703 6.3698 -2.2381 0.0000 46.3028 0.0000
# 6 0.0000 0.0000 0.0000 16.5281 0.0000 17.7483
#
#
#
# Elastic Compliance Matrix: (Units=1/GPa)
#
#
# Indices 1 2 3 4 5 6 
#
# 1 0.031849 0.000547 -0.018254 0.000000 -0.002588 0.000000
# 2 0.000547 0.010122 -0.001660 0.000000 -0.001501 0.000000
# 3 -0.018254 -0.001660 0.021337 0.000000 0.002194 0.000000
# 4 0.000000 0.000000 0.000000 -0.067193 0.000000 0.062574
# 5 -0.002588 -0.001501 0.002194 0.000000 0.022042 0.000000
# 6 0.000000 0.000000 0.000000 0.062574 0.000000 -0.001929
#
#
# Mechanical properties :
#
#
# Convention : Reuss Voigt Hill
#
# Bulk Modulus (GPa) = 40.69578 44.37002 42.53290
# Shear Modulus (GPa) = 79.17242 25.30581 52.23912
#
# Velocity S-wave (km/s) = 5.65951 3.19965 4.59716
# Velocity P-wave (km/s) = 7.69225 5.62145 6.73689
#
# Compressibility (1/GPa) = 0.02457257
#
# Stress axis : x y z
#
# Youngs Moduli (GPa) = 31.39843 98.79804 46.86675
#
# Poissons Ratio (x) = -0.05401 0.85550
# Poissons Ratio (y) = -0.01716 0.07781
# Poissons Ratio (z) = 0.57314 0.16402
#
# Static dielectric constant tensor:
#      x y z
#    x 1.999300 0.000000 -0.045470 
#    y 0.000000 1.968300 0.000000 
#    z -0.045470 0.000000 2.037480 
# 
# From -- ./inp_files/314348.got.cif
#   From: 2010.05.17/outbox.cif.g08.bks.cpg/sg12_158_cif.got.tgz:314348.got - 2010.06.03 13:09:07.
