data_PCOD9200792
_publ_section_title
;
Structure prediction by ZEFSAII (Michael W. Deem and Ramdas Pophale) SiO2 
 PCOD9200792
Probable space group: C 2/M
;
_chemical_formula_sum "Si O2"
_cell_formula_units_Z 64
_cell_length_a 15.258382
_cell_length_b 16.799148
_cell_length_c 12.116690
_cell_angle_alpha 90.000000
_cell_angle_beta 99.577962
_cell_angle_gamma 90.000000
_cell_volume 3062.549567
_symmetry_space_group_name_H-M "C 2/M"
_symmetry_group_IT_number 12
_symmetry_cell_setting 'monoclinic'
loop_
_space_group_symop_operation_xyz
x,y,z
-x,y,-z
-x,-y,-z
x,-y,z
1/2+x,1/2+y,z
1/2-x,1/2+y,-z
1/2-x,1/2-y,-z
1/2+x,1/2-y,z
loop_
_atom_site_type_symbol
_atom_site_label
_atom_site_fract_x
_atom_site_fract_y
_atom_site_fract_z
Si Si1 0.779846 0.589565 0.248686
Si Si2 0.319336 0.293809 0.938444
Si Si3 0.627059 0.807494 0.252900
Si Si4 0.016216 0.906806 0.662835
Si Si5 0.517853 0.903934 0.634389
Si Si6 0.438456 0.586838 0.091604
Si Si7 0.334218 0.656399 0.590446
Si Si8 0.716705 0.404761 0.645002
O O1 0.783897 0.500000 0.205689
O O2 0.739072 0.648495 0.151102
O O3 0.878412 0.610748 0.313964
O O4 0.710044 0.594690 0.334229
O O5 0.376981 0.237395 0.866999
O O6 0.250000 0.250000 0.000000
O O7 0.374804 0.344794 0.037772
O O8 0.543755 0.851764 0.295212
O O9 0.660653 0.739427 0.344962
O O10 0.705306 0.872865 0.261830
O O11 0.002060 0.892877 0.790229
O O12 0.118633 0.884837 0.668787
O O13 0.936393 0.864357 0.584759
O O14 0.007979 0.000000 0.635864
O O15 0.500000 0.885505 0.500000
O O16 0.500743 0.000000 0.643941
O O17 0.395568 0.500000 0.108391
O O18 0.500000 0.576624 0.000000
O O19 0.278414 0.642783 0.468875
O O20 0.722605 0.500000 0.628944
#
# Coordination Sequence:
#
# PCOD9200792 Si02
#       8
#     8   8   8   8   8   8   8   8
#     4  10  21  39  63  88 117 157 206 250 291 360
#     4  11  24  40  60  85 119 157 197 254 315 359
#     4  11  24  39  59  89 120 156 201 251 300 355
#     4  10  21  36  58  88 117 150 193 239 291 358
#     4  10  22  42  66  90 120 163 208 248 298 364
#     4  10  20  37  60  82 109 149 196 240 287 351
#     4  11  22  36  59  90 124 155 187 238 303 364
#     4  11  22  38  59  83 119 159 193 233 288 359
#
# _framework density 20.897621000000001
#
# number of rings (size 3 to 8) (size 9 to 14) (size 15 to 20)
#    0.000    1.500    0.000    5.625    0.000    9.000 
#    0.000    1.875    0.000    1.500    0.000    0.000 
#    0.000    0.000    0.000    0.000    0.000    0.000 
#
# Total GULP energy -178544.350146 kJ/mol
# GULP energy per Si atom -5579.510942 kJ/mol
# Density = 2.085006 g / cm^3
# Si number density = 20.897621 Si / 1000 Ang^3
#
#
#
# Elastic Constant Matrix: (Units=GPa)
#
#
# Indices 1 2 3 4 5 6 
#
# 1 85.2873 33.6339 -0.8633 0.0000 -1.7914 0.0000
# 2 33.6339 57.5171 4.3548 0.0000 -4.2339 0.0000
# 3 -0.8633 4.3548 52.3505 0.0000 -4.1058 0.0000
# 4 0.0000 0.0000 0.0000 10.8065 0.0000 -10.9319
# 5 -1.7914 -4.2339 -4.1058 0.0000 30.1170 0.0000
# 6 0.0000 0.0000 0.0000 -10.9319 0.0000 59.4314
#
#
#
# Elastic Compliance Matrix: (Units=1/GPa)
#
#
# Indices 1 2 3 4 5 6 
#
# 1 0.015293 -0.009034 0.000986 0.000000 -0.000226 0.000000
# 2 -0.009034 0.022990 -0.001870 0.000000 0.002440 0.000000
# 3 0.000986 -0.001870 0.019466 0.000000 0.002449 0.000000
# 4 0.000000 0.000000 0.000000 0.113693 0.000000 0.020913
# 5 -0.000226 0.002440 0.002449 0.000000 0.033867 0.000000
# 6 0.000000 0.000000 0.000000 0.020913 0.000000 0.020673
#
#
# Mechanical properties :
#
#
# Convention : Reuss Voigt Hill
#
# Bulk Modulus (GPa) = 26.37639 29.93397 28.15518
# Shear Modulus (GPa) = 19.34569 30.60628 24.97599
#
# Velocity S-wave (km/s) = 3.04589 3.83114 3.46086
# Velocity P-wave (km/s) = 5.00191 5.82455 5.42883
#
# Compressibility (1/GPa) = 0.03791269
#
# Stress axis : x y z
#
# Youngs Moduli (GPa) = 65.38956 43.49704 51.37179
#
# Poissons Ratio (x) = 0.39295 -0.05065
# Poissons Ratio (y) = 0.59073 0.09607
# Poissons Ratio (z) = -0.06447 0.08134
#
# Static dielectric constant tensor:
#      x y z
#    x 1.742680 0.000000 -0.051490 
#    y 0.000000 1.797500 0.000000 
#    z -0.051490 0.000000 1.735630 
# 
# From -- ./inp_files/146150.got.cif
#   From: 2010.05.17/outbox.cif.g08.bks.cpg/sg12_74_cif.got.tgz:146150.got - 2010.06.03 13:09:07.
