data_PCOD9200731
_publ_section_title
;
Structure prediction by ZEFSAII (Michael W. Deem and Ramdas Pophale) SiO2 
 PCOD9200731
Probable space group: C 2/M
;
_chemical_formula_sum "Si O2"
_cell_formula_units_Z 64
_cell_length_a 30.270426
_cell_length_b 8.985066
_cell_length_c 23.314024
_cell_angle_alpha 90.000000
_cell_angle_beta 148.990348
_cell_angle_gamma 90.000000
_cell_volume 3266.766675
_symmetry_space_group_name_H-M "C 2/M"
_symmetry_group_IT_number 12
_symmetry_cell_setting 'monoclinic'
loop_
_space_group_symop_operation_xyz
x,y,z
-x,y,-z
-x,-y,-z
x,-y,z
1/2+x,1/2+y,z
1/2-x,1/2+y,-z
1/2-x,1/2-y,-z
1/2+x,1/2-y,z
loop_
_atom_site_type_symbol
_atom_site_label
_atom_site_fract_x
_atom_site_fract_y
_atom_site_fract_z
Si Si1 0.340985 0.176808 0.584932
Si Si2 0.048231 0.676042 0.995738
Si Si3 0.011582 0.825561 0.577932
Si Si4 0.342563 0.325839 0.466574
Si Si5 0.491811 0.320476 0.171297
Si Si6 0.180181 0.675810 0.773406
Si Si7 0.191644 0.179238 0.984852
Si Si8 0.245154 0.673529 0.250656
O O1 0.250000 0.250000 0.500000
O O2 0.352198 0.219707 0.530928
O O3 0.420999 0.248257 0.708025
O O4 0.338806 0.000000 0.591746
O O5 0.028816 0.500000 0.964893
O O6 0.025370 0.764558 0.912721
O O7 0.148182 0.689907 0.122489
O O8 0.000000 0.725102 0.000000
O O9 0.091330 0.744428 0.695615
O O10 0.000000 0.768870 0.500000
O O11 0.925403 0.811964 0.518140
O O12 0.033253 0.000000 0.597987
O O13 0.335891 0.500000 0.477542
O O14 0.262462 0.288527 0.336127
O O15 0.498053 0.500000 0.179159
O O16 0.408168 0.277973 0.117186
O O17 0.174408 0.500000 0.767521
O O18 0.197785 0.733217 0.729267
O O19 0.259090 0.720355 0.901607
O O20 0.193643 0.000000 0.980340
O O21 0.250000 0.250000 0.000000
O O22 0.270536 0.500000 0.273305
#
# Coordination Sequence:
#
# PCOD9200731 Si02
#       8
#     8   8   8   8   8   8   8   8
#     4  12  28  49  71  96 127 169 220 272 328 388
#     4  10  22  39  65 100 129 163 208 259 320 384
#     4  10  20  37  59  87 123 167 210 248 306 378
#     4  10  22  41  65  93 128 170 217 265 316 383
#     4  11  24  46  69  97 133 171 217 270 326 384
#     4  11  22  37  57  88 127 162 207 264 319 373
#     4  10  24  42  62  90 126 168 214 263 318 381
#     4  10  20  38  63  91 126 167 210 256 317 388
#
# _framework density 19.591235999999999
#
# number of rings (size 3 to 8) (size 9 to 14) (size 15 to 20)
#    0.000    1.500    2.500    1.875    3.500    3.500 
#    0.000    0.000    0.000    0.000    0.000    0.000 
#    0.000    0.000    0.000    0.000    0.000    0.000 
#
# Total GULP energy -178730.868047 kJ/mol
# GULP energy per Si atom -5585.339626 kJ/mol
# Density = 1.954665 g / cm^3
# Si number density = 19.591236 Si / 1000 Ang^3
#
#
#
# Elastic Constant Matrix: (Units=GPa)
#
#
# Indices 1 2 3 4 5 6 
#
# 1 94.5403 41.9844 48.1435 0.0000 5.0055 0.0000
# 2 41.9844 69.7441 64.4373 0.0000 1.5796 0.0000
# 3 48.1435 64.4373 138.2320 0.0000 5.1815 0.0000
# 4 0.0000 0.0000 0.0000 32.0611 0.0000 -3.5656
# 5 5.0055 1.5796 5.1815 0.0000 24.0210 0.0000
# 6 0.0000 0.0000 0.0000 -3.5656 0.0000 29.1560
#
#
#
# Elastic Compliance Matrix: (Units=1/GPa)
#
#
# Indices 1 2 3 4 5 6 
#
# 1 0.014791 -0.007327 -0.001652 0.000000 -0.002244 0.000000
# 2 -0.007327 0.028833 -0.010964 0.000000 0.001996 0.000000
# 3 -0.001652 -0.010964 0.012985 0.000000 -0.001736 0.000000
# 4 0.000000 0.000000 0.000000 0.031620 0.000000 0.003867
# 5 -0.002244 0.001996 -0.001736 0.000000 0.042341 0.000000
# 6 0.000000 0.000000 0.000000 0.003867 0.000000 0.034771
#
#
# Mechanical properties :
#
#
# Convention : Reuss Voigt Hill
#
# Bulk Modulus (GPa) = 59.79187 67.96078 63.87632
# Shear Modulus (GPa) = 23.71892 26.91104 25.31498
#
# Velocity S-wave (km/s) = 3.48327 3.71027 3.59856
# Velocity P-wave (km/s) = 6.83839 7.28831 7.06693
#
# Compressibility (1/GPa) = 0.01672468
#
# Stress axis : x y z
#
# Youngs Moduli (GPa) = 67.60684 34.68254 77.01021
#
# Poissons Ratio (x) = 0.25412 0.12721
# Poissons Ratio (y) = 0.49536 0.84430
# Poissons Ratio (z) = 0.11168 0.38024
#
# Static dielectric constant tensor:
#      x y z
#    x 1.697290 0.000000 0.010560 
#    y 0.000000 1.663390 0.000000 
#    z 0.010560 0.000000 1.711400 
# 
# From -- ./inp_files/353587.got.cif
#   From: 2010.05.17/outbox.cif.g08.bks.cpg/sg12_177_cif.got.tgz:353587.got - 2010.06.03 13:09:07.
