data_PCOD9200128
_publ_section_title
;
Structure prediction by ZEFSAII (Michael W. Deem and Ramdas Pophale) SiO2 
 PCOD9200128
Probable space group: C 2/M
;
_chemical_formula_sum "Si O2"
_cell_formula_units_Z 58
_cell_length_a 11.907692
_cell_length_b 28.018935
_cell_length_c 8.427164
_cell_angle_alpha 90.000000
_cell_angle_beta 84.976317
_cell_angle_gamma 90.000000
_cell_volume 2800.845452
_symmetry_space_group_name_H-M "C 2/M"
_symmetry_group_IT_number 12
_symmetry_cell_setting 'monoclinic'
loop_
_space_group_symop_operation_xyz
x,y,z
-x,y,-z
-x,-y,-z
x,-y,z
1/2+x,1/2+y,z
1/2-x,1/2+y,-z
1/2-x,1/2-y,-z
1/2+x,1/2-y,z
loop_
_atom_site_type_symbol
_atom_site_label
_atom_site_fract_x
_atom_site_fract_y
_atom_site_fract_z
Si Si1 0.586525 0.447193 0.134477
Si Si2 0.000000 0.500000 0.000000
Si Si3 0.332205 0.078056 0.984201
Si Si4 0.572189 0.890992 0.346701
Si Si5 0.917104 0.672871 0.136317
Si Si6 0.995465 0.152377 0.811417
Si Si7 0.304209 0.278895 0.706383
Si Si8 0.733190 0.319728 0.634154
O O1 0.590174 0.500000 0.211932
O O2 0.550189 0.400027 0.237135
O O3 0.500000 0.450542 0.000000
O O4 0.705622 0.435607 0.037554
O O5 0.088639 0.541568 0.934323
O O6 0.372558 0.075434 0.795618
O O7 0.357661 0.130821 0.042369
O O8 0.500000 0.912717 0.500000
O O9 0.489283 0.853907 0.263915
O O10 0.677934 0.861794 0.403367
O O11 0.817808 0.704944 0.214609
O O12 0.000000 0.697841 0.000000
O O13 0.907414 0.193495 0.773664
O O14 0.121211 0.162375 0.734928
O O15 0.000000 0.151134 0.000000
O O16 0.307244 0.295722 0.523575
O O17 0.301440 0.221824 0.717905
#
# Coordination Sequence:
#
# PCOD9200128 Si02
#       8
#     8   2   8   8   8   8   8   8
#     4  10  20  36  64  92 122 163 212 258 318 377
#     4  12  20  36  64  92 120 162 212 262 326 384
#     4  11  21  39  63  92 124 162 209 264 324 380
#     4  11  21  38  60  88 124 165 207 256 315 378
#     4  10  21  38  62  89 120 160 206 255 315 374
#     4  11  24  42  63  96 128 161 217 273 312 372
#     4  11  24  43  62  89 124 174 209 254 322 385
#     4  11  26  40  64  89 128 171 213 255 322 391
#
# _framework density 20.708034000000001
#
# number of rings (size 3 to 8) (size 9 to 14) (size 15 to 20)
#    0.000    1.241    5.517    2.069    3.862    1.103 
#    0.000    0.345    0.000    1.655    0.000    0.000 
#    0.000    0.000    0.000    0.000    0.000    0.000 
#
# Total GULP energy -161644.882993 kJ/mol
# GULP energy per Si atom -5573.961483 kJ/mol
# Density = 2.066090 g / cm^3
# Si number density = 20.708034 Si / 1000 Ang^3
#
#
#
# Elastic Constant Matrix: (Units=GPa)
#
#
# Indices 1 2 3 4 5 6 
#
# 1 114.7554 25.8667 13.1300 0.0000 -17.9978 0.0000
# 2 25.8667 93.2722 15.7933 0.0000 -16.1381 0.0000
# 3 13.1300 15.7933 65.8556 0.0000 -22.4862 0.0000
# 4 0.0000 0.0000 0.0000 -10.7816 0.0000 3.7797
# 5 -17.9978 -16.1381 -22.4862 0.0000 35.2932 0.0000
# 6 0.0000 0.0000 0.0000 3.7797 0.0000 27.0101
#
#
#
# Elastic Compliance Matrix: (Units=1/GPa)
#
#
# Indices 1 2 3 4 5 6 
#
# 1 0.009809 -0.002008 -0.000102 0.000000 0.004019 0.000000
# 2 -0.002008 0.012134 -0.001233 0.000000 0.003739 0.000000
# 3 -0.000102 -0.001233 0.019542 0.000000 0.011835 0.000000
# 4 0.000000 0.000000 0.000000 -0.088413 0.000000 0.012372
# 5 0.004019 0.003739 0.011835 0.000000 0.039633 0.000000
# 6 0.000000 0.000000 0.000000 0.012372 0.000000 0.035292
#
#
# Mechanical properties :
#
#
# Convention : Reuss Voigt Hill
#
# Bulk Modulus (GPa) = 28.73619 42.60701 35.67160
# Shear Modulus (GPa) = 108.03546 24.91054 66.47300
#
# Velocity S-wave (km/s) = 7.23077 3.47211 5.67184
# Velocity P-wave (km/s) = 9.14434 6.05754 7.75606
#
# Compressibility (1/GPa) = 0.03479932
#
# Stress axis : x y z
#
# Youngs Moduli (GPa) = 101.95025 82.41480 51.17269
#
# Poissons Ratio (x) = 0.16545 0.00521
# Poissons Ratio (y) = 0.20467 0.06309
# Poissons Ratio (z) = 0.01038 0.10162
#
# Static dielectric constant tensor:
#      x y z
#    x 1.817390 0.000000 0.024820 
#    y 0.000000 1.748480 0.000000 
#    z 0.024820 0.000000 1.765470 
# 
# From -- ./inp_files/54244.got.cif
#   From: 2010.05.17/outbox.cif.g08.bks.cpg/sg12_28_cif.got.tgz:54244.got - 2010.06.03 13:09:07.
