data_PCOD9200508
_publ_section_title
;
Structure prediction by ZEFSAII (Michael W. Deem and Ramdas Pophale) SiO2 
 PCOD9200508
Probable space group: C 2/M
;
_chemical_formula_sum "Si O2"
_cell_formula_units_Z 56
_cell_length_a 10.202886
_cell_length_b 15.999389
_cell_length_c 18.084366
_cell_angle_alpha 90.000000
_cell_angle_beta 88.351538
_cell_angle_gamma 90.000000
_cell_volume 2950.869108
_symmetry_space_group_name_H-M "C 2/M"
_symmetry_group_IT_number 12
_symmetry_cell_setting 'monoclinic'
loop_
_space_group_symop_operation_xyz
x,y,z
-x,y,-z
-x,-y,-z
x,-y,z
1/2+x,1/2+y,z
1/2-x,1/2+y,-z
1/2-x,1/2-y,-z
1/2+x,1/2-y,z
loop_
_atom_site_type_symbol
_atom_site_label
_atom_site_fract_x
_atom_site_fract_y
_atom_site_fract_z
Si Si1 0.882747 0.596859 0.060681
Si Si2 0.641755 0.398523 0.966499
Si Si3 0.878784 0.244154 0.448387
Si Si4 0.515734 0.182447 0.793351
Si Si5 0.976532 0.595204 0.361259
Si Si6 0.713534 0.407715 0.646416
Si Si7 0.209451 0.167064 0.802051
O O1 0.858101 0.500000 0.080482
O O2 0.930506 0.643786 0.131977
O O3 0.753558 0.630543 0.021971
O O4 0.000000 0.599324 0.000000
O O5 0.646841 0.500000 0.964027
O O6 0.671763 0.366511 0.883672
O O7 0.500000 0.373045 0.000000
O O8 0.750000 0.250000 0.500000
O O9 0.904080 0.332608 0.407711
O O10 0.860542 0.168767 0.390715
O O11 0.000000 0.226910 0.500000
O O12 0.535657 0.119120 0.724918
O O13 0.359893 0.199655 0.801679
O O14 0.604025 0.263684 0.780534
O O15 0.932933 0.500000 0.376161
O O16 0.132115 0.600018 0.376091
O O17 0.667549 0.500000 0.624458
O O18 0.706297 0.399496 0.735506
#
# Coordination Sequence:
#
# PCOD9200508 Si02
#       7
#     8   8   8   8   8   8   8
#     4  10  20  37  58  84 119 157 210 267 313 367
#     4  10  22  39  58  85 121 162 210 265 320 373
#     4  12  24  42  69 100 137 164 206 266 320 381
#     4  11  23  38  63  90 122 164 212 266 316 370
#     4  10  22  43  70  97 128 174 221 255 312 389
#     4  10  22  43  70  97 129 172 217 260 318 383
#     4  11  23  39  63  88 123 165 213 263 315 376
#
# _framework density 18.977461000000002
#
# number of rings (size 3 to 8) (size 9 to 14) (size 15 to 20)
#    0.000    1.429    4.286    0.857    2.000    3.429 
#    0.000    0.000    0.000    0.000    0.000    0.000 
#    0.000    0.000    0.000    0.000    0.000    0.000 
#
# Total GULP energy -156373.903850 kJ/mol
# GULP energy per Si atom -5584.782280 kJ/mol
# Density = 1.893427 g / cm^3
# Si number density = 18.977461 Si / 1000 Ang^3
#
#
#
# Elastic Constant Matrix: (Units=GPa)
#
#
# Indices 1 2 3 4 5 6 
#
# 1 126.7184 51.7525 50.2493 0.0000 2.3149 0.0000
# 2 51.7525 122.5871 49.8250 0.0000 -2.7714 0.0000
# 3 50.2493 49.8250 100.8568 0.0000 0.5970 0.0000
# 4 0.0000 0.0000 0.0000 0.7408 0.0000 -3.1378
# 5 2.3149 -2.7714 0.5970 0.0000 29.8077 0.0000
# 6 0.0000 0.0000 0.0000 -3.1378 0.0000 20.5258
#
#
#
# Elastic Compliance Matrix: (Units=1/GPa)
#
#
# Indices 1 2 3 4 5 6 
#
# 1 0.010638 -0.002956 -0.003834 0.000000 -0.001024 0.000000
# 2 -0.002956 0.011061 -0.004000 0.000000 0.001338 0.000000
# 3 -0.003834 -0.004000 0.013803 0.000000 -0.000351 0.000000
# 4 0.000000 0.000000 0.000000 3.830118 0.000000 0.585511
# 5 -0.001024 0.001338 -0.000351 0.000000 0.033759 0.000000
# 6 0.000000 0.000000 0.000000 0.585511 0.000000 0.138226
#
#
# Mechanical properties :
#
#
# Convention : Reuss Voigt Hill
#
# Bulk Modulus (GPa) = 71.82062 72.64620 72.23341
# Shear Modulus (GPa) = 1.23037 23.43723 12.33380
#
# Velocity S-wave (km/s) = 0.80606 3.51807 2.55212
# Velocity P-wave (km/s) = 6.22846 7.40715 6.84323
#
# Compressibility (1/GPa) = 0.01392358
#
# Stress axis : x y z
#
# Youngs Moduli (GPa) = 94.00618 90.40572 72.44793
#
# Poissons Ratio (x) = 0.26723 0.27774
# Poissons Ratio (y) = 0.27787 0.28977
# Poissons Ratio (z) = 0.36038 0.36159
#
# Static dielectric constant tensor:
#      x y z
#    x 1.634460 0.000000 -0.001720 
#    y 0.000000 1.673000 0.000000 
#    z -0.001720 0.000000 1.646620 
# 
# From -- ./inp_files/300142.got.cif
#   From: 2010.05.17/outbox.cif.g08.bks.cpg/sg12_151_cif.got.tgz:300142.got - 2010.06.03 13:09:07.
