data_PCOD9200494
_publ_section_title
;
Structure prediction by ZEFSAII (Michael W. Deem and Ramdas Pophale) SiO2 
 PCOD9200494
Probable space group: C 2/M
;
_chemical_formula_sum "Si O2"
_cell_formula_units_Z 56
_cell_length_a 21.007839
_cell_length_b 18.309790
_cell_length_c 24.217602
_cell_angle_alpha 90.000000
_cell_angle_beta 17.835951
_cell_angle_gamma 90.000000
_cell_volume 2853.201781
_symmetry_space_group_name_H-M "C 2/M"
_symmetry_group_IT_number 12
_symmetry_cell_setting 'monoclinic'
loop_
_space_group_symop_operation_xyz
x,y,z
-x,y,-z
-x,-y,-z
x,-y,z
1/2+x,1/2+y,z
1/2-x,1/2+y,-z
1/2-x,1/2-y,-z
1/2+x,1/2-y,z
loop_
_atom_site_type_symbol
_atom_site_label
_atom_site_fract_x
_atom_site_fract_y
_atom_site_fract_z
Si Si1 0.034811 0.417019 0.266050
Si Si2 0.243040 0.321122 0.427570
Si Si3 0.317263 0.696598 0.607218
Si Si4 0.817231 0.208685 0.887688
Si Si5 0.533515 0.722765 0.034770
Si Si6 0.516360 0.085658 0.816802
Si Si7 0.469862 0.583883 0.144779
O O1 0.981880 0.500000 0.325962
O O2 0.935591 0.364417 0.392996
O O3 0.947040 0.400435 0.278278
O O4 0.282021 0.416126 0.050244
O O5 0.157093 0.248746 0.467536
O O6 0.436525 0.302402 0.308403
O O7 0.346095 0.375280 0.296020
O O8 0.500000 0.695705 0.500000
O O9 0.130757 0.736141 0.792270
O O10 0.225763 0.617087 0.670505
O O11 0.750000 0.250000 0.000000
O O12 0.742785 0.254715 0.895484
O O13 0.683261 0.133551 0.999300
O O14 0.466069 0.637894 0.095533
O O15 0.500000 0.746625 0.000000
O O16 0.481669 0.000000 0.854326
O O17 0.402095 0.500000 0.193372
#
# Coordination Sequence:
#
# PCOD9200494 Si02
#       7
#     8   8   8   8   8   8   8
#     4  10  21  34  56  92 118 147 195 240 300 364
#     4  11  21  36  62  86 119 155 201 250 292 353
#     4  10  23  39  56  83 117 158 205 244 301 355
#     4  11  18  40  60  88 118 153 203 247 298 364
#     4  10  22  37  60  84 117 154 201 247 295 356
#     4  10  20  37  60  86 119 154 194 250 307 357
#     4  10  20  37  58  83 123 158 191 242 300 354
#
# _framework density 19.627074
#
# number of rings (size 3 to 8) (size 9 to 14) (size 15 to 20)
#    0.000    1.714    5.714    0.429    2.000    2.857 
#    0.000    0.000    0.000    9.000    0.000    0.000 
#    0.000    0.000    0.000    0.000    0.000    0.000 
#
# Total GULP energy -156064.764511 kJ/mol
# GULP energy per Si atom -5573.741590 kJ/mol
# Density = 1.958240 g / cm^3
# Si number density = 19.627074 Si / 1000 Ang^3
#
#
#
# Elastic Constant Matrix: (Units=GPa)
#
#
# Indices 1 2 3 4 5 6 
#
# 1 80.9334 29.4586 20.3122 0.0230 1.2375 -0.0124
# 2 29.4586 93.0661 23.8325 -0.0317 19.8322 0.0143
# 3 20.3122 23.8325 70.2416 -0.0333 2.1825 -0.0234
# 4 0.0230 -0.0317 -0.0333 20.7295 0.0053 -4.4936
# 5 1.2375 19.8322 2.1825 0.0053 14.9865 -0.0006
# 6 -0.0124 0.0143 -0.0234 -4.4936 -0.0006 16.5216
#
#
#
# Elastic Compliance Matrix: (Units=1/GPa)
#
#
# Indices 1 2 3 4 5 6 
#
# 1 0.014883 -0.005356 -0.002681 -0.000030 0.006249 0.000004
# 2 -0.005356 0.018444 -0.003982 0.000030 -0.023385 -0.000018
# 3 -0.002681 -0.003982 0.016266 0.000029 0.003122 0.000033
# 4 -0.000030 0.000030 0.000029 0.051263 -0.000059 0.013943
# 5 0.006249 -0.023385 0.003122 -0.000059 0.096702 0.000017
# 6 0.000004 -0.000018 0.000033 0.013943 0.000017 0.064319
#
#
# Mechanical properties :
#
#
# Convention : Reuss Voigt Hill
#
# Bulk Modulus (GPa) = 39.13287 43.49420 41.31353
# Shear Modulus (GPa) = 16.98186 21.82338 19.40262
#
# Velocity S-wave (km/s) = 2.94466 3.33814 3.14756
# Velocity P-wave (km/s) = 5.61631 6.08818 5.85700
#
# Compressibility (1/GPa) = 0.02555397
#
# Stress axis : x y z
#
# Youngs Moduli (GPa) = 67.19243 54.21959 61.47830
#
# Poissons Ratio (x) = 0.29041 0.16480
# Poissons Ratio (y) = 0.35990 0.24482
# Poissons Ratio (z) = 0.18011 0.21592
#
# Static dielectric constant tensor:
#      x y z
#    x 2.613360 -0.000200 -0.522350 
#    y -0.000200 1.739970 0.000170 
#    z -0.522350 0.000170 1.987310 
# 
# From -- ./inp_files/322642.got.cif
#   From: 2010.05.17/outbox.cif.g08.bks.cpg/sg12_162_cif.got.tgz:322642.got - 2010.06.03 13:09:07.
