data_PCOD9200478
_publ_section_title
;
Structure prediction by ZEFSAII (Michael W. Deem and Ramdas Pophale) SiO2 
 PCOD9200478
Probable space group: C 2/M
;
_chemical_formula_sum "Si O2"
_cell_formula_units_Z 64
_cell_length_a 21.084619
_cell_length_b 26.262675
_cell_length_c 18.016787
_cell_angle_alpha 90.000000
_cell_angle_beta 160.212779
_cell_angle_gamma 90.000000
_cell_volume 3377.355183
_symmetry_space_group_name_H-M "C 2/M"
_symmetry_group_IT_number 12
_symmetry_cell_setting 'monoclinic'
loop_
_space_group_symop_operation_xyz
x,y,z
-x,y,-z
-x,-y,-z
x,-y,z
1/2+x,1/2+y,z
1/2-x,1/2+y,-z
1/2-x,1/2-y,-z
1/2+x,1/2-y,z
loop_
_atom_site_type_symbol
_atom_site_label
_atom_site_fract_x
_atom_site_fract_y
_atom_site_fract_z
Si Si1 0.716709 0.691682 0.356516
Si Si2 0.133424 0.627535 0.349968
Si Si3 0.126326 0.298447 0.213325
Si Si4 0.522637 0.441049 0.253266
Si Si5 0.415945 0.391643 0.983389
Si Si6 0.763117 0.857874 0.033047
Si Si7 0.553528 0.296374 0.635737
Si Si8 0.871827 0.683262 0.266532
O O1 0.767896 0.673335 0.495342
O O2 0.607074 0.745080 0.235021
O O3 0.909373 0.683499 0.520450
O O4 0.566975 0.652858 0.159866
O O5 0.096401 0.650928 0.228385
O O6 0.265989 0.579144 0.504620
O O7 0.938335 0.617881 0.175055
O O8 0.348562 0.293749 0.445015
O O9 0.000000 0.298394 0.000000
O O10 0.502951 0.500000 0.249169
O O11 0.408915 0.402579 0.180266
O O12 0.445259 0.429369 0.085149
O O13 0.215923 0.361140 0.776617
O O14 0.500000 0.415963 0.000000
O O15 0.817012 0.824654 0.163327
O O16 0.745306 0.824030 0.938852
O O17 0.500000 0.323344 0.500000
O O18 0.642328 0.240622 0.717287
#
# Coordination Sequence:
#
# PCOD9200478 Si02
#       8
#     8   8   8   8   8   8   8   8
#     4   9  20  33  52  80 117 158 190 216 264 337
#     4  10  20  37  58  83 109 145 190 241 280 335
#     4  11  21  33  51  83 120 157 185 225 274 335
#     4  10  22  42  62  82 107 144 197 249 295 341
#     4  10  21  34  56  85 118 152 189 230 281 330
#     4  10  20  39  58  82 112 150 190 237 285 336
#     4  11  22  33  52  85 121 158 187 222 272 333
#     4   9  21  34  52  79 120 158 190 219 265 335
#
# _framework density 18.949739999999998
#
# number of rings (size 3 to 8) (size 9 to 14) (size 15 to 20)
#    0.000    2.000    1.250    1.875    7.000    0.750 
#    0.000    0.000    0.000    0.750    0.000    7.000 
#    0.000    0.000    0.000    0.000    0.000    0.000 
#
# Total GULP energy -178203.509888 kJ/mol
# GULP energy per Si atom -5568.859684 kJ/mol
# Density = 1.890661 g / cm^3
# Si number density = 18.949740 Si / 1000 Ang^3
#
#
#
# Elastic Constant Matrix: (Units=GPa)
#
#
# Indices 1 2 3 4 5 6 
#
# 1 46.5839 9.9915 8.4182 0.0000 -7.8907 0.0000
# 2 9.9915 57.6450 15.2693 0.0000 -8.3297 0.0000
# 3 8.4182 15.2693 75.5990 0.0004 5.5534 -0.0001
# 4 0.0000 0.0000 0.0004 -9.9633 -0.0001 1.5114
# 5 -7.8907 -8.3297 5.5534 -0.0001 35.2252 -0.0001
# 6 0.0000 0.0000 -0.0001 1.5114 -0.0001 2.8296
#
#
#
# Elastic Compliance Matrix: (Units=1/GPa)
#
#
# Indices 1 2 3 4 5 6 
#
# 1 0.023322 -0.002683 -0.002420 0.000000 0.004971 0.000001
# 2 -0.002683 0.019541 -0.003990 0.000000 0.004649 0.000000
# 3 -0.002420 -0.003990 0.014581 0.000001 -0.003784 0.000000
# 4 0.000000 0.000000 0.000001 -0.092845 0.000000 0.049594
# 5 0.004971 0.004649 -0.003784 0.000000 0.031198 0.000001
# 6 0.000001 0.000000 0.000000 0.049594 0.000001 0.326917
#
#
# Mechanical properties :
#
#
# Convention : Reuss Voigt Hill
#
# Bulk Modulus (GPa) = 25.47236 27.46510 26.46873
# Shear Modulus (GPa) = 14.12485 15.36154 14.74319
#
# Velocity S-wave (km/s) = 2.73314 2.85027 2.79232
# Velocity P-wave (km/s) = 4.84059 5.03559 4.93905
#
# Compressibility (1/GPa) = 0.03925824
#
# Stress axis : x y z
#
# Youngs Moduli (GPa) = 42.87881 51.17407 68.58235
#
# Poissons Ratio (x) = 0.13729 0.16599
# Poissons Ratio (y) = 0.11504 0.27362
# Poissons Ratio (z) = 0.10378 0.20417
#
# Static dielectric constant tensor:
#      x y z
#    x 5.302740 -0.000010 1.114350 
#    y -0.000010 1.640650 0.000000 
#    z 1.114350 0.000000 2.053300 
# 
# From -- ./inp_files/286387.got.cif
#   From: 2010.05.17/outbox.cif.g08.bks.cpg/sg12_144_cif.got.tgz:286387.got - 2010.06.03 13:09:07.
