data_PCOD9200000
_publ_section_title
;
Structure prediction by ZEFSAII (Michael W. Deem and Ramdas Pophale) SiO2 
 PCOD9200000
Probable space group: C 2/M
;
_chemical_formula_sum "Si O2"
_cell_formula_units_Z 48
_cell_length_a 14.473022
_cell_length_b 22.629656
_cell_length_c 11.341512
_cell_angle_alpha 90.000000
_cell_angle_beta 149.621889
_cell_angle_gamma 90.000000
_cell_volume 1878.471913
_symmetry_space_group_name_H-M "C 2/M"
_symmetry_group_IT_number 12
_symmetry_cell_setting 'monoclinic'
loop_
_space_group_symop_operation_xyz
x,y,z
-x,y,-z
-x,-y,-z
x,-y,z
1/2+x,1/2+y,z
1/2-x,1/2+y,-z
1/2-x,1/2-y,-z
1/2+x,1/2-y,z
loop_
_atom_site_type_symbol
_atom_site_label
_atom_site_fract_x
_atom_site_fract_y
_atom_site_fract_z
Si Si1 0.246946 0.132630 0.963310
Si Si2 0.357222 0.500000 0.168203
Si Si3 0.784183 0.318665 0.757011
Si Si4 0.217403 0.689661 0.766837
Si Si5 0.228865 0.500000 0.284840
Si Si6 0.339474 0.896494 0.627892
Si Si7 0.211357 0.563308 0.682629
O O1 0.219573 0.184849 0.027649
O O2 0.467024 0.127747 0.202067
O O3 0.180655 0.066087 0.924958
O O4 0.191730 0.150761 0.769645
O O5 0.233746 0.500000 0.150424
O O6 0.563631 0.500000 0.439957
O O7 0.774127 0.248782 0.763652
O O8 0.722742 0.344632 0.562612
O O9 0.000000 0.332360 0.000000
O O10 0.290074 0.626330 0.804424
O O11 0.000000 0.687984 0.500000
O O12 0.142374 0.442839 0.247130
O O13 0.273220 0.932334 0.441732
O O14 0.289520 0.500000 0.807405
O O15 0.000000 0.562630 0.500000
#
# Coordination Sequence:
#
# PCOD9200000 Si02
#       7
#     8   4   8   8   4   8   8
#     4  11  22  41  66  95 125 168 216 263 312 383
#     4  11  25  39  65  98 138 164 201 263 342 369
#     4  10  24  41  61  94 126 165 214 274 317 366
#     4  11  23  42  63  92 124 175 216 254 315 387
#     4  11  23  41  61 104 132 162 207 265 326 385
#     4  11  20  40  69  92 127 162 223 263 308 376
#     4  10  20  36  62  96 120 159 211 267 300 378
#
# _framework density 25.552685
#
# number of rings (size 3 to 8) (size 9 to 14) (size 15 to 20)
#    0.000    1.333    5.833    1.000    1.167    2.667 
#    3.000    0.000    0.000    1.500    0.000    0.000 
#    0.000    0.000    0.000    0.000    0.000    0.000 
#
# Total GULP energy -134024.305943 kJ/mol
# GULP energy per Si atom -5584.346081 kJ/mol
# Density = 2.549453 g / cm^3
# Si number density = 25.552685 Si / 1000 Ang^3
#
#
#
# Elastic Constant Matrix: (Units=GPa)
#
#
# Indices 1 2 3 4 5 6 
#
# 1 82.8272 58.0641 35.3830 0.0000 -14.7117 0.0000
# 2 58.0641 228.8170 14.5375 0.0000 -20.1912 0.0000
# 3 35.3830 14.5375 49.7505 0.0000 -1.3825 0.0000
# 4 0.0000 0.0000 0.0000 0.0381 0.0000 2.4137
# 5 -14.7117 -20.1912 -1.3825 0.0000 32.9587 0.0000
# 6 0.0000 0.0000 0.0000 2.4137 0.0000 47.3042
#
#
#
# Elastic Compliance Matrix: (Units=1/GPa)
#
#
# Indices 1 2 3 4 5 6 
#
# 1 0.022416 -0.004160 -0.014536 0.000001 0.006847 0.000000
# 2 -0.004160 0.005474 0.001403 0.000000 0.001555 0.000000
# 3 -0.014536 0.001403 0.029907 -0.000001 -0.004375 0.000000
# 4 0.000001 0.000000 -0.000001-11.754225 -0.000001 0.599771
# 5 0.006847 0.001555 -0.004375 -0.000001 0.034167 0.000000
# 6 0.000000 0.000000 0.000000 0.599771 0.000000 -0.009464
#
#
# Mechanical properties :
#
#
# Convention : Reuss Voigt Hill
#
# Bulk Modulus (GPa) = 43.08704 64.15153 53.61928
# Shear Modulus (GPa) = -0.42994 32.95422 16.26214
#
# Velocity S-wave (km/s) = -0.41064 3.59508 2.52547
# Velocity P-wave (km/s) = 4.08336 6.51098 5.43446
#
# Compressibility (1/GPa) = 0.02320884
#
# Stress axis : x y z
#
# Youngs Moduli (GPa) = 44.61113 182.67548 33.43660
#
# Poissons Ratio (x) = 0.76001 0.48605
# Poissons Ratio (y) = 0.18560 -0.04690
# Poissons Ratio (z) = 0.64849 -0.25622
#
# Static dielectric constant tensor:
#      x y z
#    x 2.100950 0.000000 -0.047250 
#    y 0.000000 2.001050 0.000000 
#    z -0.047250 0.000000 2.069510 
# 
# From -- ./inp_files/148053.got.cif
#   From: 2010.05.17/outbox.cif.g08.bks.cpg/sg12_75_cif.got.tgz:148053.got - 2010.06.03 13:09:07.
