data_PCOD9200072
_publ_section_title
;
Structure prediction by ZEFSAII (Michael W. Deem and Ramdas Pophale) SiO2 
 PCOD9200072
Probable space group: C 2/M
;
_chemical_formula_sum "Si O2"
_cell_formula_units_Z 60
_cell_length_a 10.844344
_cell_length_b 15.405222
_cell_length_c 16.159698
_cell_angle_alpha 90.000000
_cell_angle_beta 66.928521
_cell_angle_gamma 90.000000
_cell_volume 2483.706019
_symmetry_space_group_name_H-M "C 2/M"
_symmetry_group_IT_number 12
_symmetry_cell_setting 'monoclinic'
loop_
_space_group_symop_operation_xyz
x,y,z
-x,y,-z
-x,-y,-z
x,-y,z
1/2+x,1/2+y,z
1/2-x,1/2+y,-z
1/2-x,1/2-y,-z
1/2+x,1/2-y,z
loop_
_atom_site_type_symbol
_atom_site_label
_atom_site_fract_x
_atom_site_fract_y
_atom_site_fract_z
Si Si1 0.776383 0.658194 0.705665
Si Si2 0.196317 0.600700 0.475378
Si Si3 0.484506 0.648501 0.810935
Si Si4 0.086280 0.500000 0.776045
Si Si5 0.775581 0.659074 0.362306
Si Si6 0.985964 0.897293 0.626724
Si Si7 0.592845 0.160482 0.150804
Si Si8 0.856631 0.098782 0.001677
O O1 0.851000 0.618713 0.605701
O O2 0.636980 0.612484 0.770963
O O3 0.721525 0.750800 0.687256
O O4 0.869719 0.657661 0.760948
O O5 0.170946 0.500000 0.502883
O O6 0.159139 0.659625 0.563583
O O7 0.356129 0.614783 0.422776
O O8 0.442174 0.640942 0.726899
O O9 0.476425 0.747280 0.844660
O O10 0.381760 0.599229 0.897005
O O11 0.996791 0.577297 0.844417
O O12 0.165332 0.577797 0.703126
O O13 0.616459 0.641499 0.411716
O O14 0.965744 0.000000 0.632649
O O15 0.732265 0.154510 0.064793
O O16 0.835191 0.000000 0.036607
O O17 0.000000 0.128765 0.000000
#
# Coordination Sequence:
#
# PCOD9200072 Si02
#       8
#     8   8   8   4   8   8   8   8
#     4  11  24  40  64  93 132 167 218 263 317 389
#     4  10  22  38  63  95 126 164 217 274 313 369
#     4  11  22  40  65  95 123 166 214 263 319 383
#     4  12  26  40  69  89 134 176 208 261 331 389
#     4  12  21  42  63  90 129 175 214 259 324 385
#     4  10  20  36  63  93 123 160 215 268 313 372
#     4  12  24  44  64  94 130 171 212 263 327 384
#     4  11  23  40  67  95 124 161 206 265 325 386
#
# _framework density 24.157450000000001
#
# number of rings (size 3 to 8) (size 9 to 14) (size 15 to 20)
#    0.000    0.933    6.000    1.600    0.933    1.600 
#    0.000    1.333    0.000    0.800    0.000    0.000 
#    0.000    0.000    0.000    0.000    0.000    0.000 
#
# Total GULP energy -167217.858777 kJ/mol
# GULP energy per Si atom -5573.928626 kJ/mol
# Density = 2.410247 g / cm^3
# Si number density = 24.157450 Si / 1000 Ang^3
#
#
#
# Elastic Constant Matrix: (Units=GPa)
#
#
# Indices 1 2 3 4 5 6 
#
# 1 41.6929 -5.9964 2.1998 0.0000 -12.6920 0.0000
# 2 -5.9964 79.4022 -5.5715 0.0000 1.0208 0.0000
# 3 2.1998 -5.5715 53.2798 0.0000 1.0748 0.0000
# 4 0.0000 0.0000 0.0000 6.6219 0.0000 0.8961
# 5 -12.6920 1.0208 1.0748 0.0000 32.8207 0.0000
# 6 0.0000 0.0000 0.0000 0.8961 0.0000 12.9833
#
#
#
# Elastic Compliance Matrix: (Units=1/GPa)
#
#
# Indices 1 2 3 4 5 6 
#
# 1 0.027551 0.001863 -0.001157 0.000000 0.010634 0.000000
# 2 0.001863 0.012819 0.001258 0.000000 0.000280 0.000000
# 3 -0.001157 0.001258 0.018971 0.000000 -0.001108 0.000000
# 4 0.000000 0.000000 0.000000 0.152437 0.000000 -0.010521
# 5 0.010634 0.000280 -0.001108 0.000000 0.034608 0.000000
# 6 0.000000 0.000000 0.000000 -0.010521 0.000000 0.077748
#
#
# Mechanical properties :
#
#
# Convention : Reuss Voigt Hill
#
# Bulk Modulus (GPa) = 15.80583 17.29322 16.54953
# Shear Modulus (GPa) = 14.65000 22.73473 18.69236
#
# Velocity S-wave (km/s) = 2.46527 3.07107 2.78469
# Velocity P-wave (km/s) = 3.82890 4.44403 4.14788
#
# Compressibility (1/GPa) = 0.06326779
#
# Stress axis : x y z
#
# Youngs Moduli (GPa) = 36.29623 78.00654 52.71341
#
# Poissons Ratio (x) = -0.14530 0.06100
# Poissons Ratio (y) = -0.06761 -0.06631
# Poissons Ratio (z) = 0.04201 -0.09813
#
# Static dielectric constant tensor:
#      x y z
#    x 1.975910 0.000000 0.034640 
#    y 0.000000 1.901410 0.000000 
#    z 0.034640 0.000000 2.063830 
# 
# From -- ./inp_files/206653.got.cif
#   From: 2010.05.17/outbox.cif.g08.bks.cpg/sg12_104_cif.got.tgz:206653.got - 2010.06.03 13:09:07.
