data_PCOD9200296
_publ_section_title
;
Structure prediction by ZEFSAII (Michael W. Deem and Ramdas Pophale) SiO2 
 PCOD9200296
Probable space group: C 2/M
;
_chemical_formula_sum "Si O2"
_cell_formula_units_Z 40
_cell_length_a 17.542665
_cell_length_b 12.760859
_cell_length_c 7.571815
_cell_angle_alpha 90.000000
_cell_angle_beta 107.577082
_cell_angle_gamma 90.000000
_cell_volume 1615.884532
_symmetry_space_group_name_H-M "C 2/M"
_symmetry_group_IT_number 12
_symmetry_cell_setting 'monoclinic'
loop_
_space_group_symop_operation_xyz
x,y,z
-x,y,-z
-x,-y,-z
x,-y,z
1/2+x,1/2+y,z
1/2-x,1/2+y,-z
1/2-x,1/2-y,-z
1/2+x,1/2-y,z
loop_
_atom_site_type_symbol
_atom_site_label
_atom_site_fract_x
_atom_site_fract_y
_atom_site_fract_z
Si Si1 0.167080 0.336112 0.765096
Si Si2 0.664230 0.381814 0.942539
Si Si3 0.995576 0.386568 0.784306
Si Si4 0.262690 0.115793 0.569350
Si Si5 0.125116 0.211919 0.272222
O O1 0.243364 0.376920 0.928454
O O2 0.083428 0.383651 0.765935
O O3 0.189211 0.368325 0.581410
O O4 0.155496 0.212384 0.798433
O O5 0.644758 0.500000 0.872540
O O6 0.613256 0.350323 0.082396
O O7 0.958256 0.500000 0.708634
O O8 0.948034 0.280074 0.707247
O O9 0.000000 0.384747 0.000000
O O10 0.172390 0.140695 0.445136
O O11 0.307432 0.198823 0.723879
O O12 0.269098 0.000000 0.644169
#
# Coordination Sequence:
#
# PCOD9200296 Si02
#       5
#     8   8   8   8   8
#     4  10  20  37  56  84 117 148 192 240 285 343
#     4  10  20  38  60  83 113 155 198 238 282 336
#     4  11  21  34  55  88 120 148 188 243 296 338
#     4  10  21  39  60  84 115 156 196 236 284 339
#     4  10  20  37  56  85 116 148 193 233 284 347
#
# _framework density 24.754245000000001
#
# number of rings (size 3 to 8) (size 9 to 14) (size 15 to 20)
#    0.000    1.800    2.000    4.200    0.000    0.800 
#    0.000   17.000    0.000    0.000    0.000   23.800 
#    0.000    0.000    0.000    0.000    0.000    0.000 
#
# Total GULP energy -111878.362635 kJ/mol
# GULP energy per Si atom -5593.918132 kJ/mol
# Density = 2.469790 g / cm^3
# Si number density = 24.754245 Si / 1000 Ang^3
#
#
#
# Elastic Constant Matrix: (Units=GPa)
#
#
# Indices 1 2 3 4 5 6 
#
# 1 125.4272 6.0234 11.2102 0.0000 -7.9448 0.0000
# 2 6.0234 177.9538 -3.3921 0.0000 2.9117 0.0000
# 3 11.2102 -3.3921 55.6808 0.0000 -20.7212 0.0000
# 4 0.0000 0.0000 0.0000 17.9525 0.0000 9.0190
# 5 -7.9448 2.9117 -20.7212 0.0000 28.5790 0.0000
# 6 0.0000 0.0000 0.0000 9.0190 0.0000 14.9402
#
#
#
# Elastic Compliance Matrix: (Units=1/GPa)
#
#
# Indices 1 2 3 4 5 6 
#
# 1 0.008183 -0.000323 -0.001107 0.000000 0.001505 0.000000
# 2 -0.000323 0.005643 0.000221 0.000000 -0.000504 0.000000
# 3 -0.001107 0.000221 0.024751 0.000000 0.017616 0.000000
# 4 0.000000 0.000000 0.000000 0.079949 0.000000 -0.048263
# 5 0.001505 -0.000504 0.017616 0.000000 0.048233 0.000000
# 6 0.000000 0.000000 0.000000 -0.048263 0.000000 0.096069
#
#
# Mechanical properties :
#
#
# Convention : Reuss Voigt Hill
#
# Bulk Modulus (GPa) = 27.65524 42.97165 35.31344
# Shear Modulus (GPa) = 18.03116 35.30903 26.67009
#
# Velocity S-wave (km/s) = 2.70183 3.78085 3.28593
# Velocity P-wave (km/s) = 4.57486 6.03794 5.35659
#
# Compressibility (1/GPa) = 0.03615952
#
# Stress axis : x y z
#
# Youngs Moduli (GPa) = 122.21190 177.21629 40.40168
#
# Poissons Ratio (x) = 0.05719 0.04472
# Poissons Ratio (y) = 0.03944 -0.00893
# Poissons Ratio (z) = 0.13529 -0.03917
#
# Static dielectric constant tensor:
#      x y z
#    x 1.999020 0.000000 0.006300 
#    y 0.000000 2.000940 0.000000 
#    z 0.006300 0.000000 1.984390 
# 
# From -- ./inp_files/152881.got.cif
#   From: 2010.05.17/outbox.cif.g08.bks.cpg/sg12_77_cif.got.tgz:152881.got - 2010.06.03 13:09:07.
