data_PCOD9200272
_publ_section_title
;
Structure prediction by ZEFSAII (Michael W. Deem and Ramdas Pophale) SiO2 
 PCOD9200272
Probable space group: C 2/M
;
_chemical_formula_sum "Si O2"
_cell_formula_units_Z 56
_cell_length_a 14.942080
_cell_length_b 22.952729
_cell_length_c 9.261916
_cell_angle_alpha 90.000000
_cell_angle_beta 64.708447
_cell_angle_gamma 90.000000
_cell_volume 2872.000893
_symmetry_space_group_name_H-M "C 2/M"
_symmetry_group_IT_number 12
_symmetry_cell_setting 'monoclinic'
loop_
_space_group_symop_operation_xyz
x,y,z
-x,y,-z
-x,-y,-z
x,-y,z
1/2+x,1/2+y,z
1/2-x,1/2+y,-z
1/2-x,1/2-y,-z
1/2+x,1/2-y,z
loop_
_atom_site_type_symbol
_atom_site_label
_atom_site_fract_x
_atom_site_fract_y
_atom_site_fract_z
Si Si1 0.013730 0.566914 0.325921
Si Si2 0.632402 0.238767 0.239431
Si Si3 0.366059 0.857476 0.243462
Si Si4 0.244383 0.652102 0.942860
Si Si5 0.247457 0.433314 0.169615
Si Si6 0.052294 0.766794 0.818631
Si Si7 0.246363 0.333096 0.392123
O O1 0.977587 0.500000 0.350179
O O2 0.130025 0.566654 0.213199
O O3 0.000000 0.589299 0.500000
O O4 0.951017 0.604507 0.258235
O O5 0.687704 0.300357 0.183067
O O6 0.521903 0.253295 0.262955
O O7 0.664062 0.207309 0.366489
O O8 0.676354 0.192552 0.092960
O O9 0.314664 0.883187 0.137995
O O10 0.408321 0.796153 0.161197
O O11 0.287545 0.842280 0.422043
O O12 0.297429 0.606473 0.012218
O O13 0.280477 0.500000 0.157377
O O14 0.252518 0.396123 0.312103
O O15 0.147543 0.803141 0.703972
O O16 0.000000 0.791823 0.000000
#
# Coordination Sequence:
#
# PCOD9200272 Si02
#       7
#     8   8   8   8   8   8   8
#     4  10  21  36  55  81 114 155 192 229 282 342
#     4  10  20  38  55  77 115 157 185 234 279 344
#     4  12  22  35  55  87 119 147 188 239 280 341
#     4  10  20  37  56  78 117 148 189 233 286 331
#     4  10  21  38  59  81 112 154 194 231 281 344
#     4  12  22  35  59  82 114 156 194 231 285 342
#     4  11  23  38  57  87 118 151 192 234 287 347
#
# _framework density 19.498601000000001
#
# number of rings (size 3 to 8) (size 9 to 14) (size 15 to 20)
#    0.000    1.286    4.286    3.857    0.000    0.571 
#    0.000    1.429    0.000    3.857    0.000    0.000 
#    0.000    6.857    0.000    0.000    0.000    0.000 
#
# Total GULP energy -156341.894868 kJ/mol
# GULP energy per Si atom -5583.639102 kJ/mol
# Density = 1.945422 g / cm^3
# Si number density = 19.498601 Si / 1000 Ang^3
#
#
#
# Elastic Constant Matrix: (Units=GPa)
#
#
# Indices 1 2 3 4 5 6 
#
# 1 62.6682 10.8664 6.7033 0.0000 1.8923 0.0000
# 2 10.8664 98.5981 12.4120 0.0000 0.1458 0.0000
# 3 6.7033 12.4120 62.9165 0.0000 13.3651 0.0000
# 4 0.0000 0.0000 0.0000 12.1527 0.0000 -3.6159
# 5 1.8923 0.1458 13.3651 0.0000 23.0205 0.0000
# 6 0.0000 0.0000 0.0000 -3.6159 0.0000 19.4492
#
#
#
# Elastic Compliance Matrix: (Units=1/GPa)
#
#
# Indices 1 2 3 4 5 6 
#
# 1 0.016398 -0.001643 -0.001299 0.000000 -0.000583 0.000000
# 2 -0.001643 0.010598 -0.002202 0.000000 0.001346 0.000000
# 3 -0.001299 -0.002202 0.018754 0.000000 -0.010767 0.000000
# 4 0.000000 0.000000 0.000000 0.087104 0.000000 0.016194
# 5 -0.000583 0.001346 -0.010767 0.000000 0.049730 0.000000
# 6 0.000000 0.000000 0.000000 0.016194 0.000000 0.054427
#
#
# Mechanical properties :
#
#
# Convention : Reuss Voigt Hill
#
# Bulk Modulus (GPa) = 28.19798 31.57181 29.88490
# Shear Modulus (GPa) = 19.29601 23.87123 21.58362
#
# Velocity S-wave (km/s) = 3.14922 3.50273 3.33067
# Velocity P-wave (km/s) = 5.26464 5.70840 5.49100
#
# Compressibility (1/GPa) = 0.03546353
#
# Stress axis : x y z
#
# Youngs Moduli (GPa) = 60.98121 94.35370 53.32162
#
# Poissons Ratio (x) = 0.15501 0.06927
# Poissons Ratio (y) = 0.10018 0.11740
# Poissons Ratio (z) = 0.07922 0.20774
#
# Static dielectric constant tensor:
#      x y z
#    x 1.734400 0.000000 -0.001880 
#    y 0.000000 1.697330 0.000000 
#    z -0.001880 0.000000 1.710180 
# 
# From -- ./inp_files/65292.got.cif
#   From: 2010.05.17/outbox.cif.g08.bks.cpg/sg12_33_cif.got.tgz:65292.got - 2010.06.03 13:09:07.
