data_PCOD9200167
_publ_section_title
;
Structure prediction by ZEFSAII (Michael W. Deem and Ramdas Pophale) SiO2 
 PCOD9200167
Probable space group: C 2/M
;
_chemical_formula_sum "Si O2"
_cell_formula_units_Z 64
_cell_length_a 8.367038
_cell_length_b 26.406395
_cell_length_c 18.068427
_cell_angle_alpha 90.000000
_cell_angle_beta 49.956995
_cell_angle_gamma 90.000000
_cell_volume 3056.197647
_symmetry_space_group_name_H-M "C 2/M"
_symmetry_group_IT_number 12
_symmetry_cell_setting 'monoclinic'
loop_
_space_group_symop_operation_xyz
x,y,z
-x,y,-z
-x,-y,-z
x,-y,z
1/2+x,1/2+y,z
1/2-x,1/2+y,-z
1/2-x,1/2-y,-z
1/2+x,1/2-y,z
loop_
_atom_site_type_symbol
_atom_site_label
_atom_site_fract_x
_atom_site_fract_y
_atom_site_fract_z
Si Si1 0.800200 0.939390 0.104965
Si Si2 0.918666 0.695684 0.319098
Si Si3 0.052587 0.055855 0.620568
Si Si4 0.147497 0.393849 0.776144
Si Si5 0.191954 0.319184 0.888146
Si Si6 0.877171 0.772041 0.206308
Si Si7 0.132340 0.634510 0.534870
Si Si8 0.199035 0.557729 0.300493
O O1 0.584906 0.914210 0.143897
O O2 0.811650 0.930385 0.189768
O O3 0.786538 0.000000 0.097839
O O4 0.000000 0.920483 0.000000
O O5 0.169467 0.696369 0.253506
O O6 0.855033 0.650880 0.283173
O O7 0.863103 0.747322 0.292718
O O8 0.825643 0.683133 0.426937
O O9 0.806840 0.064235 0.699879
O O10 0.163692 0.101942 0.545369
O O11 0.148425 0.058293 0.674678
O O12 0.103984 0.000000 0.574819
O O13 0.227978 0.368427 0.827441
O O14 0.126065 0.273570 0.852029
O O15 0.407097 0.302255 0.862207
O O16 0.000000 0.327261 0.000000
O O17 0.000000 0.645966 0.500000
O O18 0.984680 0.596655 0.626306
O O19 0.116476 0.500000 0.318965
#
# Coordination Sequence:
#
# PCOD9200167 Si02
#       8
#     8   8   8   8   8   8   8   8
#     4  10  21  38  58  83 121 167 207 243 296 362
#     4  10  21  41  61  87 115 158 195 251 306 370
#     4  10  22  39  61  91 125 160 201 255 307 355
#     4  11  23  36  59  89 126 159 200 250 304 353
#     4  10  21  37  62  93 118 156 205 254 306 364
#     4   9  21  40  65  82 123 158 194 252 321 366
#     4  10  20  36  65  90 116 153 207 249 300 361
#     4   9  18  36  59  84 118 159 197 245 299 353
#
# _framework density 20.941054999999999
#
# number of rings (size 3 to 8) (size 9 to 14) (size 15 to 20)
#    0.000    2.125    1.250    1.125    3.500    4.000 
#    0.000    2.500    0.000    3.750    0.000    0.000 
#    0.000    0.000    0.000    0.000    0.000    0.000 
#
# Total GULP energy -178758.905607 kJ/mol
# GULP energy per Si atom -5586.215800 kJ/mol
# Density = 2.089339 g / cm^3
# Si number density = 20.941055 Si / 1000 Ang^3
#
#
#
# Elastic Constant Matrix: (Units=GPa)
#
#
# Indices 1 2 3 4 5 6 
#
# 1 34.1346 -6.0019 0.8347 0.0000 -6.5443 0.0000
# 2 -6.0019 21.2538 4.5237 0.0000 3.8811 0.0000
# 3 0.8347 4.5237 71.4123 0.0000 4.6001 0.0000
# 4 0.0000 0.0000 0.0000 30.9207 0.0000 -6.5559
# 5 -6.5443 3.8811 4.6001 0.0000 26.5889 0.0000
# 6 0.0000 0.0000 0.0000 -6.5559 0.0000 16.0894
#
#
#
# Elastic Compliance Matrix: (Units=1/GPa)
#
#
# Indices 1 2 3 4 5 6 
#
# 1 0.032080 0.008074 -0.001334 0.000000 0.006948 0.000000
# 2 0.008074 0.050867 -0.003000 0.000000 -0.004919 0.000000
# 3 -0.001334 -0.003000 0.014362 0.000000 -0.002375 0.000000
# 4 0.000000 0.000000 0.000000 0.035399 0.000000 0.014424
# 5 0.006948 -0.004919 -0.002375 0.000000 0.040449 0.000000
# 6 0.000000 0.000000 0.000000 0.014424 0.000000 0.068030
#
#
# Mechanical properties :
#
#
# Convention : Reuss Voigt Hill
#
# Bulk Modulus (GPa) = 9.54288 13.94598 11.74443
# Shear Modulus (GPa) = 18.61257 23.21608 20.91432
#
# Velocity S-wave (km/s) = 2.98452 3.33324 3.16369
# Velocity P-wave (km/s) = 4.05505 4.63552 4.35497
#
# Compressibility (1/GPa) = 0.10479017
#
# Stress axis : x y z
#
# Youngs Moduli (GPa) = 31.17186 19.65906 69.62914
#
# Poissons Ratio (x) = -0.15873 0.09289
# Poissons Ratio (y) = -0.25169 0.20887
# Poissons Ratio (z) = 0.04158 0.05897
#
# Static dielectric constant tensor:
#      x y z
#    x 1.748130 0.000000 0.027360 
#    y 0.000000 1.766220 0.000000 
#    z 0.027360 0.000000 1.729820 
# 
# From -- ./inp_files/260302.got.cif
#   From: 2010.05.17/outbox.cif.g08.bks.cpg/sg12_131_cif.got.tgz:260302.got - 2010.06.03 13:09:07.
