data_PCOD9200984
_publ_section_title
;
Structure prediction by ZEFSAII (Michael W. Deem and Ramdas Pophale) SiO2 
 PCOD9200984
Probable space group: C 2/M
;
_chemical_formula_sum "Si O2"
_cell_formula_units_Z 56
_cell_length_a 20.528676
_cell_length_b 8.669661
_cell_length_c 26.092476
_cell_angle_alpha 90.000000
_cell_angle_beta 139.985825
_cell_angle_gamma 90.000000
_cell_volume 2985.890392
_symmetry_space_group_name_H-M "C 2/M"
_symmetry_group_IT_number 12
_symmetry_cell_setting 'monoclinic'
loop_
_space_group_symop_operation_xyz
x,y,z
-x,y,-z
-x,-y,-z
x,-y,z
1/2+x,1/2+y,z
1/2-x,1/2+y,-z
1/2-x,1/2-y,-z
1/2+x,1/2-y,z
loop_
_atom_site_type_symbol
_atom_site_label
_atom_site_fract_x
_atom_site_fract_y
_atom_site_fract_z
Si Si1 0.227695 0.185782 0.740189
Si Si2 0.989706 0.187951 0.435550
Si Si3 0.066264 0.315935 0.189488
Si Si4 0.492688 0.315522 0.252779
Si Si5 0.226559 0.315936 0.852188
Si Si6 0.636774 0.686643 0.433994
Si Si7 0.444128 0.686293 0.019617
O O1 0.118542 0.232820 0.652956
O O2 0.318118 0.223228 0.755853
O O3 0.245931 0.264556 0.805546
O O4 0.226944 0.000000 0.747199
O O5 0.000000 0.242211 0.500000
O O6 0.078738 0.236479 0.450812
O O7 0.991278 0.000000 0.437424
O O8 0.058305 0.500000 0.189331
O O9 0.032927 0.240784 0.222450
O O10 0.998031 0.259753 0.100918
O O11 0.489924 0.500000 0.252456
O O12 0.379249 0.255231 0.193784
O O13 0.567685 0.264231 0.343929
O O14 0.218953 0.500000 0.849991
O O15 0.326084 0.269002 0.944112
O O16 0.640541 0.500000 0.436001
O O17 0.750000 0.750000 0.500000
O O18 0.450599 0.500000 0.027478
O O19 0.500000 0.730225 0.000000
#
# Coordination Sequence:
#
# PCOD9200984 Si02
#       7
#     8   8   8   8   8   8   8
#     4  10  20  37  60  88 121 156 199 245 297 357
#     4   9  18  35  60  87 116 153 195 239 292 352
#     4  11  24  38  61  94 122 156 205 254 297 354
#     4  11  24  43  62  84 123 166 201 245 303 362
#     4  11  22  38  64  90 117 157 203 248 296 357
#     4  10  22  39  61  87 119 158 197 240 298 360
#     4  10  21  39  61  88 123 160 197 245 307 362
#
# _framework density 18.754874999999998
#
# number of rings (size 3 to 8) (size 9 to 14) (size 15 to 20)
#    0.000    1.714    2.857    1.286    2.000    3.714 
#    0.000    0.000    0.000    0.857    0.000    0.000 
#    0.000    0.000    0.000    0.000    0.000    0.000 
#
# Total GULP energy -156422.408698 kJ/mol
# GULP energy per Si atom -5586.514596 kJ/mol
# Density = 1.871219 g / cm^3
# Si number density = 18.754875 Si / 1000 Ang^3
#
#
#
# Elastic Constant Matrix: (Units=GPa)
#
#
# Indices 1 2 3 4 5 6 
#
# 1 160.5021 36.8510 78.1080 0.0000 11.4563 0.0000
# 2 36.8510 22.8493 27.9953 0.0000 8.3853 0.0001
# 3 78.1080 27.9953 131.3786 0.0000 20.3095 0.0000
# 4 0.0000 0.0000 0.0000 23.6277 0.0000 4.4017
# 5 11.4563 8.3853 20.3095 0.0000 37.1296 0.0000
# 6 0.0000 0.0001 0.0000 4.4017 0.0000 28.9100
#
#
#
# Elastic Compliance Matrix: (Units=1/GPa)
#
#
# Indices 1 2 3 4 5 6 
#
# 1 0.011239 -0.013900 -0.004008 0.000000 0.001864 0.000000
# 2 -0.013900 0.078167 -0.006911 0.000000 -0.009584 0.000000
# 3 -0.004008 -0.006911 0.012054 0.000000 -0.003796 0.000000
# 4 0.000000 0.000000 0.000000 0.043559 0.000000 -0.006632
# 5 0.001864 -0.009584 -0.003796 0.000000 0.030598 0.000000
# 6 0.000000 0.000000 0.000000 -0.006632 0.000000 0.035600
#
#
# Mechanical properties :
#
#
# Convention : Reuss Voigt Hill
#
# Bulk Modulus (GPa) = 19.29674 66.73762 43.01718
# Shear Modulus (GPa) = 17.97719 29.38518 23.68119
#
# Velocity S-wave (km/s) = 3.09938 3.96258 3.55726
# Velocity P-wave (km/s) = 4.80827 7.52313 6.31336
#
# Compressibility (1/GPa) = 0.05182222
#
# Stress axis : x y z
#
# Youngs Moduli (GPa) = 88.97256 12.79310 82.95869
#
# Poissons Ratio (x) = 0.17782 0.33253
# Poissons Ratio (y) = 1.23668 0.57335
# Poissons Ratio (z) = 0.35664 0.08842
#
# Static dielectric constant tensor:
#      x y z
#    x 1.625630 0.000000 0.009060 
#    y 0.000000 1.635340 0.000000 
#    z 0.009060 0.000000 1.634690 
# 
# From -- ./inp_files/230972.got.cif
#   From: 2010.05.17/outbox.cif.g08.bks.cpg/sg12_116_cif.got.tgz:230972.got - 2010.06.03 13:09:07.
