data_PCOD9200368
_publ_section_title
;
Structure prediction by ZEFSAII (Michael W. Deem and Ramdas Pophale) SiO2 
 PCOD9200368
Probable space group: C 2/M
;
_chemical_formula_sum "Si O2"
_cell_formula_units_Z 58
_cell_length_a 23.326002
_cell_length_b 9.407843
_cell_length_c 16.480333
_cell_angle_alpha 90.000000
_cell_angle_beta 62.687422
_cell_angle_gamma 90.000000
_cell_volume 3213.378340
_symmetry_space_group_name_H-M "C 2/M"
_symmetry_group_IT_number 12
_symmetry_cell_setting 'monoclinic'
loop_
_space_group_symop_operation_xyz
x,y,z
-x,y,-z
-x,-y,-z
x,-y,z
1/2+x,1/2+y,z
1/2-x,1/2+y,-z
1/2-x,1/2-y,-z
1/2+x,1/2-y,z
loop_
_atom_site_type_symbol
_atom_site_label
_atom_site_fract_x
_atom_site_fract_y
_atom_site_fract_z
Si Si1 0.813010 0.171338 0.423651
Si Si2 0.733525 0.665967 0.723867
Si Si3 0.063212 0.841914 0.255849
Si Si4 0.143312 0.846227 0.368430
Si Si5 0.226173 0.331627 0.891630
Si Si6 0.655395 0.166989 0.100151
Si Si7 0.000000 0.500000 0.500000
Si Si8 0.560734 0.257188 0.566462
O O1 0.750000 0.250000 0.500000
O O2 0.809260 0.182106 0.328710
O O3 0.874790 0.250522 0.420909
O O4 0.814012 0.000000 0.442822
O O5 0.736605 0.500000 0.743827
O O6 0.805077 0.722144 0.653906
O O7 0.712527 0.758899 0.814525
O O8 0.110599 0.830009 0.302568
O O9 0.087641 0.727375 0.175516
O O10 0.993146 0.822814 0.340145
O O11 0.069993 0.000000 0.216784
O O12 0.087721 0.843168 0.471547
O O13 0.176644 0.000000 0.351074
O O14 0.238610 0.500000 0.875057
O O15 0.288888 0.254260 0.888926
O O16 0.170317 0.313530 0.995237
O O17 0.661515 0.000000 0.115034
O O18 0.028814 0.622148 0.543775
#
# Coordination Sequence:
#
# PCOD9200368 Si02
#       8
#     8   8   8   8   8   8   2   8
#     4  11  25  42  62  90 125 168 216 260 308 369
#     4  11  23  36  59  88 121 160 202 254 304 365
#     4  11  22  36  58  86 118 161 202 249 311 375
#     4  11  21  35  57  85 120 162 204 244 300 367
#     4  10  20  37  57  84 119 158 201 249 314 380
#     4  10  21  34  57  87 119 153 198 259 316 371
#     4  12  28  40  62  96 120 170 210 274 306 376
#     4  12  25  42  61  85 128 164 211 256 309 368
#
# _framework density 18.049538999999999
#
# number of rings (size 3 to 8) (size 9 to 14) (size 15 to 20)
#    0.000    1.103    4.138    2.483    2.897    3.310 
#    0.000    0.000    0.000    0.828    0.000    4.828 
#    0.000    0.000    0.000    0.000    0.000    0.000 
#
# Total GULP energy -161528.508884 kJ/mol
# GULP energy per Si atom -5569.948582 kJ/mol
# Density = 1.800846 g / cm^3
# Si number density = 18.049539 Si / 1000 Ang^3
#
#
#
# Elastic Constant Matrix: (Units=GPa)
#
#
# Indices 1 2 3 4 5 6 
#
# 1 74.8683 45.3581 25.8058 0.0000 6.3028 0.0000
# 2 45.3581 120.4145 58.3780 0.0000 9.2585 -0.0001
# 3 25.8058 58.3780 135.4037 0.0000 1.8477 0.0000
# 4 0.0000 0.0000 0.0000 -19.5756 0.0000 19.0940
# 5 6.3028 9.2585 1.8477 0.0000 24.4906 0.0000
# 6 0.0000 -0.0001 0.0000 19.0940 0.0000 -6.2580
#
#
#
# Elastic Compliance Matrix: (Units=1/GPa)
#
#
# Indices 1 2 3 4 5 6 
#
# 1 0.017455 -0.006083 -0.000675 0.000000 -0.002142 0.000000
# 2 -0.006083 0.012952 -0.004384 0.000000 -0.003000 0.000000
# 3 -0.000675 -0.004384 0.009389 0.000000 0.001123 0.000000
# 4 0.000000 0.000000 0.000000 0.025852 0.000000 0.078876
# 5 -0.002142 -0.003000 0.001123 0.000000 0.042433 0.000000
# 6 0.000000 0.000000 0.000000 0.078876 0.000000 0.080866
#
#
# Mechanical properties :
#
#
# Convention : Reuss Voigt Hill
#
# Bulk Modulus (GPa) = 57.10306 65.53003 61.31655
# Shear Modulus (GPa) = 23.03439 13.14103 18.08771
#
# Velocity S-wave (km/s) = 3.57624 2.70117 3.16905
# Velocity P-wave (km/s) = 6.98270 6.79065 6.88735
#
# Compressibility (1/GPa) = 0.01751220
#
# Stress axis : x y z
#
# Youngs Moduli (GPa) = 57.28983 77.20732 106.51149
#
# Poissons Ratio (x) = 0.46967 0.07186
# Poissons Ratio (y) = 0.34851 0.46693
# Poissons Ratio (z) = 0.03865 0.33847
#
# Static dielectric constant tensor:
#      x y z
#    x 1.614050 0.000000 -0.005490 
#    y 0.000000 1.637670 0.000000 
#    z -0.005490 0.000000 1.645930 
# 
# From -- ./inp_files/282189.got.cif
#   From: 2010.05.17/outbox.cif.g08.bks.cpg/sg12_142_cif.got.tgz:282189.got - 2010.06.03 13:09:07.
