data_PCOD9200611
_publ_section_title
;
Structure prediction by ZEFSAII (Michael W. Deem and Ramdas Pophale) SiO2 
 PCOD9200611
Probable space group: C 2/M
;
_chemical_formula_sum "Si O2"
_cell_formula_units_Z 56
_cell_length_a 19.795458
_cell_length_b 7.972394
_cell_length_c 20.151759
_cell_angle_alpha 90.000000
_cell_angle_beta 64.770553
_cell_angle_gamma 90.000000
_cell_volume 2876.919720
_symmetry_space_group_name_H-M "C 2/M"
_symmetry_group_IT_number 12
_symmetry_cell_setting 'monoclinic'
loop_
_space_group_symop_operation_xyz
x,y,z
-x,y,-z
-x,-y,-z
x,-y,z
1/2+x,1/2+y,z
1/2-x,1/2+y,-z
1/2-x,1/2-y,-z
1/2+x,1/2-y,z
loop_
_atom_site_type_symbol
_atom_site_label
_atom_site_fract_x
_atom_site_fract_y
_atom_site_fract_z
Si Si1 0.036861 0.189548 0.047711
Si Si2 0.676217 0.296906 0.072508
Si Si3 0.302451 0.701058 0.417566
Si Si4 0.866651 0.797329 0.759518
Si Si5 0.917572 0.311066 0.187638
Si Si6 0.461909 0.703813 0.315204
Si Si7 0.738853 0.699901 0.713521
O O1 0.106406 0.265529 0.057505
O O2 0.968500 0.184328 0.126664
O O3 0.060000 0.000000 0.018024
O O4 0.000000 0.277116 0.000000
O O5 0.672659 0.500000 0.076854
O O6 0.663832 0.240062 0.154591
O O7 0.750000 0.250000 0.000000
O O8 0.302901 0.500000 0.414073
O O9 0.250000 0.750000 0.500000
O O10 0.389768 0.752833 0.389822
O O11 0.269816 0.759785 0.359522
O O12 0.813654 0.740986 0.721816
O O13 0.952428 0.743661 0.709415
O O14 0.866256 0.000000 0.761548
O O15 0.936359 0.500000 0.160161
O O16 0.938489 0.279195 0.254713
O O17 0.830020 0.279470 0.217574
O O18 0.462492 0.500000 0.311156
O O19 0.728123 0.500000 0.717335
#
# Coordination Sequence:
#
# PCOD9200611 Si02
#       7
#     8   8   8   8   8   8   8
#     4  10  21  38  57  76 104 147 190 229 284 341
#     4  10  22  38  55  79 112 149 188 235 287 334
#     4   9  19  36  60  86 113 147 182 226 275 330
#     4  10  20  37  59  82 112 148 190 238 280 328
#     4  11  21  34  55  82 108 140 186 237 281 324
#     4   9  18  37  60  81 111 149 186 223 274 334
#     4  10  22  38  57  82 114 150 188 225 276 338
#
# _framework density 19.465264000000001
#
# number of rings (size 3 to 8) (size 9 to 14) (size 15 to 20)
#    0.000    2.143    1.429    2.571    2.000    4.857 
#    0.000    0.714    0.000    4.286    0.000    0.000 
#    0.000    0.000    0.000    0.000    0.000    0.000 
#
# Total GULP energy -155979.516648 kJ/mol
# GULP energy per Si atom -5570.697023 kJ/mol
# Density = 1.942096 g / cm^3
# Si number density = 19.465264 Si / 1000 Ang^3
#
#
#
# Elastic Constant Matrix: (Units=GPa)
#
#
# Indices 1 2 3 4 5 6 
#
# 1 156.6861 14.8504 68.8283 -0.0001 -15.3409 -0.0001
# 2 14.8504 17.1534 9.8854 0.0000 -7.3751 0.0000
# 3 68.8283 9.8854 120.3858 0.0000 -20.0412 0.0000
# 4 -0.0001 0.0000 0.0000 27.6739 0.0000 -8.3674
# 5 -15.3409 -7.3751 -20.0412 0.0000 24.8952 -0.0001
# 6 -0.0001 0.0000 0.0000 -8.3674 -0.0001 32.5403
#
#
#
# Elastic Compliance Matrix: (Units=1/GPa)
#
#
# Indices 1 2 3 4 5 6 
#
# 1 0.008918 -0.004915 -0.004645 0.000000 0.000300 0.000000
# 2 -0.004915 0.070189 0.000004 0.000000 0.017768 0.000000
# 3 -0.004645 0.000004 0.012108 0.000000 0.006886 0.000000
# 4 0.000000 0.000000 0.000000 0.039181 0.000000 0.010075
# 5 0.000300 0.017768 0.006886 0.000000 0.051161 0.000000
# 6 0.000000 0.000000 0.000000 0.010075 0.000000 0.033322
#
#
# Mechanical properties :
#
#
# Convention : Reuss Voigt Hill
#
# Bulk Modulus (GPa) = 13.86880 53.48375 33.67628
# Shear Modulus (GPa) = 19.37798 30.39929 24.88863
#
# Velocity S-wave (km/s) = 3.15860 3.95615 3.57966
# Velocity P-wave (km/s) = 4.52136 6.95732 5.86716
#
# Compressibility (1/GPa) = 0.07210428
#
# Stress axis : x y z
#
# Youngs Moduli (GPa) = 112.13486 14.24726 82.58697
#
# Poissons Ratio (x) = 0.07002 0.38362
# Poissons Ratio (y) = 0.55110 -0.00035
# Poissons Ratio (z) = 0.52088 -0.00006
#
# Static dielectric constant tensor:
#      x y z
#    x 1.702550 0.000000 0.000180 
#    y 0.000000 0.119730 0.000000 
#    z 0.000180 0.000000 1.715420 
# 
# From -- ./inp_files/313693.got.cif
#   From: 2010.05.17/outbox.cif.g08.bks.cpg/sg12_157_cif.got.tgz:313693.got - 2010.06.03 13:09:07.
