data_PCOD9200203
_publ_section_title
;
Structure prediction by ZEFSAII (Michael W. Deem and Ramdas Pophale) SiO2 
 PCOD9200203
Probable space group: C 2/M
;
_chemical_formula_sum "Si O2"
_cell_formula_units_Z 56
_cell_length_a 18.573602
_cell_length_b 27.699252
_cell_length_c 9.436592
_cell_angle_alpha 90.000000
_cell_angle_beta 145.377223
_cell_angle_gamma 90.000000
_cell_volume 2758.407089
_symmetry_space_group_name_H-M "C 2/M"
_symmetry_group_IT_number 12
_symmetry_cell_setting 'monoclinic'
loop_
_space_group_symop_operation_xyz
x,y,z
-x,y,-z
-x,-y,-z
x,-y,z
1/2+x,1/2+y,z
1/2-x,1/2+y,-z
1/2-x,1/2-y,-z
1/2+x,1/2-y,z
loop_
_atom_site_type_symbol
_atom_site_label
_atom_site_fract_x
_atom_site_fract_y
_atom_site_fract_z
Si Si1 0.077082 0.554081 0.253512
Si Si2 0.239795 0.441735 0.757301
Si Si3 0.606486 0.444205 0.557017
Si Si4 0.588163 0.295477 0.785530
Si Si5 0.113638 0.687042 0.800197
Si Si6 0.991703 0.117531 0.154366
Si Si7 0.869651 0.419687 0.124703
O O1 0.113760 0.500000 0.263262
O O2 0.978656 0.551262 0.223762
O O3 0.194925 0.575620 0.528825
O O4 0.000000 0.577581 0.000000
O O5 0.247261 0.500000 0.769836
O O6 0.147385 0.425432 0.734475
O O7 0.373672 0.417285 0.001067
O O8 0.500000 0.429530 0.500000
O O9 0.583581 0.500000 0.481098
O O10 0.604405 0.409622 0.418297
O O11 0.739303 0.438662 0.849239
O O12 0.500000 0.300017 0.500000
O O13 0.587832 0.239094 0.828266
O O14 0.531826 0.331210 0.810491
O O15 0.737534 0.309427 0.006941
O O16 0.108343 0.636695 0.874113
O O17 0.000000 0.683113 0.500000
O O18 0.000000 0.120894 0.000000
#
# Coordination Sequence:
#
# PCOD9200203 Si02
#       7
#     8   8   8   8   8   8   8
#     4  10  23  39  55  81 121 163 198 245 308 366
#     4  11  22  38  59  86 120 161 211 252 297 368
#     4  11  22  38  61  90 125 167 215 257 302 372
#     4  10  21  42  65  92 122 162 208 262 319 381
#     4  10  20  36  68  96 119 155 212 263 313 370
#     4  12  25  39  60  89 129 165 206 258 323 373
#     4  12  21  37  64  92 120 155 205 258 304 368
#
# _framework density 20.301572
#
# number of rings (size 3 to 8) (size 9 to 14) (size 15 to 20)
#    0.000    1.143    2.857    4.286    2.000    2.286 
#    0.000    0.714    0.000   12.000    0.000    0.000 
#    0.000    0.000    0.000    0.000    0.000    0.000 
#
# Total GULP energy -156206.287769 kJ/mol
# GULP energy per Si atom -5578.795992 kJ/mol
# Density = 2.025536 g / cm^3
# Si number density = 20.301572 Si / 1000 Ang^3
#
#
#
# Elastic Constant Matrix: (Units=GPa)
#
#
# Indices 1 2 3 4 5 6 
#
# 1 66.2308 28.7144 18.1472 0.0000 -20.2350 0.0000
# 2 28.7144 122.1991 1.4301 0.0000 -18.1142 0.0000
# 3 18.1472 1.4301 90.2599 0.0000 -12.6043 0.0000
# 4 0.0000 0.0000 0.0000 -12.0096 0.0000 14.7920
# 5 -20.2350 -18.1142 -12.6043 0.0000 38.3513 0.0000
# 6 0.0000 0.0000 0.0000 14.7920 0.0000 4.6699
#
#
#
# Elastic Compliance Matrix: (Units=1/GPa)
#
#
# Indices 1 2 3 4 5 6 
#
# 1 0.019772 -0.003445 -0.002821 0.000000 0.007878 0.000000
# 2 -0.003445 0.009418 0.000955 0.000000 0.002944 0.000000
# 3 -0.002821 0.000955 0.012039 0.000000 0.002919 0.000000
# 4 0.000000 0.000000 0.000000 -0.016988 0.000000 0.053811
# 5 0.007878 0.002944 0.002919 0.000000 0.032581 0.000000
# 6 0.000000 0.000000 0.000000 0.053811 0.000000 0.043689
#
#
# Mechanical properties :
#
#
# Convention : Reuss Voigt Hill
#
# Bulk Modulus (GPa) = 32.67265 41.69705 37.18485
# Shear Modulus (GPa) = 41.20783 21.56220 31.38501
#
# Velocity S-wave (km/s) = 4.51020 3.26252 3.93611
# Velocity P-wave (km/s) = 6.57656 5.89707 6.24606
#
# Compressibility (1/GPa) = 0.03060664
#
# Stress axis : x y z
#
# Youngs Moduli (GPa) = 50.57620 106.17710 83.06517
#
# Poissons Ratio (x) = 0.36581 0.23429
# Poissons Ratio (y) = 0.17425 -0.07930
# Poissons Ratio (z) = 0.14266 -0.10136
#
# Static dielectric constant tensor:
#      x y z
#    x 1.718490 0.000000 0.010430 
#    y 0.000000 1.723180 0.000000 
#    z 0.010430 0.000000 1.768980 
# 
# From -- ./inp_files/80074.got.cif
#   From: 2010.05.17/outbox.cif.g08.bks.cpg/sg12_41_cif.got.tgz:80074.got - 2010.06.03 13:09:07.
