data_PCOD9200014
_publ_section_title
;
Structure prediction by ZEFSAII (Michael W. Deem and Ramdas Pophale) SiO2 
 PCOD9200014
Probable space group: C 2/M
;
_chemical_formula_sum "Si O2"
_cell_formula_units_Z 58
_cell_length_a 19.619468
_cell_length_b 16.677592
_cell_length_c 18.611507
_cell_angle_alpha 90.000000
_cell_angle_beta 26.488087
_cell_angle_gamma 90.000000
_cell_volume 2716.116479
_symmetry_space_group_name_H-M "C 2/M"
_symmetry_group_IT_number 12
_symmetry_cell_setting 'monoclinic'
loop_
_space_group_symop_operation_xyz
x,y,z
-x,y,-z
-x,-y,-z
x,-y,z
1/2+x,1/2+y,z
1/2-x,1/2+y,-z
1/2-x,1/2-y,-z
1/2+x,1/2-y,z
loop_
_atom_site_type_symbol
_atom_site_label
_atom_site_fract_x
_atom_site_fract_y
_atom_site_fract_z
Si Si1 0.297169 0.091638 0.327273
Si Si2 0.500000 0.000000 0.500000
Si Si3 0.715089 0.751744 0.149452
Si Si4 0.181721 0.633290 0.421016
Si Si5 0.538033 0.590823 0.281454
Si Si6 0.837445 0.211442 0.643496
Si Si7 0.051249 0.670467 0.690738
Si Si8 0.523027 0.675059 0.800506
O O1 0.287972 0.151676 0.268930
O O2 0.431018 0.114709 0.256392
O O3 0.131905 0.102530 0.523841
O O4 0.308857 0.000000 0.294104
O O5 0.403096 0.930527 0.547154
O O6 0.654751 0.660792 0.194844
O O7 0.707645 0.758909 0.242361
O O8 0.605182 0.807369 0.203615
O O9 0.882143 0.776139 0.965978
O O10 0.128663 0.721906 0.448424
O O11 0.145163 0.625854 0.539772
O O12 0.364659 0.639570 0.245904
O O13 0.585889 0.500000 0.253258
O O14 0.525082 0.605215 0.208298
O O15 0.000000 0.167024 0.500000
O O16 0.101960 0.756917 0.675246
#
# Coordination Sequence:
#
# PCOD9200014 Si02
#       8
#     8   2   8   8   8   8   8   8
#     4  11  23  37  67 109 131 165 226 289 349 393
#     4  12  28  40  68 118 130 180 218 292 340 396
#     4  11  24  40  67  96 130 181 229 270 339 416
#     4  12  23  41  70  95 135 168 229 273 336 394
#     4  10  20  36  63 101 134 165 217 288 349 391
#     4  12  21  42  66  95 130 175 223 278 333 408
#     4  11  20  41  68  96 129 172 226 285 324 402
#     4  11  23  40  67  99 128 178 229 271 328 415
#
# _framework density 21.354018
#
# number of rings (size 3 to 8) (size 9 to 14) (size 15 to 20)
#    0.000    0.828    6.207    2.897    1.931    1.379 
#    0.000    2.759    1.517    4.138    0.000    0.000 
#    0.000    0.000    0.000    0.000    0.000    0.000 
#
# Total GULP energy -161518.817001 kJ/mol
# GULP energy per Si atom -5569.614379 kJ/mol
# Density = 2.130541 g / cm^3
# Si number density = 21.354018 Si / 1000 Ang^3
#
#
#
# Elastic Constant Matrix: (Units=GPa)
#
#
# Indices 1 2 3 4 5 6 
#
# 1 116.8214 14.1593 18.6709 -0.0016 -12.8960 0.0003
# 2 14.1593 78.8271 -5.9293 -0.0031 -17.4632 0.0012
# 3 18.6709 -5.9293 65.0554 -0.0051 -8.9108 0.0023
# 4 -0.0016 -0.0031 -0.0051 11.7539 0.0017 -8.6581
# 5 -12.8960 -17.4632 -8.9108 0.0017 21.1638 -0.0007
# 6 0.0003 0.0012 0.0023 -8.6581 -0.0007 33.0242
#
#
#
# Elastic Compliance Matrix: (Units=1/GPa)
#
#
# Indices 1 2 3 4 5 6 
#
# 1 0.009484 -0.000984 -0.002262 -0.000001 0.004015 0.000000
# 2 -0.000984 0.016352 0.003755 0.000004 0.014474 0.000001
# 3 -0.002262 0.003755 0.017614 0.000008 0.009137 0.000001
# 4 -0.000001 0.000004 0.000008 0.105441 -0.000001 0.027644
# 5 0.004015 0.014474 0.009137 -0.000001 0.065487 0.000000
# 6 0.000000 0.000001 0.000001 0.027644 0.000000 0.037528
#
#
# Mechanical properties :
#
#
# Convention : Reuss Voigt Hill
#
# Bulk Modulus (GPa) = 22.48767 34.94508 28.71638
# Shear Modulus (GPa) = 18.81743 28.77526 23.79635
#
# Velocity S-wave (km/s) = 2.97174 3.67486 3.34184
# Velocity P-wave (km/s) = 4.72533 5.86569 5.32612
#
# Compressibility (1/GPa) = 0.04446881
#
# Stress axis : x y z
#
# Youngs Moduli (GPa) = 105.44049 61.15538 56.77173
#
# Poissons Ratio (x) = 0.06020 0.12840
# Poissons Ratio (y) = 0.10379 -0.21320
# Poissons Ratio (z) = 0.23848 -0.22966
#
# Static dielectric constant tensor:
#      x y z
#    x 1.837530 0.000000 -0.019320 
#    y 0.000000 1.751210 0.000000 
#    z -0.019320 0.000000 1.877530 
# 
# From -- ./inp_files/278787.got.cif
#   From: 2010.05.17/outbox.cif.g08.bks.cpg/sg12_140_cif.got.tgz:278787.got - 2010.06.03 13:09:07.
