data_PCOD9200479
_publ_section_title
;
Structure prediction by ZEFSAII (Michael W. Deem and Ramdas Pophale) SiO2 
 PCOD9200479
Probable space group: C 2/M
;
_chemical_formula_sum "Si O2"
_cell_formula_units_Z 64
_cell_length_a 15.020523
_cell_length_b 8.343757
_cell_length_c 30.152917
_cell_angle_alpha 90.000000
_cell_angle_beta 60.560247
_cell_angle_gamma 90.000000
_cell_volume 3291.022577
_symmetry_space_group_name_H-M "C 2/M"
_symmetry_group_IT_number 12
_symmetry_cell_setting 'monoclinic'
loop_
_space_group_symop_operation_xyz
x,y,z
-x,y,-z
-x,-y,-z
x,-y,z
1/2+x,1/2+y,z
1/2-x,1/2+y,-z
1/2-x,1/2-y,-z
1/2+x,1/2-y,z
loop_
_atom_site_type_symbol
_atom_site_label
_atom_site_fract_x
_atom_site_fract_y
_atom_site_fract_z
Si Si1 0.677889 0.805160 0.758730
Si Si2 0.088766 0.308866 0.690196
Si Si3 0.322660 0.690863 0.422806
Si Si4 0.405799 0.311390 0.052678
Si Si5 0.021086 0.688677 0.872325
Si Si6 0.866111 0.193990 0.772851
Si Si7 0.816728 0.810651 0.886520
Si Si8 0.101841 0.192893 0.500177
O O1 0.661354 0.749948 0.712646
O O2 0.581841 0.759806 0.813166
O O3 0.779894 0.753506 0.758944
O O4 0.679169 0.000000 0.757249
O O5 0.099140 0.500000 0.683877
O O6 0.117862 0.233821 0.636262
O O7 0.974473 0.266854 0.733476
O O8 0.312941 0.500000 0.428865
O O9 0.208287 0.762276 0.450434
O O10 0.381474 0.749025 0.452956
O O11 0.393166 0.500000 0.047069
O O12 0.436396 0.282202 0.096065
O O13 0.298067 0.226877 0.070809
O O14 0.500000 0.250374 0.000000
O O15 0.041619 0.500000 0.874282
O O16 0.902082 0.719933 0.893795
O O17 0.831325 0.237167 0.831206
O O18 0.873099 0.000000 0.769590
O O19 0.836241 0.000000 0.885038
O O20 0.000000 0.253225 0.500000
O O21 0.094188 0.000000 0.503159
#
# Coordination Sequence:
#
# PCOD9200479 Si02
#       8
#     8   8   8   8   8   8   8   8
#     4   9  19  36  57  82 112 151 193 233 284 344
#     4  11  22  37  57  84 120 157 194 236 288 350
#     4  10  21  37  57  85 119 151 190 244 292 338
#     4  11  25  43  62  88 120 154 197 249 302 358
#     4  11  21  39  64  89 118 153 196 243 295 355
#     4  10  20  37  58  83 113 149 193 239 286 341
#     4  11  22  38  63  91 118 153 195 243 299 358
#     4   9  19  38  63  85 110 152 199 238 289 349
#
# _framework density 19.446843000000001
#
# number of rings (size 3 to 8) (size 9 to 14) (size 15 to 20)
#    0.000    1.750    2.500    1.875    0.000    3.750 
#    0.000    6.250    0.000    0.000    0.000    0.000 
#    0.000    0.000    0.000    0.000    0.000    0.000 
#
# Total GULP energy -178730.855718 kJ/mol
# GULP energy per Si atom -5585.339241 kJ/mol
# Density = 1.940258 g / cm^3
# Si number density = 19.446843 Si / 1000 Ang^3
#
#
#
# Elastic Constant Matrix: (Units=GPa)
#
#
# Indices 1 2 3 4 5 6 
#
# 1 74.9386 -0.3113 -26.9935 0.0000 -5.6642 0.0000
# 2 -0.3113 5.0278 -2.1115 0.0000 0.5704 0.0000
# 3 -26.9935 -2.1115 28.0460 0.0000 -6.3495 0.0000
# 4 0.0000 0.0000 0.0000 26.8079 0.0000 -4.4995
# 5 -5.6642 0.5704 -6.3495 0.0000 15.1891 0.0000
# 6 0.0000 0.0000 0.0000 -4.4995 0.0000 28.3360
#
#
#
# Elastic Compliance Matrix: (Units=1/GPa)
#
#
# Indices 1 2 3 4 5 6 
#
# 1 0.026440 0.012299 0.031481 0.000000 0.022558 0.000000
# 2 0.012299 0.211136 0.029796 0.000000 0.009113 0.000000
# 3 0.031481 0.029796 0.077983 0.000000 0.043220 0.000000
# 4 0.000000 0.000000 0.000000 0.038324 0.000000 0.006085
# 5 0.022558 0.009113 0.043220 0.000000 0.091974 0.000000
# 6 0.000000 0.000000 0.000000 0.006085 0.000000 0.036257
#
#
# Mechanical properties :
#
#
# Convention : Reuss Voigt Hill
#
# Bulk Modulus (GPa) = 2.16118 5.46442 3.81280
# Shear Modulus (GPa) = 10.22078 23.22849 16.72464
#
# Velocity S-wave (km/s) = 2.29503 3.45985 2.93579
# Velocity P-wave (km/s) = 2.85248 4.33321 3.66834
#
# Compressibility (1/GPa) = 0.46270920
#
# Stress axis : x y z
#
# Youngs Moduli (GPa) = 37.82155 4.73629 12.82331
#
# Poissons Ratio (x) = -0.05825 -0.40369
# Poissons Ratio (y) = -0.46515 -0.38208
# Poissons Ratio (z) = -1.19065 -0.14112
#
# Static dielectric constant tensor:
#      x y z
#    x 1.675130 0.000000 0.014480 
#    y 0.000000 1.669400 0.000000 
#    z 0.014480 0.000000 1.660210 
# 
# From -- ./inp_files/374987.got.cif
#   From: 2010.05.17/outbox.cif.g08.bks.cpg/sg12_188_cif.got.tgz:374987.got - 2010.06.03 13:09:07.
