data_PCOD9200146
_publ_section_title
;
Structure prediction by ZEFSAII (Michael W. Deem and Ramdas Pophale) SiO2 
 PCOD9200146
Probable space group: C 2/M
;
_chemical_formula_sum "Si O2"
_cell_formula_units_Z 60
_cell_length_a 14.836501
_cell_length_b 7.444953
_cell_length_c 24.178070
_cell_angle_alpha 90.000000
_cell_angle_beta 87.952913
_cell_angle_gamma 90.000000
_cell_volume 2668.933971
_symmetry_space_group_name_H-M "C 2/M"
_symmetry_group_IT_number 12
_symmetry_cell_setting 'monoclinic'
loop_
_space_group_symop_operation_xyz
x,y,z
-x,y,-z
-x,-y,-z
x,-y,z
1/2+x,1/2+y,z
1/2-x,1/2+y,-z
1/2-x,1/2-y,-z
1/2+x,1/2-y,z
loop_
_atom_site_type_symbol
_atom_site_label
_atom_site_fract_x
_atom_site_fract_y
_atom_site_fract_z
Si Si1 0.423176 0.704784 0.763176
Si Si2 0.687525 0.281864 0.126603
Si Si3 0.510014 0.204491 0.560319
Si Si4 0.643023 0.713678 0.011017
Si Si5 0.861961 0.282532 0.646478
Si Si6 0.534380 0.000000 0.804662
Si Si7 0.287559 0.713465 0.437628
Si Si8 0.897860 0.208289 0.107244
O O1 0.450628 0.500000 0.772915
O O2 0.361993 0.770455 0.816160
O O3 0.366104 0.711924 0.708322
O O4 0.504966 0.842446 0.760473
O O5 0.694365 0.500000 0.125443
O O6 0.629781 0.222487 0.074116
O O7 0.789219 0.210293 0.120332
O O8 0.500000 0.291111 0.500000
O O9 0.450614 0.279680 0.611000
O O10 0.614587 0.203571 0.571154
O O11 0.474651 0.000000 0.554632
O O12 0.628892 0.500000 0.011560
O O13 0.750000 0.750000 0.000000
O O14 0.592793 0.775457 0.956781
O O15 0.860169 0.500000 0.650954
O O16 0.780118 0.226215 0.608788
O O17 0.559937 0.841556 0.849587
O O18 0.297247 0.500000 0.432593
O O19 0.250000 0.750000 0.500000
O O20 0.929458 0.000000 0.110358
#
# Coordination Sequence:
#
# PCOD9200146 Si02
#       8
#     8   8   8   8   8   4   8   8
#     4  11  25  44  66  87 123 180 218 259 330 386
#     4   9  18  38  63  91 125 167 218 267 319 387
#     4  10  20  39  65  94 131 171 204 255 326 378
#     4   8  15  29  55  89 124 157 203 266 326 387
#     4  10  22  44  65  86 132 174 212 270 325 382
#     4  12  24  44  63  88 135 162 210 280 320 384
#     4  11  22  38  64  98 132 168 211 260 316 382
#     4  10  20  36  64  96 123 163 213 270 333 389
#
# _framework density 22.480885000000001
#
# number of rings (size 3 to 8) (size 9 to 14) (size 15 to 20)
#    0.000    2.000    2.667    0.800    1.867    1.867 
#    2.400    1.333    0.000    3.200    0.000    0.000 
#    0.000    0.000    0.000    0.000    0.000    0.000 
#
# Total GULP energy -167109.637244 kJ/mol
# GULP energy per Si atom -5570.321241 kJ/mol
# Density = 2.242972 g / cm^3
# Si number density = 22.480885 Si / 1000 Ang^3
#
#
#
# Elastic Constant Matrix: (Units=GPa)
#
#
# Indices 1 2 3 4 5 6 
#
# 1 63.1791 -1.0836 30.2461 0.0000 9.9671 0.0000
# 2 -1.0836 115.6074 10.6430 0.0000 12.9241 0.0000
# 3 30.2461 10.6430 134.9231 0.0000 28.6157 0.0000
# 4 0.0000 0.0000 0.0000 20.1204 0.0000 11.8839
# 5 9.9671 12.9241 28.6157 0.0000 37.7986 0.0000
# 6 0.0000 0.0000 0.0000 11.8839 0.0000 15.4073
#
#
#
# Elastic Compliance Matrix: (Units=1/GPa)
#
#
# Indices 1 2 3 4 5 6 
#
# 1 0.017919 0.000752 -0.003597 0.000000 -0.002259 0.000000
# 2 0.000752 0.009026 -0.000219 0.000000 -0.003118 0.000000
# 3 -0.003597 -0.000219 0.009552 0.000000 -0.006208 0.000000
# 4 0.000000 0.000000 0.000000 0.091290 0.000000 -0.070413
# 5 -0.002259 -0.003118 -0.006208 0.000000 0.032818 0.000000
# 6 0.000000 0.000000 0.000000 -0.070413 0.000000 0.119215
#
#
# Mechanical properties :
#
#
# Convention : Reuss Voigt Hill
#
# Bulk Modulus (GPa) = 32.92968 43.70231 38.31599
# Shear Modulus (GPa) = 16.88779 32.92552 24.90666
#
# Velocity S-wave (km/s) = 2.74379 3.83116 3.33213
# Velocity P-wave (km/s) = 4.97167 6.24919 5.64667
#
# Compressibility (1/GPa) = 0.03036774
#
# Stress axis : x y z
#
# Youngs Moduli (GPa) = 55.80539 110.79352 104.69064
#
# Poissons Ratio (x) = -0.08328 0.37660
# Poissons Ratio (y) = -0.04195 0.02294
# Poissons Ratio (z) = 0.20075 0.02427
#
# Static dielectric constant tensor:
#      x y z
#    x 1.855930 0.000000 -0.005990 
#    y 0.000000 1.866280 0.000000 
#    z -0.005990 0.000000 1.834120 
# 
# From -- ./inp_files/338139.got.cif
#   From: 2010.05.17/outbox.cif.g08.bks.cpg/sg12_170_cif.got.tgz:338139.got - 2010.06.03 13:09:07.
