data_PCOD9200078
_publ_section_title
;
Structure prediction by ZEFSAII (Michael W. Deem and Ramdas Pophale) SiO2 
 PCOD9200078
Probable space group: C 2/M
;
_chemical_formula_sum "Si O2"
_cell_formula_units_Z 40
_cell_length_a 19.148530
_cell_length_b 15.651183
_cell_length_c 11.461825
_cell_angle_alpha 90.000000
_cell_angle_beta 150.940014
_cell_angle_gamma 90.000000
_cell_volume 1668.502552
_symmetry_space_group_name_H-M "C 2/M"
_symmetry_group_IT_number 12
_symmetry_cell_setting 'monoclinic'
loop_
_space_group_symop_operation_xyz
x,y,z
-x,y,-z
-x,-y,-z
x,-y,z
1/2+x,1/2+y,z
1/2-x,1/2+y,-z
1/2-x,1/2-y,-z
1/2+x,1/2-y,z
loop_
_atom_site_type_symbol
_atom_site_label
_atom_site_fract_x
_atom_site_fract_y
_atom_site_fract_z
Si Si1 0.560377 0.155054 0.965670
Si Si2 0.332757 0.395945 0.251864
Si Si3 0.817030 0.599356 0.466716
Si Si4 0.209058 0.098001 0.061915
Si Si5 0.946827 0.848420 0.797548
O O1 0.480855 0.107449 0.743957
O O2 0.507111 0.252644 0.877842
O O3 0.500000 0.121242 0.000000
O O4 0.730078 0.143088 0.200277
O O5 0.500000 0.372023 0.500000
O O6 0.325121 0.500000 0.246251
O O7 0.270773 0.364476 0.036249
O O8 0.775738 0.500000 0.407554
O O9 0.782498 0.634533 0.286564
O O10 0.722518 0.645184 0.429754
O O11 0.257675 0.000000 0.127091
O O12 0.036264 0.100864 0.832276
O O13 0.000000 0.884502 0.000000
#
# Coordination Sequence:
#
# PCOD9200078 Si02
#       5
#     8   8   8   8   8
#     4  11  24  39  60  93 128 161 202 249 305 362
#     4  10  23  42  62  88 124 165 205 249 302 363
#     4  10  20  36  63  94 122 157 202 254 303 357
#     4   9  19  38  63  88 116 157 208 252 301 359
#     4   9  19  37  61  90 124 158 198 248 307 360
#
# _framework density 23.973593000000001
#
# number of rings (size 3 to 8) (size 9 to 14) (size 15 to 20)
#    0.000    2.200    0.000    1.800    2.800    5.600 
#    0.000    3.000    0.000    0.000    0.000    0.000 
#    0.000    0.000    0.000    0.000    0.000    0.000 
#
# Total GULP energy -111651.577642 kJ/mol
# GULP energy per Si atom -5582.578882 kJ/mol
# Density = 2.391903 g / cm^3
# Si number density = 23.973593 Si / 1000 Ang^3
#
#
#
# Elastic Constant Matrix: (Units=GPa)
#
#
# Indices 1 2 3 4 5 6 
#
# 1 145.3186 8.4957 46.9825 0.0000 10.1458 0.0000
# 2 8.4957 60.8063 17.7030 0.0000 1.4788 0.0000
# 3 46.9825 17.7030 111.9841 0.0000 14.7697 0.0000
# 4 0.0000 0.0000 0.0000 10.1333 0.0000 -12.2445
# 5 10.1458 1.4788 14.7697 0.0000 41.3881 0.0000
# 6 0.0000 0.0000 0.0000 -12.2445 0.0000 -13.9305
#
#
#
# Elastic Compliance Matrix: (Units=1/GPa)
#
#
# Indices 1 2 3 4 5 6 
#
# 1 0.007988 -0.000159 -0.003220 0.000000 -0.000803 0.000000
# 2 -0.000159 0.017248 -0.002711 0.000000 0.000390 0.000000
# 3 -0.003220 -0.002711 0.011116 0.000000 -0.003080 0.000000
# 4 0.000000 0.000000 0.000000 0.047856 0.000000 -0.042064
# 5 -0.000803 0.000390 -0.003080 0.000000 0.025444 0.000000
# 6 0.000000 0.000000 0.000000 -0.042064 0.000000 -0.034812
#
#
# Mechanical properties :
#
#
# Convention : Reuss Voigt Hill
#
# Bulk Modulus (GPa) = 41.37310 51.60794 46.49052
# Shear Modulus (GPa) = 52.58850 23.84671 38.21761
#
# Velocity S-wave (km/s) = 4.68867 3.15732 3.99702
# Velocity P-wave (km/s) = 6.82691 5.90468 6.38248
#
# Compressibility (1/GPa) = 0.02417029
#
# Stress axis : x y z
#
# Youngs Moduli (GPa) = 125.18887 57.97856 89.96212
#
# Poissons Ratio (x) = 0.00922 0.28970
# Poissons Ratio (y) = 0.01990 0.24392
# Poissons Ratio (z) = 0.40314 0.15720
#
# Static dielectric constant tensor:
#      x y z
#    x 1.945290 0.000000 0.017740 
#    y 0.000000 1.916100 0.000000 
#    z 0.017740 0.000000 1.994470 
# 
# From -- ./inp_files/158431.got.cif
#   From: 2010.05.17/outbox.cif.g08.bks.cpg/sg12_80_cif.got.tgz:158431.got - 2010.06.03 13:09:07.
