data_PCOD9200044
_publ_section_title
;
Structure prediction by ZEFSAII (Michael W. Deem and Ramdas Pophale) SiO2 
 PCOD9200044
Probable space group: C 2/M
;
_chemical_formula_sum "Si O2"
_cell_formula_units_Z 60
_cell_length_a 21.075839
_cell_length_b 14.833462
_cell_length_c 15.168729
_cell_angle_alpha 90.000000
_cell_angle_beta 41.753121
_cell_angle_gamma 90.000000
_cell_volume 3157.912914
_symmetry_space_group_name_H-M "C 2/M"
_symmetry_group_IT_number 12
_symmetry_cell_setting 'monoclinic'
loop_
_space_group_symop_operation_xyz
x,y,z
-x,y,-z
-x,-y,-z
x,-y,z
1/2+x,1/2+y,z
1/2-x,1/2+y,-z
1/2-x,1/2-y,-z
1/2+x,1/2-y,z
loop_
_atom_site_type_symbol
_atom_site_label
_atom_site_fract_x
_atom_site_fract_y
_atom_site_fract_z
Si Si1 0.088700 0.897648 0.058913
Si Si2 0.011204 0.300537 0.387298
Si Si3 0.815810 0.391590 0.547351
Si Si4 0.997067 0.900097 0.343062
Si Si5 0.000000 0.217838 0.000000
Si Si6 0.276975 0.791064 0.876967
Si Si7 0.774980 0.101041 0.547786
Si Si8 0.284347 0.761139 0.240732
O O1 0.060624 0.889196 0.190079
O O2 0.020947 0.839804 0.066124
O O3 0.078202 0.000000 0.042258
O O4 0.197348 0.865850 0.939283
O O5 0.114283 0.324056 0.240373
O O6 0.000000 0.329024 0.500000
O O7 0.921128 0.347620 0.434862
O O8 0.006926 0.191367 0.387657
O O9 0.817978 0.500000 0.561166
O O10 0.768472 0.374604 0.501413
O O11 0.754590 0.335682 0.682968
O O12 0.888584 0.901200 0.422576
O O13 0.016949 0.000000 0.362279
O O14 0.101162 0.266670 0.882475
O O15 0.260942 0.724726 0.809416
O O16 0.250000 0.750000 0.000000
O O17 0.750215 0.168312 0.651387
O O18 0.741416 0.000000 0.604606
#
# Coordination Sequence:
#
# PCOD9200044 Si02
#       8
#     8   8   8   8   4   8   8   8
#     4  10  21  37  57  87 119 154 196 248 297 353
#     4  12  23  41  61  87 122 165 207 249 297 361
#     4  11  24  38  62  92 122 159 202 251 311 368
#     4  10  20  36  63  91 116 151 198 254 308 354
#     4  10  23  34  59  88 114 154 192 240 312 362
#     4  11  23  40  60  85 124 166 207 240 298 364
#     4  10  21  39  64  94 120 151 202 259 314 368
#     4  11  22  40  62  89 121 161 198 256 308 359
#
# _framework density 18.999891000000002
#
# number of rings (size 3 to 8) (size 9 to 14) (size 15 to 20)
#    0.000    1.333    4.000    1.400    1.867    4.800 
#    0.000    1.667    0.000    0.000    0.000    0.000 
#    0.000    0.000    0.000    0.000    0.000    0.000 
#
# Total GULP energy -167350.610845 kJ/mol
# GULP energy per Si atom -5578.353695 kJ/mol
# Density = 1.895665 g / cm^3
# Si number density = 18.999891 Si / 1000 Ang^3
#
#
#
# Elastic Constant Matrix: (Units=GPa)
#
#
# Indices 1 2 3 4 5 6 
#
# 1 64.6764 14.2803 40.2784 0.0000 -0.9885 0.0000
# 2 14.2803 52.2651 24.1082 0.0000 11.6718 0.0000
# 3 40.2784 24.1082 117.4089 0.0000 -8.3586 0.0000
# 4 0.0000 0.0000 0.0000 -11.5991 0.0000 -7.0328
# 5 -0.9885 11.6718 -8.3586 0.0000 42.5871 0.0000
# 6 0.0000 0.0000 0.0000 -7.0328 0.0000 1.4487
#
#
#
# Elastic Compliance Matrix: (Units=1/GPa)
#
#
# Indices 1 2 3 4 5 6 
#
# 1 0.019962 -0.002509 -0.006340 0.000000 -0.000093 0.000000
# 2 -0.002509 0.023546 -0.004501 0.000000 -0.007395 0.000000
# 3 -0.006340 -0.004501 0.011859 0.000000 0.003414 0.000000
# 4 0.000000 0.000000 0.000000 -0.021863 0.000000 -0.106133
# 5 -0.000093 -0.007395 0.003414 0.000000 0.026176 0.000000
# 6 0.000000 0.000000 0.000000 -0.106133 0.000000 0.175045
#
#
# Mechanical properties :
#
#
# Convention : Reuss Voigt Hill
#
# Bulk Modulus (GPa) = 34.88083 43.52045 39.20064
# Shear Modulus (GPa) = 18.45152 16.86624 17.65888
#
# Velocity S-wave (km/s) = 3.11969 2.98266 3.05195
# Velocity P-wave (km/s) = 5.60133 5.90060 5.75291
#
# Compressibility (1/GPa) = 0.02866904
#
# Stress axis : x y z
#
# Youngs Moduli (GPa) = 50.09429 42.46976 84.32192
#
# Poissons Ratio (x) = 0.10656 0.53458
# Poissons Ratio (y) = 0.12569 0.37949
# Poissons Ratio (z) = 0.31758 0.19114
#
# Static dielectric constant tensor:
#      x y z
#    x 1.685400 0.000000 0.023410 
#    y 0.000000 1.687100 0.000000 
#    z 0.023410 0.000000 1.667020 
# 
# From -- ./inp_files/233895.got.cif
#   From: 2010.05.17/outbox.cif.g08.bks.cpg/sg12_117_cif.got.tgz:233895.got - 2010.06.03 13:09:07.
