data_PCOD9200610
_publ_section_title
;
Structure prediction by ZEFSAII (Michael W. Deem and Ramdas Pophale) SiO2 
 PCOD9200610
Probable space group: C 2/M
;
_chemical_formula_sum "Si O2"
_cell_formula_units_Z 48
_cell_length_a 20.872225
_cell_length_b 8.367164
_cell_length_c 23.770945
_cell_angle_alpha 90.000000
_cell_angle_beta 140.263358
_cell_angle_gamma 90.000000
_cell_volume 2653.816118
_symmetry_space_group_name_H-M "C 2/M"
_symmetry_group_IT_number 12
_symmetry_cell_setting 'monoclinic'
loop_
_space_group_symop_operation_xyz
x,y,z
-x,y,-z
-x,-y,-z
x,-y,z
1/2+x,1/2+y,z
1/2-x,1/2+y,-z
1/2-x,1/2-y,-z
1/2+x,1/2-y,z
loop_
_atom_site_type_symbol
_atom_site_label
_atom_site_fract_x
_atom_site_fract_y
_atom_site_fract_z
Si Si1 0.034890 0.306046 0.267159
Si Si2 0.857560 0.307743 0.550749
Si Si3 0.492253 0.691141 0.930394
Si Si4 0.892817 0.192788 0.448658
Si Si5 0.681346 0.806860 0.265066
Si Si6 0.637146 0.191370 0.930557
O O1 0.032397 0.500000 0.266561
O O2 0.061595 0.252950 0.347814
O O3 0.124230 0.261734 0.284468
O O4 0.932741 0.250942 0.168618
O O5 0.858058 0.500000 0.548902
O O6 0.750000 0.250000 0.500000
O O7 0.877476 0.239917 0.502814
O O8 0.499092 0.500000 0.935104
O O9 0.386875 0.740929 0.831064
O O10 0.580021 0.755037 0.948745
O O11 0.500000 0.748719 0.000000
O O12 0.796035 0.247902 0.347593
O O13 0.000000 0.253452 0.500000
O O14 0.893175 0.000000 0.445350
O O15 0.679287 0.000000 0.260193
O O16 0.636801 0.000000 0.929710
O O17 0.750000 0.250000 0.000000
#
# Coordination Sequence:
#
# PCOD9200610 Si02
#       6
#     8   8   8   8   8   8
#     4   8  16  32  54  78 106 140 176 221 274 316
#     4  11  20  34  57  83 110 142 184 228 268 324
#     4  10  21  37  57  82 110 143 184 229 273 323
#     4  10  21  38  56  78 114 150 180 224 277 323
#     4   9  17  34  57  78 106 144 184 225 273 325
#     4  10  20  37  59  82 112 146 179 224 277 328
#
# _framework density 18.087161999999999
#
# number of rings (size 3 to 8) (size 9 to 14) (size 15 to 20)
#    0.000    2.333    1.667    2.500    0.000    2.333 
#    3.000    2.500    0.000    0.000    0.000    0.000 
#    0.000    0.000    0.000    0.000    0.000    0.000 
#
# Total GULP energy -133854.468091 kJ/mol
# GULP energy per Si atom -5577.269504 kJ/mol
# Density = 1.804599 g / cm^3
# Si number density = 18.087162 Si / 1000 Ang^3
#
#
#
# Elastic Constant Matrix: (Units=GPa)
#
#
# Indices 1 2 3 4 5 6 
#
# 1 120.9245 12.6180 97.1352 0.0000 15.2505 0.0000
# 2 12.6180 16.1829 18.3698 0.0000 7.5452 0.0000
# 3 97.1352 18.3698 171.5761 0.0000 9.4407 0.0000
# 4 0.0000 0.0000 0.0000 26.7484 0.0000 -2.5397
# 5 15.2505 7.5452 9.4407 0.0000 36.3597 0.0000
# 6 0.0000 0.0000 0.0000 -2.5397 0.0000 22.7421
#
#
#
# Elastic Compliance Matrix: (Units=1/GPa)
#
#
# Indices 1 2 3 4 5 6 
#
# 1 0.015827 -0.000501 -0.008671 0.000000 -0.004283 0.000000
# 2 -0.000501 0.076793 -0.007176 0.000000 -0.013863 0.000000
# 3 -0.008671 -0.007176 0.011386 0.000000 0.002170 0.000000
# 4 0.000000 0.000000 0.000000 0.037786 0.000000 0.004220
# 5 -0.004283 -0.013863 0.002170 0.000000 0.031613 0.000000
# 6 0.000000 0.000000 0.000000 0.004220 0.000000 0.044443
#
#
# Mechanical properties :
#
#
# Convention : Reuss Voigt Hill
#
# Bulk Modulus (GPa) = 14.02300 62.76996 38.39648
# Shear Modulus (GPa) = 18.22734 29.20739 23.71736
#
# Velocity S-wave (km/s) = 3.17795 4.02283 3.62509
# Velocity P-wave (km/s) = 4.60822 7.50714 6.22867
#
# Compressibility (1/GPa) = 0.07131140
#
# Stress axis : x y z
#
# Youngs Moduli (GPa) = 63.18199 13.02205 87.82572
#
# Poissons Ratio (x) = 0.00652 0.76154
# Poissons Ratio (y) = 0.03164 0.63019
# Poissons Ratio (z) = 0.54786 0.09344
#
# Static dielectric constant tensor:
#      x y z
#    x 1.590680 0.000000 0.008780 
#    y 0.000000 1.622510 0.000000 
#    z 0.008780 0.000000 1.644480 
# 
# From -- ./inp_files/248815.got.cif
#   From: 2010.05.17/outbox.cif.g08.bks.cpg/sg12_125_cif.got.tgz:248815.got - 2010.06.03 13:09:07.
