data_PCOD9200396
_publ_section_title
;
Structure prediction by ZEFSAII (Michael W. Deem and Ramdas Pophale) SiO2 
 PCOD9200396
Probable space group: C 2/M
;
_chemical_formula_sum "Si O2"
_cell_formula_units_Z 56
_cell_length_a 19.150126
_cell_length_b 7.648968
_cell_length_c 20.276178
_cell_angle_alpha 90.000000
_cell_angle_beta 54.948841
_cell_angle_gamma 90.000000
_cell_volume 2431.382636
_symmetry_space_group_name_H-M "C 2/M"
_symmetry_group_IT_number 12
_symmetry_cell_setting 'monoclinic'
loop_
_space_group_symop_operation_xyz
x,y,z
-x,y,-z
-x,-y,-z
x,-y,z
1/2+x,1/2+y,z
1/2-x,1/2+y,-z
1/2-x,1/2-y,-z
1/2+x,1/2-y,z
loop_
_atom_site_type_symbol
_atom_site_label
_atom_site_fract_x
_atom_site_fract_y
_atom_site_fract_z
Si Si1 0.858930 0.800696 0.780190
Si Si2 0.440230 0.706603 0.131085
Si Si3 0.538252 0.706023 0.645639
Si Si4 0.183776 0.292451 0.476582
Si Si5 0.622707 0.799427 0.082021
Si Si6 0.318282 0.788510 0.086510
Si Si7 0.331026 0.713768 0.311683
O O1 0.876943 0.800906 0.849285
O O2 0.764653 0.719830 0.829584
O O3 0.942731 0.719287 0.701101
O O4 0.850860 0.000000 0.760189
O O5 0.454103 0.500000 0.132583
O O6 0.527333 0.796709 0.104209
O O7 0.403136 0.739011 0.079195
O O8 0.366852 0.766444 0.221940
O O9 0.528674 0.500000 0.664484
O O10 0.592300 0.723735 0.549321
O O11 0.599638 0.774120 0.671015
O O12 0.174884 0.500000 0.476769
O O13 0.250000 0.250000 0.500000
O O14 0.236422 0.227498 0.384465
O O15 0.645701 0.000000 0.083727
O O16 0.678158 0.727024 0.991025
O O17 0.313424 0.000000 0.086214
O O18 0.329552 0.500000 0.315042
#
# Coordination Sequence:
#
# PCOD9200396 Si02
#       7
#     8   8   8   8   8   8   8
#     4  10  20  37  58  76 105 144 178 214 266 322
#     4  11  21  36  57  78 104 142 182 216 260 319
#     4   9  16  30  50  74 102 132 169 213 258 309
#     4   9  16  27  45  72 104 133 165 209 259 308
#     4  11  22  36  55  80 108 134 175 228 270 311
#     4  10  23  39  53  76 109 142 174 221 273 312
#     4   8  15  29  48  72 101 131 168 211 252 300
#
# _framework density 23.032163000000001
#
# number of rings (size 3 to 8) (size 9 to 14) (size 15 to 20)
#    0.000    2.286    1.429    3.000    0.000    4.000 
#    0.000    2.143    0.000    0.857    0.000    6.000 
#    0.000    0.000    0.000    0.000    0.000    0.000 
#
# Total GULP energy -156289.096638 kJ/mol
# GULP energy per Si atom -5581.753451 kJ/mol
# Density = 2.297974 g / cm^3
# Si number density = 23.032163 Si / 1000 Ang^3
#
#
#
# Elastic Constant Matrix: (Units=GPa)
#
#
# Indices 1 2 3 4 5 6 
#
# 1 66.4706 -1.7857 5.8161 -0.0001 -21.4286 0.0003
# 2 -1.7857 55.8813 3.1589 0.0000 -3.1206 -0.0005
# 3 5.8161 3.1589 108.1824 0.0000 -39.1389 0.0001
# 4 -0.0001 0.0000 0.0000 17.3287 0.0000 -0.3127
# 5 -21.4286 -3.1206 -39.1389 0.0000 38.9205 0.0000
# 6 0.0003 -0.0005 0.0001 -0.3127 0.0000 10.5301
#
#
#
# Elastic Compliance Matrix: (Units=1/GPa)
#
#
# Indices 1 2 3 4 5 6 
#
# 1 0.019663 0.001237 0.004495 0.000000 0.015445 -0.000001
# 2 0.001237 0.018053 0.000277 0.000000 0.002407 0.000001
# 3 0.004495 0.000277 0.015557 0.000000 0.018141 0.000000
# 4 0.000000 0.000000 0.000000 0.057739 0.000000 0.001714
# 5 0.015445 0.002407 0.018141 0.000000 0.052633 0.000000
# 6 -0.000001 0.000001 0.000000 0.001714 0.000000 0.095017
#
#
# Mechanical properties :
#
#
# Convention : Reuss Voigt Hill
#
# Bulk Modulus (GPa) = 15.31606 27.21256 21.26431
# Shear Modulus (GPa) = 18.62829 28.24551 23.43690
#
# Velocity S-wave (km/s) = 2.84702 3.50573 3.19340
# Velocity P-wave (km/s) = 4.17991 5.31296 4.78012
#
# Compressibility (1/GPa) = 0.06529092
#
# Stress axis : x y z
#
# Youngs Moduli (GPa) = 50.85611 55.39137 64.27899
#
# Poissons Ratio (x) = -0.06851 -0.28890
# Poissons Ratio (y) = -0.06290 -0.01782
# Poissons Ratio (z) = -0.22857 -0.01536
#
# Static dielectric constant tensor:
#      x y z
#    x 1.835810 0.000000 -0.051700 
#    y 0.000000 1.857750 0.000000 
#    z -0.051700 0.000000 1.919470 
# 
# From -- ./inp_files/319670.got.cif
#   From: 2010.05.17/outbox.cif.g08.bks.cpg/sg12_160_cif.got.tgz:319670.got - 2010.06.03 13:09:07.
