data_PCOD9200526
_publ_section_title
;
Structure prediction by ZEFSAII (Michael W. Deem and Ramdas Pophale) SiO2 
 PCOD9200526
Probable space group: C 2/M
;
_chemical_formula_sum "Si O2"
_cell_formula_units_Z 56
_cell_length_a 15.559629
_cell_length_b 28.122387
_cell_length_c 11.022621
_cell_angle_alpha 90.000000
_cell_angle_beta 36.615548
_cell_angle_gamma 90.000000
_cell_volume 2876.769242
_symmetry_space_group_name_H-M "C 2/M"
_symmetry_group_IT_number 12
_symmetry_cell_setting 'monoclinic'
loop_
_space_group_symop_operation_xyz
x,y,z
-x,y,-z
-x,-y,-z
x,-y,z
1/2+x,1/2+y,z
1/2-x,1/2+y,-z
1/2-x,1/2-y,-z
1/2+x,1/2-y,z
loop_
_atom_site_type_symbol
_atom_site_label
_atom_site_fract_x
_atom_site_fract_y
_atom_site_fract_z
Si Si1 0.612474 0.275341 0.486922
Si Si2 0.159068 0.881840 0.372890
Si Si3 0.615001 0.290753 0.767067
Si Si4 0.723623 0.944726 0.566471
Si Si5 0.606978 0.054461 0.023610
Si Si6 0.659479 0.601007 0.794271
Si Si7 0.348902 0.947189 0.740268
O O1 0.500000 0.265013 0.500000
O O2 0.682078 0.326142 0.371338
O O3 0.561712 0.282373 0.687247
O O4 0.737222 0.236503 0.366510
O O5 0.165993 0.911573 0.488327
O O6 0.281474 0.907321 0.154159
O O7 0.000000 0.886605 0.500000
O O8 0.643886 0.346658 0.756819
O O9 0.500000 0.275993 0.000000
O O10 0.744750 0.930714 0.403855
O O11 0.752870 0.000000 0.548748
O O12 0.562971 0.934935 0.799361
O O13 0.636177 0.000000 0.946906
O O14 0.624440 0.053573 0.147842
O O15 0.745700 0.596025 0.821214
O O16 0.500000 0.582069 0.000000
O O17 0.500000 0.943044 0.500000
O O18 0.287150 0.000000 0.781442
#
# Coordination Sequence:
#
# PCOD9200526 Si02
#       7
#     8   8   8   8   8   8   8
#     4  10  23  45  68  95 129 165 208 266 326 383
#     4  11  24  40  61  89 123 161 207 258 312 373
#     4  10  23  44  68  95 129 165 211 266 322 386
#     4  11  22  39  59  86 123 165 207 252 300 368
#     4  10  22  39  60  87 124 167 211 259 309 369
#     4  11  23  38  61  90 124 162 203 256 316 368
#     4  10  20  37  58  85 122 163 208 256 308 372
#
# _framework density 19.466280000000001
#
# number of rings (size 3 to 8) (size 9 to 14) (size 15 to 20)
#    0.000    1.571    2.857    1.286    2.000    6.857 
#    0.000    0.000    0.000    0.000    0.000    0.000 
#    0.000    0.000    0.000    0.000    0.000    0.000 
#
# Total GULP energy -156031.970077 kJ/mol
# GULP energy per Si atom -5572.570360 kJ/mol
# Density = 1.942197 g / cm^3
# Si number density = 19.466280 Si / 1000 Ang^3
#
#
#
# Elastic Constant Matrix: (Units=GPa)
#
#
# Indices 1 2 3 4 5 6 
#
# 1 123.0499 28.4533 25.1445 0.0000 4.4764 0.0000
# 2 28.4533 35.9710 33.9050 0.0000 0.3019 0.0000
# 3 25.1445 33.9050 80.5298 0.0000 14.4162 -0.0001
# 4 0.0000 0.0000 0.0000 21.6189 0.0000 2.6694
# 5 4.4764 0.3019 14.4162 0.0000 27.7593 0.0000
# 6 0.0000 0.0000 -0.0001 2.6694 0.0000 30.2091
#
#
#
# Elastic Compliance Matrix: (Units=1/GPa)
#
#
# Indices 1 2 3 4 5 6 
#
# 1 0.010046 -0.008807 0.000930 0.000000 -0.002007 0.000000
# 2 -0.008807 0.056800 -0.023492 0.000000 0.013003 0.000000
# 3 0.000930 -0.023492 0.024254 0.000000 -0.012490 0.000000
# 4 0.000000 0.000000 0.000000 0.046766 0.000000 -0.004132
# 5 -0.002007 0.013003 -0.012490 0.000000 0.042693 0.000000
# 6 0.000000 0.000000 0.000000 -0.004132 0.000000 0.033468
#
#
# Mechanical properties :
#
#
# Convention : Reuss Voigt Hill
#
# Bulk Modulus (GPa) = 35.25667 46.06181 40.65924
# Shear Modulus (GPa) = 17.46921 26.05399 21.76160
#
# Velocity S-wave (km/s) = 2.99893 3.66241 3.34715
# Velocity P-wave (km/s) = 5.49021 6.44965 5.98917
#
# Compressibility (1/GPa) = 0.02836343
#
# Stress axis : x y z
#
# Youngs Moduli (GPa) = 99.54133 17.60562 41.23030
#
# Poissons Ratio (x) = 0.15505 -0.03836
# Poissons Ratio (y) = 0.87662 0.96859
# Poissons Ratio (z) = -0.09261 0.41359
#
# Static dielectric constant tensor:
#      x y z
#    x 1.755880 0.000000 0.024090 
#    y 0.000000 1.662550 0.000000 
#    z 0.024090 0.000000 1.688870 
# 
# From -- ./inp_files/150446.got.cif
#   From: 2010.05.17/outbox.cif.g08.bks.cpg/sg12_76_cif.got.tgz:150446.got - 2010.06.03 13:09:07.
