data_PCOD9200032
_publ_section_title
;
Structure prediction by ZEFSAII (Michael W. Deem and Ramdas Pophale) SiO2 
 PCOD9200032
Probable space group: C 2/M
;
_chemical_formula_sum "Si O2"
_cell_formula_units_Z 64
_cell_length_a 24.593930
_cell_length_b 8.394252
_cell_length_c 31.515994
_cell_angle_alpha 90.000000
_cell_angle_beta 28.183028
_cell_angle_gamma 90.000000
_cell_volume 3072.906929
_symmetry_space_group_name_H-M "C 2/M"
_symmetry_group_IT_number 12
_symmetry_cell_setting 'monoclinic'
loop_
_space_group_symop_operation_xyz
x,y,z
-x,y,-z
-x,-y,-z
x,-y,z
1/2+x,1/2+y,z
1/2-x,1/2+y,-z
1/2-x,1/2-y,-z
1/2+x,1/2-y,z
loop_
_atom_site_type_symbol
_atom_site_label
_atom_site_fract_x
_atom_site_fract_y
_atom_site_fract_z
Si Si1 0.492694 0.812570 0.552891
Si Si2 0.266954 0.307852 0.756298
Si Si3 0.118720 0.691736 0.092385
Si Si4 0.666428 0.189333 0.915377
Si Si5 0.605737 0.685746 0.192781
Si Si6 0.097985 0.685408 0.621860
Si Si7 0.309902 0.315682 0.527347
Si Si8 0.024029 0.694411 0.891797
O O1 0.500000 0.744972 0.500000
O O2 0.388112 0.747044 0.653674
O O3 0.614591 0.781032 0.491631
O O4 0.472455 0.000000 0.563746
O O5 0.273736 0.500000 0.753757
O O6 0.226622 0.249778 0.830952
O O7 0.157782 0.261429 0.802118
O O8 0.117514 0.500000 0.094063
O O9 0.075274 0.759726 0.166746
O O10 0.042537 0.745494 0.104772
O O11 0.250000 0.750000 0.000000
O O12 0.760096 0.205564 0.888513
O O13 0.648536 0.000000 0.919897
O O14 0.547060 0.250196 0.017548
O O15 0.578616 0.500000 0.217722
O O16 0.532200 0.788343 0.275895
O O17 0.121863 0.500000 0.595526
O O18 0.179168 0.731110 0.605920
O O19 0.129800 0.791314 0.559836
O O20 0.311877 0.500000 0.538667
O O21 0.019883 0.500000 0.895438
#
# Coordination Sequence:
#
# PCOD9200032 Si02
#       8
#     8   8   8   8   8   8   8   8
#     4  11  25  43  61  82 116 158 197 246 306 360
#     4  10  20  36  63  90 110 143 192 246 296 347
#     4  11  21  36  55  78 112 153 195 237 287 343
#     4   9  17  32  56  86 116 146 187 234 283 339
#     4  11  21  34  55  84 118 156 198 238 281 345
#     4  10  21  37  59  90 123 152 189 243 299 351
#     4  10  21  39  63  88 116 152 195 242 294 356
#     4   9  18  34  57  85 116 149 191 240 288 346
#
# _framework density 20.827185
#
# number of rings (size 3 to 8) (size 9 to 14) (size 15 to 20)
#    0.000    1.875    1.250    3.000    0.000    6.000 
#    0.000    5.625    0.000    0.750    0.000    0.000 
#    0.000    0.000    0.000    0.000    0.000    0.000 
#
# Total GULP energy -178583.301157 kJ/mol
# GULP energy per Si atom -5580.728161 kJ/mol
# Density = 2.077978 g / cm^3
# Si number density = 20.827185 Si / 1000 Ang^3
#
#
#
# Elastic Constant Matrix: (Units=GPa)
#
#
# Indices 1 2 3 4 5 6 
#
# 1 88.3409 9.3901 -9.5122 0.0127 0.1567 -0.0077
# 2 9.3901 19.5056 5.3082 0.0160 -2.5434 -0.0233
# 3 -9.5122 5.3082 33.6089 0.0090 -2.6793 -0.0001
# 4 0.0127 0.0160 0.0090 19.5554 0.0002 1.7035
# 5 0.1567 -2.5434 -2.6793 0.0002 23.0636 -0.0017
# 6 -0.0077 -0.0233 -0.0001 1.7035 -0.0017 24.7584
#
#
#
# Elastic Compliance Matrix: (Units=1/GPa)
#
#
# Indices 1 2 3 4 5 6 
#
# 1 0.012614 -0.007401 0.004711 -0.000004 -0.000355 -0.000003
# 2 -0.007401 0.058483 -0.010914 -0.000043 0.005232 0.000056
# 3 0.004711 -0.010914 0.033018 -0.000009 0.002600 -0.000008
# 4 -0.000004 -0.000043 -0.000009 0.051445 -0.000007 -0.003540
# 5 -0.000355 0.005232 0.002600 -0.000007 0.044240 0.000008
# 6 -0.000003 0.000056 -0.000008 -0.003540 0.000008 0.040634
#
#
# Mechanical properties :
#
#
# Convention : Reuss Voigt Hill
#
# Bulk Modulus (GPa) = 13.00277 16.86972 14.93625
# Shear Modulus (GPa) = 17.04864 22.56010 19.80437
#
# Velocity S-wave (km/s) = 2.86418 3.29478 3.08700
# Velocity P-wave (km/s) = 4.14666 4.75305 4.46017
#
# Compressibility (1/GPa) = 0.07690670
#
# Stress axis : x y z
#
# Youngs Moduli (GPa) = 79.27496 17.09908 30.28616
#
# Poissons Ratio (x) = 0.12655 -0.14267
# Poissons Ratio (y) = 0.58670 0.33055
# Poissons Ratio (z) = -0.37345 0.18662
#
# Static dielectric constant tensor:
#      x y z
#    x 1.773580 0.000000 0.000690 
#    y 0.000000 1.727390 0.000000 
#    z 0.000690 0.000000 1.738140 
# 
# From -- ./inp_files/382369.got.cif
#   From: 2010.05.17/outbox.cif.g08.bks.cpg/sg12_192_cif.got.tgz:382369.got - 2010.06.03 13:09:07.
