data_PCOD9200896
_publ_section_title
;
Structure prediction by ZEFSAII (Michael W. Deem and Ramdas Pophale) SiO2 
 PCOD9200896
Probable space group: C 2/M
;
_chemical_formula_sum "Si O2"
_cell_formula_units_Z 56
_cell_length_a 20.984235
_cell_length_b 8.540894
_cell_length_c 18.246232
_cell_angle_alpha 90.000000
_cell_angle_beta 116.621417
_cell_angle_gamma 90.000000
_cell_volume 2923.484353
_symmetry_space_group_name_H-M "C 2/M"
_symmetry_group_IT_number 12
_symmetry_cell_setting 'monoclinic'
loop_
_space_group_symop_operation_xyz
x,y,z
-x,y,-z
-x,-y,-z
x,-y,z
1/2+x,1/2+y,z
1/2-x,1/2+y,-z
1/2-x,1/2-y,-z
1/2+x,1/2-y,z
loop_
_atom_site_type_symbol
_atom_site_label
_atom_site_fract_x
_atom_site_fract_y
_atom_site_fract_z
Si Si1 0.671635 0.189175 0.442109
Si Si2 0.152299 0.312099 0.723969
Si Si3 0.918390 0.690915 0.464326
Si Si4 0.325033 0.312495 0.008011
Si Si5 0.598622 0.810408 0.253400
Si Si6 0.690172 0.812328 0.160117
Si Si7 0.060863 0.812151 0.810597
O O1 0.750000 0.250000 0.500000
O O2 0.618483 0.241398 0.479391
O O3 0.642974 0.239750 0.348068
O O4 0.673073 0.000000 0.443186
O O5 0.156338 0.500000 0.727147
O O6 0.126687 0.260877 0.630079
O O7 0.229377 0.244447 0.783752
O O8 0.094952 0.257748 0.754438
O O9 0.919331 0.500000 0.465004
O O10 0.000000 0.743796 0.500000
O O11 0.322022 0.500000 0.005481
O O12 0.387831 0.263998 0.095620
O O13 0.250000 0.250000 0.000000
O O14 0.335056 0.251346 0.931079
O O15 0.639534 0.760989 0.200821
O O16 0.519030 0.745720 0.217843
O O17 0.595309 0.000000 0.252119
O O18 0.690501 0.000000 0.157781
O O19 0.062168 0.000000 0.806244
#
# Coordination Sequence:
#
# PCOD9200896 Si02
#       7
#     8   8   8   8   8   8   8
#     4  10  20  37  60  85 117 156 198 243 292 350
#     4  11  21  35  60  88 116 156 200 244 299 357
#     4   9  18  33  55  83 113 148 194 243 288 344
#     4  11  23  40  63  90 119 155 196 244 299 355
#     4  10  23  41  61  87 121 162 201 242 298 357
#     4  11  23  39  60  88 121 154 197 247 291 350
#     4  11  24  40  61  88 120 154 195 250 301 353
#
# _framework density 19.155225000000002
#
# number of rings (size 3 to 8) (size 9 to 14) (size 15 to 20)
#    0.000    1.571    1.429    3.429    0.000    6.286 
#    0.000    3.571    0.000    3.000    0.000    0.000 
#    0.000    0.000    0.000    0.000    0.000    0.000 
#
# Total GULP energy -156531.238516 kJ/mol
# GULP energy per Si atom -5590.401376 kJ/mol
# Density = 1.911163 g / cm^3
# Si number density = 19.155225 Si / 1000 Ang^3
#
#
#
# Elastic Constant Matrix: (Units=GPa)
#
#
# Indices 1 2 3 4 5 6 
#
# 1 141.7380 21.0633 58.7743 0.0000 -16.5050 0.0000
# 2 21.0633 24.9833 27.1337 0.0000 -4.8194 0.0000
# 3 58.7743 27.1337 147.1962 0.0000 -19.4788 0.0000
# 4 0.0000 0.0000 0.0000 24.0049 0.0000 3.7107
# 5 -16.5050 -4.8194 -19.4788 0.0000 41.4078 0.0000
# 6 0.0000 0.0000 0.0000 3.7107 0.0000 27.3525
#
#
#
# Elastic Compliance Matrix: (Units=1/GPa)
#
#
# Indices 1 2 3 4 5 6 
#
# 1 0.008981 -0.004482 -0.002512 0.000000 0.001877 0.000000
# 2 -0.004482 0.052381 -0.007780 0.000000 0.000650 0.000000
# 3 -0.002512 -0.007780 0.009574 0.000000 0.002597 0.000000
# 4 0.000000 0.000000 0.000000 0.042550 0.000000 -0.005773
# 5 0.001877 0.000650 0.002597 0.000000 0.026196 0.000000
# 6 0.000000 0.000000 0.000000 -0.005773 0.000000 0.037343
#
#
# Mechanical properties :
#
#
# Convention : Reuss Voigt Hill
#
# Bulk Modulus (GPa) = 24.16115 58.65112 41.40613
# Shear Modulus (GPa) = 22.68920 32.34947 27.51933
#
# Velocity S-wave (km/s) = 3.44538 4.11397 3.79443
# Velocity P-wave (km/s) = 5.33556 7.29737 6.39218
#
# Compressibility (1/GPa) = 0.04138876
#
# Stress axis : x y z
#
# Youngs Moduli (GPa) = 111.34116 19.09100 104.44590
#
# Poissons Ratio (x) = 0.08557 0.26232
# Poissons Ratio (y) = 0.49907 0.81258
# Poissons Ratio (z) = 0.27964 0.14853
#
# Static dielectric constant tensor:
#      x y z
#    x 1.623730 0.000000 -0.009360 
#    y 0.000000 1.658210 0.000000 
#    z -0.009360 0.000000 1.655690 
# 
# From -- ./inp_files/275528.got.cif
#   From: 2010.05.17/outbox.cif.g08.bks.cpg/sg12_138_cif.got.tgz:275528.got - 2010.06.03 13:09:07.
