data_PCOD9200939
_publ_section_title
;
Structure prediction by ZEFSAII (Michael W. Deem and Ramdas Pophale) SiO2 
 PCOD9200939
Probable space group: C 2/M
;
_chemical_formula_sum "Si O2"
_cell_formula_units_Z 36
_cell_length_a 17.049979
_cell_length_b 7.367187
_cell_length_c 31.619848
_cell_angle_alpha 90.000000
_cell_angle_beta 157.891639
_cell_angle_gamma 90.000000
_cell_volume 1494.817460
_symmetry_space_group_name_H-M "C 2/M"
_symmetry_group_IT_number 12
_symmetry_cell_setting 'monoclinic'
loop_
_space_group_symop_operation_xyz
x,y,z
-x,y,-z
-x,-y,-z
x,-y,z
1/2+x,1/2+y,z
1/2-x,1/2+y,-z
1/2-x,1/2-y,-z
1/2+x,1/2-y,z
loop_
_atom_site_type_symbol
_atom_site_label
_atom_site_fract_x
_atom_site_fract_y
_atom_site_fract_z
Si Si1 0.007043 0.281181 0.705939
Si Si2 0.707108 0.720694 0.077224
Si Si3 0.029113 0.711569 0.467992
Si Si4 0.250000 0.250000 0.000000
Si Si5 0.767800 0.222273 0.754939
O O1 0.008078 0.500000 0.706748
O O2 0.772861 0.222992 0.579314
O O3 0.095863 0.222572 0.795804
O O4 0.163001 0.223042 0.746779
O O5 0.705056 0.500000 0.072805
O O6 0.500000 0.770666 0.000000
O O7 0.707805 0.785306 0.029771
O O8 0.970388 0.500000 0.441579
O O9 0.000000 0.793019 0.500000
O O10 0.881800 0.784393 0.357657
O O11 0.497249 0.216385 0.133291
O O12 0.780488 0.000000 0.762252
#
# Coordination Sequence:
#
# PCOD9200939 Si02
#       5
#     8   8   8   4   8
#     4  10  20  38  63  88 117 158 210 258 305 368
#     4  10  20  37  60  86 119 160 205 254 309 368
#     4  10  21  38  58  84 122 161 199 252 319 375
#     4  12  20  34  62  88 118 156 208 250 306 372
#     4  10  21  37  58  84 118 163 206 252 311 372
#
# _framework density 24.083207000000002
#
# number of rings (size 3 to 8) (size 9 to 14) (size 15 to 20)
#    0.000    1.778    2.222    2.667    0.000    0.444 
#    0.000    5.556    0.000    3.333    0.000    0.000 
#    0.000    0.000    0.000    0.000    0.000    0.000 
#
# Total GULP energy -100216.130390 kJ/mol
# GULP energy per Si atom -5567.562799 kJ/mol
# Density = 2.402839 g / cm^3
# Si number density = 24.083207 Si / 1000 Ang^3
#
#
#
# Elastic Constant Matrix: (Units=GPa)
#
#
# Indices 1 2 3 4 5 6 
#
# 1 200.8317 4.6319 87.8996 -0.0003 -18.5352 -0.0003
# 2 4.6319 81.2930 -10.7685 -0.0009 -10.1480 0.0000
# 3 87.8996 -10.7685 213.7185 -0.0022 -20.5952 -0.0001
# 4 -0.0003 -0.0009 -0.0022 -12.6489 0.0017 -5.7546
# 5 -18.5352 -10.1480 -20.5952 0.0017 60.2722 0.0006
# 6 -0.0003 0.0000 -0.0001 -5.7546 0.0006 -21.1002
#
#
#
# Elastic Compliance Matrix: (Units=1/GPa)
#
#
# Indices 1 2 3 4 5 6 
#
# 1 0.006162 -0.000559 -0.002470 0.000001 0.000957 0.000000
# 2 -0.000559 0.012773 0.001100 -0.000001 0.002355 0.000000
# 3 -0.002470 0.001100 0.005889 -0.000001 0.001438 0.000000
# 4 0.000001 -0.000001 -0.000001 -0.090257 0.000002 0.024616
# 5 0.000957 0.002355 0.001438 0.000002 0.017773 0.000000
# 6 0.000000 0.000000 0.000000 0.024616 0.000000 -0.054106
#
#
# Mechanical properties :
#
#
# Convention : Reuss Voigt Hill
#
# Bulk Modulus (GPa) = 47.69636 73.26326 60.47981
# Shear Modulus (GPa) = -54.99274 32.90997 -11.04139
#
# Velocity S-wave (km/s) = -4.78373 3.70065 -2.14351
# Velocity P-wave (km/s) = 3.26562 6.98188 4.36362
#
# Compressibility (1/GPa) = 0.02096596
#
# Stress axis : x y z
#
# Youngs Moduli (GPa) = 162.29518 78.29190 169.80800
#
# Poissons Ratio (x) = 0.04375 0.41945
# Poissons Ratio (y) = 0.09070 -0.18684
# Poissons Ratio (z) = 0.40089 -0.08615
#
# Static dielectric constant tensor:
#      x y z
#    x 1.885430 0.000000 0.020330 
#    y 0.000000 2.025970 0.000000 
#    z 0.020330 0.000000 1.941670 
# 
# From -- ./inp_files/376199.got.cif
#   From: 2010.05.17/outbox.cif.g08.bks.cpg/sg12_189_cif.got.tgz:376199.got - 2010.06.03 13:09:07.
