data_PCOD9200828
_publ_section_title
;
Structure prediction by ZEFSAII (Michael W. Deem and Ramdas Pophale) SiO2 
 PCOD9200828
Probable space group: C 2/M
;
_chemical_formula_sum "Si O2"
_cell_formula_units_Z 56
_cell_length_a 15.696424
_cell_length_b 7.819597
_cell_length_c 25.680829
_cell_angle_alpha 90.000000
_cell_angle_beta 115.339948
_cell_angle_gamma 90.000000
_cell_volume 2848.780292
_symmetry_space_group_name_H-M "C 2/M"
_symmetry_group_IT_number 12
_symmetry_cell_setting 'monoclinic'
loop_
_space_group_symop_operation_xyz
x,y,z
-x,y,-z
-x,-y,-z
x,-y,z
1/2+x,1/2+y,z
1/2-x,1/2+y,-z
1/2-x,1/2-y,-z
1/2+x,1/2-y,z
loop_
_atom_site_type_symbol
_atom_site_label
_atom_site_fract_x
_atom_site_fract_y
_atom_site_fract_z
Si Si1 0.037732 0.500000 0.926614
Si Si2 0.973599 0.692624 0.178355
Si Si3 0.209584 0.802996 0.636263
Si Si4 0.843951 0.500000 0.941406
Si Si5 0.317285 0.304400 0.764002
Si Si6 0.680324 0.206016 0.434550
Si Si7 0.236790 0.707878 0.855873
Si Si8 0.996218 0.701079 0.440235
O O1 0.041230 0.659595 0.887544
O O2 0.939130 0.500000 0.931287
O O3 0.120929 0.500000 0.990034
O O4 0.990328 0.500000 0.204037
O O5 0.874293 0.752993 0.174793
O O6 0.069983 0.791266 0.211873
O O7 0.264410 0.793928 0.704706
O O8 0.274848 0.728036 0.607333
O O9 0.107766 0.717068 0.609842
O O10 0.190061 0.000000 0.618264
O O11 0.786165 0.329405 0.911143
O O12 0.287276 0.500000 0.750643
O O13 0.286135 0.250501 0.813728
O O14 0.750000 0.250000 0.500000
O O15 0.577603 0.272940 0.424225
O O16 0.674517 0.000000 0.427488
O O17 0.243860 0.500000 0.867190
O O18 0.018391 0.500000 0.451493
O O19 0.000000 0.774426 0.500000
#
# Coordination Sequence:
#
# PCOD9200828 Si02
#       8
#     4   8   8   4   8   8   8   8
#     4   9  20  38  64  91 125 165 201 248 311 355
#     4   9  19  40  60  85 123 160 196 250 303 351
#     4  11  24  38  58  87 116 152 193 249 298 352
#     4  11  20  38  66  93 125 167 207 249 305 372
#     4  11  23  40  61  85 117 158 210 250 297 362
#     4  10  21  37  58  84 114 150 185 231 297 354
#     4  10  22  39  62  90 124 166 205 254 310 360
#     4  10  20  37  60  83 114 151 186 232 292 358
#
# _framework density 19.657536
#
# number of rings (size 3 to 8) (size 9 to 14) (size 15 to 20)
#    0.429    1.429    2.857    0.857    2.000    3.143 
#    0.000    7.857    0.000    0.000    0.000    0.000 
#    0.000    0.000    0.000    0.000    0.000    0.000 
#
# Total GULP energy -156124.939974 kJ/mol
# GULP energy per Si atom -5575.890713 kJ/mol
# Density = 1.961279 g / cm^3
# Si number density = 19.657536 Si / 1000 Ang^3
#
#
#
# Elastic Constant Matrix: (Units=GPa)
#
#
# Indices 1 2 3 4 5 6 
#
# 1 124.5258 7.6789 29.4193 0.0000 24.9026 0.0000
# 2 7.6789 24.1856 9.2141 0.0000 0.6527 0.0000
# 3 29.4193 9.2141 82.2317 0.0000 16.9277 0.0000
# 4 0.0000 0.0000 0.0000 24.3042 0.0000 9.2182
# 5 24.9026 0.6527 16.9277 0.0000 18.3006 0.0000
# 6 0.0000 0.0000 0.0000 9.2182 0.0000 15.8577
#
#
#
# Elastic Compliance Matrix: (Units=1/GPa)
#
#
# Indices 1 2 3 4 5 6 
#
# 1 0.011302 -0.002925 -0.000706 0.000000 -0.014622 0.000000
# 2 -0.002925 0.044143 -0.005429 0.000000 0.007427 0.000000
# 3 -0.000706 -0.005429 0.015791 0.000000 -0.013452 0.000000
# 4 0.000000 0.000000 0.000000 0.052783 0.000000 -0.030683
# 5 -0.014622 0.007427 -0.013452 0.000000 0.086718 0.000000
# 6 0.000000 0.000000 0.000000 -0.030683 0.000000 0.080897
#
#
# Mechanical properties :
#
#
# Convention : Reuss Voigt Hill
#
# Bulk Modulus (GPa) = 18.82633 35.95199 27.38916
# Shear Modulus (GPa) = 15.26916 24.00122 19.63519
#
# Velocity S-wave (km/s) = 2.79006 3.49803 3.16391
# Velocity P-wave (km/s) = 4.46959 5.88590 5.22594
#
# Compressibility (1/GPa) = 0.05311708
#
# Stress axis : x y z
#
# Youngs Moduli (GPa) = 88.48349 22.65348 63.32839
#
# Poissons Ratio (x) = 0.06626 0.04469
# Poissons Ratio (y) = 0.25880 0.34380
# Poissons Ratio (z) = 0.06244 0.12298
#
# Static dielectric constant tensor:
#      x y z
#    x 1.711360 0.000000 -0.032010 
#    y 0.000000 1.760130 0.000000 
#    z -0.032010 0.000000 1.661370 
# 
# From -- ./inp_files/360046.got.cif
#   From: 2010.05.17/outbox.cif.g08.bks.cpg/sg12_181_cif.got.tgz:360046.got - 2010.06.03 13:09:07.
