data_PCOD9200944
_publ_section_title
;
Structure prediction by ZEFSAII (Michael W. Deem and Ramdas Pophale) SiO2 
 PCOD9200944
Probable space group: C 2/M
;
_chemical_formula_sum "Si O2"
_cell_formula_units_Z 40
_cell_length_a 8.410474
_cell_length_b 16.839353
_cell_length_c 18.093756
_cell_angle_alpha 90.000000
_cell_angle_beta 128.469129
_cell_angle_gamma 90.000000
_cell_volume 2006.342167
_symmetry_space_group_name_H-M "C 2/M"
_symmetry_group_IT_number 12
_symmetry_cell_setting 'monoclinic'
loop_
_space_group_symop_operation_xyz
x,y,z
-x,y,-z
-x,-y,-z
x,-y,z
1/2+x,1/2+y,z
1/2-x,1/2+y,-z
1/2-x,1/2-y,-z
1/2+x,1/2-y,z
loop_
_atom_site_type_symbol
_atom_site_label
_atom_site_fract_x
_atom_site_fract_y
_atom_site_fract_z
Si Si1 0.252863 0.327586 0.655413
Si Si2 0.793507 0.500000 0.895362
Si Si3 0.500000 0.274672 0.000000
Si Si4 0.357570 0.500000 0.303630
Si Si5 0.668739 0.000000 0.613463
Si Si6 0.898272 0.165726 0.125708
Si Si7 0.524515 0.661799 0.594158
O O1 0.151015 0.412863 0.646249
O O2 0.449189 0.314773 0.763885
O O3 0.327321 0.335284 0.591296
O O4 0.120680 0.249283 0.628848
O O5 0.802733 0.500000 0.809280
O O6 0.670516 0.577068 0.881201
O O7 0.000000 0.500000 0.000000
O O8 0.698733 0.220303 0.066160
O O9 0.493041 0.324729 0.072548
O O10 0.592384 0.500000 0.341625
O O11 0.346867 0.584724 0.341716
O O12 0.500000 0.000000 0.500000
O O13 0.500000 0.648742 0.500000
#
# Coordination Sequence:
#
# PCOD9200944 Si02
#       7
#     8   4   4   4   4   8   8
#     4  11  22  39  63  89 127 163 207 253 313 374
#     4  12  22  40  69  89 121 169 213 258 322 376
#     4  10  24  36  64  94 124 156 210 254 318 374
#     4  10  23  42  59  92 125 167 209 265 305 372
#     4  10  20  37  60  86 121 163 203 248 310 365
#     4  11  21  41  61  92 124 164 201 263 311 376
#     4  11  22  39  63  91 126 164 209 256 313 368
#
# _framework density 19.936779999999999
#
# number of rings (size 3 to 8) (size 9 to 14) (size 15 to 20)
#    0.000    1.200    5.000    2.700    0.000    2.000 
#    0.000    1.000    0.000    1.200    0.000    0.000 
#    0.000    0.000    0.000    0.000    0.000    0.000 
#
# Total GULP energy -111564.152145 kJ/mol
# GULP energy per Si atom -5578.207607 kJ/mol
# Density = 1.989140 g / cm^3
# Si number density = 19.936780 Si / 1000 Ang^3
#
#
#
# Elastic Constant Matrix: (Units=GPa)
#
#
# Indices 1 2 3 4 5 6 
#
# 1 26.8104 14.0232 5.7767 0.0000 -16.6758 0.0000
# 2 14.0232 169.0663 33.6296 0.0000 -13.7264 0.0000
# 3 5.7767 33.6296 110.7170 0.0000 -1.0249 0.0000
# 4 0.0000 0.0000 0.0000 57.2328 0.0000 -3.0363
# 5 -16.6758 -13.7264 -1.0249 0.0000 26.5240 0.0000
# 6 0.0000 0.0000 0.0000 -3.0363 0.0000 16.9109
#
#
#
# Elastic Compliance Matrix: (Units=1/GPa)
#
#
# Indices 1 2 3 4 5 6 
#
# 1 0.062538 -0.001587 -0.002425 0.000000 0.038403 0.000000
# 2 -0.001587 0.006616 -0.001905 0.000000 0.002353 0.000000
# 3 -0.002425 -0.001905 0.009717 0.000000 -0.002135 0.000000
# 4 0.000000 0.000000 0.000000 0.017641 0.000000 0.003167
# 5 0.038403 0.002353 -0.002135 0.000000 0.062981 0.000000
# 6 0.000000 0.000000 0.000000 0.003167 0.000000 0.059702
#
#
# Mechanical properties :
#
#
# Convention : Reuss Voigt Hill
#
# Bulk Modulus (GPa) = 14.91709 45.93918 30.42814
# Shear Modulus (GPa) = 19.73346 37.01114 28.37230
#
# Velocity S-wave (km/s) = 3.14952 4.31330 3.77651
# Velocity P-wave (km/s) = 4.55241 6.92088 5.85760
#
# Compressibility (1/GPa) = 0.06703720
#
# Stress axis : x y z
#
# Youngs Moduli (GPa) = 15.99024 151.13873 102.90717
#
# Poissons Ratio (x) = 0.23983 0.24960
# Poissons Ratio (y) = 0.02537 0.19605
# Poissons Ratio (z) = 0.03878 0.28794
#
# Static dielectric constant tensor:
#      x y z
#    x 1.730400 0.000000 0.006140 
#    y 0.000000 1.703240 0.000000 
#    z 0.006140 0.000000 1.801580 
# 
# From -- ./inp_files/256803.got.cif
#   From: 2010.05.17/outbox.cif.g08.bks.cpg/sg12_129_cif.got.tgz:256803.got - 2010.06.03 13:09:07.
