data_PCOD9200788
_publ_section_title
;
Structure prediction by ZEFSAII (Michael W. Deem and Ramdas Pophale) SiO2 
 PCOD9200788
Probable space group: C 2/M
;
_chemical_formula_sum "Si O2"
_cell_formula_units_Z 56
_cell_length_a 15.439154
_cell_length_b 8.993671
_cell_length_c 23.483790
_cell_angle_alpha 90.000000
_cell_angle_beta 99.771727
_cell_angle_gamma 90.000000
_cell_volume 3213.525018
_symmetry_space_group_name_H-M "C 2/M"
_symmetry_group_IT_number 12
_symmetry_cell_setting 'monoclinic'
loop_
_space_group_symop_operation_xyz
x,y,z
-x,y,-z
-x,-y,-z
x,-y,z
1/2+x,1/2+y,z
1/2-x,1/2+y,-z
1/2-x,1/2-y,-z
1/2+x,1/2-y,z
loop_
_atom_site_type_symbol
_atom_site_label
_atom_site_fract_x
_atom_site_fract_y
_atom_site_fract_z
Si Si1 0.793143 0.178491 0.060475
Si Si2 0.729581 0.321726 0.267658
Si Si3 0.098819 0.824762 0.352083
Si Si4 0.095988 0.174576 0.675030
Si Si5 0.840864 0.678098 0.854351
Si Si6 0.497699 0.822660 0.433560
Si Si7 0.993046 0.178215 0.066809
O O1 0.735978 0.217929 0.109164
O O2 0.895302 0.220925 0.075859
O O3 0.790347 0.000000 0.053498
O O4 0.750000 0.250000 0.000000
O O5 0.728970 0.500000 0.263812
O O6 0.676048 0.278816 0.318884
O O7 0.828136 0.260529 0.284172
O O8 0.681892 0.252065 0.208097
O O9 0.002937 0.808485 0.310793
O O10 0.083522 0.732985 0.408228
O O11 0.108106 0.000000 0.366652
O O12 0.080579 0.242667 0.610165
O O13 0.116200 0.000000 0.674854
O O14 0.843425 0.500000 0.849148
O O15 0.931381 0.738113 0.890656
O O16 0.500000 0.782552 0.500000
O O17 0.489058 0.000000 0.427485
O O18 0.004183 0.000000 0.075152
O O19 0.000000 0.209987 0.000000
#
# Coordination Sequence:
#
# PCOD9200788 Si02
#       7
#     8   8   8   8   8   8   8
#     4  10  21  37  58  82 111 143 178 224 278 331
#     4  11  22  39  59  81 111 149 192 233 276 331
#     4   8  19  36  56  80 111 149 185 230 281 322
#     4   9  19  36  57  82 113 149 185 229 280 325
#     4  11  24  38  55  83 113 144 182 229 277 333
#     4   9  17  32  57  87 116 147 186 229 275 330
#     4  10  20  37  60  82 108 144 181 223 277 333
#
# _framework density 17.426345000000001
#
# number of rings (size 3 to 8) (size 9 to 14) (size 15 to 20)
#    0.857    1.429    1.429    1.286    0.000    4.857 
#    0.000    6.429    0.000    0.000    0.000    0.000 
#    0.000    0.000    0.000    0.000    0.000    0.000 
#
# Total GULP energy -155991.376689 kJ/mol
# GULP energy per Si atom -5571.120596 kJ/mol
# Density = 1.738668 g / cm^3
# Si number density = 17.426345 Si / 1000 Ang^3
#
#
#
# Elastic Constant Matrix: (Units=GPa)
#
#
# Indices 1 2 3 4 5 6 
#
# 1 64.1410 12.4325 -4.4041 0.0000 -1.2460 0.0000
# 2 12.4325 34.0976 14.1644 0.0000 -0.7251 0.0000
# 3 -4.4041 14.1644 38.6918 0.0000 1.3371 0.0000
# 4 0.0000 0.0000 0.0000 26.1654 0.0000 8.5857
# 5 -1.2460 -0.7251 1.3371 0.0000 27.6287 0.0000
# 6 0.0000 0.0000 0.0000 8.5857 0.0000 24.6822
#
#
#
# Elastic Compliance Matrix: (Units=1/GPa)
#
#
# Indices 1 2 3 4 5 6 
#
# 1 0.017603 -0.008538 0.005118 0.000000 0.000322 0.000000
# 2 -0.008538 0.038792 -0.015220 0.000000 0.001370 0.000000
# 3 0.005118 -0.015220 0.032059 0.000000 -0.001720 0.000000
# 4 0.000000 0.000000 0.000000 0.043143 0.000000 -0.015007
# 5 0.000322 0.001370 -0.001720 0.000000 0.036328 0.000000
# 6 0.000000 0.000000 0.000000 -0.015007 0.000000 0.045735
#
#
# Mechanical properties :
#
#
# Convention : Reuss Voigt Hill
#
# Bulk Modulus (GPa) = 19.54086 20.14624 19.84355
# Shear Modulus (GPa) = 18.65678 23.34443 21.00060
#
# Velocity S-wave (km/s) = 3.27556 3.66403 3.47523
# Velocity P-wave (km/s) = 5.05406 5.43011 5.24545
#
# Compressibility (1/GPa) = 0.05117481
#
# Stress axis : x y z
#
# Youngs Moduli (GPa) = 56.80791 25.77829 31.19224
#
# Poissons Ratio (x) = 0.22009 -0.15964
# Poissons Ratio (y) = 0.48501 0.47476
# Poissons Ratio (z) = -0.29075 0.39236
#
# Static dielectric constant tensor:
#      x y z
#    x 1.591590 0.000000 -0.007590 
#    y 0.000000 1.579670 0.000000 
#    z -0.007590 0.000000 1.562730 
# 
# From -- ./inp_files/313328.got.cif
#   From: 2010.05.17/outbox.cif.g08.bks.cpg/sg12_157_cif.got.tgz:313328.got - 2010.06.03 13:09:07.
