data_PCOD9200906
_publ_section_title
;
Structure prediction by ZEFSAII (Michael W. Deem and Ramdas Pophale) SiO2 
 PCOD9200906
Probable space group: C 2/M
;
_chemical_formula_sum "Si O2"
_cell_formula_units_Z 48
_cell_length_a 9.270288
_cell_length_b 17.708267
_cell_length_c 28.340475
_cell_angle_alpha 90.000000
_cell_angle_beta 30.718782
_cell_angle_gamma 90.000000
_cell_volume 2376.557629
_symmetry_space_group_name_H-M "C 2/M"
_symmetry_group_IT_number 12
_symmetry_cell_setting 'monoclinic'
loop_
_space_group_symop_operation_xyz
x,y,z
-x,y,-z
-x,-y,-z
x,-y,z
1/2+x,1/2+y,z
1/2-x,1/2+y,-z
1/2-x,1/2-y,-z
1/2+x,1/2-y,z
loop_
_atom_site_type_symbol
_atom_site_label
_atom_site_fract_x
_atom_site_fract_y
_atom_site_fract_z
Si Si1 0.153814 0.788383 0.768958
Si Si2 0.228130 0.087052 0.169213
Si Si3 0.293753 0.193334 0.944006
Si Si4 0.322408 0.582118 0.472364
Si Si5 0.212580 0.882251 0.627179
Si Si6 0.756112 0.713012 0.358407
O O1 0.215929 0.740053 0.703975
O O2 0.445906 0.819182 0.707786
O O3 0.941096 0.855811 0.816856
O O4 0.007736 0.734497 0.847955
O O5 0.545101 0.118283 0.084754
O O6 0.061431 0.098006 0.265548
O O7 0.216843 0.000000 0.158462
O O8 0.250000 0.250000 0.000000
O O9 0.000000 0.179758 0.000000
O O10 0.430175 0.500000 0.457506
O O11 0.320268 0.585709 0.415766
O O12 0.507235 0.653433 0.436249
O O13 0.989864 0.588766 0.576775
O O14 0.268450 0.792667 0.607817
#
# Coordination Sequence:
#
# PCOD9200906 Si02
#       6
#     8   8   8   8   8   8
#     4  11  21  40  64  89 119 161 199 244 302 362
#     4  11  23  40  63  91 125 157 198 251 309 357
#     4  12  22  40  67  91 118 156 199 249 302 369
#     4  11  21  34  57  91 125 159 207 255 293 338
#     4  10  20  37  60  85 122 168 204 241 297 360
#     4  11  20  38  61  88 120 160 210 242 289 360
#
# _framework density 20.197281
#
# number of rings (size 3 to 8) (size 9 to 14) (size 15 to 20)
#    0.000    1.000    6.667    2.500    0.000    1.000 
#    0.000    1.667    0.000    9.000    0.000    0.000 
#    0.000    0.000    0.000    0.000    0.000    0.000 
#
# Total GULP energy -134131.315411 kJ/mol
# GULP energy per Si atom -5588.804809 kJ/mol
# Density = 2.015131 g / cm^3
# Si number density = 20.197281 Si / 1000 Ang^3
#
#
#
# Elastic Constant Matrix: (Units=GPa)
#
#
# Indices 1 2 3 4 5 6 
#
# 1 76.3608 15.4084 20.3600 -0.0622 -22.9808 0.0048
# 2 15.4084 139.7764 10.5386 0.0803 -17.8993 -0.0031
# 3 20.3600 10.5386 59.5303 -0.1032 -17.1801 -0.0061
# 4 -0.0622 0.0803 -0.1032 17.1328 0.0723 -9.4719
# 5 -22.9808 -17.8993 -17.1801 0.0723 45.9314 -0.0094
# 6 0.0048 -0.0031 -0.0061 -9.4719 -0.0094 18.1701
#
#
#
# Elastic Compliance Matrix: (Units=1/GPa)
#
#
# Indices 1 2 3 4 5 6 
#
# 1 0.016124 -0.000682 -0.003523 0.000017 0.006484 0.000007
# 2 -0.000682 0.007575 -0.000397 -0.000069 0.002462 -0.000034
# 3 -0.003523 -0.000397 0.019640 0.000127 0.005429 0.000076
# 4 0.000017 -0.000069 0.000127 0.082001 -0.000092 0.042747
# 5 0.006484 0.002462 0.005429 -0.000092 0.028006 -0.000033
# 6 0.000007 -0.000034 0.000076 0.042747 -0.000033 0.077319
#
#
# Mechanical properties :
#
#
# Convention : Reuss Voigt Hill
#
# Bulk Modulus (GPa) = 29.29477 40.92017 35.10747
# Shear Modulus (GPa) = 19.90076 31.53757 25.71917
#
# Velocity S-wave (km/s) = 3.14238 3.95584 3.57234
# Velocity P-wave (km/s) = 5.26326 6.41631 5.86818
#
# Compressibility (1/GPa) = 0.03413579
#
# Stress axis : x y z
#
# Youngs Moduli (GPa) = 62.01992 132.01793 50.91600
#
# Poissons Ratio (x) = 0.08997 0.17936
# Poissons Ratio (y) = 0.04227 0.02023
# Poissons Ratio (z) = 0.21847 0.05246
#
# Static dielectric constant tensor:
#      x y z
#    x 1.723660 0.000000 -0.007530 
#    y 0.000000 1.714620 -0.000020 
#    z -0.007530 -0.000020 1.727880 
# 
# From -- ./inp_files/372847.got.cif
#   From: 2010.05.17/outbox.cif.g08.bks.cpg/sg12_187_cif.got.tgz:372847.got - 2010.06.03 13:09:07.
