data_PCOD9200603
_publ_section_title
;
Structure prediction by ZEFSAII (Michael W. Deem and Ramdas Pophale) SiO2 
 PCOD9200603
Probable space group: C 2/M
;
_chemical_formula_sum "Si O2"
_cell_formula_units_Z 56
_cell_length_a 19.113536
_cell_length_b 8.707720
_cell_length_c 21.464898
_cell_angle_alpha 90.000000
_cell_angle_beta 59.072723
_cell_angle_gamma 90.000000
_cell_volume 3064.577833
_symmetry_space_group_name_H-M "C 2/M"
_symmetry_group_IT_number 12
_symmetry_cell_setting 'monoclinic'
loop_
_space_group_symop_operation_xyz
x,y,z
-x,y,-z
-x,-y,-z
x,-y,z
1/2+x,1/2+y,z
1/2-x,1/2+y,-z
1/2-x,1/2-y,-z
1/2+x,1/2-y,z
loop_
_atom_site_type_symbol
_atom_site_label
_atom_site_fract_x
_atom_site_fract_y
_atom_site_fract_z
Si Si1 0.002106 0.818581 0.427205
Si Si2 0.128742 0.674417 0.711986
Si Si3 0.286360 0.821562 0.203168
Si Si4 0.470884 0.814777 0.081565
Si Si5 0.032274 0.177088 0.176688
Si Si6 0.831691 0.818473 0.434774
Si Si7 0.111863 0.681399 0.264098
O O1 0.062586 0.747349 0.347021
O O2 0.000000 0.759804 0.500000
O O3 0.910490 0.803370 0.442745
O O4 0.023057 0.000000 0.420489
O O5 0.094701 0.500000 0.732954
O O6 0.201517 0.682630 0.727822
O O7 0.153148 0.715007 0.632211
O O8 0.061620 0.798607 0.761003
O O9 0.375466 0.771678 0.136384
O O10 0.207114 0.725510 0.223279
O O11 0.273901 0.000000 0.190237
O O12 0.529904 0.752506 0.109127
O O13 0.472809 0.000000 0.084259
O O14 0.500000 0.766100 0.000000
O O15 0.079242 0.253395 0.213019
O O16 0.055254 0.000000 0.161949
O O17 0.750000 0.750000 0.500000
O O18 0.823199 0.000000 0.423669
O O19 0.100482 0.500000 0.269773
#
# Coordination Sequence:
#
# PCOD9200603 Si02
#       7
#     8   8   8   8   8   8   8
#     4  10  23  42  60  80 112 156 199 243 302 355
#     4  10  20  37  59  82 110 148 193 243 293 345
#     4   9  20  37  59  86 118 153 189 233 290 348
#     4   9  19  39  66  94 123 155 192 237 290 347
#     4  11  21  36  60  87 117 154 194 235 288 348
#     4  11  23  37  56  81 112 150 192 244 297 351
#     4  12  24  38  59  86 118 155 200 248 291 345
#
# _framework density 18.273316000000001
#
# number of rings (size 3 to 8) (size 9 to 14) (size 15 to 20)
#    0.000    1.714    1.429    4.286    2.000    4.000 
#    0.000    0.714    0.000    0.000    0.000    0.000 
#    0.000    0.000    0.000    0.000    0.000    0.000 
#
# Total GULP energy -156085.801348 kJ/mol
# GULP energy per Si atom -5574.492905 kJ/mol
# Density = 1.823173 g / cm^3
# Si number density = 18.273316 Si / 1000 Ang^3
#
#
#
# Elastic Constant Matrix: (Units=GPa)
#
#
# Indices 1 2 3 4 5 6 
#
# 1 106.5512 48.5997 57.3289 0.0000 14.8522 0.0001
# 2 48.5997 73.7898 32.4813 0.0000 9.1708 0.0004
# 3 57.3289 32.4813 113.7153 0.0000 32.4683 0.0000
# 4 0.0000 0.0000 0.0000 23.1537 0.0000 1.6760
# 5 14.8522 9.1708 32.4683 0.0000 26.4014 0.0000
# 6 0.0001 0.0004 0.0000 1.6760 0.0000 31.5495
#
#
#
# Elastic Compliance Matrix: (Units=1/GPa)
#
#
# Indices 1 2 3 4 5 6 
#
# 1 0.016279 -0.008130 -0.006283 0.000000 0.001392 0.000000
# 2 -0.008130 0.019561 -0.001317 0.000000 -0.000602 0.000000
# 3 -0.006283 -0.001317 0.017257 0.000000 -0.017231 0.000000
# 4 0.000000 0.000000 0.000000 0.043356 0.000000 -0.002303
# 5 0.001392 -0.000602 -0.017231 0.000000 0.058493 0.000000
# 6 0.000000 0.000000 0.000000 -0.002303 0.000000 0.031819
#
#
# Mechanical properties :
#
#
# Convention : Reuss Voigt Hill
#
# Bulk Modulus (GPa) = 46.21228 63.43068 54.82148
# Shear Modulus (GPa) = 22.17914 26.59735 24.38825
#
# Velocity S-wave (km/s) = 3.48766 3.81928 3.65723
# Velocity P-wave (km/s) = 6.44692 7.36456 6.92097
#
# Compressibility (1/GPa) = 0.02163927
#
# Stress axis : x y z
#
# Youngs Moduli (GPa) = 61.42735 51.12262 57.94655
#
# Poissons Ratio (x) = 0.41560 0.36405
# Poissons Ratio (y) = 0.49937 0.07632
# Poissons Ratio (z) = 0.38592 0.06733
#
# Static dielectric constant tensor:
#      x y z
#    x 1.627410 0.000000 0.015830 
#    y 0.000000 1.641540 0.000000 
#    z 0.015830 0.000000 1.679440 
# 
# From -- ./inp_files/275512.got.cif
#   From: 2010.05.17/outbox.cif.g08.bks.cpg/sg12_138_cif.got.tgz:275512.got - 2010.06.03 13:09:07.
