data_PCOD9200208
_publ_section_title
;
Structure prediction by ZEFSAII (Michael W. Deem and Ramdas Pophale) SiO2 
 PCOD9200208
Probable space group: C 2/M
;
_chemical_formula_sum "Si O2"
_cell_formula_units_Z 40
_cell_length_a 13.876282
_cell_length_b 12.901795
_cell_length_c 11.532268
_cell_angle_alpha 90.000000
_cell_angle_beta 95.472971
_cell_angle_gamma 90.000000
_cell_volume 2055.197850
_symmetry_space_group_name_H-M "C 2/M"
_symmetry_group_IT_number 12
_symmetry_cell_setting 'monoclinic'
loop_
_space_group_symop_operation_xyz
x,y,z
-x,y,-z
-x,-y,-z
x,-y,z
1/2+x,1/2+y,z
1/2-x,1/2+y,-z
1/2-x,1/2-y,-z
1/2+x,1/2-y,z
loop_
_atom_site_type_symbol
_atom_site_label
_atom_site_fract_x
_atom_site_fract_y
_atom_site_fract_z
Si Si1 0.047410 0.500000 0.634606
Si Si2 0.204594 0.699280 0.882357
Si Si3 0.940420 0.735775 0.317397
Si Si4 0.334889 0.275528 0.680664
Si Si5 0.184666 0.119355 0.554378
Si Si6 0.071546 0.500000 0.899001
O O1 0.000000 0.500000 0.500000
O O2 0.088777 0.618783 0.643924
O O3 0.012943 0.500000 0.768367
O O4 0.122867 0.763247 0.802888
O O5 0.289883 0.689176 0.797137
O O6 0.144253 0.597163 0.907795
O O7 0.250000 0.750000 0.000000
O O8 0.906879 0.816442 0.409816
O O9 0.053111 0.744639 0.303672
O O10 0.276016 0.176704 0.623423
O O11 0.315280 0.363809 0.583100
O O12 0.181949 0.000000 0.584914
O O13 0.000000 0.500000 0.000000
#
# Coordination Sequence:
#
# PCOD9200208 Si02
#       6
#     4   8   8   8   8   4
#     4  10  20  36  68  98 132 159 216 281 324 392
#     4  10  24  43  64  90 129 165 221 278 318 389
#     4  10  22  41  62 102 126 171 218 267 337 394
#     4  10  22  39  64  96 130 168 214 262 332 393
#     4  10  22  41  63  96 135 170 208 259 332 409
#     4  10  24  44  68  99 127 177 227 269 340 390
#
# _framework density 19.462847
#
# number of rings (size 3 to 8) (size 9 to 14) (size 15 to 20)
#    0.000    2.000    0.000    1.800    8.400    3.200 
#   18.000    0.000    0.000    1.200    0.000    0.000 
#    0.000    0.000    0.000    0.000    0.000    0.000 
#
# Total GULP energy -111388.744853 kJ/mol
# GULP energy per Si atom -5569.437243 kJ/mol
# Density = 1.941855 g / cm^3
# Si number density = 19.462847 Si / 1000 Ang^3
#
#
#
# Elastic Constant Matrix: (Units=GPa)
#
#
# Indices 1 2 3 4 5 6 
#
# 1 158.3497 34.3033 62.7749 0.0000 -6.3480 0.0000
# 2 34.3033 92.6447 30.6264 0.0000 -17.0972 0.0000
# 3 62.7749 30.6264 175.1421 0.0000 -10.8349 0.0000
# 4 0.0000 0.0000 0.0000 18.3561 0.0000 -2.5614
# 5 -6.3480 -17.0972 -10.8349 0.0000 38.6443 0.0000
# 6 0.0000 0.0000 0.0000 -2.5614 0.0000 18.2138
#
#
#
# Elastic Compliance Matrix: (Units=1/GPa)
#
#
# Indices 1 2 3 4 5 6 
#
# 1 0.007719 -0.002124 -0.002417 0.000000 -0.000349 0.000000
# 2 -0.002124 0.012899 -0.001184 0.000000 0.005026 0.000000
# 3 -0.002417 -0.001184 0.006845 0.000000 0.000998 0.000000
# 4 0.000000 0.000000 0.000000 0.055568 0.000000 0.007815
# 5 -0.000349 0.005026 0.000998 0.000000 0.028323 0.000000
# 6 0.000000 0.000000 0.000000 0.007815 0.000000 0.056002
#
#
# Mechanical properties :
#
#
# Convention : Reuss Voigt Hill
#
# Bulk Modulus (GPa) = 62.44256 75.72731 69.08493
# Shear Modulus (GPa) = 27.15270 34.93830 31.04550
#
# Velocity S-wave (km/s) = 3.73916 4.24149 3.99822
# Velocity P-wave (km/s) = 7.12702 7.93600 7.54236
#
# Compressibility (1/GPa) = 0.01601472
#
# Stress axis : x y z
#
# Youngs Moduli (GPa) = 129.54409 77.52505 146.09850
#
# Poissons Ratio (x) = 0.16464 0.35313
# Poissons Ratio (y) = 0.27511 0.17291
# Poissons Ratio (z) = 0.31311 0.09175
#
# Static dielectric constant tensor:
#      x y z
#    x 1.718410 0.000000 -0.008230 
#    y 0.000000 1.698250 0.000000 
#    z -0.008230 0.000000 1.721010 
# 
# From -- ./inp_files/141126.got.cif
#   From: 2010.05.17/outbox.cif.g08.bks.cpg/sg12_71_cif.got.tgz:141126.got - 2010.06.03 13:09:07.
