data_PCOD9200302
_publ_section_title
;
Structure prediction by ZEFSAII (Michael W. Deem and Ramdas Pophale) SiO2 
 PCOD9200302
Probable space group: C 2/M
;
_chemical_formula_sum "Si O2"
_cell_formula_units_Z 56
_cell_length_a 25.953950
_cell_length_b 11.842579
_cell_length_c 25.238280
_cell_angle_alpha 90.000000
_cell_angle_beta 19.800501
_cell_angle_gamma 90.000000
_cell_volume 2627.748961
_symmetry_space_group_name_H-M "C 2/M"
_symmetry_group_IT_number 12
_symmetry_cell_setting 'monoclinic'
loop_
_space_group_symop_operation_xyz
x,y,z
-x,y,-z
-x,-y,-z
x,-y,z
1/2+x,1/2+y,z
1/2-x,1/2+y,-z
1/2-x,1/2-y,-z
1/2+x,1/2-y,z
loop_
_atom_site_type_symbol
_atom_site_label
_atom_site_fract_x
_atom_site_fract_y
_atom_site_fract_z
Si Si1 0.793566 0.661937 0.235342
Si Si2 0.173932 0.304956 0.200013
Si Si3 0.190017 0.631983 0.585742
Si Si4 0.910687 0.876858 0.470237
Si Si5 0.165291 0.372362 0.091375
Si Si6 0.167838 0.624981 0.323914
Si Si7 0.376488 0.119607 0.038104
O O1 0.657840 0.627138 0.404661
O O2 0.790445 0.796455 0.232534
O O3 0.784163 0.623016 0.183450
O O4 0.950718 0.626592 0.109608
O O5 0.157841 0.374123 0.162553
O O6 0.184374 0.371894 0.244821
O O7 0.320623 0.223056 0.057576
O O8 0.030277 0.221091 0.344112
O O9 0.224494 0.500000 0.531783
O O10 0.250000 0.750000 0.500000
O O11 0.270288 0.634629 0.565385
O O12 0.007216 0.637954 0.763213
O O13 0.981613 0.000000 0.392558
O O14 0.224787 0.500000 0.017816
O O15 0.250000 0.250000 0.000000
O O16 0.176496 0.500000 0.336859
O O17 0.000000 0.670139 0.500000
O O18 0.352908 0.000000 0.033947
#
# Coordination Sequence:
#
# PCOD9200302 Si02
#       7
#     8   8   8   8   8   8   8
#     4  10  20  37  56  86 120 162 204 248 301 367
#     4  11  22  39  62  91 124 159 208 253 314 369
#     4  10  22  42  66  94 125 162 206 263 322 377
#     4  11  21  35  61  92 123 156 203 258 311 375
#     4  11  26  46  68  93 128 170 215 270 328 387
#     4  10  20  37  60  87 119 159 201 247 301 364
#     4  10  21  36  58  87 126 166 199 247 307 368
#
# _framework density 21.311015000000001
#
# number of rings (size 3 to 8) (size 9 to 14) (size 15 to 20)
#    0.000    1.571    2.857    2.571    2.000    1.714 
#    0.000    9.286    0.000    0.000    0.000    0.000 
#    0.000    0.000    0.000    0.000    0.000    0.000 
#
# Total GULP energy -156121.871986 kJ/mol
# GULP energy per Si atom -5575.781142 kJ/mol
# Density = 2.126251 g / cm^3
# Si number density = 21.311015 Si / 1000 Ang^3
#
#
#
# Elastic Constant Matrix: (Units=GPa)
#
#
# Indices 1 2 3 4 5 6 
#
# 1 59.0450 28.0593 11.8262 0.0006 -4.5423 -0.0004
# 2 28.0593 158.2363 42.3418 0.0041 -6.4368 -0.0027
# 3 11.8262 42.3418 41.1964 0.0058 -3.7521 -0.0039
# 4 0.0006 0.0041 0.0058 34.3907 -0.0019 -5.7268
# 5 -4.5423 -6.4368 -3.7521 -0.0019 32.3702 0.0016
# 6 -0.0004 -0.0027 -0.0039 -5.7268 0.0016 -1.0904
#
#
#
# Elastic Compliance Matrix: (Units=1/GPa)
#
#
# Indices 1 2 3 4 5 6 
#
# 1 0.018817 -0.002568 -0.002596 0.000001 0.001829 0.000005
# 2 -0.002568 0.009083 -0.008557 0.000001 0.000454 0.000004
# 3 -0.002596 -0.008557 0.033985 -0.000011 0.001873 -0.000038
# 4 0.000001 0.000001 -0.000011 0.015511 0.000004 -0.081469
# 5 0.001829 0.000454 0.001873 0.000004 0.031457 0.000016
# 6 0.000005 0.000004 -0.000038 -0.081469 0.000016 -0.489236
#
#
# Mechanical properties :
#
#
# Convention : Reuss Voigt Hill
#
# Bulk Modulus (GPa) = 29.03337 46.99250 38.01294
# Shear Modulus (GPa) = -14.64305 24.88413 5.12054
#
# Velocity S-wave (km/s) = -2.62413 3.42082 1.55177
# Velocity P-wave (km/s) = 2.11467 6.14014 4.59201
#
# Compressibility (1/GPa) = 0.03444313
#
# Stress axis : x y z
#
# Youngs Moduli (GPa) = 53.14310 110.09249 29.42463
#
# Poissons Ratio (x) = 0.28268 0.07639
# Poissons Ratio (y) = 0.13645 0.25180
# Poissons Ratio (z) = 0.13797 0.94210
#
# Static dielectric constant tensor:
#      x y z
#    x 1.742440 0.000000 0.025380 
#    y 0.000000 1.832430 0.000000 
#    z 0.025380 0.000000 1.799170 
# 
# From -- ./inp_files/369370.got.cif
#   From: 2010.05.17/outbox.cif.g08.bks.cpg/sg12_185_cif.got.tgz:369370.got - 2010.06.03 13:09:07.
