data_PCOD9200911
_publ_section_title
;
Structure prediction by ZEFSAII (Michael W. Deem and Ramdas Pophale) SiO2 
 PCOD9200911
Probable space group: C 2/M
;
_chemical_formula_sum "Si O2"
_cell_formula_units_Z 48
_cell_length_a 16.428867
_cell_length_b 16.245927
_cell_length_c 14.909385
_cell_angle_alpha 90.000000
_cell_angle_beta 27.605329
_cell_angle_gamma 90.000000
_cell_volume 1843.943800
_symmetry_space_group_name_H-M "C 2/M"
_symmetry_group_IT_number 12
_symmetry_cell_setting 'monoclinic'
loop_
_space_group_symop_operation_xyz
x,y,z
-x,y,-z
-x,-y,-z
x,-y,z
1/2+x,1/2+y,z
1/2-x,1/2+y,-z
1/2-x,1/2-y,-z
1/2+x,1/2-y,z
loop_
_atom_site_type_symbol
_atom_site_label
_atom_site_fract_x
_atom_site_fract_y
_atom_site_fract_z
Si Si1 0.311620 0.809954 0.689548
Si Si2 0.227428 0.402776 0.443685
Si Si3 0.583345 0.595207 0.020860
Si Si4 0.264307 0.142749 0.296465
Si Si5 0.554265 0.903052 0.144174
Si Si6 0.908122 0.903813 0.722906
O O1 0.500000 0.767706 0.500000
O O2 0.332624 0.884067 0.598939
O O3 0.245651 0.844480 0.847841
O O4 0.191680 0.737632 0.767994
O O5 0.232849 0.500000 0.454805
O O6 0.081367 0.365339 0.651175
O O7 0.432664 0.377983 0.237102
O O8 0.630786 0.500000 0.990948
O O9 0.500000 0.597242 0.000000
O O10 0.437959 0.103006 0.167551
O O11 0.186181 0.102470 0.282816
O O12 0.101824 0.134832 0.525689
O O13 0.577281 0.000000 0.142283
O O14 0.751427 0.869727 0.939058
O O15 0.937069 0.000000 0.714969
#
# Coordination Sequence:
#
# PCOD9200911 Si02
#       6
#     8   8   8   8   8   8
#     4  11  21  36  55  84 114 150 191 231 285 336
#     4   9  20  39  58  83 115 147 191 236 279 341
#     4   8  16  33  57  79 104 144 189 231 273 326
#     4  11  21  37  57  86 117 151 189 238 286 334
#     4  10  21  38  61  86 114 152 192 232 289 343
#     4  10  20  37  60  86 113 148 195 241 278 337
#
# _framework density 26.031161000000001
#
# number of rings (size 3 to 8) (size 9 to 14) (size 15 to 20)
#    0.000    2.167    1.667    4.000    0.000    7.333 
#    3.000    0.833    0.000    0.000    0.000    0.000 
#    0.000    0.000    0.000    0.000    0.000    0.000 
#
# Total GULP energy -134051.671489 kJ/mol
# GULP energy per Si atom -5585.486312 kJ/mol
# Density = 2.597191 g / cm^3
# Si number density = 26.031161 Si / 1000 Ang^3
#
#
#
# Elastic Constant Matrix: (Units=GPa)
#
#
# Indices 1 2 3 4 5 6 
#
# 1 66.6778 -6.6722 34.8510 -0.0034 -5.8353 0.0000
# 2 -6.6722 51.5446 51.9783 -0.0051 1.6759 0.0003
# 3 34.8510 51.9783 244.0496 -0.0091 7.5212 -0.0028
# 4 -0.0034 -0.0051 -0.0091 1.7583 0.0018 -13.8258
# 5 -5.8353 1.6759 7.5212 0.0018 47.7038 -0.0004
# 6 0.0000 0.0003 -0.0028 -13.8258 -0.0004 3.9017
#
#
#
# Elastic Compliance Matrix: (Units=1/GPa)
#
#
# Indices 1 2 3 4 5 6 
#
# 1 0.017923 0.006237 -0.003968 0.000000 0.002599 -0.000004
# 2 0.006237 0.026877 -0.006642 0.000000 0.000866 -0.000007
# 3 -0.003968 -0.006642 0.006116 -0.000002 -0.001216 -0.000001
# 4 0.000000 0.000000 -0.000002 -0.021171 0.000000 -0.075021
# 5 0.002599 0.000866 -0.001216 0.000000 0.021442 0.000003
# 6 -0.000004 -0.000007 -0.000001 -0.075021 0.000003 -0.009541
#
#
# Mechanical properties :
#
#
# Convention : Reuss Voigt Hill
#
# Bulk Modulus (GPa) = 23.71300 58.06514 40.88907
# Shear Modulus (GPa) = 77.58045 29.48041 53.53043
#
# Velocity S-wave (km/s) = 5.46513 3.36892 4.53967
# Velocity P-wave (km/s) = 6.99662 6.12269 6.57419
#
# Compressibility (1/GPa) = 0.04217096
#
# Stress axis : x y z
#
# Youngs Moduli (GPa) = 55.79439 37.20589 163.49984
#
# Poissons Ratio (x) = -0.23205 0.64875
# Poissons Ratio (y) = -0.34798 1.08592
# Poissons Ratio (z) = 0.22138 0.24711
#
# Static dielectric constant tensor:
#      x y z
#    x 2.200080 0.000000 -0.038890 
#    y 0.000000 1.940840 0.000010 
#    z -0.038890 0.000010 2.181890 
# 
# From -- ./inp_files/285363.got.cif
#   From: 2010.05.17/outbox.cif.g08.bks.cpg/sg12_143_cif.got.tgz:285363.got - 2010.06.03 13:09:07.
