data_PCOD9200441
_publ_section_title
;
Structure prediction by ZEFSAII (Michael W. Deem and Ramdas Pophale) SiO2 
 PCOD9200441
Probable space group: C 2/M
;
_chemical_formula_sum "Si O2"
_cell_formula_units_Z 48
_cell_length_a 17.507214
_cell_length_b 32.641849
_cell_length_c 9.023230
_cell_angle_alpha 90.000000
_cell_angle_beta 29.180891
_cell_angle_gamma 90.000000
_cell_volume 2514.140005
_symmetry_space_group_name_H-M "C 2/M"
_symmetry_group_IT_number 12
_symmetry_cell_setting 'monoclinic'
loop_
_space_group_symop_operation_xyz
x,y,z
-x,y,-z
-x,-y,-z
x,-y,z
1/2+x,1/2+y,z
1/2-x,1/2+y,-z
1/2-x,1/2-y,-z
1/2+x,1/2-y,z
loop_
_atom_site_type_symbol
_atom_site_label
_atom_site_fract_x
_atom_site_fract_y
_atom_site_fract_z
Si Si1 0.187166 0.131869 0.711751
Si Si2 0.676342 0.456466 0.760628
Si Si3 0.186917 0.789041 0.197917
Si Si4 0.813532 0.370087 0.831961
Si Si5 0.332433 0.454317 0.866307
Si Si6 0.812963 0.709204 0.316815
O O1 0.246116 0.085488 0.578127
O O2 0.231347 0.135529 0.810244
O O3 0.259544 0.168379 0.494064
O O4 0.000000 0.132867 0.000000
O O5 0.754761 0.500000 0.590589
O O6 0.500000 0.457844 0.000000
O O7 0.659116 0.454326 0.968281
O O8 0.241887 0.788329 0.273719
O O9 0.000000 0.789687 0.500000
O O10 0.250000 0.750000 0.000000
O O11 0.258210 0.830798 0.014665
O O12 0.000000 0.370351 0.500000
O O13 0.763506 0.412614 0.996585
O O14 0.500000 0.450781 0.500000
O O15 0.269186 0.500000 0.932345
O O16 0.750000 0.750000 0.500000
O O17 0.000000 0.709991 0.000000
#
# Coordination Sequence:
#
# PCOD9200441 Si02
#       6
#     8   8   8   8   8   8
#     4  10  20  37  58  81 110 147 189 227 270 330
#     4   8  15  29  52  79 106 140 182 226 267 316
#     4  12  24  40  61  85 113 146 187 232 282 335
#     4  11  22  37  56  83 117 149 185 230 282 334
#     4   9  18  33  54  81 112 147 188 231 276 328
#     4  12  24  40  60  83 112 145 184 229 280 333
#
# _framework density 19.092016999999998
#
# number of rings (size 3 to 8) (size 9 to 14) (size 15 to 20)
#    0.000    1.667    0.000    5.500    0.000    3.000 
#    0.000    0.000    0.000    0.500    0.000    0.000 
#    0.000    0.000    0.000    0.000    0.000    0.000 
#
# Total GULP energy -133825.672493 kJ/mol
# GULP energy per Si atom -5576.069687 kJ/mol
# Density = 1.904856 g / cm^3
# Si number density = 19.092017 Si / 1000 Ang^3
#
#
#
# Elastic Constant Matrix: (Units=GPa)
#
#
# Indices 1 2 3 4 5 6 
#
# 1 109.8508 59.6592 37.1326 0.0000 -1.6765 0.0000
# 2 59.6592 258.0145 104.7969 0.0000 11.9668 0.0000
# 3 37.1326 104.7969 113.9204 0.0000 -18.7258 0.0000
# 4 0.0000 0.0000 0.0000 41.4316 0.0000 8.5982
# 5 -1.6765 11.9668 -18.7258 0.0000 26.8565 0.0000
# 6 0.0000 0.0000 0.0000 8.5982 0.0000 0.2498
#
#
#
# Elastic Compliance Matrix: (Units=1/GPa)
#
#
# Indices 1 2 3 4 5 6 
#
# 1 0.010670 -0.001702 -0.001895 0.000000 0.000103 0.000000
# 2 -0.001702 0.008223 -0.008616 0.000000 -0.009778 0.000000
# 3 -0.001895 -0.008616 0.020255 0.000000 0.017844 0.000000
# 4 0.000000 0.000000 0.000000 -0.003929 0.000000 0.135233
# 5 0.000103 -0.009778 0.017844 0.000000 0.054040 0.000000
# 6 0.000000 0.000000 0.000000 0.135233 0.000000 -0.651636
#
#
# Mechanical properties :
#
#
# Convention : Reuss Voigt Hill
#
# Bulk Modulus (GPa) = 67.93318 98.32923 83.13121
# Shear Modulus (GPa) = -9.38013 32.38737 11.50362
#
# Velocity S-wave (km/s) = -2.21896 4.12319 2.45732
# Velocity P-wave (km/s) = 5.39390 8.61871 7.18945
#
# Compressibility (1/GPa) = 0.01472035
#
# Stress axis : x y z
#
# Youngs Moduli (GPa) = 93.72194 121.61610 49.36975
#
# Poissons Ratio (x) = 0.20702 0.09355
# Poissons Ratio (y) = 0.15954 0.42539
# Poissons Ratio (z) = 0.17760 1.04790
#
# Static dielectric constant tensor:
#      x y z
#    x 1.659760 0.000000 0.011250 
#    y 0.000000 1.722460 0.000000 
#    z 0.011250 0.000000 1.625960 
# 
# From -- ./inp_files/80627.got.cif
#   From: 2010.05.17/outbox.cif.g08.bks.cpg/sg12_41_cif.got.tgz:80627.got - 2010.06.03 13:09:07.
