data_PCOD9200426
_publ_section_title
;
Structure prediction by ZEFSAII (Michael W. Deem and Ramdas Pophale) SiO2 
 PCOD9200426
Probable space group: C 2/M
;
_chemical_formula_sum "Si O2"
_cell_formula_units_Z 40
_cell_length_a 14.838226
_cell_length_b 7.880133
_cell_length_c 17.524220
_cell_angle_alpha 90.000000
_cell_angle_beta 115.677657
_cell_angle_gamma 90.000000
_cell_volume 1846.705343
_symmetry_space_group_name_H-M "C 2/M"
_symmetry_group_IT_number 12
_symmetry_cell_setting 'monoclinic'
loop_
_space_group_symop_operation_xyz
x,y,z
-x,y,-z
-x,-y,-z
x,-y,z
1/2+x,1/2+y,z
1/2-x,1/2+y,-z
1/2-x,1/2-y,-z
1/2+x,1/2-y,z
loop_
_atom_site_type_symbol
_atom_site_label
_atom_site_fract_x
_atom_site_fract_y
_atom_site_fract_z
Si Si1 0.384551 0.201437 0.585392
Si Si2 0.682053 0.804925 0.593785
Si Si3 0.294363 0.291252 0.776149
Si Si4 0.210743 0.298619 0.902802
Si Si5 0.495001 0.298494 0.765359
O O1 0.388674 0.263998 0.499460
O O2 0.291799 0.294896 0.592966
O O3 0.479235 0.225828 0.674556
O O4 0.361617 0.000000 0.574808
O O5 0.707494 0.730293 0.685878
O O6 0.651351 0.000000 0.594996
O O7 0.292841 0.500000 0.773630
O O8 0.275507 0.232648 0.854973
O O9 0.400847 0.237012 0.781308
O O10 0.214913 0.500000 0.900176
O O11 0.097773 0.245305 0.843641
O O12 0.250000 0.250000 0.000000
O O13 0.487437 0.500000 0.755879
#
# Coordination Sequence:
#
# PCOD9200426 Si02
#       5
#     8   8   8   8   8
#     4   9  15  25  47  79 110 140 176 217 258 302
#     4   8  14  27  48  75 107 144 181 212 250 307
#     4   8  17  35  58  79 105 144 182 213 255 318
#     4  11  23  40  59  80 105 135 176 225 274 320
#     4  10  20  37  58  80 108 143 180 216 260 316
#
# _framework density 21.660194000000001
#
# number of rings (size 3 to 8) (size 9 to 14) (size 15 to 20)
#    0.000    2.800    0.000    3.000    0.000    1.600 
#    0.000   15.000    0.000    6.000    0.000    0.000 
#    0.000    0.000    0.000    0.000    0.000    0.000 
#
# Total GULP energy -111540.446965 kJ/mol
# GULP energy per Si atom -5577.022348 kJ/mol
# Density = 2.161089 g / cm^3
# Si number density = 21.660194 Si / 1000 Ang^3
#
#
#
# Elastic Constant Matrix: (Units=GPa)
#
#
# Indices 1 2 3 4 5 6 
#
# 1 106.7550 4.9087 100.2118 0.0000 -19.8079 0.0000
# 2 4.9087 44.1843 17.7188 0.0000 -4.8028 0.0000
# 3 100.2118 17.7188 270.9543 0.0000 -30.6026 0.0000
# 4 0.0000 0.0000 0.0000 33.1147 0.0000 4.8055
# 5 -19.8079 -4.8028 -30.6026 0.0000 45.5751 0.0000
# 6 0.0000 0.0000 0.0000 4.8055 0.0000 13.6725
#
#
#
# Elastic Compliance Matrix: (Units=1/GPa)
#
#
# Indices 1 2 3 4 5 6 
#
# 1 0.014735 0.000760 -0.005158 0.000000 0.003021 0.000000
# 2 0.000760 0.023382 -0.001617 0.000000 0.001708 0.000000
# 3 -0.005158 -0.001617 0.005877 0.000000 0.001534 0.000000
# 4 0.000000 0.000000 0.000000 0.031821 0.000000 -0.011184
# 5 0.003021 0.001708 0.001534 0.000000 0.024465 0.000000
# 6 0.000000 0.000000 0.000000 -0.011184 0.000000 0.077071
#
#
# Mechanical properties :
#
#
# Convention : Reuss Voigt Hill
#
# Bulk Modulus (GPa) = 31.28556 74.17468 52.73012
# Shear Modulus (GPa) = 24.99544 38.40939 31.70242
#
# Velocity S-wave (km/s) = 3.40071 4.21559 3.82989
# Velocity P-wave (km/s) = 5.46763 7.61669 6.62982
#
# Compressibility (1/GPa) = 0.03196363
#
# Stress axis : x y z
#
# Youngs Moduli (GPa) = 67.86681 42.76742 170.14239
#
# Poissons Ratio (x) = -0.03250 0.87762
# Poissons Ratio (y) = -0.05157 0.27515
# Poissons Ratio (z) = 0.35007 0.06916
#
# Static dielectric constant tensor:
#      x y z
#    x 1.813100 0.000000 -0.026660 
#    y 0.000000 1.805680 0.000000 
#    z -0.026660 0.000000 1.775870 
# 
# From -- ./inp_files/211229.got.cif
#   From: 2010.05.17/outbox.cif.g08.bks.cpg/sg12_106_cif.got.tgz:211229.got - 2010.06.03 13:09:07.
