data_PCOD9200291
_publ_section_title
;
Structure prediction by ZEFSAII (Michael W. Deem and Ramdas Pophale) SiO2 
 PCOD9200291
Probable space group: C 2/M
;
_chemical_formula_sum "Si O2"
_cell_formula_units_Z 64
_cell_length_a 28.848324
_cell_length_b 14.976554
_cell_length_c 8.980053
_cell_angle_alpha 90.000000
_cell_angle_beta 119.550149
_cell_angle_gamma 90.000000
_cell_volume 3375.148430
_symmetry_space_group_name_H-M "C 2/M"
_symmetry_group_IT_number 12
_symmetry_cell_setting 'monoclinic'
loop_
_space_group_symop_operation_xyz
x,y,z
-x,y,-z
-x,-y,-z
x,-y,z
1/2+x,1/2+y,z
1/2-x,1/2+y,-z
1/2-x,1/2-y,-z
1/2+x,1/2-y,z
loop_
_atom_site_type_symbol
_atom_site_label
_atom_site_fract_x
_atom_site_fract_y
_atom_site_fract_z
Si Si1 0.846923 0.100935 0.699628
Si Si2 0.781946 0.230244 0.400402
Si Si3 0.057572 0.402436 0.671138
Si Si4 0.246551 0.104397 0.905237
Si Si5 0.968448 0.093528 0.798707
Si Si6 0.534622 0.714803 0.706322
Si Si7 0.330170 0.102917 0.303498
Si Si8 0.358226 0.393150 0.058813
O O1 0.823467 0.159349 0.530782
O O2 0.908368 0.097879 0.754253
O O3 0.824438 0.000000 0.662608
O O4 0.843036 0.134604 0.864728
O O5 0.750000 0.250000 0.500000
O O6 0.750835 0.177151 0.221311
O O7 0.808546 0.320201 0.377915
O O8 0.067159 0.500000 0.756327
O O9 0.053587 0.315605 0.766518
O O10 0.107270 0.386992 0.637627
O O11 0.000000 0.406628 0.500000
O O12 0.191983 0.121684 0.912067
O O13 0.244817 0.000000 0.851626
O O14 0.295737 0.112439 0.097368
O O15 0.992246 0.177139 0.754136
O O16 0.976869 0.000000 0.724399
O O17 0.000000 0.087551 0.000000
O O18 0.500000 0.712388 0.500000
O O19 0.588170 0.654917 0.799081
O O20 0.321585 0.000000 0.342718
O O21 0.368155 0.500000 0.067008
#
# Coordination Sequence:
#
# PCOD9200291 Si02
#       8
#     8   8   8   8   8   8   8   8
#     4  10  22  39  59  83 121 162 196 237 298 364
#     4  12  25  38  60  91 124 158 200 248 300 362
#     4   9  20  38  60  84 111 149 198 251 299 345
#     4  10  22  40  63  88 118 155 198 248 302 359
#     4  10  20  37  56  83 124 164 191 226 293 371
#     4  11  22  33  57  89 118 153 202 252 291 351
#     4  10  22  42  65  87 119 160 205 255 306 358
#     4  10  20  37  59  87 122 160 197 239 296 365
#
# _framework density 18.962128
#
# number of rings (size 3 to 8) (size 9 to 14) (size 15 to 20)
#    0.000    1.750    1.250    2.625    5.250    4.000 
#    0.000    0.000    0.000    1.125    0.000    0.000 
#    0.000    0.000    0.000    0.000    0.000    0.000 
#
# Total GULP energy -178387.016944 kJ/mol
# GULP energy per Si atom -5574.594279 kJ/mol
# Density = 1.891897 g / cm^3
# Si number density = 18.962128 Si / 1000 Ang^3
#
#
#
# Elastic Constant Matrix: (Units=GPa)
#
#
# Indices 1 2 3 4 5 6 
#
# 1 71.4068 29.4549 25.8050 0.0000 -8.9233 0.0000
# 2 29.4549 107.6687 44.1756 0.0000 -27.2497 0.0000
# 3 25.8050 44.1756 71.6663 0.0000 -0.1214 0.0000
# 4 0.0000 0.0000 0.0000 16.3550 0.0000 -14.3017
# 5 -8.9233 -27.2497 -0.1214 0.0000 30.5036 0.0000
# 6 0.0000 0.0000 0.0000 -14.3017 0.0000 25.9070
#
#
#
# Elastic Compliance Matrix: (Units=1/GPa)
#
#
# Indices 1 2 3 4 5 6 
#
# 1 0.016959 -0.001700 -0.005053 0.000000 0.003422 0.000000
# 2 -0.001700 0.017955 -0.010429 0.000000 0.015501 0.000000
# 3 -0.005053 -0.010429 0.022183 0.000000 -0.010706 0.000000
# 4 0.000000 0.000000 0.000000 0.118204 0.000000 0.065253
# 5 0.003422 0.015501 -0.010706 0.000000 0.047589 0.000000
# 6 0.000000 0.000000 0.000000 0.065253 0.000000 0.074622
#
#
# Mechanical properties :
#
#
# Convention : Reuss Voigt Hill
#
# Bulk Modulus (GPa) = 43.98829 49.95699 46.97264
# Shear Modulus (GPa) = 14.72956 24.64021 19.68489
#
# Velocity S-wave (km/s) = 2.79012 3.60869 3.22548
# Velocity P-wave (km/s) = 5.79896 6.61562 6.22071
#
# Compressibility (1/GPa) = 0.02273332
#
# Stress axis : x y z
#
# Youngs Moduli (GPa) = 58.96501 55.69515 45.07913
#
# Poissons Ratio (x) = 0.09471 0.22777
# Poissons Ratio (y) = 0.10027 0.47013
# Poissons Ratio (z) = 0.29793 0.58084
#
# Static dielectric constant tensor:
#      x y z
#    x 1.644350 0.000000 0.002260 
#    y 0.000000 1.787840 0.000000 
#    z 0.002260 0.000000 1.623690 
# 
# From -- ./inp_files/104653.got.cif
#   From: 2010.05.17/outbox.cif.g08.bks.cpg/sg12_53_cif.got.tgz:104653.got - 2010.06.03 13:09:07.
