data_PCOD9200202
_publ_section_title
;
Structure prediction by ZEFSAII (Michael W. Deem and Ramdas Pophale) SiO2 
 PCOD9200202
Probable space group: C 2/M
;
_chemical_formula_sum "Si O2"
_cell_formula_units_Z 48
_cell_length_a 13.952756
_cell_length_b 23.958394
_cell_length_c 7.457398
_cell_angle_alpha 90.000000
_cell_angle_beta 68.849058
_cell_angle_gamma 90.000000
_cell_volume 2324.961924
_symmetry_space_group_name_H-M "C 2/M"
_symmetry_group_IT_number 12
_symmetry_cell_setting 'monoclinic'
loop_
_space_group_symop_operation_xyz
x,y,z
-x,y,-z
-x,-y,-z
x,-y,z
1/2+x,1/2+y,z
1/2-x,1/2+y,-z
1/2-x,1/2-y,-z
1/2+x,1/2-y,z
loop_
_atom_site_type_symbol
_atom_site_label
_atom_site_fract_x
_atom_site_fract_y
_atom_site_fract_z
Si Si1 0.315877 0.231015 0.167338
Si Si2 0.116823 0.154751 0.984367
Si Si3 0.889929 0.270826 0.503648
Si Si4 0.877844 0.500000 0.107596
Si Si5 0.220124 0.385562 0.412920
Si Si6 0.619618 0.000000 0.466440
Si Si7 0.759228 0.388606 0.174223
O O1 0.347708 0.280625 0.014655
O O2 0.203088 0.239493 0.333041
O O3 0.386912 0.239471 0.293637
O O4 0.323339 0.168237 0.090866
O O5 0.185861 0.133032 0.772870
O O6 0.154450 0.120188 0.133051
O O7 0.000000 0.150727 0.000000
O O8 0.863971 0.336366 0.543847
O O9 0.000000 0.254791 0.500000
O O10 0.867303 0.500000 0.328675
O O11 0.821526 0.443990 0.078443
O O12 0.000000 0.500000 0.000000
O O13 0.174104 0.443159 0.371698
O O14 0.251801 0.389783 0.601610
O O15 0.500000 0.000000 0.500000
#
# Coordination Sequence:
#
# PCOD9200202 Si02
#       7
#     8   8   8   4   8   4   8
#     4   9  20  37  55  93 121 158 208 241 302 372
#     4  11  24  39  62  92 120 165 207 246 309 358
#     4   9  17  33  60  85 124 162 193 254 304 355
#     4  10  24  42  64  97 119 160 204 242 323 354
#     4   9  21  40  56  91 124 156 211 244 302 366
#     4  10  20  36  68  89 117 166 200 248 301 360
#     4  10  22  43  62  85 132 156 196 268 290 361
#
# _framework density 20.645500999999999
#
# number of rings (size 3 to 8) (size 9 to 14) (size 15 to 20)
#    0.000    2.333    0.000    2.000    4.667    1.333 
#    6.000    1.667    0.000    3.000    0.000    0.000 
#    0.000    0.000    0.000    0.000    0.000    0.000 
#
# Total GULP energy -134054.154912 kJ/mol
# GULP energy per Si atom -5585.589788 kJ/mol
# Density = 2.059851 g / cm^3
# Si number density = 20.645501 Si / 1000 Ang^3
#
#
#
# Elastic Constant Matrix: (Units=GPa)
#
#
# Indices 1 2 3 4 5 6 
#
# 1 138.3347 46.0339 16.7347 0.0000 9.3015 0.0000
# 2 46.0339 164.4366 20.3063 0.0000 -1.2126 0.0000
# 3 16.7347 20.3063 41.6517 0.0000 11.0145 0.0000
# 4 0.0000 0.0000 0.0000 15.7647 0.0000 4.2600
# 5 9.3015 -1.2126 11.0145 0.0000 28.9946 0.0000
# 6 0.0000 0.0000 0.0000 4.2600 0.0000 11.5067
#
#
#
# Elastic Compliance Matrix: (Units=1/GPa)
#
#
# Indices 1 2 3 4 5 6 
#
# 1 0.008285 -0.002119 -0.001745 0.000000 -0.002084 0.000000
# 2 -0.002119 0.007083 -0.003179 0.000000 0.002184 0.000000
# 3 -0.001745 -0.003179 0.029067 0.000000 -0.010615 0.000000
# 4 0.000000 0.000000 0.000000 0.070485 0.000000 -0.026095
# 5 -0.002084 0.002184 -0.010615 0.000000 0.039281 0.000000
# 6 0.000000 0.000000 0.000000 -0.026095 0.000000 0.096567
#
#
# Mechanical properties :
#
#
# Convention : Reuss Voigt Hill
#
# Bulk Modulus (GPa) = 32.95022 56.73029 44.84026
# Shear Modulus (GPa) = 18.18375 28.67642 23.43008
#
# Velocity S-wave (km/s) = 2.97098 3.73096 3.37245
# Velocity P-wave (km/s) = 5.26912 6.78955 6.07707
#
# Compressibility (1/GPa) = 0.03034881
#
# Stress axis : x y z
#
# Youngs Moduli (GPa) = 120.69607 141.17488 34.40377
#
# Poissons Ratio (x) = 0.29921 0.06002
# Poissons Ratio (y) = 0.25580 0.10938
# Poissons Ratio (z) = 0.21055 0.44884
#
# Static dielectric constant tensor:
#      x y z
#    x 1.736480 0.000000 0.038430 
#    y 0.000000 1.799560 0.000000 
#    z 0.038430 0.000000 1.745820 
# 
# From -- ./inp_files/51364.got.cif
#   From: 2010.05.17/outbox.cif.g08.bks.cpg/sg12_26_cif.got.tgz:51364.got - 2010.06.03 13:09:07.
