data_PCOD9200817
_publ_section_title
;
Structure prediction by ZEFSAII (Michael W. Deem and Ramdas Pophale) SiO2 
 PCOD9200817
Probable space group: C 2/M
;
_chemical_formula_sum "Si O2"
_cell_formula_units_Z 64
_cell_length_a 15.590807
_cell_length_b 8.962255
_cell_length_c 26.624943
_cell_angle_alpha 90.000000
_cell_angle_beta 127.278256
_cell_angle_gamma 90.000000
_cell_volume 2960.232292
_symmetry_space_group_name_H-M "C 2/M"
_symmetry_group_IT_number 12
_symmetry_cell_setting 'monoclinic'
loop_
_space_group_symop_operation_xyz
x,y,z
-x,y,-z
-x,-y,-z
x,-y,z
1/2+x,1/2+y,z
1/2-x,1/2+y,-z
1/2-x,1/2-y,-z
1/2+x,1/2-y,z
loop_
_atom_site_type_symbol
_atom_site_label
_atom_site_fract_x
_atom_site_fract_y
_atom_site_fract_z
Si Si1 0.843975 0.675451 0.611077
Si Si2 0.394566 0.170183 0.746738
Si Si3 0.557471 0.677125 0.652299
Si Si4 0.759784 0.335141 0.233125
Si Si5 0.867751 0.675567 0.126822
Si Si6 0.837138 0.251214 0.904532
Si Si7 0.615864 0.318258 0.561753
Si Si8 0.927160 0.331293 0.033537
O O1 0.876038 0.688826 0.681259
O O2 0.937469 0.757297 0.613785
O O3 0.720357 0.733152 0.567505
O O4 0.655339 0.000000 0.401910
O O5 0.326030 0.280275 0.756511
O O6 0.519335 0.184960 0.804871
O O7 0.360438 0.000000 0.747745
O O8 0.549609 0.500000 0.649728
O O9 0.635618 0.731022 0.724635
O O10 0.615195 0.723001 0.620401
O O11 0.799653 0.500000 0.258495
O O12 0.699827 0.335687 0.158358
O O13 0.830419 0.500000 0.119122
O O14 0.782435 0.792128 0.118711
O O15 0.887138 0.701476 0.074850
O O16 0.942718 0.335534 0.921467
O O17 0.885257 0.213527 0.977331
O O18 0.500000 0.270912 0.500000
O O19 0.620210 0.500000 0.561495
O O20 0.890926 0.500000 0.006282
#
# Coordination Sequence:
#
# PCOD9200817 Si02
#       8
#     8   8   8   8   8   8   8   8
#     4  10  20  38  63  93 128 167 209 255 308 362
#     4  10  20  39  65  88 118 165 209 250 311 376
#     4  11  23  40  65  95 125 165 210 253 306 367
#     4  12  24  39  61  92 126 159 203 260 315 366
#     4  10  20  37  60  83 112 151 197 247 302 366
#     4  11  21  37  60  83 116 153 198 241 305 368
#     4   9  19  38  64  93 129 172 211 248 300 366
#     4  10  22  39  61  85 114 154 204 254 301 365
#
# _framework density 21.619924999999999
#
# number of rings (size 3 to 8) (size 9 to 14) (size 15 to 20)
#    0.000    1.625    2.500    3.000    0.000    3.500 
#    0.000    6.250    0.000    2.625    0.000    0.000 
#    0.000    0.000    0.000    0.000    0.000    0.000 
#
# Total GULP energy -178259.428803 kJ/mol
# GULP energy per Si atom -5570.607150 kJ/mol
# Density = 2.157072 g / cm^3
# Si number density = 21.619925 Si / 1000 Ang^3
#
#
#
# Elastic Constant Matrix: (Units=GPa)
#
#
# Indices 1 2 3 4 5 6 
#
# 1 92.1663 24.8048 -5.8996 0.0000 24.4720 0.0000
# 2 24.8048 36.4957 13.4287 0.0000 8.3123 0.0000
# 3 -5.8996 13.4287 68.4569 0.0000 21.7214 0.0000
# 4 0.0000 0.0000 0.0000 10.9002 0.0000 9.3037
# 5 24.4720 8.3123 21.7214 0.0000 33.9836 0.0000
# 6 0.0000 0.0000 0.0000 9.3037 0.0000 16.6504
#
#
#
# Elastic Compliance Matrix: (Units=1/GPa)
#
#
# Indices 1 2 3 4 5 6 
#
# 1 0.019434 -0.012869 0.009585 0.000000 -0.016973 0.000000
# 2 -0.012869 0.038592 -0.010819 0.000000 0.006743 0.000000
# 3 0.009585 -0.010819 0.023716 0.000000 -0.019415 0.000000
# 4 0.000000 0.000000 0.000000 0.175391 0.000000 -0.098003
# 5 -0.016973 0.006743 -0.019415 0.000000 0.052408 0.000000
# 6 0.000000 0.000000 0.000000 -0.098003 0.000000 0.114820
#
#
# Mechanical properties :
#
#
# Convention : Reuss Voigt Hill
#
# Bulk Modulus (GPa) = 18.67925 29.08740 23.88333
# Shear Modulus (GPa) = 10.62895 23.29252 16.96074
#
# Velocity S-wave (km/s) = 2.21967 3.28588 2.80392
# Velocity P-wave (km/s) = 3.90229 5.28008 4.64258
#
# Compressibility (1/GPa) = 0.05353534
#
# Stress axis : x y z
#
# Youngs Moduli (GPa) = 51.45706 25.91179 42.16504
#
# Poissons Ratio (x) = 0.33347 -0.40414
# Poissons Ratio (y) = 0.66222 0.45618
# Poissons Ratio (z) = -0.49321 0.28034
#
# Static dielectric constant tensor:
#      x y z
#    x 1.790760 0.000000 0.004680 
#    y 0.000000 1.786600 0.000000 
#    z 0.004680 0.000000 1.813690 
# 
# From -- ./inp_files/375606.got.cif
#   From: 2010.05.17/outbox.cif.g08.bks.cpg/sg12_188_cif.got.tgz:375606.got - 2010.06.03 13:09:07.
