data_PCOD9200780
_publ_section_title
;
Structure prediction by ZEFSAII (Michael W. Deem and Ramdas Pophale) SiO2 
 PCOD9200780
Probable space group: C 2/M
;
_chemical_formula_sum "Si O2"
_cell_formula_units_Z 64
_cell_length_a 20.803906
_cell_length_b 9.061207
_cell_length_c 22.060525
_cell_angle_alpha 90.000000
_cell_angle_beta 61.870658
_cell_angle_gamma 90.000000
_cell_volume 3667.406067
_symmetry_space_group_name_H-M "C 2/M"
_symmetry_group_IT_number 12
_symmetry_cell_setting 'monoclinic'
loop_
_space_group_symop_operation_xyz
x,y,z
-x,y,-z
-x,-y,-z
x,-y,z
1/2+x,1/2+y,z
1/2-x,1/2+y,-z
1/2-x,1/2-y,-z
1/2+x,1/2-y,z
loop_
_atom_site_type_symbol
_atom_site_label
_atom_site_fract_x
_atom_site_fract_y
_atom_site_fract_z
Si Si1 0.021350 0.822402 0.559403
Si Si2 0.912986 0.176472 0.291872
Si Si3 0.325714 0.324171 0.449331
Si Si4 0.829913 0.675957 0.079923
Si Si5 0.417213 0.323037 0.931613
Si Si6 0.450407 0.175963 0.704733
Si Si7 0.340563 0.676761 0.838829
Si Si8 0.912001 0.823485 0.153281
O O1 0.104621 0.780672 0.540071
O O2 0.000000 0.788170 0.500000
O O3 0.969020 0.742818 0.630717
O O4 0.015686 0.000000 0.570569
O O5 0.850963 0.207960 0.369110
O O6 0.893624 0.210717 0.231380
O O7 0.984330 0.263741 0.281483
O O8 0.929506 0.000000 0.287732
O O9 0.317520 0.500000 0.458644
O O10 0.250000 0.250000 0.500000
O O11 0.837495 0.500000 0.074671
O O12 0.744244 0.711934 0.115015
O O13 0.863391 0.738927 0.126803
O O14 0.873334 0.745831 0.004603
O O15 0.410669 0.500000 0.941479
O O16 0.383520 0.284130 0.881321
O O17 0.502819 0.286675 0.894824
O O18 0.376919 0.239189 0.766694
O O19 0.450150 0.000000 0.703133
O O20 0.348247 0.500000 0.826360
O O21 0.904033 0.000000 0.148210
#
# Coordination Sequence:
#
# PCOD9200780 Si02
#       8
#     8   8   8   8   8   8   8   8
#     4   9  19  38  61  81 109 151 191 221 264 331
#     4   9  18  37  60  79 106 151 194 222 264 332
#     4   9  18  33  56  83 110 143 180 222 270 319
#     4  11  24  37  53  82 117 145 175 233 288 325
#     4  10  20  37  62  81 100 144 194 228 268 334
#     4  11  21  33  57  89 114 140 181 238 282 314
#     4  10  21  40  59  77 109 152 190 221 271 338
#     4  10  20  37  60  80 106 147 190 227 270 331
#
# _framework density 17.451027
#
# number of rings (size 3 to 8) (size 9 to 14) (size 15 to 20)
#    0.000    2.125    1.250    3.000    0.000    6.250 
#    2.250    0.000    0.000    0.000    0.000    0.000 
#    0.000    0.000    0.000    0.000    0.000    0.000 
#
# Total GULP energy -178638.013712 kJ/mol
# GULP energy per Si atom -5582.437928 kJ/mol
# Density = 1.741131 g / cm^3
# Si number density = 17.451027 Si / 1000 Ang^3
#
#
#
# Elastic Constant Matrix: (Units=GPa)
#
#
# Indices 1 2 3 4 5 6 
#
# 1 32.7759 10.6111 13.4047 -0.0001 2.9534 -0.0002
# 2 10.6111 21.4003 28.9778 -0.0001 1.2773 -0.0006
# 3 13.4047 28.9778 97.0220 0.0000 3.1493 0.0000
# 4 -0.0001 -0.0001 0.0000 13.8867 0.0000 -9.6852
# 5 2.9534 1.2773 3.1493 0.0000 27.0585 0.0000
# 6 -0.0002 -0.0006 0.0000 -9.6852 0.0000 25.3781
#
#
#
# Elastic Compliance Matrix: (Units=1/GPa)
#
#
# Indices 1 2 3 4 5 6 
#
# 1 0.036637 -0.018910 0.000689 0.000000 -0.003187 0.000000
# 2 -0.018910 0.088245 -0.023766 0.000003 0.000664 0.000003
# 3 0.000689 -0.023766 0.017341 -0.000001 -0.000972 -0.000001
# 4 0.000000 0.000003 -0.000001 0.098131 0.000000 0.037451
# 5 -0.003187 0.000664 -0.000972 0.000000 0.037387 0.000000
# 6 0.000000 0.000003 -0.000001 0.037451 0.000000 0.053697
#
#
# Mechanical properties :
#
#
# Convention : Reuss Voigt Hill
#
# Bulk Modulus (GPa) = 17.16658 28.57616 22.87137
# Shear Modulus (GPa) = 11.49881 19.81163 15.65522
#
# Velocity S-wave (km/s) = 2.56973 3.37303 2.99840
# Velocity P-wave (km/s) = 4.32007 5.61964 5.01216
#
# Compressibility (1/GPa) = 0.05825271
#
# Stress axis : x y z
#
# Youngs Moduli (GPa) = 27.29451 11.33202 57.66564
#
# Poissons Ratio (x) = 0.21428 -0.03975
# Poissons Ratio (y) = 0.51613 1.37045
# Poissons Ratio (z) = -0.01882 0.26931
#
# Static dielectric constant tensor:
#      x y z
#    x 1.576140 0.000000 0.002120 
#    y 0.000000 1.580900 0.000000 
#    z 0.002120 0.000000 1.583120 
# 
# From -- ./inp_files/319824.got.cif
#   From: 2010.05.17/outbox.cif.g08.bks.cpg/sg12_160_cif.got.tgz:319824.got - 2010.06.03 13:09:07.
