data_PCOD9200520
_publ_section_title
;
Structure prediction by ZEFSAII (Michael W. Deem and Ramdas Pophale) SiO2 
 PCOD9200520
Probable space group: C 2/M
;
_chemical_formula_sum "Si O2"
_cell_formula_units_Z 56
_cell_length_a 15.863144
_cell_length_b 18.518578
_cell_length_c 13.017426
_cell_angle_alpha 90.000000
_cell_angle_beta 128.783147
_cell_angle_gamma 90.000000
_cell_volume 2980.921435
_symmetry_space_group_name_H-M "C 2/M"
_symmetry_group_IT_number 12
_symmetry_cell_setting 'monoclinic'
loop_
_space_group_symop_operation_xyz
x,y,z
-x,y,-z
-x,-y,-z
x,-y,z
1/2+x,1/2+y,z
1/2-x,1/2+y,-z
1/2-x,1/2-y,-z
1/2+x,1/2-y,z
loop_
_atom_site_type_symbol
_atom_site_label
_atom_site_fract_x
_atom_site_fract_y
_atom_site_fract_z
Si Si1 0.774427 0.728017 0.637234
Si Si2 0.914455 0.196877 0.354872
Si Si3 0.028084 0.349628 0.640876
Si Si4 0.633742 0.624922 0.268060
Si Si5 0.260561 0.584527 0.861988
Si Si6 0.396806 0.415020 0.166491
Si Si7 0.317479 0.083723 0.576385
O O1 0.750000 0.750000 0.500000
O O2 0.676918 0.734104 0.643971
O O3 0.862042 0.787770 0.734758
O O4 0.796435 0.642789 0.648539
O O5 0.974482 0.263188 0.343000
O O6 0.875102 0.137295 0.245750
O O7 0.000000 0.163429 0.500000
O O8 0.147912 0.375239 0.758658
O O9 0.000000 0.359937 0.500000
O O10 0.936612 0.394600 0.628791
O O11 0.662078 0.596709 0.176771
O O12 0.520771 0.597425 0.225703
O O13 0.730251 0.599053 0.418546
O O14 0.235955 0.500000 0.849043
O O15 0.320924 0.605328 0.012637
O O16 0.382042 0.500000 0.178680
O O17 0.310404 0.000000 0.599769
#
# Coordination Sequence:
#
# PCOD9200520 Si02
#       7
#     8   8   8   8   8   8   8
#     4  10  20  37  58  85 117 152 198 247 293 351
#     4  11  21  39  62  86 118 158 197 247 297 352
#     4  11  20  37  59  89 117 148 199 252 297 347
#     4  11  19  38  58  85 122 158 201 246 297 355
#     4  11  22  37  59  88 124 159 197 249 301 353
#     4  11  25  39  58  89 125 162 198 242 298 363
#     4  11  21  32  57  90 118 150 192 247 304 353
#
# _framework density 18.786137
#
# number of rings (size 3 to 8) (size 9 to 14) (size 15 to 20)
#    0.000    1.143    2.857    7.286    0.000    3.143 
#    0.000    0.000    0.000    0.000    0.000    3.000 
#    0.000    0.000    0.000    0.000    0.000    0.000 
#
# Total GULP energy -156282.805729 kJ/mol
# GULP energy per Si atom -5581.528776 kJ/mol
# Density = 1.874338 g / cm^3
# Si number density = 18.786137 Si / 1000 Ang^3
#
#
#
# Elastic Constant Matrix: (Units=GPa)
#
#
# Indices 1 2 3 4 5 6 
#
# 1 66.3024 15.4655 28.0575 0.0000 8.8569 0.0000
# 2 15.4655 117.9020 39.8527 0.0000 1.7078 0.0000
# 3 28.0575 39.8527 75.2232 0.0000 0.0427 0.0000
# 4 0.0000 0.0000 0.0000 25.9672 0.0000 -6.9210
# 5 8.8569 1.7078 0.0427 0.0000 13.3469 0.0000
# 6 0.0000 0.0000 0.0000 -6.9210 0.0000 11.7865
#
#
#
# Elastic Compliance Matrix: (Units=1/GPa)
#
#
# Indices 1 2 3 4 5 6 
#
# 1 0.020009 0.000107 -0.007512 0.000000 -0.013267 0.000000
# 2 0.000107 0.010355 -0.005525 0.000000 -0.001378 0.000000
# 3 -0.007512 -0.005525 0.019020 0.000000 0.005631 0.000000
# 4 0.000000 0.000000 0.000000 0.045656 0.000000 0.026809
# 5 -0.013267 -0.001378 0.005631 0.000000 0.083886 0.000000
# 6 0.000000 0.000000 0.000000 0.026809 0.000000 0.100585
#
#
# Mechanical properties :
#
#
# Convention : Reuss Voigt Hill
#
# Bulk Modulus (GPa) = 42.51213 47.35321 44.93267
# Shear Modulus (GPa) = 15.96361 21.95691 18.96026
#
# Velocity S-wave (km/s) = 2.91822 3.42245 3.18035
# Velocity P-wave (km/s) = 5.83381 6.39365 6.12013
#
# Compressibility (1/GPa) = 0.02352270
#
# Stress axis : x y z
#
# Youngs Moduli (GPa) = 49.97816 96.57025 52.57705
#
# Poissons Ratio (x) = -0.01031 0.39496
# Poissons Ratio (y) = -0.00534 0.29050
# Poissons Ratio (z) = 0.37544 0.53356
#
# Static dielectric constant tensor:
#      x y z
#    x 1.686460 0.000000 0.006040 
#    y 0.000000 1.678630 0.000000 
#    z 0.006040 0.000000 1.638560 
# 
# From -- ./inp_files/146246.got.cif
#   From: 2010.05.17/outbox.cif.g08.bks.cpg/sg12_74_cif.got.tgz:146246.got - 2010.06.03 13:09:07.
