data_PCOD9200615
_publ_section_title
;
Structure prediction by ZEFSAII (Michael W. Deem and Ramdas Pophale) SiO2 
 PCOD9200615
Probable space group: C 2/M
;
_chemical_formula_sum "Si O2"
_cell_formula_units_Z 64
_cell_length_a 29.437324
_cell_length_b 7.817378
_cell_length_c 24.207626
_cell_angle_alpha 90.000000
_cell_angle_beta 148.417443
_cell_angle_gamma 90.000000
_cell_volume 2917.536245
_symmetry_space_group_name_H-M "C 2/M"
_symmetry_group_IT_number 12
_symmetry_cell_setting 'monoclinic'
loop_
_space_group_symop_operation_xyz
x,y,z
-x,y,-z
-x,-y,-z
x,-y,z
1/2+x,1/2+y,z
1/2-x,1/2+y,-z
1/2-x,1/2-y,-z
1/2+x,1/2-y,z
loop_
_atom_site_type_symbol
_atom_site_label
_atom_site_fract_x
_atom_site_fract_y
_atom_site_fract_z
Si Si1 0.745628 0.794361 0.664906
Si Si2 0.365507 0.707336 0.272279
Si Si3 0.471620 0.290259 0.707365
Si Si4 0.659116 0.295546 0.879713
Si Si5 0.376952 0.700202 0.716244
Si Si6 0.306699 0.299386 0.843379
Si Si7 0.553352 0.705580 0.445214
Si Si8 0.510563 0.198700 0.947835
O O1 0.790708 0.726976 0.655879
O O2 0.798035 0.728809 0.772221
O O3 0.644685 0.754919 0.565319
O O4 0.754500 0.000000 0.674445
O O5 0.362540 0.500000 0.273251
O O6 0.346063 0.760763 0.189112
O O7 0.287994 0.776499 0.228698
O O8 0.465349 0.762971 0.384775
O O9 0.469244 0.500000 0.705775
O O10 0.571786 0.235845 0.819850
O O11 0.410954 0.225695 0.693791
O O12 0.447841 0.236964 0.620333
O O13 0.653292 0.500000 0.872389
O O14 0.750000 0.250000 0.000000
O O15 0.360329 0.500000 0.688520
O O16 0.452008 0.713514 0.840686
O O17 0.326885 0.500000 0.862557
O O18 0.386750 0.214290 0.957754
O O19 0.548650 0.500000 0.439203
O O20 0.485535 0.000000 0.922344
O O21 0.500000 0.266797 0.000000
#
# Coordination Sequence:
#
# PCOD9200615 Si02
#       8
#     8   8   8   8   8   8   8   8
#     4  10  22  37  55  82 113 144 184 235 281 326
#     4   9  20  38  56  79 112 146 184 235 281 327
#     4   8  17  35  57  80 107 144 184 224 272 329
#     4   9  18  33  52  77 109 140 180 229 274 327
#     4  10  20  37  59  82 113 150 187 225 273 335
#     4  11  23  38  57  82 113 150 189 228 276 337
#     4   9  19  38  61  81 109 147 186 230 281 332
#     4  11  23  38  57  82 115 149 184 232 279 326
#
# _framework density 21.936316999999999
#
# number of rings (size 3 to 8) (size 9 to 14) (size 15 to 20)
#    0.000    2.375    1.250    2.250    1.750    4.000 
#    0.000    5.000    0.000    0.000    0.000    0.000 
#    0.000    0.000    0.000    0.000    0.000    0.000 
#
# Total GULP energy -178610.769573 kJ/mol
# GULP energy per Si atom -5581.586549 kJ/mol
# Density = 2.188639 g / cm^3
# Si number density = 21.936317 Si / 1000 Ang^3
#
#
#
# Elastic Constant Matrix: (Units=GPa)
#
#
# Indices 1 2 3 4 5 6 
#
# 1 72.1528 4.5865 -15.3536 0.0000 22.2916 0.0000
# 2 4.5865 27.6189 -8.9939 0.0000 0.8733 0.0000
# 3 -15.3536 -8.9939 64.3863 0.0000 25.3774 0.0000
# 4 0.0000 0.0000 0.0000 23.2189 0.0000 5.1889
# 5 22.2916 0.8733 25.3774 0.0000 27.0870 0.0000
# 6 0.0000 0.0000 0.0000 5.1889 0.0000 15.4440
#
#
#
# Elastic Compliance Matrix: (Units=1/GPa)
#
#
# Indices 1 2 3 4 5 6 
#
# 1 0.048723 0.009443 0.045759 0.000000 -0.083272 0.000000
# 2 0.009443 0.041481 0.018448 0.000000 -0.026392 0.000000
# 3 0.045759 0.018448 0.069913 0.000000 -0.103753 0.000000
# 4 0.000000 0.000000 0.000000 0.046565 0.000000 -0.015645
# 5 -0.083272 -0.026392 -0.103753 0.000000 0.203503 0.000000
# 6 0.000000 0.000000 0.000000 -0.015645 0.000000 0.070007
#
#
# Mechanical properties :
#
#
# Convention : Reuss Voigt Hill
#
# Bulk Modulus (GPa) = 3.25291 13.84847 8.55069
# Shear Modulus (GPa) = 11.48461 25.41125 18.44793
#
# Velocity S-wave (km/s) = 2.29059 3.40723 2.90311
# Velocity P-wave (km/s) = 2.91236 4.66966 3.89150
#
# Compressibility (1/GPa) = 0.30741687
#
# Stress axis : x y z
#
# Youngs Moduli (GPa) = 20.52408 24.10740 14.30343
#
# Poissons Ratio (x) = -0.22764 -0.65451
# Poissons Ratio (y) = -0.19380 -0.26387
# Poissons Ratio (z) = -0.93916 -0.44474
#
# Static dielectric constant tensor:
#      x y z
#    x 1.845550 0.000000 0.015000 
#    y 0.000000 1.825840 0.000000 
#    z 0.015000 0.000000 1.802270 
# 
# From -- ./inp_files/353456.got.cif
#   From: 2010.05.17/outbox.cif.g08.bks.cpg/sg12_177_cif.got.tgz:353456.got - 2010.06.03 13:09:07.
