data_PCOD9200369
_publ_section_title
;
Structure prediction by ZEFSAII (Michael W. Deem and Ramdas Pophale) SiO2 
 PCOD9200369
Probable space group: C 2/M
;
_chemical_formula_sum "Si O2"
_cell_formula_units_Z 56
_cell_length_a 29.655921
_cell_length_b 7.546148
_cell_length_c 11.521675
_cell_angle_alpha 90.000000
_cell_angle_beta 112.246368
_cell_angle_gamma 90.000000
_cell_volume 2386.486855
_symmetry_space_group_name_H-M "C 2/M"
_symmetry_group_IT_number 12
_symmetry_cell_setting 'monoclinic'
loop_
_space_group_symop_operation_xyz
x,y,z
-x,y,-z
-x,-y,-z
x,-y,z
1/2+x,1/2+y,z
1/2-x,1/2+y,-z
1/2-x,1/2-y,-z
1/2+x,1/2-y,z
loop_
_atom_site_type_symbol
_atom_site_label
_atom_site_fract_x
_atom_site_fract_y
_atom_site_fract_z
Si Si1 0.122203 0.292968 0.963192
Si Si2 0.332688 0.712662 0.749838
Si Si3 0.224202 0.283427 0.636374
Si Si4 0.019075 0.796709 0.395818
Si Si5 0.123757 0.706737 0.434672
Si Si6 0.987001 0.202117 0.114216
Si Si7 0.703386 0.211949 0.876314
O O1 0.111380 0.500000 0.932360
O O2 0.155325 0.277056 0.109963
O O3 0.071283 0.199645 0.934741
O O4 0.154417 0.219909 0.888887
O O5 0.332305 0.500000 0.751532
O O6 0.278744 0.777073 0.658868
O O7 0.374481 0.773869 0.702397
O O8 0.225073 0.500000 0.630212
O O9 0.176564 0.220292 0.522466
O O10 0.214366 0.226794 0.758443
O O11 0.077584 0.794352 0.448944
O O12 0.000000 0.719268 0.500000
O O13 0.004166 0.717412 0.255036
O O14 0.000612 0.000000 0.375569
O O15 0.121595 0.500000 0.463658
O O16 0.007187 0.000000 0.131699
O O17 0.000000 0.281592 0.000000
O O18 0.697925 0.000000 0.864974
O O19 0.750000 0.250000 0.000000
#
# Coordination Sequence:
#
# PCOD9200369 Si02
#       7
#     8   8   8   8   8   8   8
#     4  11  23  36  60  93 123 152 195 251 301 354
#     4  11  21  38  62  86 122 165 200 237 292 358
#     4   9  20  37  58  85 120 160 197 238 292 356
#     4  10  23  43  63  88 122 160 207 256 303 365
#     4  11  23  39  62  89 120 155 200 251 302 354
#     4  10  22  41  64  87 116 159 206 251 305 367
#     4  10  20  37  57  84 120 157 196 241 293 351
#
# _framework density 23.465454000000001
#
# number of rings (size 3 to 8) (size 9 to 14) (size 15 to 20)
#    0.000    1.714    1.429    2.571    2.000    2.857 
#    0.000    3.571    0.000    0.000    0.000    0.000 
#    0.000    0.000    0.000    0.000    0.000    0.000 
#
# Total GULP energy -156442.075254 kJ/mol
# GULP energy per Si atom -5587.216973 kJ/mol
# Density = 2.341205 g / cm^3
# Si number density = 23.465454 Si / 1000 Ang^3
#
#
#
# Elastic Constant Matrix: (Units=GPa)
#
#
# Indices 1 2 3 4 5 6 
#
# 1 175.3482 -2.4478 53.4482 0.0000 -28.2413 0.0000
# 2 -2.4478 68.6011 -4.7036 0.0000 -1.1623 0.0000
# 3 53.4482 -4.7036 117.4539 0.0000 -23.6138 0.0000
# 4 0.0000 0.0000 0.0000 6.8601 0.0000 5.7906
# 5 -28.2413 -1.1623 -23.6138 0.0000 46.3867 0.0000
# 6 0.0000 0.0000 0.0000 5.7906 0.0000 17.9015
#
#
#
# Elastic Compliance Matrix: (Units=1/GPa)
#
#
# Indices 1 2 3 4 5 6 
#
# 1 0.006961 0.000122 -0.002574 0.000000 0.002931 0.000000
# 2 0.000122 0.014642 0.000690 0.000000 0.000792 0.000000
# 3 -0.002574 0.000690 0.010473 0.000000 0.003782 0.000000
# 4 0.000000 0.000000 0.000000 0.200520 0.000000 -0.064862
# 5 0.002931 0.000792 0.003782 0.000000 0.025287 0.000000
# 6 0.000000 0.000000 0.000000 -0.064862 0.000000 0.076842
#
#
# Mechanical properties :
#
#
# Convention : Reuss Voigt Hill
#
# Bulk Modulus (GPa) = 35.02252 50.44408 42.73330
# Shear Modulus (GPa) = 14.37745 35.23676 24.80710
#
# Velocity S-wave (km/s) = 2.47798 3.87931 3.25495
# Velocity P-wave (km/s) = 4.81089 6.45052 5.69008
#
# Compressibility (1/GPa) = 0.02855306
#
# Stress axis : x y z
#
# Youngs Moduli (GPa) = 143.65422 68.29612 95.48285
#
# Poissons Ratio (x) = -0.00830 0.24573
# Poissons Ratio (y) = -0.01747 -0.06591
# Poissons Ratio (z) = 0.36970 -0.04715
#
# Static dielectric constant tensor:
#      x y z
#    x 1.835910 0.000000 -0.002410 
#    y 0.000000 1.906040 0.000000 
#    z -0.002410 0.000000 1.910590 
# 
# From -- ./inp_files/180657.got.cif
#   From: 2010.05.17/outbox.cif.g08.bks.cpg/sg12_91_cif.got.tgz:180657.got - 2010.06.03 13:09:07.
