data_PCOD9200559
_publ_section_title
;
Structure prediction by ZEFSAII (Michael W. Deem and Ramdas Pophale) SiO2 
 PCOD9200559
Probable space group: C 2/M
;
_chemical_formula_sum "Si O2"
_cell_formula_units_Z 58
_cell_length_a 20.184771
_cell_length_b 9.665401
_cell_length_c 25.401232
_cell_angle_alpha 90.000000
_cell_angle_beta 140.458478
_cell_angle_gamma 90.000000
_cell_volume 3154.935812
_symmetry_space_group_name_H-M "C 2/M"
_symmetry_group_IT_number 12
_symmetry_cell_setting 'monoclinic'
loop_
_space_group_symop_operation_xyz
x,y,z
-x,y,-z
-x,-y,-z
x,-y,z
1/2+x,1/2+y,z
1/2-x,1/2+y,-z
1/2-x,1/2-y,-z
1/2+x,1/2-y,z
loop_
_atom_site_type_symbol
_atom_site_label
_atom_site_fract_x
_atom_site_fract_y
_atom_site_fract_z
Si Si1 0.006836 0.163931 0.768690
Si Si2 0.048381 0.664065 0.472036
Si Si3 0.216426 0.336133 0.236059
Si Si4 0.267435 0.337708 0.649614
Si Si5 0.000000 0.000000 0.000000
Si Si6 0.991500 0.719695 0.051841
Si Si7 0.927595 0.836114 0.310295
Si Si8 0.354661 0.839757 0.065903
O O1 0.043601 0.195620 0.732049
O O2 0.066313 0.261749 0.846094
O O3 0.882553 0.183873 0.697307
O O4 0.028112 0.000000 0.792364
O O5 0.031867 0.500000 0.453228
O O6 0.171868 0.691307 0.552016
O O7 0.000000 0.697028 0.500000
O O8 0.994157 0.750308 0.393080
O O9 0.212093 0.500000 0.243522
O O10 0.244481 0.254984 0.306084
O O11 0.306329 0.309388 0.248447
O O12 0.104590 0.287559 0.147637
O O13 0.258180 0.500000 0.658807
O O14 0.032534 0.122356 0.977984
O O15 0.908022 0.662292 0.041115
O O16 0.000000 0.648810 0.000000
O O17 0.946091 0.000000 0.329887
O O18 0.337177 0.000000 0.070469
O O19 0.250000 0.750000 0.000000
#
# Coordination Sequence:
#
# PCOD9200559 Si02
#       8
#     8   8   8   8   2   8   8   8
#     4  10  23  42  63  88 123 162 206 249 307 373
#     4  10  20  37  58  90 121 156 202 249 301 359
#     4  11  22  37  61  89 122 155 202 254 306 359
#     4  10  21  37  63  87 118 161 203 247 300 364
#     4   8  24  40  66  96 124 158 208 256 306 380
#     4  10  24  42  65  93 125 159 208 254 307 370
#     4  10  23  40  59  90 122 158 198 251 308 363
#     4  12  27  43  65  92 127 167 208 257 312 371
#
# _framework density 18.383893
#
# number of rings (size 3 to 8) (size 9 to 14) (size 15 to 20)
#    0.414    1.241    2.759    0.828    4.828    3.034 
#    0.000    0.000    0.000    0.000    0.000    0.000 
#    0.000    0.000    0.000    0.000    0.000    0.000 
#
# Total GULP energy -161585.497152 kJ/mol
# GULP energy per Si atom -5571.913695 kJ/mol
# Density = 1.834205 g / cm^3
# Si number density = 18.383893 Si / 1000 Ang^3
#
#
#
# Elastic Constant Matrix: (Units=GPa)
#
#
# Indices 1 2 3 4 5 6 
#
# 1 113.8506 38.5509 30.0960 0.0000 -4.3619 0.0000
# 2 38.5509 76.2622 23.7779 0.0000 -1.2778 0.0000
# 3 30.0960 23.7779 59.2817 0.0000 6.4187 0.0000
# 4 0.0000 0.0000 0.0000 39.6198 0.0000 9.9564
# 5 -4.3619 -1.2778 6.4187 0.0000 30.1160 0.0000
# 6 0.0000 0.0000 0.0000 9.9564 0.0000 29.0516
#
#
#
# Elastic Compliance Matrix: (Units=1/GPa)
#
#
# Indices 1 2 3 4 5 6 
#
# 1 0.011522 -0.004434 -0.004331 0.000000 0.002404 0.000000
# 2 -0.004434 0.016807 -0.004604 0.000000 0.001052 0.000000
# 3 -0.004331 -0.004604 0.021500 0.000000 -0.005405 0.000000
# 4 0.000000 0.000000 0.000000 0.027619 0.000000 -0.009465
# 5 0.002404 0.001052 -0.005405 0.000000 0.034750 0.000000
# 6 0.000000 0.000000 0.000000 -0.009465 0.000000 0.037665
#
#
# Mechanical properties :
#
#
# Convention : Reuss Voigt Hill
#
# Bulk Modulus (GPa) = 43.30915 48.24933 45.77924
# Shear Modulus (GPa) = 27.13008 30.22212 28.67610
#
# Velocity S-wave (km/s) = 3.84572 4.05896 3.95378
# Velocity P-wave (km/s) = 6.58246 6.94761 6.76750
#
# Compressibility (1/GPa) = 0.02308981
#
# Stress axis : x y z
#
# Youngs Moduli (GPa) = 86.79239 59.49865 46.51259
#
# Poissons Ratio (x) = 0.26379 0.20146
# Poissons Ratio (y) = 0.38480 0.21416
# Poissons Ratio (z) = 0.37592 0.27396
#
# Static dielectric constant tensor:
#      x y z
#    x 1.640260 0.000000 0.009210 
#    y 0.000000 1.618060 0.000000 
#    z 0.009210 0.000000 1.623300 
# 
# From -- ./inp_files/346557.got.cif
#   From: 2010.05.17/outbox.cif.g08.bks.cpg/sg12_174_cif.got.tgz:346557.got - 2010.06.03 13:09:07.
