data_PCOD9200042
_publ_section_title
;
Structure prediction by ZEFSAII (Michael W. Deem and Ramdas Pophale) SiO2 
 PCOD9200042
Probable space group: C 2/M
;
_chemical_formula_sum "Si O2"
_cell_formula_units_Z 64
_cell_length_a 14.653086
_cell_length_b 22.866764
_cell_length_c 8.911112
_cell_angle_alpha 90.000000
_cell_angle_beta 89.088154
_cell_angle_gamma 90.000000
_cell_volume 2985.456237
_symmetry_space_group_name_H-M "C 2/M"
_symmetry_group_IT_number 12
_symmetry_cell_setting 'monoclinic'
loop_
_space_group_symop_operation_xyz
x,y,z
-x,y,-z
-x,-y,-z
x,-y,z
1/2+x,1/2+y,z
1/2-x,1/2+y,-z
1/2-x,1/2-y,-z
1/2+x,1/2-y,z
loop_
_atom_site_type_symbol
_atom_site_label
_atom_site_fract_x
_atom_site_fract_y
_atom_site_fract_z
Si Si1 0.298279 0.226274 0.644256
Si Si2 0.409715 0.142588 0.092098
Si Si3 0.907212 0.160143 0.600000
Si Si4 0.762192 0.393713 0.586262
Si Si5 0.417467 0.065086 0.385269
Si Si6 0.408553 0.387885 0.927789
Si Si7 0.234979 0.565276 0.076350
Si Si8 0.661453 0.729819 0.911220
O O1 0.250000 0.250000 0.500000
O O2 0.372701 0.276689 0.668025
O O3 0.331507 0.161159 0.614448
O O4 0.212249 0.215903 0.755746
O O5 0.411188 0.112631 0.254201
O O6 0.399310 0.212532 0.104714
O O7 0.500000 0.128396 0.000000
O O8 0.329358 0.114763 0.993840
O O9 0.827245 0.130518 0.499631
O O10 0.919615 0.122209 0.750376
O O11 0.000000 0.166061 0.500000
O O12 0.821853 0.433858 0.476679
O O13 0.743703 0.421374 0.749433
O O14 0.500000 0.075178 0.500000
O O15 0.431961 0.000000 0.319274
O O16 0.500000 0.410494 0.000000
O O17 0.325550 0.429155 0.974816
O O18 0.385759 0.325317 0.010284
O O19 0.195334 0.500000 0.066022
O O20 0.750000 0.750000 0.000000
#
# Coordination Sequence:
#
# PCOD9200042 Si02
#       8
#     8   8   8   8   8   8   8   8
#     4  10  20  36  63  90 128 172 212 266 327 399
#     4  12  25  43  69 103 139 178 230 280 346 413
#     4  11  24  41  64  99 135 178 222 272 342 407
#     4  11  22  43  65  94 134 174 224 280 339 404
#     4  11  25  45  68  97 137 183 232 286 339 402
#     4  12  25  44  70  97 138 178 228 285 339 412
#     4  12  25  44  72 100 133 180 230 286 342 405
#     4  12  21  43  68  98 135 177 224 275 347 407
#
# _framework density 21.437260999999999
#
# number of rings (size 3 to 8) (size 9 to 14) (size 15 to 20)
#    0.000    0.625    3.750    4.875    1.750    2.750 
#    4.500    0.625    0.000    2.625    0.000    0.000 
#    0.000    0.000    0.000    0.000    0.000    0.000 
#
# Total GULP energy -178703.389874 kJ/mol
# GULP energy per Si atom -5584.480934 kJ/mol
# Density = 2.138847 g / cm^3
# Si number density = 21.437261 Si / 1000 Ang^3
#
#
#
# Elastic Constant Matrix: (Units=GPa)
#
#
# Indices 1 2 3 4 5 6 
#
# 1 100.8179 -2.8434 15.6094 0.0000 -11.4708 0.0000
# 2 -2.8434 78.4065 10.5885 0.0000 -2.3879 0.0000
# 3 15.6094 10.5885 118.8947 0.0000 -12.4778 0.0000
# 4 0.0000 0.0000 0.0000 18.0651 0.0000 1.3706
# 5 -11.4708 -2.3879 -12.4778 0.0000 35.6662 0.0000
# 6 0.0000 0.0000 0.0000 1.3706 0.0000 9.2228
#
#
#
# Elastic Compliance Matrix: (Units=1/GPa)
#
#
# Indices 1 2 3 4 5 6 
#
# 1 0.010451 0.000621 -0.001111 0.000000 0.003014 0.000000
# 2 0.000621 0.012954 -0.001166 0.000000 0.000659 0.000000
# 3 -0.001111 -0.001166 0.008943 0.000000 0.002693 0.000000
# 4 0.000000 0.000000 0.000000 0.055987 0.000000 -0.008320
# 5 0.003014 0.000659 0.002693 0.000000 0.029994 0.000000
# 6 0.000000 0.000000 0.000000 -0.008320 0.000000 0.109664
#
#
# Mechanical properties :
#
#
# Convention : Reuss Voigt Hill
#
# Bulk Modulus (GPa) = 34.43982 38.31424 36.37703
# Shear Modulus (GPa) = 20.74829 30.90846 25.82838
#
# Velocity S-wave (km/s) = 3.11442 3.80124 3.47484
# Velocity P-wave (km/s) = 5.38824 6.09733 5.75372
#
# Compressibility (1/GPa) = 0.02903616
#
# Stress axis : x y z
#
# Youngs Moduli (GPa) = 95.68137 77.19566 111.81705
#
# Poissons Ratio (x) = -0.04793 0.12424
# Poissons Ratio (y) = -0.05940 0.13038
# Poissons Ratio (z) = 0.10631 0.09001
#
# Static dielectric constant tensor:
#      x y z
#    x 1.703220 0.000000 0.052500 
#    y 0.000000 1.840650 0.000000 
#    z 0.052500 0.000000 1.765930 
# 
# From -- ./inp_files/65893.got.cif
#   From: 2010.05.17/outbox.cif.g08.bks.cpg/sg12_33_cif.got.tgz:65893.got - 2010.06.03 13:09:07.
