data_PCOD9200923
_publ_section_title
;
Structure prediction by ZEFSAII (Michael W. Deem and Ramdas Pophale) SiO2 
 PCOD9200923
Probable space group: C 2/M
;
_chemical_formula_sum "Si O2"
_cell_formula_units_Z 58
_cell_length_a 17.557311
_cell_length_b 12.468242
_cell_length_c 29.516631
_cell_angle_alpha 90.000000
_cell_angle_beta 150.093482
_cell_angle_gamma 90.000000
_cell_volume 3221.590976
_symmetry_space_group_name_H-M "C 2/M"
_symmetry_group_IT_number 12
_symmetry_cell_setting 'monoclinic'
loop_
_space_group_symop_operation_xyz
x,y,z
-x,y,-z
-x,-y,-z
x,-y,z
1/2+x,1/2+y,z
1/2-x,1/2+y,-z
1/2-x,1/2-y,-z
1/2+x,1/2-y,z
loop_
_atom_site_type_symbol
_atom_site_label
_atom_site_fract_x
_atom_site_fract_y
_atom_site_fract_z
Si Si1 0.246752 0.375073 0.856536
Si Si2 0.871488 0.758158 0.833105
Si Si3 0.005768 0.873121 0.190896
Si Si4 0.432537 0.242335 0.686275
Si Si5 0.833300 0.685203 0.966564
Si Si6 0.437702 0.372801 0.330866
Si Si7 0.000000 0.500000 0.000000
Si Si8 0.108003 0.872144 0.513655
O O1 0.271624 0.500000 0.878060
O O2 0.325511 0.336906 0.850539
O O3 0.310144 0.297407 0.928465
O O4 0.067038 0.346283 0.759589
O O5 0.732431 0.675462 0.755877
O O6 0.902643 0.823104 0.803626
O O7 0.025283 0.696134 0.926572
O O8 0.825557 0.847034 0.092330
O O9 0.054944 0.815947 0.262764
O O10 0.027262 0.000000 0.204557
O O11 0.473194 0.313641 0.663516
O O12 0.267628 0.189296 0.597437
O O13 0.879124 0.594350 0.954026
O O14 0.431905 0.500000 0.319800
O O15 0.520674 0.352792 0.421439
O O16 0.000000 0.840944 0.500000
O O17 0.136193 0.000000 0.531776
#
# Coordination Sequence:
#
# PCOD9200923 Si02
#       8
#     8   8   8   8   8   8   2   8
#     4  10  21  37  57  84 112 150 195 236 284 344
#     4  11  22  37  55  85 114 153 188 232 294 337
#     4  11  23  38  56  82 118 151 189 237 289 344
#     4  10  21  37  60  84 114 150 191 238 285 339
#     4  11  23  37  61  84 114 155 197 244 286 337
#     4  10  22  37  61  88 112 147 196 237 284 348
#     4  12  20  40  62  84 112 152 206 246 288 332
#     4  10  20  37  60  86 116 150 184 237 296 347
#
# _framework density 18.003527999999999
#
# number of rings (size 3 to 8) (size 9 to 14) (size 15 to 20)
#    0.000    1.517    2.069    2.897    0.966    1.655 
#    0.000    2.759    0.000    9.931    0.000    0.000 
#    0.000    0.000    0.000    0.000    0.000    0.000 
#
# Total GULP energy -161799.775484 kJ/mol
# GULP energy per Si atom -5579.302603 kJ/mol
# Density = 1.796255 g / cm^3
# Si number density = 18.003528 Si / 1000 Ang^3
#
#
#
# Elastic Constant Matrix: (Units=GPa)
#
#
# Indices 1 2 3 4 5 6 
#
# 1 95.5490 22.4061 44.5503 0.0000 5.4048 0.0000
# 2 22.4061 96.7224 51.5136 0.0000 8.7350 0.0000
# 3 44.5503 51.5136 118.5393 0.0002 15.7956 0.0000
# 4 0.0000 0.0000 0.0002 13.2574 0.0000 3.7069
# 5 5.4048 8.7350 15.7956 0.0000 23.0804 0.0000
# 6 0.0000 0.0000 0.0000 3.7069 0.0000 14.7284
#
#
#
# Elastic Compliance Matrix: (Units=1/GPa)
#
#
# Indices 1 2 3 4 5 6 
#
# 1 0.012712 -0.000530 -0.004597 0.000000 0.000369 0.000000
# 2 -0.000530 0.013505 -0.005507 0.000000 -0.001218 0.000000
# 3 -0.004597 -0.005507 0.013353 0.000000 -0.005978 0.000000
# 4 0.000000 0.000000 0.000000 0.081140 0.000000 -0.020422
# 5 0.000369 -0.001218 -0.005978 0.000000 0.047793 0.000000
# 6 0.000000 0.000000 0.000000 -0.020422 0.000000 0.073036
#
#
# Mechanical properties :
#
#
# Convention : Reuss Voigt Hill
#
# Bulk Modulus (GPa) = 54.63663 60.86116 57.74890
# Shear Modulus (GPa) = 18.59373 23.03593 20.81483
#
# Velocity S-wave (km/s) = 3.21718 3.58092 3.40391
# Velocity P-wave (km/s) = 6.64936 7.13974 6.89891
#
# Compressibility (1/GPa) = 0.01830274
#
# Stress axis : x y z
#
# Youngs Moduli (GPa) = 78.66324 74.04788 74.88737
#
# Poissons Ratio (x) = 0.03926 0.34422
# Poissons Ratio (y) = 0.04171 0.41242
# Poissons Ratio (z) = 0.36158 0.40780
#
# Static dielectric constant tensor:
#      x y z
#    x 1.608410 0.000000 -0.005310 
#    y 0.000000 1.581350 0.000000 
#    z -0.005310 0.000000 1.609680 
# 
# From -- ./inp_files/363802.got.cif
#   From: 2010.05.17/outbox.cif.g08.bks.cpg/sg12_182_cif.got.tgz:363802.got - 2010.06.03 13:09:07.
