data_PCOD9200411
_publ_section_title
;
Structure prediction by ZEFSAII (Michael W. Deem and Ramdas Pophale) SiO2 
 PCOD9200411
Probable space group: C 2/M
;
_chemical_formula_sum "Si O2"
_cell_formula_units_Z 40
_cell_length_a 23.998872
_cell_length_b 8.203405
_cell_length_c 15.206828
_cell_angle_alpha 90.000000
_cell_angle_beta 31.496357
_cell_angle_gamma 90.000000
_cell_volume 1564.096895
_symmetry_space_group_name_H-M "C 2/M"
_symmetry_group_IT_number 12
_symmetry_cell_setting 'monoclinic'
loop_
_space_group_symop_operation_xyz
x,y,z
-x,y,-z
-x,-y,-z
x,-y,z
1/2+x,1/2+y,z
1/2-x,1/2+y,-z
1/2-x,1/2-y,-z
1/2+x,1/2-y,z
loop_
_atom_site_type_symbol
_atom_site_label
_atom_site_fract_x
_atom_site_fract_y
_atom_site_fract_z
Si Si1 0.919779 0.683566 0.997636
Si Si2 0.128212 0.310708 0.309959
Si Si3 0.403639 0.311532 0.835416
Si Si4 0.858615 0.812502 0.262682
Si Si5 0.643882 0.800910 0.480482
O O1 0.897436 0.500000 0.056760
O O2 0.872056 0.716368 0.965955
O O3 0.048741 0.707084 0.817939
O O4 0.886696 0.804831 0.119865
O O5 0.157837 0.500000 0.261646
O O6 0.173090 0.245424 0.341652
O O7 0.000000 0.305031 0.500000
O O8 0.147331 0.230601 0.190114
O O9 0.389815 0.500000 0.872600
O O10 0.528938 0.271359 0.654632
O O11 0.736324 0.753571 0.423814
O O12 0.865264 0.000000 0.283167
O O13 0.636645 0.000000 0.489174
#
# Coordination Sequence:
#
# PCOD9200411 Si02
#       5
#     8   8   8   8   8
#     4  11  22  37  55  75 104 141 176 211 260 313
#     4   8  15  31  52  75 105 138 169 205 257 312
#     4  11  21  33  53  80 107 137 176 218 255 298
#     4  10  20  37  58  79 104 134 172 215 260 310
#     4   9  19  35  56  80 107 138 169 209 261 312
#
# _framework density 25.573864
#
# number of rings (size 3 to 8) (size 9 to 14) (size 15 to 20)
#    0.000    2.200    0.000    6.600    0.000    6.000 
#    0.000    1.000    0.000    0.000    0.000    0.000 
#    0.000    0.000    0.000    0.000    0.000    0.000 
#
# Total GULP energy -111950.759371 kJ/mol
# GULP energy per Si atom -5597.537969 kJ/mol
# Density = 2.551566 g / cm^3
# Si number density = 25.573864 Si / 1000 Ang^3
#
#
#
# Elastic Constant Matrix: (Units=GPa)
#
#
# Indices 1 2 3 4 5 6 
#
# 1 169.2918 7.3314 20.9658 -0.0006 11.8691 0.0002
# 2 7.3314 76.6750 -7.8553 -0.0017 6.0641 0.0009
# 3 20.9658 -7.8553 88.7662 -0.0012 2.5965 0.0005
# 4 -0.0006 -0.0017 -0.0012 13.1604 0.0005 8.5779
# 5 11.8691 6.0641 2.5965 0.0005 46.3723 -0.0001
# 6 0.0002 0.0009 0.0005 8.5779 -0.0001 26.7657
#
#
#
# Elastic Compliance Matrix: (Units=1/GPa)
#
#
# Indices 1 2 3 4 5 6 
#
# 1 0.006218 -0.000634 -0.001483 0.000000 -0.001426 0.000000
# 2 -0.000634 0.013376 0.001382 0.000003 -0.001664 -0.000001
# 3 -0.001483 0.001382 0.011752 0.000002 -0.000459 -0.000001
# 4 0.000000 0.000003 0.000002 0.096049 -0.000002 -0.030782
# 5 -0.001426 -0.001664 -0.000459 -0.000002 0.022173 0.000001
# 6 0.000000 -0.000001 -0.000001 -0.030782 0.000001 0.047226
#
#
# Mechanical properties :
#
#
# Convention : Reuss Voigt Hill
#
# Bulk Modulus (GPa) = 33.47160 41.73519 37.60339
# Shear Modulus (GPa) = 24.01281 38.21241 31.11261
#
# Velocity S-wave (km/s) = 3.06757 3.86968 3.49173
# Velocity P-wave (km/s) = 5.06589 6.02667 5.56705
#
# Compressibility (1/GPa) = 0.02987607
#
# Stress axis : x y z
#
# Youngs Moduli (GPa) = 160.82294 74.76142 85.09505
#
# Poissons Ratio (x) = 0.04738 0.12620
# Poissons Ratio (y) = 0.10192 -0.11761
# Poissons Ratio (z) = 0.23850 -0.10332
#
# Static dielectric constant tensor:
#      x y z
#    x 2.047150 0.000000 -0.040480 
#    y 0.000000 1.854550 0.000000 
#    z -0.040480 0.000000 2.141860 
# 
# From -- ./inp_files/221240.got.cif
#   From: 2010.05.17/outbox.cif.g08.bks.cpg/sg12_111_cif.got.tgz:221240.got - 2010.06.03 13:09:07.
