data_PCOD9200263
_publ_section_title
;
Structure prediction by ZEFSAII (Michael W. Deem and Ramdas Pophale) SiO2 
 PCOD9200263
Probable space group: C 2/M
;
_chemical_formula_sum "Si O2"
_cell_formula_units_Z 34
_cell_length_a 9.956822
_cell_length_b 10.160672
_cell_length_c 25.681609
_cell_angle_alpha 90.000000
_cell_angle_beta 40.911599
_cell_angle_gamma 90.000000
_cell_volume 1701.517007
_symmetry_space_group_name_H-M "C 2/M"
_symmetry_group_IT_number 12
_symmetry_cell_setting 'monoclinic'
loop_
_space_group_symop_operation_xyz
x,y,z
-x,y,-z
-x,-y,-z
x,-y,z
1/2+x,1/2+y,z
1/2-x,1/2+y,-z
1/2-x,1/2-y,-z
1/2+x,1/2-y,z
loop_
_atom_site_type_symbol
_atom_site_label
_atom_site_fract_x
_atom_site_fract_y
_atom_site_fract_z
Si Si1 0.000000 0.500000 0.000000
Si Si2 0.270564 0.653385 0.589343
Si Si3 0.349780 0.851780 0.160005
Si Si4 0.213905 0.765689 0.927698
Si Si5 0.575270 0.650740 0.343780
O O1 0.166147 0.620205 0.964654
O O2 0.500000 0.669478 0.500000
O O3 0.211570 0.500000 0.599969
O O4 0.288431 0.683101 0.645674
O O5 0.111256 0.749209 0.608343
O O6 0.580725 0.822321 0.109027
O O7 0.268066 0.755698 0.139601
O O8 0.209995 0.847244 0.251974
O O9 0.348811 0.000000 0.135962
O O10 0.000000 0.840511 0.000000
O O11 0.500951 0.500000 0.373380
#
# Coordination Sequence:
#
# PCOD9200263 Si02
#       5
#     2   8   8   8   8
#     4   8  20  36  54  78 108 136 186 224 268 312
#     4  10  21  39  58  82 113 144 181 225 268 325
#     4  11  21  38  55  80 111 141 178 226 268 319
#     4  10  20  37  56  76 109 143 179 225 268 312
#     4  10  22  37  57  84 113 143 182 225 273 324
#
# _framework density 19.982168999999999
#
# number of rings (size 3 to 8) (size 9 to 14) (size 15 to 20)
#    0.706    1.176    1.176    2.824    0.000    1.882 
#    4.235    0.000    0.000    0.000    0.000    0.000 
#    0.000    0.000    0.000    0.000    0.000    0.000 
#
# Total GULP energy -94668.032780 kJ/mol
# GULP energy per Si atom -5568.707811 kJ/mol
# Density = 1.993669 g / cm^3
# Si number density = 19.982169 Si / 1000 Ang^3
#
#
#
# Elastic Constant Matrix: (Units=GPa)
#
#
# Indices 1 2 3 4 5 6 
#
# 1 67.6602 15.0475 3.7231 0.0000 2.9186 0.0000
# 2 15.0475 56.1255 10.7862 0.0000 -18.0562 0.0000
# 3 3.7231 10.7862 38.4395 0.0002 -3.4537 0.0001
# 4 0.0000 0.0000 0.0002 13.5221 0.0000 -11.7359
# 5 2.9186 -18.0562 -3.4537 0.0000 37.2997 0.0000
# 6 0.0000 0.0000 0.0001 -11.7359 0.0000 31.4624
#
#
#
# Elastic Compliance Matrix: (Units=1/GPa)
#
#
# Indices 1 2 3 4 5 6 
#
# 1 0.016209 -0.005560 -0.000369 0.000000 -0.003994 0.000000
# 2 -0.005560 0.024028 -0.005163 0.000000 0.011589 0.000000
# 3 -0.000369 -0.005163 0.027506 -0.000001 0.000077 0.000000
# 4 0.000000 0.000000 -0.000001 0.109356 0.000000 0.040791
# 5 -0.003994 0.011589 0.000077 0.000000 0.032739 0.000000
# 6 0.000000 0.000000 0.000000 0.040791 0.000000 0.047000
#
#
# Mechanical properties :
#
#
# Convention : Reuss Voigt Hill
#
# Bulk Modulus (GPa) = 21.94856 24.59321 23.27088
# Shear Modulus (GPa) = 16.99482 25.30140 21.14811
#
# Velocity S-wave (km/s) = 2.91950 3.56223 3.25676
# Velocity P-wave (km/s) = 4.72996 5.40866 5.08066
#
# Compressibility (1/GPa) = 0.04556108
#
# Stress axis : x y z
#
# Youngs Moduli (GPa) = 61.69506 41.61788 36.35550
#
# Poissons Ratio (x) = 0.23138 0.01340
# Poissons Ratio (y) = 0.34300 0.18769
# Poissons Ratio (z) = 0.02275 0.21486
#
# Static dielectric constant tensor:
#      x y z
#    x 1.639850 0.000000 0.006450 
#    y 0.000000 1.713020 0.000000 
#    z 0.006450 0.000000 1.722140 
# 
# From -- ./inp_files/254455.got.cif
#   From: 2010.05.17/outbox.cif.g08.bks.cpg/sg12_128_cif.got.tgz:254455.got - 2010.06.03 13:09:07.
