data_PCOD9200400
_publ_section_title
;
Structure prediction by ZEFSAII (Michael W. Deem and Ramdas Pophale) SiO2 
 PCOD9200400
Probable space group: C 2/M
;
_chemical_formula_sum "Si O2"
_cell_formula_units_Z 48
_cell_length_a 19.508260
_cell_length_b 7.552133
_cell_length_c 25.403907
_cell_angle_alpha 90.000000
_cell_angle_beta 30.418498
_cell_angle_gamma 90.000000
_cell_volume 1894.990653
_symmetry_space_group_name_H-M "C 2/M"
_symmetry_group_IT_number 12
_symmetry_cell_setting 'monoclinic'
loop_
_space_group_symop_operation_xyz
x,y,z
-x,y,-z
-x,-y,-z
x,-y,z
1/2+x,1/2+y,z
1/2-x,1/2+y,-z
1/2-x,1/2-y,-z
1/2+x,1/2-y,z
loop_
_atom_site_type_symbol
_atom_site_label
_atom_site_fract_x
_atom_site_fract_y
_atom_site_fract_z
Si Si1 0.919220 0.294955 0.939400
Si Si2 0.676724 0.716049 0.828253
Si Si3 0.175686 0.703161 0.166399
Si Si4 0.176614 0.789650 0.493453
Si Si5 0.423312 0.794880 0.600769
Si Si6 0.069015 0.282668 0.735888
O O1 0.888816 0.500000 0.949863
O O2 0.026494 0.277783 0.915717
O O3 0.001276 0.222300 0.834966
O O4 0.779462 0.206598 0.048651
O O5 0.672065 0.500000 0.832367
O O6 0.744313 0.781299 0.837429
O O7 0.779743 0.778820 0.714303
O O8 0.147917 0.500000 0.198816
O O9 0.033537 0.779332 0.241984
O O10 0.250000 0.750000 0.500000
O O11 0.029177 0.712345 0.579247
O O12 0.280499 0.726518 0.379019
O O13 0.162329 0.000000 0.499147
O O14 0.500000 0.712508 0.500000
O O15 0.397673 0.000000 0.605162
O O16 0.069575 0.500000 0.736294
#
# Coordination Sequence:
#
# PCOD9200400 Si02
#       6
#     8   8   8   8   8   8
#     4  11  22  36  56  83 112 140 179 231 279 322
#     4  10  21  37  57  80 110 149 185 220 271 333
#     4  10  20  37  58  77 105 147 188 221 266 329
#     4  11  22  38  60  85 115 150 189 231 280 336
#     4  10  21  38  60  86 115 148 190 236 279 330
#     4   9  20  38  58  80 109 146 182 222 275 332
#
# _framework density 25.329940000000001
#
# number of rings (size 3 to 8) (size 9 to 14) (size 15 to 20)
#    0.000    1.833    0.000    4.000    0.000    6.333 
#    0.000    6.667    0.000    0.000    0.000    0.000 
#    0.000    0.000    0.000    0.000    0.000    0.000 
#
# Total GULP energy -134320.065686 kJ/mol
# GULP energy per Si atom -5596.669404 kJ/mol
# Density = 2.527229 g / cm^3
# Si number density = 25.329940 Si / 1000 Ang^3
#
#
#
# Elastic Constant Matrix: (Units=GPa)
#
#
# Indices 1 2 3 4 5 6 
#
# 1 74.6133 -7.0736 -5.0590 -0.0009 -6.9567 0.0017
# 2 -7.0736 77.0445 -2.0219 -0.0008 2.8946 0.0014
# 3 -5.0590 -2.0219 101.0133 -0.0004 -12.3426 0.0009
# 4 -0.0009 -0.0008 -0.0004 14.9930 0.0002 -0.8582
# 5 -6.9567 2.8946 -12.3426 0.0002 49.3346 -0.0004
# 6 0.0017 0.0014 0.0009 -0.8582 -0.0004 18.7614
#
#
#
# Elastic Compliance Matrix: (Units=1/GPa)
#
#
# Indices 1 2 3 4 5 6 
#
# 1 0.013780 0.001211 0.000973 0.000001 0.002116 -0.000001
# 2 0.001211 0.013118 0.000258 0.000001 -0.000534 -0.000001
# 3 0.000973 0.000258 0.010283 0.000000 0.002695 -0.000001
# 4 0.000001 0.000001 0.000000 0.066873 0.000000 0.003059
# 5 0.002116 -0.000534 0.002695 0.000000 0.021274 0.000000
# 6 -0.000001 -0.000001 -0.000001 0.003059 0.000000 0.053441
#
#
# Mechanical properties :
#
#
# Convention : Reuss Voigt Hill
#
# Bulk Modulus (GPa) = 23.77269 24.92912 24.35090
# Shear Modulus (GPa) = 26.60909 34.40619 30.50764
#
# Velocity S-wave (km/s) = 3.24466 3.68954 3.47423
# Velocity P-wave (km/s) = 4.84176 5.29277 5.07228
#
# Compressibility (1/GPa) = 0.04206508
#
# Stress axis : x y z
#
# Youngs Moduli (GPa) = 72.56645 76.23368 97.24954
#
# Poissons Ratio (x) = -0.09234 -0.09461
# Poissons Ratio (y) = -0.08790 -0.02508
# Poissons Ratio (z) = -0.07060 -0.01966
#
# Static dielectric constant tensor:
#      x y z
#    x 2.031810 0.000000 0.076880 
#    y 0.000000 1.938590 0.000000 
#    z 0.076880 0.000000 1.962440 
# 
# From -- ./inp_files/327182.got.cif
#   From: 2010.05.17/outbox.cif.g08.bks.cpg/sg12_164_cif.got.tgz:327182.got - 2010.06.03 13:09:07.
