data_PCOD9200443
_publ_section_title
;
Structure prediction by ZEFSAII (Michael W. Deem and Ramdas Pophale) SiO2 
 PCOD9200443
Probable space group: C 2/M
;
_chemical_formula_sum "Si O2"
_cell_formula_units_Z 56
_cell_length_a 9.008919
_cell_length_b 10.707361
_cell_length_c 36.673140
_cell_angle_alpha 90.000000
_cell_angle_beta 126.399871
_cell_angle_gamma 90.000000
_cell_volume 2847.360954
_symmetry_space_group_name_H-M "C 2/M"
_symmetry_group_IT_number 12
_symmetry_cell_setting 'monoclinic'
loop_
_space_group_symop_operation_xyz
x,y,z
-x,y,-z
-x,-y,-z
x,-y,z
1/2+x,1/2+y,z
1/2-x,1/2+y,-z
1/2-x,1/2-y,-z
1/2+x,1/2-y,z
loop_
_atom_site_type_symbol
_atom_site_label
_atom_site_fract_x
_atom_site_fract_y
_atom_site_fract_z
Si Si1 0.751379 0.644254 0.251008
Si Si2 0.060010 0.861141 0.599373
Si Si3 0.832580 0.859618 0.844835
Si Si4 0.739188 0.276366 0.903465
Si Si5 0.344038 0.139956 0.036645
Si Si6 0.166651 0.640968 0.294192
Si Si7 0.371100 0.139531 0.446133
O O1 0.688716 0.500000 0.248266
O O2 0.709905 0.676595 0.202825
O O3 0.669500 0.748523 0.265374
O O4 0.972660 0.646354 0.287027
O O5 0.167677 0.843771 0.653079
O O6 0.104761 0.749096 0.579066
O O7 0.841706 0.861304 0.573459
O O8 0.113847 0.000000 0.593295
O O9 0.743990 0.775094 0.863033
O O10 0.053868 0.855173 0.882037
O O11 0.763732 0.000000 0.839672
O O12 0.716353 0.167471 0.930398
O O13 0.935348 0.344677 0.936446
O O14 0.288578 0.000000 0.017722
O O15 0.250000 0.250000 0.000000
O O16 0.179149 0.500000 0.279897
O O17 0.500000 0.160763 0.500000
O O18 0.416192 0.000000 0.438182
#
# Coordination Sequence:
#
# PCOD9200443 Si02
#       7
#     8   8   8   8   8   8   8
#     4  10  21  36  57  84 111 143 183 224 270 325
#     4  10  21  36  55  79 108 144 184 226 274 328
#     4  10  20  37  58  81 111 144 180 224 270 319
#     4  10  22  38  59  83 112 146 183 224 271 322
#     4  11  24  40  60  86 114 147 186 226 272 324
#     4  10  21  37  55  80 113 145 182 227 273 325
#     4  10  21  36  54  79 109 141 182 230 278 330
#
# _framework density 19.667334
#
# number of rings (size 3 to 8) (size 9 to 14) (size 15 to 20)
#    0.000    1.857    0.000    3.429    0.000    6.571 
#    0.000    3.571    0.000    0.000    0.000    0.000 
#    0.000    0.000    0.000    0.000    0.000    0.000 
#
# Total GULP energy -156305.673172 kJ/mol
# GULP energy per Si atom -5582.345470 kJ/mol
# Density = 1.962257 g / cm^3
# Si number density = 19.667334 Si / 1000 Ang^3
#
#
#
# Elastic Constant Matrix: (Units=GPa)
#
#
# Indices 1 2 3 4 5 6 
#
# 1 51.3900 27.1648 1.4033 0.0000 -1.2394 0.0000
# 2 27.1648 139.1529 39.5678 0.0000 -27.6254 0.0000
# 3 1.4033 39.5678 52.0293 0.0000 5.3047 0.0000
# 4 0.0000 0.0000 0.0000 26.7747 0.0000 0.1816
# 5 -1.2394 -27.6254 5.3047 0.0000 30.1904 0.0000
# 6 0.0000 0.0000 0.0000 0.1816 0.0000 19.1244
#
#
#
# Elastic Compliance Matrix: (Units=1/GPa)
#
#
# Indices 1 2 3 4 5 6 
#
# 1 0.023131 -0.007568 0.005845 0.000000 -0.007002 0.000000
# 2 -0.007568 0.015764 -0.013464 0.000000 0.016480 0.000000
# 3 0.005845 -0.013464 0.031090 0.000000 -0.017543 0.000000
# 4 0.000000 0.000000 0.000000 0.037351 0.000000 -0.000355
# 5 -0.007002 0.016480 -0.017543 0.000000 0.050998 0.000000
# 6 0.000000 0.000000 0.000000 -0.000355 0.000000 0.052293
#
#
# Mechanical properties :
#
#
# Convention : Reuss Voigt Hill
#
# Bulk Modulus (GPa) = 25.24529 42.09379 33.66954
# Shear Modulus (GPa) = 19.66928 26.84700 23.25814
#
# Velocity S-wave (km/s) = 3.16586 3.69867 3.44259
# Velocity P-wave (km/s) = 5.12129 6.29997 5.74096
#
# Compressibility (1/GPa) = 0.03961135
#
# Stress axis : x y z
#
# Youngs Moduli (GPa) = 43.23247 63.43650 32.16433
#
# Poissons Ratio (x) = 0.48006 -0.18800
# Poissons Ratio (y) = 0.32717 0.43307
# Poissons Ratio (z) = -0.25270 0.85413
#
# Static dielectric constant tensor:
#      x y z
#    x 1.664980 0.000000 0.016320 
#    y 0.000000 1.704890 0.000000 
#    z 0.016320 0.000000 1.690520 
# 
# From -- ./inp_files/355851.got.cif
#   From: 2010.05.17/outbox.cif.g08.bks.cpg/sg12_178_cif.got.tgz:355851.got - 2010.06.03 13:09:07.
