data_PCOD9200288
_publ_section_title
;
Structure prediction by ZEFSAII (Michael W. Deem and Ramdas Pophale) SiO2 
 PCOD9200288
Probable space group: C 2/M
;
_chemical_formula_sum "Si O2"
_cell_formula_units_Z 50
_cell_length_a 20.580077
_cell_length_b 7.491303
_cell_length_c 17.771846
_cell_angle_alpha 90.000000
_cell_angle_beta 56.342140
_cell_angle_gamma 90.000000
_cell_volume 2280.600063
_symmetry_space_group_name_H-M "C 2/M"
_symmetry_group_IT_number 12
_symmetry_cell_setting 'monoclinic'
loop_
_space_group_symop_operation_xyz
x,y,z
-x,y,-z
-x,-y,-z
x,-y,z
1/2+x,1/2+y,z
1/2-x,1/2+y,-z
1/2-x,1/2-y,-z
1/2+x,1/2-y,z
loop_
_atom_site_type_symbol
_atom_site_label
_atom_site_fract_x
_atom_site_fract_y
_atom_site_fract_z
Si Si1 0.998325 0.782346 0.306847
Si Si2 0.870281 0.214111 0.886385
Si Si3 0.176684 0.214322 0.601994
Si Si4 0.097078 0.206679 0.388956
Si Si5 0.721931 0.284213 0.738726
Si Si6 0.293671 0.285926 0.086844
Si Si7 0.500000 0.000000 0.500000
O O1 0.909214 0.721150 0.367164
O O2 0.048982 0.722895 0.202115
O O3 0.050479 0.729526 0.344746
O O4 0.998128 0.000000 0.307365
O O5 0.796273 0.250152 0.879313
O O6 0.876203 0.000000 0.888051
O O7 0.846183 0.283771 0.984163
O O8 0.250000 0.250000 0.500000
O O9 0.190070 0.279473 0.678969
O O10 0.171594 0.000000 0.608294
O O11 0.187804 0.231039 0.317552
O O12 0.066261 0.342579 0.469992
O O13 0.081395 0.000000 0.415403
O O14 0.716293 0.500000 0.742069
O O15 0.688167 0.220814 0.840647
O O16 0.302195 0.500000 0.082445
#
# Coordination Sequence:
#
# PCOD9200288 Si02
#       7
#     8   8   8   8   8   8   2
#     4   9  19  37  57  82 112 150 196 247 292 352
#     4   9  16  30  53  82 113 146 185 236 291 349
#     4  10  23  40  57  75 109 153 198 244 300 356
#     4  11  23  38  62  87 116 153 200 249 304 356
#     4  10  20  37  56  83 118 154 191 245 295 352
#     4   9  17  29  52  84 115 146 185 231 293 355
#     4  12  26  40  56  90 120 152 194 262 304 358
#
# _framework density 21.924056
#
# number of rings (size 3 to 8) (size 9 to 14) (size 15 to 20)
#    0.000    2.240    2.400    0.240    2.240    0.640 
#    0.000    0.800    0.000    4.800    0.000    0.000 
#    0.000    7.680    0.000    0.000    0.000    0.000 
#
# Total GULP energy -139294.947520 kJ/mol
# GULP energy per Si atom -5571.797901 kJ/mol
# Density = 2.187416 g / cm^3
# Si number density = 21.924056 Si / 1000 Ang^3
#
#
#
# Elastic Constant Matrix: (Units=GPa)
#
#
# Indices 1 2 3 4 5 6 
#
# 1 128.9301 -0.3223 59.4664 0.0008 6.7485 -0.0015
# 2 -0.3223 78.6221 7.0362 0.0013 4.9945 -0.0019
# 3 59.4664 7.0362 128.1821 0.0005 4.9751 -0.0007
# 4 0.0008 0.0013 0.0005 5.8013 -0.0005 -7.5517
# 5 6.7485 4.9945 4.9751 -0.0005 36.5321 0.0008
# 6 -0.0015 -0.0019 -0.0007 -7.5517 0.0008 12.2768
#
#
#
# Elastic Compliance Matrix: (Units=1/GPa)
#
#
# Indices 1 2 3 4 5 6 
#
# 1 0.009943 0.000533 -0.004592 0.000002 -0.001284 0.000002
# 2 0.000533 0.012911 -0.000889 -0.000001 -0.001743 0.000001
# 3 -0.004592 -0.000889 0.009996 -0.000001 -0.000391 -0.000001
# 4 0.000002 -0.000001 -0.000001 0.864994 -0.000001 0.532075
# 5 -0.001284 -0.001743 -0.000391 -0.000001 0.027902 -0.000003
# 6 0.000002 0.000001 -0.000001 0.532075 -0.000003 0.408745
#
#
# Mechanical properties :
#
#
# Convention : Reuss Voigt Hill
#
# Bulk Modulus (GPa) = 43.56283 52.01054 47.78669
# Shear Modulus (GPa) = 3.69813 28.89231 16.29522
#
# Velocity S-wave (km/s) = 1.30017 3.63414 2.72923
# Velocity P-wave (km/s) = 4.70818 6.43303 5.63697
#
# Compressibility (1/GPa) = 0.02295535
#
# Stress axis : x y z
#
# Youngs Moduli (GPa) = 100.57646 77.45051 100.04287
#
# Poissons Ratio (x) = -0.04130 0.45940
# Poissons Ratio (y) = -0.05364 0.08889
# Poissons Ratio (z) = 0.46185 0.06882
#
# Static dielectric constant tensor:
#      x y z
#    x 1.803520 0.000000 0.036000 
#    y 0.000000 1.820270 0.000000 
#    z 0.036000 0.000000 1.922210 
# 
# From -- ./inp_files/274966.got.cif
#   From: 2010.05.17/outbox.cif.g08.bks.cpg/sg12_138_cif.got.tgz:274966.got - 2010.06.03 13:09:07.
