data_PCOD9200218
_publ_section_title
;
Structure prediction by ZEFSAII (Michael W. Deem and Ramdas Pophale) SiO2 
 PCOD9200218
Probable space group: C 2/M
;
_chemical_formula_sum "Si O2"
_cell_formula_units_Z 36
_cell_length_a 5.309530
_cell_length_b 28.251456
_cell_length_c 17.058253
_cell_angle_alpha 90.000000
_cell_angle_beta 50.177564
_cell_angle_gamma 90.000000
_cell_volume 1965.220285
_symmetry_space_group_name_H-M "C 2/M"
_symmetry_group_IT_number 12
_symmetry_cell_setting 'monoclinic'
loop_
_space_group_symop_operation_xyz
x,y,z
-x,y,-z
-x,-y,-z
x,-y,z
1/2+x,1/2+y,z
1/2-x,1/2+y,-z
1/2-x,1/2-y,-z
1/2+x,1/2-y,z
loop_
_atom_site_type_symbol
_atom_site_label
_atom_site_fract_x
_atom_site_fract_y
_atom_site_fract_z
Si Si1 0.182040 0.701040 0.115816
Si Si2 0.486750 0.307207 0.802487
Si Si3 0.894587 0.051956 0.429944
Si Si4 0.000000 0.782428 0.500000
Si Si5 0.376306 0.345945 0.392708
O O1 0.302077 0.672990 0.168065
O O2 0.026904 0.750947 0.175642
O O3 0.893031 0.677273 0.124362
O O4 0.500000 0.711339 0.000000
O O5 0.619474 0.319510 0.690705
O O6 0.500000 0.050123 0.500000
O O7 0.992018 0.099754 0.365585
O O8 0.000000 0.058152 0.500000
O O9 0.020308 0.000000 0.379558
O O10 0.750000 0.750000 0.500000
O O11 0.104041 0.817949 0.409553
O O12 0.000000 0.345978 0.500000
#
# Coordination Sequence:
#
# PCOD9200218 Si02
#       5
#     8   8   8   4   8
#     4  10  20  37  52  68  94 128 177 224 252 292
#     4  10  21  30  52  71  94 131 168 205 260 299
#     4   9  18  34  54  71  94 136 180 221 260 291
#     4  12  26  34  47  64 109 154 180 200 238 292
#     4  11  24  37  51  76 112 142 182 213 251 310
#
# _framework density 18.318557999999999
#
# number of rings (size 3 to 8) (size 9 to 14) (size 15 to 20)
#    0.000    1.778    2.222    3.333    9.333    0.000 
#    0.000    0.000    0.000    0.000    0.000    0.000 
#    0.000    9.778    0.000    0.000    0.000    0.000 
#
# Total GULP energy -100256.448750 kJ/mol
# GULP energy per Si atom -5569.802708 kJ/mol
# Density = 1.827686 g / cm^3
# Si number density = 18.318558 Si / 1000 Ang^3
#
#
#
# Elastic Constant Matrix: (Units=GPa)
#
#
# Indices 1 2 3 4 5 6 
#
# 1 121.9731 6.0393 -2.1047 0.0000 17.9385 0.0000
# 2 6.0393 90.0962 24.4482 0.0000 6.6987 0.0000
# 3 -2.1047 24.4482 67.9397 0.0000 8.7048 0.0000
# 4 0.0000 0.0000 0.0000 5.5441 0.0000 -2.9179
# 5 17.9385 6.6987 8.7048 0.0000 31.5106 0.0000
# 6 0.0000 0.0000 0.0000 -2.9179 0.0000 6.6858
#
#
#
# Elastic Compliance Matrix: (Units=1/GPa)
#
#
# Indices 1 2 3 4 5 6 
#
# 1 0.009031 -0.000520 0.001152 0.000000 -0.005349 0.000000
# 2 -0.000520 0.012394 -0.004330 0.000000 -0.001142 0.000000
# 3 0.001152 -0.004330 0.016876 0.000000 -0.004398 0.000000
# 4 0.000000 0.000000 0.000000 0.234159 0.000000 0.102196
# 5 -0.005349 -0.001142 -0.004398 0.000000 0.036238 0.000000
# 6 0.000000 0.000000 0.000000 0.102196 0.000000 0.194174
#
#
# Mechanical properties :
#
#
# Convention : Reuss Voigt Hill
#
# Bulk Modulus (GPa) = 32.35675 37.41939 34.88807
# Shear Modulus (GPa) = 9.60486 25.52318 17.56402
#
# Velocity S-wave (km/s) = 2.29230 3.73674 3.09983
# Velocity P-wave (km/s) = 4.97070 6.25212 5.64787
#
# Compressibility (1/GPa) = 0.03090545
#
# Stress axis : x y z
#
# Youngs Moduli (GPa) = 110.73179 80.68445 59.25528
#
# Poissons Ratio (x) = 0.04198 -0.06828
# Poissons Ratio (y) = 0.05762 0.25656
# Poissons Ratio (z) = -0.12760 0.34934
#
# Static dielectric constant tensor:
#      x y z
#    x 1.772920 0.000000 -0.030770 
#    y 0.000000 1.686040 0.000000 
#    z -0.030770 0.000000 1.673940 
# 
# From -- ./inp_files/192200.got.cif
#   From: 2010.05.17/outbox.cif.g08.bks.cpg/sg12_97_cif.got.tgz:192200.got - 2010.06.03 13:09:07.
