data_PCOD9200701
_publ_section_title
;
Structure prediction by ZEFSAII (Michael W. Deem and Ramdas Pophale) SiO2 
 PCOD9200701
Probable space group: C 2/M
;
_chemical_formula_sum "Si O2"
_cell_formula_units_Z 64
_cell_length_a 24.697189
_cell_length_b 11.468287
_cell_length_c 12.526786
_cell_angle_alpha 90.000000
_cell_angle_beta 106.625111
_cell_angle_gamma 90.000000
_cell_volume 3399.700564
_symmetry_space_group_name_H-M "C 2/M"
_symmetry_group_IT_number 12
_symmetry_cell_setting 'monoclinic'
loop_
_space_group_symop_operation_xyz
x,y,z
-x,y,-z
-x,-y,-z
x,-y,z
1/2+x,1/2+y,z
1/2-x,1/2+y,-z
1/2-x,1/2-y,-z
1/2+x,1/2-y,z
loop_
_atom_site_type_symbol
_atom_site_label
_atom_site_fract_x
_atom_site_fract_y
_atom_site_fract_z
Si Si1 0.059652 0.129206 0.827332
Si Si2 0.337890 0.722436 0.997437
Si Si3 0.938078 0.864701 0.427706
Si Si4 0.218326 0.637429 0.844069
Si Si5 0.998353 0.369172 0.127919
Si Si6 0.817455 0.760243 0.396810
Si Si7 0.874064 0.635496 0.818553
Si Si8 0.790621 0.369376 0.598743
O O1 0.064462 0.136143 0.702263
O O2 0.030131 0.250227 0.847210
O O3 0.033865 0.000000 0.837708
O O4 0.120438 0.134789 0.918916
O O5 0.283330 0.665081 0.911293
O O6 0.371364 0.791685 0.925143
O O7 0.316643 0.811944 0.075865
O O8 0.882868 0.796263 0.436670
O O9 0.000000 0.821147 0.500000
O O10 0.933829 0.000000 0.461128
O O11 0.210227 0.500000 0.827357
O O12 0.198415 0.702228 0.725092
O O13 0.975725 0.500000 0.145959
O O14 0.064054 0.363695 0.197389
O O15 0.000000 0.367964 0.000000
O O16 0.800232 0.679817 0.486916
O O17 0.773261 0.864439 0.394234
O O18 0.860088 0.500000 0.836975
O O19 0.829489 0.689454 0.710470
O O20 0.811516 0.500000 0.606595
#
# Coordination Sequence:
#
# PCOD9200701 Si02
#       8
#     8   8   8   8   8   8   8   8
#     4  11  23  40  63  91 123 160 208 260 308 368
#     4  11  21  39  58  89 121 160 200 251 308 374
#     4  10  23  43  64  87 120 161 205 255 309 374
#     4  11  23  37  58  89 123 157 197 256 315 370
#     4  10  21  37  59  85 121 162 204 246 301 370
#     4  11  21  40  63  87 120 156 203 251 314 370
#     4  10  20  37  59  85 118 162 205 248 303 370
#     4  10  22  38  61  87 117 155 203 255 302 367
#
# _framework density 18.825187
#
# number of rings (size 3 to 8) (size 9 to 14) (size 15 to 20)
#    0.000    1.500    3.750    1.500    1.750    0.750 
#    0.000    0.000    0.000    1.875    0.000    0.000 
#    0.000    0.000    0.000    0.000    0.000    0.000 
#
# Total GULP energy -178318.573507 kJ/mol
# GULP energy per Si atom -5572.455422 kJ/mol
# Density = 1.878234 g / cm^3
# Si number density = 18.825187 Si / 1000 Ang^3
#
#
#
# Elastic Constant Matrix: (Units=GPa)
#
#
# Indices 1 2 3 4 5 6 
#
# 1 97.4220 34.2744 31.7255 0.0000 13.5409 0.0000
# 2 34.2744 97.2690 19.4280 0.0000 -10.6210 0.0000
# 3 31.7255 19.4280 91.1330 0.0000 9.7558 0.0000
# 4 0.0000 0.0000 0.0000 13.2725 0.0000 1.6199
# 5 13.5409 -10.6210 9.7558 0.0000 27.8312 0.0000
# 6 0.0000 0.0000 0.0000 1.6199 0.0000 11.2515
#
#
#
# Elastic Compliance Matrix: (Units=1/GPa)
#
#
# Indices 1 2 3 4 5 6 
#
# 1 0.014176 -0.005260 -0.002972 0.000000 -0.007863 0.000000
# 2 -0.005260 0.013432 -0.001927 0.000000 0.008361 0.000000
# 3 -0.002972 -0.001927 0.012824 0.000000 -0.003785 0.000000
# 4 0.000000 0.000000 0.000000 0.076691 0.000000 -0.011041
# 5 -0.007863 0.008361 -0.003785 0.000000 0.044274 0.000000
# 6 0.000000 0.000000 0.000000 -0.011041 0.000000 0.090467
#
#
# Mechanical properties :
#
#
# Convention : Reuss Voigt Hill
#
# Bulk Modulus (GPa) = 49.71925 50.74220 50.23073
# Shear Modulus (GPa) = 17.92845 23.83077 20.87961
#
# Velocity S-wave (km/s) = 3.08939 3.56181 3.33398
# Velocity P-wave (km/s) = 6.26052 6.62784 6.44680
#
# Compressibility (1/GPa) = 0.02011293
#
# Stress axis : x y z
#
# Youngs Moduli (GPa) = 70.54264 74.44827 77.98119
#
# Poissons Ratio (x) = 0.39160 0.23175
# Poissons Ratio (y) = 0.37106 0.15030
# Poissons Ratio (z) = 0.20964 0.14349
#
# Static dielectric constant tensor:
#      x y z
#    x 1.684100 0.000000 0.052000 
#    y 0.000000 1.668340 0.000000 
#    z 0.052000 0.000000 1.654560 
# 
# From -- ./inp_files/174683.got.cif
#   From: 2010.05.17/outbox.cif.g08.bks.cpg/sg12_88_cif.got.tgz:174683.got - 2010.06.03 13:09:07.
