data_PCOD9200487
_publ_section_title
;
Structure prediction by ZEFSAII (Michael W. Deem and Ramdas Pophale) SiO2 
 PCOD9200487
Probable space group: C 2/M
;
_chemical_formula_sum "Si O2"
_cell_formula_units_Z 48
_cell_length_a 18.501595
_cell_length_b 15.033131
_cell_length_c 15.945439
_cell_angle_alpha 90.000000
_cell_angle_beta 32.630913
_cell_angle_gamma 90.000000
_cell_volume 2391.472016
_symmetry_space_group_name_H-M "C 2/M"
_symmetry_group_IT_number 12
_symmetry_cell_setting 'monoclinic'
loop_
_space_group_symop_operation_xyz
x,y,z
-x,y,-z
-x,-y,-z
x,-y,z
1/2+x,1/2+y,z
1/2-x,1/2+y,-z
1/2-x,1/2-y,-z
1/2+x,1/2-y,z
loop_
_atom_site_type_symbol
_atom_site_label
_atom_site_fract_x
_atom_site_fract_y
_atom_site_fract_z
Si Si1 0.081470 0.000000 0.746698
Si Si2 0.045685 0.301805 0.079634
Si Si3 0.233985 0.000000 0.961976
Si Si4 0.853318 0.500000 0.413061
Si Si5 0.062097 0.690115 0.623633
Si Si6 0.191519 0.817170 0.717981
Si Si7 0.071029 0.500000 0.068150
Si Si8 0.295757 0.178412 0.798477
O O1 0.193385 0.000000 0.564453
O O2 0.117825 0.908682 0.760809
O O3 0.927283 0.000000 0.870769
O O4 0.076408 0.402892 0.022227
O O5 0.993023 0.296009 0.228400
O O6 0.923559 0.254373 0.151834
O O7 0.180631 0.245560 0.940879
O O8 0.316885 0.000000 0.967474
O O9 0.274178 0.087241 0.870566
O O10 0.905703 0.585139 0.411266
O O11 0.924973 0.500000 0.254509
O O12 0.205465 0.724756 0.451025
O O13 0.942006 0.714279 0.679143
O O14 0.273918 0.836825 0.721472
#
# Coordination Sequence:
#
# PCOD9200487 Si02
#       8
#     4   8   4   4   8   8   4   8
#     4  10  21  33  54  85 126 150 180 223 294 360
#     4  11  22  39  60  85 114 155 202 242 285 340
#     4  12  21  36  60  89 123 153 183 238 293 356
#     4   8  16  34  54  81 113 153 190 224 281 342
#     4  10  20  37  58  83 117 158 196 234 282 352
#     4  11  23  37  57  89 123 157 185 239 296 350
#     4  10  22  41  60  82 111 158 207 240 279 338
#     4  12  22  36  60  91 121 151 192 238 298 349
#
# _framework density 20.07132
#
# number of rings (size 3 to 8) (size 9 to 14) (size 15 to 20)
#    0.000    1.333    5.000    2.500    0.000    0.667 
#    0.000    5.000    0.000    0.000    0.000    2.333 
#    0.000    0.000    0.000    0.000    0.000    0.000 
#
# Total GULP energy -133900.801097 kJ/mol
# GULP energy per Si atom -5579.200046 kJ/mol
# Density = 2.002564 g / cm^3
# Si number density = 20.071320 Si / 1000 Ang^3
#
#
#
# Elastic Constant Matrix: (Units=GPa)
#
#
# Indices 1 2 3 4 5 6 
#
# 1 57.4559 -7.5724 14.0738 0.0000 -7.9124 0.0000
# 2 -7.5724 82.5717 21.3190 0.0000 -2.5923 0.0000
# 3 14.0738 21.3190 116.6785 0.0000 -9.8592 0.0000
# 4 0.0000 0.0000 0.0000 16.5716 0.0000 -3.1381
# 5 -7.9124 -2.5923 -9.8592 0.0000 23.7270 0.0000
# 6 0.0000 0.0000 0.0000 -3.1381 0.0000 10.5377
#
#
#
# Elastic Compliance Matrix: (Units=1/GPa)
#
#
# Indices 1 2 3 4 5 6 
#
# 1 0.019078 0.002517 -0.002280 0.000000 0.005690 0.000000
# 2 0.002517 0.013047 -0.002587 0.000000 0.001190 0.000000
# 3 -0.002280 -0.002587 0.009566 0.000000 0.002932 0.000000
# 4 0.000000 0.000000 0.000000 0.063951 0.000000 0.019044
# 5 0.005690 0.001190 0.002932 0.000000 0.045392 0.000000
# 6 0.000000 0.000000 0.000000 0.019044 0.000000 0.100569
#
#
# Mechanical properties :
#
#
# Convention : Reuss Voigt Hill
#
# Bulk Modulus (GPa) = 27.03378 34.70520 30.86949
# Shear Modulus (GPa) = 18.61275 25.42630 22.01953
#
# Velocity S-wave (km/s) = 3.04851 3.56307 3.31579
# Velocity P-wave (km/s) = 5.08816 5.85284 5.48385
#
# Compressibility (1/GPa) = 0.03699076
#
# Stress axis : x y z
#
# Youngs Moduli (GPa) = 52.41506 76.64721 104.53662
#
# Poissons Ratio (x) = -0.19292 0.23838
# Poissons Ratio (y) = -0.13193 0.27043
# Poissons Ratio (z) = 0.11953 0.19828
#
# Static dielectric constant tensor:
#      x y z
#    x 1.723900 0.000000 0.026550 
#    y 0.000000 1.741310 0.000000 
#    z 0.026550 0.000000 1.738520 
# 
# From -- ./inp_files/278086.got.cif
#   From: 2010.05.17/outbox.cif.g08.bks.cpg/sg12_140_cif.got.tgz:278086.got - 2010.06.03 13:09:07.
