data_PCOD9200681
_publ_section_title
;
Structure prediction by ZEFSAII (Michael W. Deem and Ramdas Pophale) SiO2 
 PCOD9200681
Probable space group: C 2/M
;
_chemical_formula_sum "Si O2"
_cell_formula_units_Z 38
_cell_length_a 18.447433
_cell_length_b 13.824631
_cell_length_c 8.450121
_cell_angle_alpha 90.000000
_cell_angle_beta 54.330424
_cell_angle_gamma 90.000000
_cell_volume 1750.728234
_symmetry_space_group_name_H-M "C 2/M"
_symmetry_group_IT_number 12
_symmetry_cell_setting 'monoclinic'
loop_
_space_group_symop_operation_xyz
x,y,z
-x,y,-z
-x,-y,-z
x,-y,z
1/2+x,1/2+y,z
1/2-x,1/2+y,-z
1/2-x,1/2-y,-z
1/2+x,1/2-y,z
loop_
_atom_site_type_symbol
_atom_site_label
_atom_site_fract_x
_atom_site_fract_y
_atom_site_fract_z
Si Si1 0.109967 0.000000 0.188368
Si Si2 0.620799 0.208576 0.540239
Si Si3 0.307025 0.500000 0.398764
Si Si4 0.000000 0.000000 0.000000
Si Si5 0.500000 0.340152 0.500000
Si Si6 0.780246 0.332419 0.281023
Si Si7 0.863653 0.500000 0.595025
Si Si8 0.183813 0.500000 0.000528
O O1 0.075159 0.092349 0.329635
O O2 0.215384 0.000000 0.063714
O O3 0.066054 0.000000 0.072547
O O4 0.541261 0.275673 0.585871
O O5 0.709981 0.246980 0.332886
O O6 0.646427 0.210886 0.692557
O O7 0.599408 0.098807 0.523305
O O8 0.410435 0.500000 0.228840
O O9 0.278661 0.407217 0.538776
O O10 0.239562 0.500000 0.335956
O O11 0.823124 0.401463 0.093966
O O12 0.874977 0.500000 0.768286
#
# Coordination Sequence:
#
# PCOD9200681 Si02
#       8
#     4   8   4   2   4   8   4   4
#     4  11  23  36  60  91 116 154 173 250 300 345
#     4  10  20  37  59  85 111 157 194 243 274 343
#     4   9  18  33  52  83 118 149 190 235 289 351
#     4  12  20  30  54  88 132 148 164 236 322 340
#     4  11  22  41  62  88 118 145 206 231 290 346
#     4   9  19  36  60  82 113 156 197 231 285 342
#     4  10  22  36  53  83 116 153 198 227 288 330
#     4  11  19  39  59  89 115 147 194 248 281 349
#
# _framework density 21.705255000000001
#
# number of rings (size 3 to 8) (size 9 to 14) (size 15 to 20)
#    0.000    1.895    3.158    1.895    2.947    1.263 
#    0.000    0.000    0.000    1.263    0.000    0.000 
#    0.000    0.000    0.000    0.000    0.000    0.000 
#
# Total GULP energy -105900.047815 kJ/mol
# GULP energy per Si atom -5573.686727 kJ/mol
# Density = 2.165585 g / cm^3
# Si number density = 21.705255 Si / 1000 Ang^3
#
#
#
# Elastic Constant Matrix: (Units=GPa)
#
#
# Indices 1 2 3 4 5 6 
#
# 1 88.5120 20.2397 -2.2427 0.0000 17.0605 0.0000
# 2 20.2397 112.7014 -5.9073 0.0000 11.1296 0.0000
# 3 -2.2427 -5.9073 27.6932 0.0000 16.8710 0.0000
# 4 0.0000 0.0000 0.0000 -5.3028 0.0000 6.5099
# 5 17.0605 11.1296 16.8710 0.0000 27.0242 0.0000
# 6 0.0000 0.0000 0.0000 6.5099 0.0000 18.6472
#
#
#
# Elastic Compliance Matrix: (Units=1/GPa)
#
#
# Indices 1 2 3 4 5 6 
#
# 1 0.014722 -0.000531 0.010663 0.000000 -0.015732 0.000000
# 2 -0.000531 0.010173 0.007221 0.000000 -0.008362 0.000000
# 3 0.010663 0.007221 0.071694 0.000000 -0.054464 0.000000
# 4 0.000000 0.000000 0.000000 -0.132005 0.000000 0.046084
# 5 -0.015732 -0.008362 -0.054464 0.000000 0.084381 0.000000
# 6 0.000000 0.000000 0.000000 0.046084 0.000000 0.037539
#
#
# Mechanical properties :
#
#
# Convention : Reuss Voigt Hill
#
# Bulk Modulus (GPa) = 7.61647 28.12067 17.86857
# Shear Modulus (GPa) = 52.32197 22.52817 37.42507
#
# Velocity S-wave (km/s) = 4.91508 3.22516 4.15690
# Velocity P-wave (km/s) = 5.97723 5.18196 5.59375
#
# Compressibility (1/GPa) = 0.13129435
#
# Stress axis : x y z
#
# Youngs Moduli (GPa) = 67.92597 98.30194 13.94822
#
# Poissons Ratio (x) = 0.05224 -0.14873
# Poissons Ratio (y) = 0.03609 -0.10072
# Poissons Ratio (z) = -0.72430 -0.70987
#
# Static dielectric constant tensor:
#      x y z
#    x 1.792750 0.000000 0.020420 
#    y 0.000000 1.827160 0.000000 
#    z 0.020420 0.000000 1.792190 
# 
# From -- ./inp_files/84588.got.cif
#   From: 2010.05.17/outbox.cif.g08.bks.cpg/sg12_43_cif.got.tgz:84588.got - 2010.06.03 13:09:07.
