data_PCOD9200105
_publ_section_title
;
Structure prediction by ZEFSAII (Michael W. Deem and Ramdas Pophale) SiO2 
 PCOD9200105
Probable space group: C 2/M
;
_chemical_formula_sum "Si O2"
_cell_formula_units_Z 32
_cell_length_a 9.091403
_cell_length_b 17.745856
_cell_length_c 12.357923
_cell_angle_alpha 90.000000
_cell_angle_beta 138.627957
_cell_angle_gamma 90.000000
_cell_volume 1317.768673
_symmetry_space_group_name_H-M "C 2/M"
_symmetry_group_IT_number 12
_symmetry_cell_setting 'monoclinic'
loop_
_space_group_symop_operation_xyz
x,y,z
-x,y,-z
-x,-y,-z
x,-y,z
1/2+x,1/2+y,z
1/2-x,1/2+y,-z
1/2-x,1/2-y,-z
1/2+x,1/2-y,z
loop_
_atom_site_type_symbol
_atom_site_label
_atom_site_fract_x
_atom_site_fract_y
_atom_site_fract_z
Si Si1 0.279802 0.170712 0.953138
Si Si2 0.880303 0.614927 0.233632
Si Si3 0.738765 0.500000 0.315768
Si Si4 0.793070 0.000000 0.468158
Si Si5 0.003935 0.777429 0.379410
O O1 0.082000 0.164977 0.757440
O O2 0.500000 0.171185 0.000000
O O3 0.250000 0.250000 0.000000
O O4 0.305676 0.114835 0.067860
O O5 0.122824 0.572474 0.366140
O O6 0.877257 0.698772 0.283631
O O7 0.722090 0.569818 0.226760
O O8 0.611528 0.500000 0.357179
O O9 0.000000 0.500000 0.500000
O O10 0.000000 0.000000 0.500000
O O11 0.250000 0.750000 0.500000
O O12 0.000000 0.804418 0.500000
#
# Coordination Sequence:
#
# PCOD9200105 Si02
#       5
#     8   8   4   4   8
#     4  10  21  38  58  88 128 168 208 259 320 379
#     4   9  19  37  59  86 124 166 205 255 316 379
#     4   8  16  36  62  86 116 163 210 253 311 377
#     4  10  20  36  64 100 126 159 211 267 311 369
#     4  11  21  35  59  91 124 164 210 259 313 377
#
# _framework density 24.283473999999998
#
# number of rings (size 3 to 8) (size 9 to 14) (size 15 to 20)
#    0.000    2.500    0.000    5.250    0.000    3.000 
#    0.000    7.500    0.000    6.000    0.000  150.500 
#    0.000    0.000    0.000    0.000    0.000    0.000 
#
# Total GULP energy -89358.385914 kJ/mol
# GULP energy per Si atom -5584.899120 kJ/mol
# Density = 2.422820 g / cm^3
# Si number density = 24.283474 Si / 1000 Ang^3
#
#
#
# Elastic Constant Matrix: (Units=GPa)
#
#
# Indices 1 2 3 4 5 6 
#
# 1 181.7362 20.4376 88.2074 0.0000 -49.2428 0.0000
# 2 20.4376 88.8326 36.2768 0.0000 -21.7133 0.0000
# 3 88.2074 36.2768 198.4373 0.0000 -57.1666 0.0000
# 4 0.0000 0.0000 0.0000 36.1178 0.0000 -13.0332
# 5 -49.2428 -21.7133 -57.1666 0.0000 57.9757 0.0000
# 6 0.0000 0.0000 0.0000 -13.0332 0.0000 28.7424
#
#
#
# Elastic Compliance Matrix: (Units=1/GPa)
#
#
# Indices 1 2 3 4 5 6 
#
# 1 0.007765 0.000211 -0.002189 0.000000 0.004516 0.000000
# 2 0.000211 0.012641 -0.001382 0.000000 0.003551 0.000000
# 3 -0.002189 -0.001382 0.007794 0.000000 0.005309 0.000000
# 4 0.000000 0.000000 0.000000 0.033104 0.000000 0.015011
# 5 0.004516 0.003551 0.005309 0.000000 0.027649 0.000000
# 6 0.000000 0.000000 0.000000 0.015011 0.000000 0.041598
#
#
# Mechanical properties :
#
#
# Convention : Reuss Voigt Hill
#
# Bulk Modulus (GPa) = 46.55333 84.31664 65.43499
# Shear Modulus (GPa) = 34.61862 46.17281 40.39572
#
# Velocity S-wave (km/s) = 3.77981 4.36525 4.08304
# Velocity P-wave (km/s) = 6.18561 7.75915 7.01663
#
# Compressibility (1/GPa) = 0.02148074
#
# Stress axis : x y z
#
# Youngs Moduli (GPa) = 128.78520 79.10877 128.29566
#
# Poissons Ratio (x) = -0.01672 0.28088
# Poissons Ratio (y) = -0.02722 0.17727
# Poissons Ratio (z) = 0.28195 0.10931
#
# Static dielectric constant tensor:
#      x y z
#    x 2.324200 0.000010 1.667030 
#    y 0.000010 2.260440 0.000020 
#    z 1.667030 0.000020 8.314810 
# 
# From -- ./inp_files/120537.got.cif
#   From: 2010.05.17/outbox.cif.g08.bks.cpg/sg12_61_cif.got.tgz:120537.got - 2010.06.03 13:09:07.
