data_PCOD9200310
_publ_section_title
;
Structure prediction by ZEFSAII (Michael W. Deem and Ramdas Pophale) SiO2 
 PCOD9200310
Probable space group: C 2/M
;
_chemical_formula_sum "Si O2"
_cell_formula_units_Z 56
_cell_length_a 25.766945
_cell_length_b 27.011829
_cell_length_c 11.506538
_cell_angle_alpha 90.000000
_cell_angle_beta 19.796116
_cell_angle_gamma 90.000000
_cell_volume 2712.336904
_symmetry_space_group_name_H-M "C 2/M"
_symmetry_group_IT_number 12
_symmetry_cell_setting 'monoclinic'
loop_
_space_group_symop_operation_xyz
x,y,z
-x,y,-z
-x,-y,-z
x,-y,z
1/2+x,1/2+y,z
1/2-x,1/2+y,-z
1/2-x,1/2-y,-z
1/2+x,1/2-y,z
loop_
_atom_site_type_symbol
_atom_site_label
_atom_site_fract_x
_atom_site_fract_y
_atom_site_fract_z
Si Si1 0.554949 0.648383 0.616570
Si Si2 0.904629 0.389202 0.580709
Si Si3 0.009849 0.367807 0.851096
Si Si4 0.900359 0.944748 0.827237
Si Si5 0.787292 0.204662 0.262304
Si Si6 0.686217 0.305705 0.130092
Si Si7 0.291707 0.306314 0.513860
O O1 0.474415 0.597666 0.751070
O O2 0.688348 0.664580 0.248117
O O3 0.619208 0.649830 0.610963
O O4 0.427079 0.691675 0.886269
O O5 0.000208 0.391021 0.257562
O O6 0.000000 0.394798 0.500000
O O7 0.771771 0.430045 0.844973
O O8 0.804877 0.337983 0.802567
O O9 0.173380 0.341142 0.502709
O O10 0.000000 0.394360 0.000000
O O11 0.882331 0.325018 0.127398
O O12 0.000000 0.943567 0.500000
O O13 0.906539 0.000000 0.864066
O O14 0.706688 0.256825 0.411482
O O15 0.846279 0.207642 0.270815
O O16 0.500000 0.307787 0.500000
O O17 0.750000 0.250000 0.000000
#
# Coordination Sequence:
#
# PCOD9200310 Si02
#       7
#     8   8   8   8   8   8   8
#     4  12  21  38  62  88 124 167 216 269 326 376
#     4  12  23  43  66  96 129 166 221 272 328 406
#     4  10  21  37  58  88 126 170 206 256 318 380
#     4  11  24  46  69  91 123 166 222 287 347 396
#     4  10  20  37  56  89 131 173 218 252 308 384
#     4  12  25  38  55  90 132 175 206 254 324 394
#     4  10  22  33  58  92 126 175 217 254 299 394
#
# _framework density 20.646402999999999
#
# number of rings (size 3 to 8) (size 9 to 14) (size 15 to 20)
#    0.000    1.000    4.286    2.571    6.000    2.571 
#    0.000    0.000    0.000    2.143    0.000    0.000 
#    0.000    0.000    0.000    0.000    0.000    0.000 
#
# Total GULP energy -156099.064773 kJ/mol
# GULP energy per Si atom -5574.966599 kJ/mol
# Density = 2.059941 g / cm^3
# Si number density = 20.646403 Si / 1000 Ang^3
#
#
#
# Elastic Constant Matrix: (Units=GPa)
#
#
# Indices 1 2 3 4 5 6 
#
# 1 123.0033 36.9389 32.6548 0.0070 13.7350 -0.0042
# 2 36.9389 100.6085 15.5488 0.0037 3.7741 -0.0022
# 3 32.6548 15.5488 75.7705 0.0150 26.1115 -0.0112
# 4 0.0070 0.0037 0.0150 14.2562 -0.0105 -3.3484
# 5 13.7350 3.7741 26.1115 -0.0105 39.9199 0.0078
# 6 -0.0042 -0.0022 -0.0112 -3.3484 0.0078 20.4976
#
#
#
# Elastic Compliance Matrix: (Units=1/GPa)
#
#
# Indices 1 2 3 4 5 6 
#
# 1 0.010075 -0.003143 -0.003363 -0.000001 -0.000970 0.000000
# 2 -0.003143 0.011254 -0.001241 0.000000 0.000829 0.000000
# 3 -0.003363 -0.001241 0.018671 -0.000023 -0.010938 0.000010
# 4 -0.000001 0.000000 -0.000023 0.072944 0.000033 0.011916
# 5 -0.000970 0.000829 -0.010938 0.000033 0.032460 -0.000013
# 6 0.000000 0.000000 0.000010 0.011916 -0.000013 0.050733
#
#
# Mechanical properties :
#
#
# Convention : Reuss Voigt Hill
#
# Bulk Modulus (GPa) = 40.80404 52.18526 46.49465
# Shear Modulus (GPa) = 22.74815 29.21740 25.98277
#
# Velocity S-wave (km/s) = 3.32293 3.76591 3.55133
# Velocity P-wave (km/s) = 5.87611 6.65131 6.27569
#
# Compressibility (1/GPa) = 0.02450738
#
# Stress axis : x y z
#
# Youngs Moduli (GPa) = 99.25820 88.85666 53.55862
#
# Poissons Ratio (x) = 0.27927 0.18011
# Poissons Ratio (y) = 0.31196 0.06644
# Poissons Ratio (z) = 0.33379 0.11023
#
# Static dielectric constant tensor:
#      x y z
#    x 1.868160 0.000000 0.001720 
#    y 0.000000 1.696980 0.000000 
#    z 0.001720 0.000000 1.793040 
# 
# From -- ./inp_files/185137.got.cif
#   From: 2010.05.17/outbox.cif.g08.bks.cpg/sg12_93_cif.got.tgz:185137.got - 2010.06.03 13:09:07.
