data_PCOD9200139
_publ_section_title
;
Structure prediction by ZEFSAII (Michael W. Deem and Ramdas Pophale) SiO2 
 PCOD9200139
Probable space group: C 2/M
;
_chemical_formula_sum "Si O2"
_cell_formula_units_Z 52
_cell_length_a 19.706307
_cell_length_b 12.204614
_cell_length_c 12.197533
_cell_angle_alpha 90.000000
_cell_angle_beta 114.973167
_cell_angle_gamma 90.000000
_cell_volume 2659.327291
_symmetry_space_group_name_H-M "C 2/M"
_symmetry_group_IT_number 12
_symmetry_cell_setting 'monoclinic'
loop_
_space_group_symop_operation_xyz
x,y,z
-x,y,-z
-x,-y,-z
x,-y,z
1/2+x,1/2+y,z
1/2-x,1/2+y,-z
1/2-x,1/2-y,-z
1/2+x,1/2-y,z
loop_
_atom_site_type_symbol
_atom_site_label
_atom_site_fract_x
_atom_site_fract_y
_atom_site_fract_z
Si Si1 0.406533 0.241732 0.116758
Si Si2 0.466799 0.000000 0.104447
Si Si3 0.059182 0.125445 0.223657
Si Si4 0.416190 0.000000 0.406352
Si Si5 0.612580 0.000000 0.362189
Si Si6 0.155555 0.711442 0.699933
Si Si7 0.838519 0.736113 0.553038
Si Si8 0.816768 0.872473 0.880523
O O1 0.486812 0.299824 0.156213
O O2 0.376606 0.274765 0.218032
O O3 0.420378 0.112971 0.095265
O O4 0.344842 0.294933 0.995988
O O5 0.534872 0.000000 0.241112
O O6 0.500000 0.000000 0.000000
O O7 0.110048 0.172992 0.355714
O O8 0.115039 0.127358 0.158719
O O9 0.036021 0.000000 0.227039
O O10 0.500000 0.000000 0.500000
O O11 0.394501 0.896652 0.323696
O O12 0.377275 0.000000 0.497708
O O13 0.644897 0.122527 0.368763
O O14 0.143700 0.742383 0.565160
O O15 0.241524 0.677070 0.776487
O O16 0.750000 0.750000 0.500000
O O17 0.802632 0.000000 0.902057
#
# Coordination Sequence:
#
# PCOD9200139 Si02
#       8
#     8   4   8   4   4   8   8   8
#     4  12  25  42  64  98 134 172 219 268 334 398
#     4  12  24  40  64  98 136 172 210 274 331 397
#     4  11  24  43  69  95 127 174 227 270 321 394
#     4  10  20  36  64  94 124 161 216 268 327 384
#     4  10  22  38  62  94 125 161 214 270 321 392
#     4  11  23  40  66  97 131 170 214 278 331 389
#     4  11  23  40  68  95 129 167 217 274 336 394
#     4  11  23  44  69  92 128 176 230 268 319 392
#
# _framework density 19.553818
#
# number of rings (size 3 to 8) (size 9 to 14) (size 15 to 20)
#    0.000    0.923    3.846    3.692    3.231    1.231 
#    0.000    2.308    1.692    0.000    0.000    0.000 
#    0.000    0.000    0.000    0.000    0.000    0.000 
#
# Total GULP energy -144827.495618 kJ/mol
# GULP energy per Si atom -5570.288293 kJ/mol
# Density = 1.950931 g / cm^3
# Si number density = 19.553818 Si / 1000 Ang^3
#
#
#
# Elastic Constant Matrix: (Units=GPa)
#
#
# Indices 1 2 3 4 5 6 
#
# 1 35.7670 2.2627 -11.4995 0.0000 -5.6976 0.0000
# 2 2.2627 71.6964 12.3838 0.0000 3.2180 0.0000
# 3 -11.4995 12.3838 87.0301 0.0000 -3.1485 0.0000
# 4 0.0000 0.0000 0.0000 42.7171 0.0000 7.7463
# 5 -5.6976 3.2180 -3.1485 0.0000 38.1026 0.0000
# 6 0.0000 0.0000 0.0000 7.7463 0.0000 16.4392
#
#
#
# Elastic Compliance Matrix: (Units=1/GPa)
#
#
# Indices 1 2 3 4 5 6 
#
# 1 0.030327 -0.001957 0.004469 0.000000 0.005069 0.000000
# 2 -0.001957 0.014498 -0.002384 0.000000 -0.001714 0.000000
# 3 0.004469 -0.002384 0.012489 0.000000 0.001902 0.000000
# 4 0.000000 0.000000 0.000000 0.025597 0.000000 -0.012062
# 5 0.005069 -0.001714 0.001902 0.000000 0.027305 0.000000
# 6 0.000000 0.000000 0.000000 -0.012062 0.000000 0.066514
#
#
# Mechanical properties :
#
#
# Convention : Reuss Voigt Hill
#
# Bulk Modulus (GPa) = 17.36970 22.30972 19.83971
# Shear Modulus (GPa) = 25.55424 32.20820 28.88122
#
# Velocity S-wave (km/s) = 3.61898 4.06292 3.84736
# Velocity P-wave (km/s) = 5.13469 5.78307 5.46850
#
# Compressibility (1/GPa) = 0.05757153
#
# Stress axis : x y z
#
# Youngs Moduli (GPa) = 32.97404 68.97472 80.07218
#
# Poissons Ratio (x) = 0.13495 -0.35784
# Poissons Ratio (y) = 0.06452 0.19085
# Poissons Ratio (z) = -0.14736 0.16440
#
# Static dielectric constant tensor:
#      x y z
#    x 1.704870 0.000000 -0.054930 
#    y 0.000000 1.738930 0.000000 
#    z -0.054930 0.000000 1.661810 
# 
# From -- ./inp_files/165804.got.cif
#   From: 2010.05.17/outbox.cif.g08.bks.cpg/sg12_83_cif.got.tgz:165804.got - 2010.06.03 13:09:07.
