data_PCOD9200237
_publ_section_title
;
Structure prediction by ZEFSAII (Michael W. Deem and Ramdas Pophale) SiO2 
 PCOD9200237
Probable space group: C 2/M
;
_chemical_formula_sum "Si O2"
_cell_formula_units_Z 48
_cell_length_a 11.026462
_cell_length_b 11.150837
_cell_length_c 18.009715
_cell_angle_alpha 90.000000
_cell_angle_beta 66.014370
_cell_angle_gamma 90.000000
_cell_volume 2023.154897
_symmetry_space_group_name_H-M "C 2/M"
_symmetry_group_IT_number 12
_symmetry_cell_setting 'monoclinic'
loop_
_space_group_symop_operation_xyz
x,y,z
-x,y,-z
-x,-y,-z
x,-y,z
1/2+x,1/2+y,z
1/2-x,1/2+y,-z
1/2-x,1/2-y,-z
1/2+x,1/2-y,z
loop_
_atom_site_type_symbol
_atom_site_label
_atom_site_fract_x
_atom_site_fract_y
_atom_site_fract_z
Si Si1 0.491635 0.236515 0.091570
Si Si2 0.145996 0.628996 0.427855
Si Si3 0.293410 0.636853 0.785388
Si Si4 0.065744 0.000000 0.066351
Si Si5 0.573665 0.870812 0.273840
Si Si6 0.259684 0.127901 0.375067
Si Si7 0.881845 0.500000 0.964699
O O1 0.350066 0.183510 0.151805
O O2 0.518673 0.372254 0.112052
O O3 0.592150 0.126550 0.082400
O O4 0.500000 0.248484 0.000000
O O5 0.207016 0.500000 0.433770
O O6 0.135864 0.628686 0.340828
O O7 0.215921 0.753495 0.427945
O O8 0.000000 0.631704 0.500000
O O9 0.318334 0.500000 0.805370
O O10 0.388585 0.749312 0.777133
O O11 0.293738 0.628510 0.695806
O O12 0.226561 0.000000 0.023947
O O13 0.000000 0.000000 0.000000
O O14 0.417218 0.869851 0.326343
O O15 0.610549 0.000000 0.230137
O O16 0.220188 0.000000 0.418936
O O17 0.000000 0.500000 0.000000
#
# Coordination Sequence:
#
# PCOD9200237 Si02
#       7
#     8   8   8   4   8   8   4
#     4  10  21  39  57  81 111 144 187 239 288 341
#     4   9  18  33  55  80 109 141 176 222 269 319
#     4  10  20  37  55  77 108 143 184 224 277 330
#     4  10  22  40  58  86 114 146 185 236 295 356
#     4   9  19  36  56  77 109 145 180 221 266 326
#     4   9  19  36  52  77 108 143 183 221 268 326
#     4  10  20  40  62  80 114 148 183 236 297 342
#
# _framework density 23.725322999999999
#
# number of rings (size 3 to 8) (size 9 to 14) (size 15 to 20)
#    0.000    2.500    0.833    0.500    1.167    1.667 
#   12.000    0.000    0.000    0.000    0.000    0.000 
#    0.000    0.000    0.000    0.000    0.000    0.000 
#
# Total GULP energy -133919.811785 kJ/mol
# GULP energy per Si atom -5579.992158 kJ/mol
# Density = 2.367132 g / cm^3
# Si number density = 23.725323 Si / 1000 Ang^3
#
#
#
# Elastic Constant Matrix: (Units=GPa)
#
#
# Indices 1 2 3 4 5 6 
#
# 1 54.7663 52.2809 14.3500 0.0000 14.1772 0.0000
# 2 52.2809 354.6112 78.8364 0.0000 -16.0296 0.0000
# 3 14.3500 78.8364 58.6696 0.0000 9.3913 0.0000
# 4 0.0000 0.0000 0.0000 49.3359 0.0000 -10.4199
# 5 14.1772 -16.0296 9.3913 0.0000 41.7821 0.0000
# 6 0.0000 0.0000 0.0000 -10.4199 0.0000 35.2969
#
#
#
# Elastic Compliance Matrix: (Units=1/GPa)
#
#
# Indices 1 2 3 4 5 6 
#
# 1 0.024859 -0.004513 0.001672 0.000000 -0.010542 0.000000
# 2 -0.004513 0.005200 -0.006688 0.000000 0.005029 0.000000
# 3 0.001672 -0.006688 0.027099 0.000000 -0.009224 0.000000
# 4 0.000000 0.000000 0.000000 0.021617 0.000000 0.006382
# 5 -0.010542 0.005029 -0.009224 0.000000 0.031514 0.000000
# 6 0.000000 0.000000 0.000000 0.006382 0.000000 0.030215
#
#
# Mechanical properties :
#
#
# Convention : Reuss Voigt Hill
#
# Bulk Modulus (GPa) = 26.24769 84.33131 55.28950
# Shear Modulus (GPa) = 29.02562 46.78828 37.90695
#
# Velocity S-wave (km/s) = 3.50151 4.44563 4.00151
# Velocity P-wave (km/s) = 5.23781 7.87233 6.68611
#
# Compressibility (1/GPa) = 0.03809859
#
# Stress axis : x y z
#
# Youngs Moduli (GPa) = 40.22741 192.32248 36.90138
#
# Poissons Ratio (x) = 0.86798 -0.06169
# Poissons Ratio (y) = 0.18155 0.24680
# Poissons Ratio (z) = -0.06725 1.28627
#
# Static dielectric constant tensor:
#      x y z
#    x 2.043450 0.000000 0.140300 
#    y 0.000000 1.971770 0.000000 
#    z 0.140300 0.000000 1.904640 
# 
# From -- ./inp_files/262183.got.cif
#   From: 2010.05.17/outbox.cif.g08.bks.cpg/sg12_132_cif.got.tgz:262183.got - 2010.06.03 13:09:07.
