data_PCOD9200027
_publ_section_title
;
Structure prediction by ZEFSAII (Michael W. Deem and Ramdas Pophale) SiO2 
 PCOD9200027
Probable space group: C 2/M
;
_chemical_formula_sum "Si O2"
_cell_formula_units_Z 40
_cell_length_a 9.828472
_cell_length_b 16.332822
_cell_length_c 9.885732
_cell_angle_alpha 90.000000
_cell_angle_beta 88.820499
_cell_angle_gamma 90.000000
_cell_volume 1586.587524
_symmetry_space_group_name_H-M "C 2/M"
_symmetry_group_IT_number 12
_symmetry_cell_setting 'monoclinic'
loop_
_space_group_symop_operation_xyz
x,y,z
-x,y,-z
-x,-y,-z
x,-y,z
1/2+x,1/2+y,z
1/2-x,1/2+y,-z
1/2-x,1/2-y,-z
1/2+x,1/2-y,z
loop_
_atom_site_type_symbol
_atom_site_label
_atom_site_fract_x
_atom_site_fract_y
_atom_site_fract_z
Si Si1 0.163724 0.000000 0.027834
Si Si2 0.294560 0.675637 0.095607
Si Si3 0.931830 0.358551 0.677382
Si Si4 0.501903 0.321012 0.305316
Si Si5 0.929342 0.500000 0.154226
Si Si6 0.222302 0.152821 0.486291
O O1 0.213721 0.085446 0.964528
O O2 0.000000 0.000000 0.000000
O O3 0.264678 0.000000 0.155625
O O4 0.189841 0.674014 0.222424
O O5 0.446906 0.679885 0.154845
O O6 0.250000 0.750000 0.000000
O O7 0.856672 0.389744 0.542441
O O8 0.009396 0.273885 0.651518
O O9 0.015793 0.422288 0.763089
O O10 0.395717 0.368865 0.402601
O O11 0.650198 0.354810 0.342098
O O12 0.000000 0.500000 0.000000
O O13 0.250000 0.250000 0.500000
#
# Coordination Sequence:
#
# PCOD9200027 Si02
#       6
#     4   8   8   8   4   8
#     4  12  28  44  59  91 140 171 213 280 328 396
#     4  11  23  38  62  94 129 175 220 263 333 397
#     4  10  20  36  63  88 117 167 223 265 314 395
#     4   9  18  32  59  90 121 160 210 268 320 383
#     4  12  22  42  61  84 127 173 215 266 332 393
#     4   8  16  34  55  87 120 156 205 268 325 378
#
# _framework density 25.211341000000001
#
# number of rings (size 3 to 8) (size 9 to 14) (size 15 to 20)
#    0.000    2.000    2.000    1.200    2.800    0.000 
#    3.600    1.000    0.000   14.400    0.000    0.000 
#    0.000    0.000    0.000    0.000    0.000    0.000 
#
# Total GULP energy -111552.426650 kJ/mol
# GULP energy per Si atom -5577.621332 kJ/mol
# Density = 2.515396 g / cm^3
# Si number density = 25.211341 Si / 1000 Ang^3
#
#
#
# Elastic Constant Matrix: (Units=GPa)
#
#
# Indices 1 2 3 4 5 6 
#
# 1 129.4470 28.4527 63.4235 0.0000 40.3389 0.0000
# 2 28.4527 102.6408 61.4309 0.0000 13.6524 0.0000
# 3 63.4235 61.4309 165.4816 0.0000 62.7934 0.0000
# 4 0.0000 0.0000 0.0000 30.8174 0.0000 8.3219
# 5 40.3389 13.6524 62.7934 0.0000 65.9003 0.0000
# 6 0.0000 0.0000 0.0000 8.3219 0.0000 22.6460
#
#
#
# Elastic Compliance Matrix: (Units=1/GPa)
#
#
# Indices 1 2 3 4 5 6 
#
# 1 0.010216 -0.001138 -0.001895 0.000000 -0.004212 0.000000
# 2 -0.001138 0.013010 -0.005694 0.000000 0.003427 0.000000
# 3 -0.001895 -0.005694 0.012523 0.000000 -0.009593 0.000000
# 4 0.000000 0.000000 0.000000 0.036024 0.000000 -0.013238
# 5 -0.004212 0.003427 -0.009593 0.000000 0.026184 0.000000
# 6 0.000000 0.000000 0.000000 -0.013238 0.000000 0.049022
#
#
# Mechanical properties :
#
#
# Convention : Reuss Voigt Hill
#
# Bulk Modulus (GPa) = 54.65414 78.24264 66.44839
# Shear Modulus (GPa) = 29.32005 40.15691 34.73848
#
# Velocity S-wave (km/s) = 3.41394 3.99533 3.71602
# Velocity P-wave (km/s) = 6.10454 7.23779 6.69519
#
# Compressibility (1/GPa) = 0.01829688
#
# Stress axis : x y z
#
# Youngs Moduli (GPa) = 97.88276 76.86318 79.85209
#
# Poissons Ratio (x) = 0.08745 0.15130
# Poissons Ratio (y) = 0.11136 0.45467
# Poissons Ratio (z) = 0.18547 0.43765
#
# Static dielectric constant tensor:
#      x y z
#    x 2.275550 0.000000 -0.056790 
#    y 0.000000 1.659750 0.000000 
#    z -0.056790 0.000000 2.131110 
# 
# From -- ./inp_files/129856.got.cif
#   From: 2010.05.17/outbox.cif.g08.bks.cpg/sg12_65_cif.got.tgz:129856.got - 2010.06.03 13:09:07.
