data_PCOD9200353
_publ_section_title
;
Structure prediction by ZEFSAII (Michael W. Deem and Ramdas Pophale) SiO2 
 PCOD9200353
Probable space group: C 2/M
;
_chemical_formula_sum "Si O2"
_cell_formula_units_Z 48
_cell_length_a 10.784394
_cell_length_b 17.119434
_cell_length_c 19.919479
_cell_angle_alpha 90.000000
_cell_angle_beta 137.249001
_cell_angle_gamma 90.000000
_cell_volume 2496.396847
_symmetry_space_group_name_H-M "C 2/M"
_symmetry_group_IT_number 12
_symmetry_cell_setting 'monoclinic'
loop_
_space_group_symop_operation_xyz
x,y,z
-x,y,-z
-x,-y,-z
x,-y,z
1/2+x,1/2+y,z
1/2-x,1/2+y,-z
1/2-x,1/2-y,-z
1/2+x,1/2-y,z
loop_
_atom_site_type_symbol
_atom_site_label
_atom_site_fract_x
_atom_site_fract_y
_atom_site_fract_z
Si Si1 0.196312 0.661731 0.171709
Si Si2 0.923006 0.089809 0.681817
Si Si3 0.718261 0.818707 0.718093
Si Si4 0.044356 0.091218 0.091000
Si Si5 0.904555 0.411742 0.535579
Si Si6 0.294294 0.168486 0.982593
O O1 0.362684 0.601575 0.244448
O O2 0.240316 0.730767 0.242075
O O3 0.983982 0.637150 0.089742
O O4 0.202629 0.685748 0.095488
O O5 0.842966 0.150091 0.705424
O O6 0.805983 0.102317 0.567260
O O7 0.886585 0.000000 0.689631
O O8 0.512481 0.845092 0.618555
O O9 0.783768 0.868127 0.807814
O O10 0.076603 0.000000 0.099114
O O11 0.869127 0.109346 0.067072
O O12 0.000000 0.123579 0.000000
O O13 0.926630 0.500000 0.572760
O O14 0.000000 0.413353 0.500000
O O15 0.250000 0.250000 0.000000
#
# Coordination Sequence:
#
# PCOD9200353 Si02
#       6
#     8   8   8   8   8   8
#     4  11  22  32  56  82 109 155 185 229 283 338
#     4  10  20  37  57  82 114 150 192 233 280 336
#     4  11  19  33  55  80 113 147 187 237 279 327
#     4  11  22  35  56  81 107 147 195 236 275 335
#     4   8  16  31  54  79 109 148 187 232 283 330
#     4  11  21  37  51  75 117 152 185 225 284 337
#
# _framework density 19.227712
#
# number of rings (size 3 to 8) (size 9 to 14) (size 15 to 20)
#    0.000    1.667    3.333    3.500    0.000    1.333 
#    0.000    1.667    0.000    0.000    0.000    0.000 
#    0.000   27.333    0.000    0.000    0.000    0.000 
#
# Total GULP energy -133734.598431 kJ/mol
# GULP energy per Si atom -5572.274935 kJ/mol
# Density = 1.918395 g / cm^3
# Si number density = 19.227712 Si / 1000 Ang^3
#
#
#
# Elastic Constant Matrix: (Units=GPa)
#
#
# Indices 1 2 3 4 5 6 
#
# 1 27.2826 -1.1052 12.8114 0.0000 5.6992 0.0000
# 2 -1.1052 35.8182 17.7916 0.0000 -4.0216 0.0000
# 3 12.8114 17.7916 123.7127 0.0000 19.8904 0.0000
# 4 0.0000 0.0000 0.0000 14.9898 0.0000 -10.0472
# 5 5.6992 -4.0216 19.8904 0.0000 31.3632 0.0000
# 6 0.0000 0.0000 0.0000 -10.0472 0.0000 3.4938
#
#
#
# Elastic Compliance Matrix: (Units=1/GPa)
#
#
# Indices 1 2 3 4 5 6 
#
# 1 0.039446 0.002571 -0.003736 0.000000 -0.004469 0.000000
# 2 0.002571 0.031835 -0.006042 0.000000 0.007447 0.000000
# 3 -0.003736 -0.006042 0.010417 0.000000 -0.006702 0.000000
# 4 0.000000 0.000000 0.000000 -0.071927 0.000000 -0.206842
# 5 -0.004469 0.007447 -0.006702 0.000000 0.037902 0.000000
# 6 0.000000 0.000000 0.000000 -0.206842 0.000000 -0.308596
#
#
# Mechanical properties :
#
#
# Convention : Reuss Voigt Hill
#
# Bulk Modulus (GPa) = 14.86243 27.31212 21.08727
# Shear Modulus (GPa) = -22.31317 20.45707 -0.92805
#
# Velocity S-wave (km/s) = -3.41026 3.26534 -0.69549
# Velocity P-wave (km/s) = 2.78568 5.33404 3.21652
#
# Compressibility (1/GPa) = 0.06728376
#
# Stress axis : x y z
#
# Youngs Moduli (GPa) = 25.35140 31.41168 96.00059
#
# Poissons Ratio (x) = -0.08077 0.35868
# Poissons Ratio (y) = -0.06518 0.58003
# Poissons Ratio (z) = 0.09472 0.18979
#
# Static dielectric constant tensor:
#      x y z
#    x 1.705690 0.000000 0.021660 
#    y 0.000000 1.676510 0.000000 
#    z 0.021660 0.000000 1.711860 
# 
# From -- ./inp_files/306030.got.cif
#   From: 2010.05.17/outbox.cif.g08.bks.cpg/sg12_154_cif.got.tgz:306030.got - 2010.06.03 13:09:07.
