data_PCOD9200879
_publ_section_title
;
Structure prediction by ZEFSAII (Michael W. Deem and Ramdas Pophale) SiO2 
 PCOD9200879
Probable space group: C 2/M
;
_chemical_formula_sum "Si O2"
_cell_formula_units_Z 64
_cell_length_a 20.339842
_cell_length_b 15.216123
_cell_length_c 23.160177
_cell_angle_alpha 90.000000
_cell_angle_beta 24.089761
_cell_angle_gamma 90.000000
_cell_volume 2925.712830
_symmetry_space_group_name_H-M "C 2/M"
_symmetry_group_IT_number 12
_symmetry_cell_setting 'monoclinic'
loop_
_space_group_symop_operation_xyz
x,y,z
-x,y,-z
-x,-y,-z
x,-y,z
1/2+x,1/2+y,z
1/2-x,1/2+y,-z
1/2-x,1/2-y,-z
1/2+x,1/2-y,z
loop_
_atom_site_type_symbol
_atom_site_label
_atom_site_fract_x
_atom_site_fract_y
_atom_site_fract_z
Si Si1 0.562242 0.649632 0.125247
Si Si2 0.890588 0.643969 0.914932
Si Si3 0.063571 0.598596 0.384385
Si Si4 0.259221 0.152502 0.555057
Si Si5 0.845050 0.606595 0.086774
Si Si6 0.039317 0.101937 0.405374
Si Si7 0.594792 0.600428 0.865093
Si Si8 0.782498 0.363704 0.405928
O O1 0.586981 0.752896 0.116999
O O2 0.404948 0.615430 0.285292
O O3 0.513600 0.641286 0.097649
O O4 0.731647 0.609099 0.009504
O O5 0.058899 0.606462 0.755995
O O6 0.862529 0.634705 0.006054
O O7 0.093466 0.500000 0.336543
O O8 0.235425 0.644820 0.255180
O O9 0.000000 0.591723 0.500000
O O10 0.921805 0.638688 0.460595
O O11 0.230822 0.257426 0.579518
O O12 0.283523 0.112297 0.472375
O O13 0.841510 0.500000 0.088130
O O14 0.684735 0.638087 0.249217
O O15 0.000000 0.634228 0.000000
O O16 0.000000 0.142950 0.500000
O O17 0.876497 0.104926 0.499185
O O18 0.085357 0.000000 0.379844
O O19 0.630383 0.500000 0.816579
O O20 0.500000 0.596727 0.000000
#
# Coordination Sequence:
#
# PCOD9200879 Si02
#       8
#     8   8   8   8   8   8   8   8
#     4  10  21  39  58  82 117 155 191 238 285 338
#     4  10  22  38  58  85 117 151 195 236 284 344
#     4  10  20  37  60  85 113 150 194 240 284 341
#     4  10  21  38  58  83 118 152 191 238 287 336
#     4  10  21  39  61  84 114 149 188 237 287 342
#     4  10  21  39  61  85 115 148 187 238 289 341
#     4  10  22  39  58  84 118 151 192 240 288 340
#     4  10  22  38  57  86 117 151 191 240 286 340
#
# _framework density 21.875011000000001
#
# number of rings (size 3 to 8) (size 9 to 14) (size 15 to 20)
#    0.000    2.000    1.250    1.500    1.750    4.500 
#    2.250    0.000    0.000    0.000    0.000    0.000 
#    0.000    0.000    0.000    0.000    0.000    0.000 
#
# Total GULP energy -178577.153514 kJ/mol
# GULP energy per Si atom -5580.536047 kJ/mol
# Density = 2.182522 g / cm^3
# Si number density = 21.875011 Si / 1000 Ang^3
#
#
#
# Elastic Constant Matrix: (Units=GPa)
#
#
# Indices 1 2 3 4 5 6 
#
# 1 173.0460 -6.4297 100.3533 0.0015 -16.7505 0.0071
# 2 -6.4297 30.0213 0.8248 0.0092 -4.8287 0.0014
# 3 100.3533 0.8248 182.4667 0.0026 -13.8134 0.0062
# 4 0.0015 0.0092 0.0026 19.8320 -0.0034 11.2783
# 5 -16.7505 -4.8287 -13.8134 -0.0034 47.8557 -0.0008
# 6 0.0071 0.0014 0.0062 11.2783 -0.0008 237.5044
#
#
#
# Elastic Compliance Matrix: (Units=1/GPa)
#
#
# Indices 1 2 3 4 5 6 
#
# 1 0.008772 0.002321 -0.004687 -0.000001 0.001952 0.000000
# 2 0.002321 0.034476 -0.001132 -0.000016 0.003964 0.000001
# 3 -0.004687 -0.001132 0.008108 0.000000 0.000585 0.000000
# 4 -0.000001 -0.000016 0.000000 0.051823 0.000002 -0.002461
# 5 0.001952 0.003964 0.000585 0.000002 0.022148 0.000000
# 6 0.000000 0.000001 0.000000 -0.002461 0.000000 0.004327
#
#
# Mechanical properties :
#
#
# Convention : Reuss Voigt Hill
#
# Bulk Modulus (GPa) = 22.54332 63.89232 43.21782
# Shear Modulus (GPa) = 33.01691 80.42411 56.72051
#
# Velocity S-wave (km/s) = 3.88924 6.07002 5.09761
# Velocity P-wave (km/s) = 5.52233 8.85427 7.37883
#
# Compressibility (1/GPa) = 0.04435904
#
# Stress axis : x y z
#
# Youngs Moduli (GPa) = 113.99552 29.00599 123.33759
#
# Poissons Ratio (x) = -0.06734 0.57812
# Poissons Ratio (y) = -0.26464 0.13968
# Poissons Ratio (z) = 0.53433 0.03285
#
# Static dielectric constant tensor:
#      x y z
#    x 1.689140 -0.000050 0.078910 
#    y -0.000050 1.878570 0.000070 
#    z 0.078910 0.000070 1.704390 
# 
# From -- ./inp_files/99087.got.cif
#   From: 2010.05.17/outbox.cif.g08.bks.cpg/sg12_50_cif.got.tgz:99087.got - 2010.06.03 13:09:07.
