data_PCOD9200254
_publ_section_title
;
Structure prediction by ZEFSAII (Michael W. Deem and Ramdas Pophale) SiO2 
 PCOD9200254
Probable space group: C 2/M
;
_chemical_formula_sum "Si O2"
_cell_formula_units_Z 64
_cell_length_a 14.115908
_cell_length_b 32.015840
_cell_length_c 18.916530
_cell_angle_alpha 90.000000
_cell_angle_beta 160.385041
_cell_angle_gamma 90.000000
_cell_volume 2869.877233
_symmetry_space_group_name_H-M "C 2/M"
_symmetry_group_IT_number 12
_symmetry_cell_setting 'monoclinic'
loop_
_space_group_symop_operation_xyz
x,y,z
-x,y,-z
-x,-y,-z
x,-y,z
1/2+x,1/2+y,z
1/2-x,1/2+y,-z
1/2-x,1/2-y,-z
1/2+x,1/2-y,z
loop_
_atom_site_type_symbol
_atom_site_label
_atom_site_fract_x
_atom_site_fract_y
_atom_site_fract_z
Si Si1 0.839284 0.326470 0.811387
Si Si2 0.999195 0.712981 0.329310
Si Si3 0.989664 0.241921 0.112531
Si Si4 0.039012 0.546602 0.137516
Si Si5 0.820437 0.125583 0.081587
Si Si6 0.240722 0.161034 0.281909
Si Si7 0.840630 0.136291 0.537975
Si Si8 0.620221 0.452982 0.475240
O O1 0.571413 0.354536 0.639484
O O2 0.000000 0.325518 0.000000
O O3 0.800389 0.278983 0.760135
O O4 0.041914 0.346751 0.896033
O O5 0.250000 0.750000 0.500000
O O6 0.129174 0.674245 0.378313
O O7 0.715636 0.731681 0.097169
O O8 0.861927 0.684538 0.297672
O O9 0.750000 0.250000 0.000000
O O10 0.154605 0.203300 0.261709
O O11 0.927247 0.500000 0.047298
O O12 0.221106 0.546394 0.337850
O O13 0.282776 0.554392 0.250033
O O14 0.792535 0.579934 0.975608
O O15 0.969951 0.132208 0.110505
O O16 0.024998 0.140727 0.289100
O O17 0.500000 0.137961 0.500000
O O18 0.753833 0.087993 0.473230
O O19 0.655136 0.500000 0.469856
#
# Coordination Sequence:
#
# PCOD9200254 Si02
#       8
#     8   8   8   8   8   8   8   8
#     4  10  20  37  55  84 119 160 202 256 306 369
#     4  12  25  44  63  90 125 170 216 269 322 380
#     4  12  24  40  62  87 119 163 214 264 312 376
#     4   9  19  37  61  91 129 166 204 258 323 393
#     4  11  21  38  61  89 121 161 209 254 314 380
#     4  12  24  43  61  85 124 162 211 263 311 369
#     4  11  22  37  63  90 129 165 207 260 323 381
#     4   9  19  36  60  95 133 162 202 262 327 389
#
# _framework density 22.300605999999998
#
# number of rings (size 3 to 8) (size 9 to 14) (size 15 to 20)
#    0.000    1.250    3.750    4.875    1.750    0.500 
#    0.000    1.250    0.000    1.125    0.000    1.750 
#    0.000    0.000    0.000    0.000    0.000    0.000 
#
# Total GULP energy -178201.478622 kJ/mol
# GULP energy per Si atom -5568.796207 kJ/mol
# Density = 2.224985 g / cm^3
# Si number density = 22.300606 Si / 1000 Ang^3
#
#
#
# Elastic Constant Matrix: (Units=GPa)
#
#
# Indices 1 2 3 4 5 6 
#
# 1 93.2526 24.8484 27.1632 0.0033 15.1916 -0.0008
# 2 24.8484 157.5049 20.5530 -0.0032 16.5906 0.0000
# 3 27.1632 20.5530 68.2325 0.0479 11.7751 0.0087
# 4 0.0033 -0.0032 0.0479 19.6947 -0.0013 3.7035
# 5 15.1916 16.5906 11.7751 -0.0013 26.2826 -0.0027
# 6 -0.0008 0.0000 0.0087 3.7035 -0.0027 29.3694
#
#
#
# Elastic Compliance Matrix: (Units=1/GPa)
#
#
# Indices 1 2 3 4 5 6 
#
# 1 0.012979 -0.000991 -0.003990 0.000007 -0.005089 0.000000
# 2 -0.000991 0.007006 -0.001140 0.000004 -0.003339 0.000000
# 3 -0.003990 -0.001140 0.017412 -0.000042 -0.004775 0.000000
# 4 0.000007 0.000004 -0.000042 0.052008 0.000014 -0.006558
# 5 -0.005089 -0.003339 -0.004775 0.000014 0.045236 0.000004
# 6 0.000000 0.000000 0.000000 -0.006558 0.000004 0.034876
#
#
# Mechanical properties :
#
#
# Convention : Reuss Voigt Hill
#
# Bulk Modulus (GPa) = 39.75377 51.56881 45.66129
# Shear Modulus (GPa) = 26.29597 31.49771 28.89684
#
# Velocity S-wave (km/s) = 3.43761 3.76229 3.60361
# Velocity P-wave (km/s) = 5.79839 6.48442 6.15097
#
# Compressibility (1/GPa) = 0.02515485
#
# Stress axis : x y z
#
# Youngs Moduli (GPa) = 77.04818 142.73998 57.43296
#
# Poissons Ratio (x) = 0.14144 0.22917
# Poissons Ratio (y) = 0.07635 0.06545
# Poissons Ratio (z) = 0.30744 0.16266
#
# Static dielectric constant tensor:
#      x y z
#    x 2.013460 -0.000020 0.157260 
#    y -0.000020 1.861960 -0.000060 
#    z 0.157260 -0.000060 2.404520 
# 
# From -- ./inp_files/312959.got.cif
#   From: 2010.05.17/outbox.cif.g08.bks.cpg/sg12_157_cif.got.tgz:312959.got - 2010.06.03 13:09:07.
