data_PCOD9200436
_publ_section_title
;
Structure prediction by ZEFSAII (Michael W. Deem and Ramdas Pophale) SiO2 
 PCOD9200436
Probable space group: C 2/M
;
_chemical_formula_sum "Si O2"
_cell_formula_units_Z 64
_cell_length_a 11.917757
_cell_length_b 15.567732
_cell_length_c 18.721759
_cell_angle_alpha 90.000000
_cell_angle_beta 122.001862
_cell_angle_gamma 90.000000
_cell_volume 2945.629950
_symmetry_space_group_name_H-M "C 2/M"
_symmetry_group_IT_number 12
_symmetry_cell_setting 'monoclinic'
loop_
_space_group_symop_operation_xyz
x,y,z
-x,y,-z
-x,-y,-z
x,-y,z
1/2+x,1/2+y,z
1/2-x,1/2+y,-z
1/2-x,1/2-y,-z
1/2+x,1/2-y,z
loop_
_atom_site_type_symbol
_atom_site_label
_atom_site_fract_x
_atom_site_fract_y
_atom_site_fract_z
Si Si1 0.255535 0.146861 0.702759
Si Si2 0.217827 0.345307 0.718050
Si Si3 0.436192 0.897031 0.637961
Si Si4 0.213101 0.335155 0.033333
Si Si5 0.013658 0.901708 0.340023
Si Si6 0.800522 0.397539 0.452769
Si Si7 0.952838 0.658807 0.878791
Si Si8 0.505504 0.341882 0.824093
O O1 0.228600 0.242951 0.721158
O O2 0.330242 0.145992 0.653665
O O3 0.114129 0.102975 0.654106
O O4 0.357171 0.106455 0.794347
O O5 0.196100 0.369711 0.627902
O O6 0.359980 0.380949 0.792301
O O7 0.085199 0.375588 0.711359
O O8 0.403186 0.865584 0.546354
O O9 0.419129 0.000000 0.635102
O O10 0.138303 0.315964 0.083438
O O11 0.355538 0.377706 0.098676
O O12 0.250000 0.250000 0.000000
O O13 0.092522 0.381338 0.950677
O O14 0.989816 0.846787 0.260312
O O15 0.149564 0.876879 0.424341
O O16 0.030953 0.000000 0.320663
O O17 0.819202 0.500000 0.457711
O O18 0.994309 0.744861 0.849695
#
# Coordination Sequence:
#
# PCOD9200436 Si02
#       8
#     8   8   8   8   8   8   8   8
#     4  11  23  36  57  87 123 149 193 245 299 347
#     4  10  22  34  59  87 116 150 192 252 297 343
#     4  11  24  42  61  83 117 162 204 243 300 367
#     4   9  16  30  53  85 116 147 185 226 293 352
#     4  10  20  37  58  80 113 157 199 238 293 356
#     4   9  20  40  61  81 112 156 202 244 294 359
#     4   9  18  30  54  85 119 147 181 239 291 346
#     4   9  18  32  55  82 114 145 188 238 287 339
#
# _framework density 21.7271
#
# number of rings (size 3 to 8) (size 9 to 14) (size 15 to 20)
#    0.000    2.250    1.250    1.125    5.250    3.500 
#    2.250    1.875    0.000    2.250    0.000    7.875 
#    0.000    0.000    0.000    0.000    0.000    0.000 
#
# Total GULP energy -178306.489868 kJ/mol
# GULP energy per Si atom -5572.077808 kJ/mol
# Density = 2.167765 g / cm^3
# Si number density = 21.727100 Si / 1000 Ang^3
#
#
#
# Elastic Constant Matrix: (Units=GPa)
#
#
# Indices 1 2 3 4 5 6 
#
# 1 90.1096 1.9873 28.9250 0.0000 33.3621 0.0000
# 2 1.9873 27.0111 3.0969 0.0000 1.3583 0.0000
# 3 28.9250 3.0969 104.0788 0.0000 38.6957 0.0000
# 4 0.0000 0.0000 0.0000 100.8642 0.0000 -30.8978
# 5 33.3621 1.3583 38.6957 0.0000 46.1421 0.0000
# 6 0.0000 0.0000 0.0000 -30.8978 0.0000 31.2526
#
#
#
# Elastic Compliance Matrix: (Units=1/GPa)
#
#
# Indices 1 2 3 4 5 6 
#
# 1 0.015165 -0.000552 -0.000185 0.000000 -0.010793 0.000000
# 2 -0.000552 0.037170 -0.001009 0.000000 0.000151 0.000000
# 3 -0.000185 -0.001009 0.013991 0.000000 -0.011570 0.000000
# 4 0.000000 0.000000 0.000000 0.014221 0.000000 0.014060
# 5 -0.010793 0.000151 -0.011570 0.000000 0.039174 0.000000
# 6 0.000000 0.000000 0.000000 0.014060 0.000000 0.045898
#
#
# Mechanical properties :
#
#
# Convention : Reuss Voigt Hill
#
# Bulk Modulus (GPa) = 15.91463 32.13534 24.02498
# Shear Modulus (GPa) = 26.30793 48.13110 37.21952
#
# Velocity S-wave (km/s) = 3.48348 4.71176 4.14339
# Velocity P-wave (km/s) = 4.84976 6.66509 5.82853
#
# Compressibility (1/GPa) = 0.06283528
#
# Stress axis : x y z
#
# Youngs Moduli (GPa) = 65.93972 26.90306 71.47400
#
# Poissons Ratio (x) = 0.01484 0.01325
# Poissons Ratio (y) = 0.03638 0.07210
# Poissons Ratio (z) = 0.01223 0.02714
#
# Static dielectric constant tensor:
#      x y z
#    x 1.851280 0.000000 0.026470 
#    y 0.000000 1.794000 0.000000 
#    z 0.026470 0.000000 1.878300 
# 
# From -- ./inp_files/306251.got.cif
#   From: 2010.05.17/outbox.cif.g08.bks.cpg/sg12_154_cif.got.tgz:306251.got - 2010.06.03 13:09:07.
