data_PCOD9200810
_publ_section_title
;
Structure prediction by ZEFSAII (Michael W. Deem and Ramdas Pophale) SiO2 
 PCOD9200810
Probable space group: C 2/M
;
_chemical_formula_sum "Si O2"
_cell_formula_units_Z 48
_cell_length_a 16.996513
_cell_length_b 7.775567
_cell_length_c 14.736961
_cell_angle_alpha 90.000000
_cell_angle_beta 89.033253
_cell_angle_gamma 90.000000
_cell_volume 1947.323071
_symmetry_space_group_name_H-M "C 2/M"
_symmetry_group_IT_number 12
_symmetry_cell_setting 'monoclinic'
loop_
_space_group_symop_operation_xyz
x,y,z
-x,y,-z
-x,-y,-z
x,-y,z
1/2+x,1/2+y,z
1/2-x,1/2+y,-z
1/2-x,1/2-y,-z
1/2+x,1/2-y,z
loop_
_atom_site_type_symbol
_atom_site_label
_atom_site_fract_x
_atom_site_fract_y
_atom_site_fract_z
Si Si1 0.926044 0.303297 0.286138
Si Si2 0.425253 0.801154 0.611592
Si Si3 0.673670 0.210901 0.875888
Si Si4 0.081038 0.292149 0.047315
Si Si5 0.828792 0.194815 0.446947
Si Si6 0.165801 0.200609 0.218888
O O1 0.950376 0.500000 0.265996
O O2 0.894042 0.230817 0.192894
O O3 0.853972 0.302271 0.358825
O O4 0.999129 0.223334 0.338574
O O5 0.396932 0.711509 0.521190
O O6 0.356552 0.792689 0.687942
O O7 0.441216 0.000000 0.587767
O O8 0.756553 0.268093 0.833444
O O9 0.673924 0.000000 0.875211
O O10 0.650587 0.264191 0.977393
O O11 0.081241 0.500000 0.054242
O O12 0.096415 0.221055 0.146583
O O13 0.000000 0.242797 0.000000
O O14 0.750000 0.250000 0.500000
O O15 0.820717 0.000000 0.416455
O O16 0.177038 0.000000 0.239934
#
# Coordination Sequence:
#
# PCOD9200810 Si02
#       6
#     8   8   8   8   8   8
#     4  10  21  40  64  88 117 155 199 246 297 354
#     4  11  23  40  63  89 118 157 202 245 294 355
#     4   9  19  36  58  84 114 151 194 240 293 352
#     4  10  20  37  60  83 111 152 199 244 295 358
#     4  12  25  41  62  89 122 158 198 245 296 352
#     4  11  22  36  57  86 120 155 193 244 300 354
#
# _framework density 24.649225000000001
#
# number of rings (size 3 to 8) (size 9 to 14) (size 15 to 20)
#    0.000    1.500    0.000    5.500    0.000    7.667 
#    0.000    2.500    0.000    0.000    0.000    0.000 
#    0.000    0.000    0.000    0.000    0.000    0.000 
#
# Total GULP energy -134382.168564 kJ/mol
# GULP energy per Si atom -5599.257024 kJ/mol
# Density = 2.459312 g / cm^3
# Si number density = 24.649225 Si / 1000 Ang^3
#
#
#
# Elastic Constant Matrix: (Units=GPa)
#
#
# Indices 1 2 3 4 5 6 
#
# 1 65.0343 -1.5826 -3.1199 0.0000 -1.1060 0.0000
# 2 -1.5826 55.4180 -5.7400 0.0000 0.6972 0.0000
# 3 -3.1199 -5.7400 115.5473 0.0000 -5.4207 0.0000
# 4 0.0000 0.0000 0.0000 22.6703 0.0000 0.8544
# 5 -1.1060 0.6972 -5.4207 0.0000 46.8425 0.0000
# 6 0.0000 0.0000 0.0000 0.8544 0.0000 13.8125
#
#
#
# Elastic Compliance Matrix: (Units=1/GPa)
#
#
# Indices 1 2 3 4 5 6 
#
# 1 0.015417 0.000483 0.000459 0.000000 0.000410 0.000000
# 2 0.000483 0.018154 0.000908 0.000000 -0.000154 0.000000
# 3 0.000459 0.000908 0.008759 0.000000 0.001011 0.000000
# 4 0.000000 0.000000 0.000000 0.044214 0.000000 -0.002735
# 5 0.000410 -0.000154 0.001011 0.000000 0.021477 0.000000
# 6 0.000000 0.000000 0.000000 -0.002735 0.000000 0.072568
#
#
# Mechanical properties :
#
#
# Convention : Reuss Voigt Hill
#
# Bulk Modulus (GPa) = 21.72457 23.90163 22.81310
# Shear Modulus (GPa) = 26.01008 33.09453 29.55231
#
# Velocity S-wave (km/s) = 3.25192 3.66815 3.46629
# Velocity P-wave (km/s) = 4.78880 5.25911 5.02945
#
# Compressibility (1/GPa) = 0.04603082
#
# Stress axis : x y z
#
# Youngs Moduli (GPa) = 64.86235 55.08305 114.16319
#
# Poissons Ratio (x) = -0.02659 -0.05246
# Poissons Ratio (y) = -0.03131 -0.10362
# Poissons Ratio (z) = -0.02980 -0.05000
#
# Static dielectric constant tensor:
#      x y z
#    x 2.028220 0.000000 -0.004970 
#    y 0.000000 1.941210 0.000000 
#    z -0.004970 0.000000 1.881630 
# 
# From -- ./inp_files/221611.got.cif
#   From: 2010.05.17/outbox.cif.g08.bks.cpg/sg12_111_cif.got.tgz:221611.got - 2010.06.03 13:09:07.
