data_PCOD9200300
_publ_section_title
;
Structure prediction by ZEFSAII (Michael W. Deem and Ramdas Pophale) SiO2 
 PCOD9200300
Probable space group: C 2/M
;
_chemical_formula_sum "Si O2"
_cell_formula_units_Z 48
_cell_length_a 10.869566
_cell_length_b 23.267472
_cell_length_c 9.753415
_cell_angle_alpha 90.000000
_cell_angle_beta 91.666002
_cell_angle_gamma 90.000000
_cell_volume 2465.667364
_symmetry_space_group_name_H-M "C 2/M"
_symmetry_group_IT_number 12
_symmetry_cell_setting 'monoclinic'
loop_
_space_group_symop_operation_xyz
x,y,z
-x,y,-z
-x,-y,-z
x,-y,z
1/2+x,1/2+y,z
1/2-x,1/2+y,-z
1/2-x,1/2-y,-z
1/2+x,1/2-y,z
loop_
_atom_site_type_symbol
_atom_site_label
_atom_site_fract_x
_atom_site_fract_y
_atom_site_fract_z
Si Si1 0.755109 0.648093 0.785092
Si Si2 0.870613 0.654953 0.498561
Si Si3 0.674065 0.804439 0.940596
Si Si4 0.036593 0.068240 0.843007
Si Si5 0.346655 0.348012 0.702937
Si Si6 0.052018 0.754528 0.710575
O O1 0.841671 0.655973 0.657594
O O2 0.670657 0.592010 0.805156
O O3 0.653934 0.697650 0.750044
O O4 0.830748 0.655777 0.927311
O O5 0.744927 0.635252 0.422354
O O6 0.901513 0.713163 0.410612
O O7 0.000000 0.621251 0.500000
O O8 0.760935 0.834162 0.830091
O O9 0.556031 0.782575 0.851364
O O10 0.750000 0.750000 0.000000
O O11 0.939807 0.101629 0.744584
O O12 0.029193 0.000000 0.829295
O O13 0.000000 0.083598 0.000000
O O14 0.427983 0.290348 0.677773
#
# Coordination Sequence:
#
# PCOD9200300 Si02
#       6
#     8   8   8   8   8   8
#     4  10  20  37  56  85 123 151 199 246 292 352
#     4  11  25  37  54  83 124 171 200 232 292 362
#     4   9  18  32  51  80 115 161 189 230 290 348
#     4  10  20  38  70  96 113 144 192 262 326 347
#     4  10  21  40  55  86 126 154 201 252 293 353
#     4   9  21  32  56  76 120 163 198 231 295 345
#
# _framework density 19.467345999999999
#
# number of rings (size 3 to 8) (size 9 to 14) (size 15 to 20)
#    0.000    2.167    1.667    0.500    9.333    2.000 
#    3.000    1.667    0.000    2.000    0.000    2.333 
#    0.000    0.000    0.000    0.000    0.000    0.000 
#
# Total GULP energy -133759.765175 kJ/mol
# GULP energy per Si atom -5573.323549 kJ/mol
# Density = 1.942304 g / cm^3
# Si number density = 19.467346 Si / 1000 Ang^3
#
#
#
# Elastic Constant Matrix: (Units=GPa)
#
#
# Indices 1 2 3 4 5 6 
#
# 1 100.6163 22.9320 35.1179 0.0000 8.8966 0.0000
# 2 22.9320 60.5496 24.2284 0.0000 4.1939 0.0000
# 3 35.1179 24.2284 129.4057 0.0000 -1.7856 0.0000
# 4 0.0000 0.0000 0.0000 16.1478 0.0000 -4.2543
# 5 8.8966 4.1939 -1.7856 0.0000 36.1558 0.0000
# 6 0.0000 0.0000 0.0000 -4.2543 0.0000 13.5605
#
#
#
# Elastic Compliance Matrix: (Units=1/GPa)
#
#
# Indices 1 2 3 4 5 6 
#
# 1 0.011835 -0.003241 -0.002642 0.000000 -0.002667 0.000000
# 2 -0.003241 0.018923 -0.002685 0.000000 -0.001530 0.000000
# 3 -0.002642 -0.002685 0.008967 0.000000 0.001404 0.000000
# 4 0.000000 0.000000 0.000000 0.067508 0.000000 0.021179
# 5 -0.002667 -0.001530 0.001404 0.000000 0.028561 0.000000
# 6 0.000000 0.000000 0.000000 0.021179 0.000000 0.080388
#
#
# Mechanical properties :
#
#
# Convention : Reuss Voigt Hill
#
# Bulk Modulus (GPa) = 44.26612 50.56980 47.41796
# Shear Modulus (GPa) = 20.76018 27.05905 23.90961
#
# Velocity S-wave (km/s) = 3.26914 3.73228 3.50836
# Velocity P-wave (km/s) = 6.08586 6.67880 6.38921
#
# Compressibility (1/GPa) = 0.02259064
#
# Stress axis : x y z
#
# Youngs Moduli (GPa) = 84.49365 52.84613 111.52499
#
# Poissons Ratio (x) = 0.17125 0.29464
# Poissons Ratio (y) = 0.27380 0.29940
# Poissons Ratio (z) = 0.22322 0.14187
#
# Static dielectric constant tensor:
#      x y z
#    x 1.740490 0.000000 0.027450 
#    y 0.000000 1.668840 0.000000 
#    z 0.027450 0.000000 1.749500 
# 
# From -- ./inp_files/50722.got.cif
#   From: 2010.05.17/outbox.cif.g08.bks.cpg/sg12_26_cif.got.tgz:50722.got - 2010.06.03 13:09:07.
