data_PCOD9200867
_publ_section_title
;
Structure prediction by ZEFSAII (Michael W. Deem and Ramdas Pophale) SiO2 
 PCOD9200867
Probable space group: C 2/M
;
_chemical_formula_sum "Si O2"
_cell_formula_units_Z 52
_cell_length_a 25.675833
_cell_length_b 19.214516
_cell_length_c 8.857197
_cell_angle_alpha 90.000000
_cell_angle_beta 39.553520
_cell_angle_gamma 90.000000
_cell_volume 2782.610861
_symmetry_space_group_name_H-M "C 2/M"
_symmetry_group_IT_number 12
_symmetry_cell_setting 'monoclinic'
loop_
_space_group_symop_operation_xyz
x,y,z
-x,y,-z
-x,-y,-z
x,-y,z
1/2+x,1/2+y,z
1/2-x,1/2+y,-z
1/2-x,1/2-y,-z
1/2+x,1/2-y,z
loop_
_atom_site_type_symbol
_atom_site_label
_atom_site_fract_x
_atom_site_fract_y
_atom_site_fract_z
Si Si1 0.788682 0.756552 0.080747
Si Si2 0.823803 0.361708 0.507768
Si Si3 0.594574 0.000000 0.227241
Si Si4 0.048365 0.847449 0.239638
Si Si5 0.078507 0.000000 0.208506
Si Si6 0.362807 0.132572 0.067511
Si Si7 0.728887 0.000000 0.195149
Si Si8 0.482499 0.776707 0.214578
O O1 0.738498 0.799784 0.317476
O O2 0.797568 0.678642 0.123541
O O3 0.750000 0.750000 0.000000
O O4 0.872730 0.800841 0.893243
O O5 0.838379 0.376589 0.297788
O O6 0.792684 0.430975 0.660075
O O7 0.905220 0.327731 0.399333
O O8 0.500000 0.000000 0.500000
O O9 0.663565 0.000000 0.204124
O O10 0.613096 0.934957 0.078284
O O11 0.000000 0.858085 0.500000
O O12 0.988748 0.799885 0.270978
O O13 0.071594 0.925878 0.135336
O O14 0.000000 0.000000 0.500000
O O15 0.172982 0.000000 0.062133
O O16 0.442865 0.180249 0.886187
O O17 0.500000 0.767522 0.000000
#
# Coordination Sequence:
#
# PCOD9200867 Si02
#       8
#     8   8   4   8   4   8   4   8
#     4  11  21  35  60  91 120 160 213 259 312 375
#     4  11  21  39  62  91 127 164 208 258 328 392
#     4  12  25  42  63  96 135 166 216 271 327 406
#     4  10  20  37  60  84 117 158 207 259 312 364
#     4  10  22  41  63  83 123 164 214 260 319 360
#     4  10  23  39  59  88 128 168 202 259 323 392
#     4  12  23  39  68  95 127 168 213 260 328 389
#     4   9  20  38  60  87 120 159 203 250 315 383
#
# _framework density 18.687486
#
# number of rings (size 3 to 8) (size 9 to 14) (size 15 to 20)
#    0.000    1.538    1.538    3.692    0.000    3.692 
#    0.000    3.462    0.000    0.000    0.000    0.000 
#    0.000    0.000    0.000    0.000    0.000    0.000 
#
# Total GULP energy -144737.768370 kJ/mol
# GULP energy per Si atom -5566.837245 kJ/mol
# Density = 1.864495 g / cm^3
# Si number density = 18.687486 Si / 1000 Ang^3
#
#
#
# Elastic Constant Matrix: (Units=GPa)
#
#
# Indices 1 2 3 4 5 6 
#
# 1 80.8461 56.4028 32.9981 0.0000 -4.4232 0.0000
# 2 56.4028 171.3939 46.9435 0.0000 16.5814 0.0000
# 3 32.9981 46.9435 99.3760 0.0000 -9.8699 0.0000
# 4 0.0000 0.0000 0.0000 29.7429 0.0000 -2.7869
# 5 -4.4232 16.5814 -9.8699 0.0000 13.8435 0.0000
# 6 0.0000 0.0000 0.0000 -2.7869 0.0000 54.0042
#
#
#
# Elastic Compliance Matrix: (Units=1/GPa)
#
#
# Indices 1 2 3 4 5 6 
#
# 1 0.018585 -0.006954 -0.001581 0.000000 0.013141 0.000000
# 2 -0.006954 0.011364 -0.004984 0.000000 -0.019387 0.000000
# 3 -0.001581 -0.004984 0.014513 0.000000 0.015812 0.000000
# 4 0.000000 0.000000 0.000000 0.033785 0.000000 0.001743
# 5 0.013141 -0.019387 0.015812 0.000000 0.110929 0.000000
# 6 0.000000 0.000000 0.000000 0.001743 0.000000 0.018607
#
#
# Mechanical properties :
#
#
# Convention : Reuss Voigt Hill
#
# Bulk Modulus (GPa) = 57.39776 69.36721 63.38248
# Shear Modulus (GPa) = 20.77885 33.86956 27.32421
#
# Velocity S-wave (km/s) = 3.33815 4.26187 3.82798
# Velocity P-wave (km/s) = 6.75566 7.83698 7.31632
#
# Compressibility (1/GPa) = 0.01742228
#
# Stress axis : x y z
#
# Youngs Moduli (GPa) = 53.80638 87.99873 68.90504
#
# Poissons Ratio (x) = 0.61197 0.10894
# Poissons Ratio (y) = 0.37419 0.34345
# Poissons Ratio (z) = 0.08507 0.43862
#
# Static dielectric constant tensor:
#      x y z
#    x 1.497230 0.000000 0.052990 
#    y 0.000000 1.749570 0.000000 
#    z 0.052990 0.000000 1.607100 
# 
# From -- ./inp_files/99041.got.cif
#   From: 2010.05.17/outbox.cif.g08.bks.cpg/sg12_50_cif.got.tgz:99041.got - 2010.06.03 13:09:07.
