data_PCOD9200043
_publ_section_title
;
Structure prediction by ZEFSAII (Michael W. Deem and Ramdas Pophale) SiO2 
 PCOD9200043
Probable space group: C 2/M
;
_chemical_formula_sum "Si O2"
_cell_formula_units_Z 56
_cell_length_a 29.951190
_cell_length_b 14.150747
_cell_length_c 8.954452
_cell_angle_alpha 90.000000
_cell_angle_beta 130.319917
_cell_angle_gamma 90.000000
_cell_volume 2893.610676
_symmetry_space_group_name_H-M "C 2/M"
_symmetry_group_IT_number 12
_symmetry_cell_setting 'monoclinic'
loop_
_space_group_symop_operation_xyz
x,y,z
-x,y,-z
-x,-y,-z
x,-y,z
1/2+x,1/2+y,z
1/2-x,1/2+y,-z
1/2-x,1/2-y,-z
1/2+x,1/2-y,z
loop_
_atom_site_type_symbol
_atom_site_label
_atom_site_fract_x
_atom_site_fract_y
_atom_site_fract_z
Si Si1 0.881074 0.110748 0.932413
Si Si2 0.513219 0.275591 0.699200
Si Si3 0.276058 0.888538 0.891812
Si Si4 0.677613 0.611329 0.879728
Si Si5 0.386284 0.768930 0.458115
Si Si6 0.696823 0.709850 0.481813
Si Si7 0.903372 0.388114 0.214398
O O1 0.849843 0.158821 0.724925
O O2 0.890205 0.000000 0.924167
O O3 0.941385 0.158911 0.115548
O O4 0.837473 0.120467 0.980119
O O5 0.500000 0.310995 0.500000
O O6 0.451370 0.262251 0.646511
O O7 0.545029 0.174786 0.741326
O O8 0.244467 0.863979 0.979937
O O9 0.230017 0.859638 0.667552
O O10 0.283544 0.000000 0.908172
O O11 0.341574 0.852320 0.010828
O O12 0.667725 0.500000 0.817937
O O13 0.637803 0.683572 0.699563
O O14 0.340627 0.780009 0.493593
O O15 0.395272 0.858917 0.370267
O O16 0.750000 0.750000 0.500000
O O17 0.912111 0.500000 0.215218
#
# Coordination Sequence:
#
# PCOD9200043 Si02
#       7
#     8   8   8   8   8   8   8
#     4  11  22  37  59  90 122 155 196 237 290 354
#     4  10  20  38  59  86 117 152 196 249 292 340
#     4   9  19  36  57  81 112 149 191 238 292 347
#     4   9  18  33  58  85 114 147 188 238 286 348
#     4  10  22  38  58  84 118 152 199 238 290 349
#     4  11  24  37  56  83 121 160 188 235 293 351
#     4  10  20  36  63  91 114 149 202 256 299 341
#
# _framework density 19.352982999999998
#
# number of rings (size 3 to 8) (size 9 to 14) (size 15 to 20)
#    0.000    2.000    2.857    1.286    2.000    5.714 
#    0.000    1.429    0.000    0.857    0.000    7.000 
#    0.000    0.000    0.000    0.000    0.000    0.000 
#
# Total GULP energy -156163.181142 kJ/mol
# GULP energy per Si atom -5577.256469 kJ/mol
# Density = 1.930894 g / cm^3
# Si number density = 19.352983 Si / 1000 Ang^3
#
#
#
# Elastic Constant Matrix: (Units=GPa)
#
#
# Indices 1 2 3 4 5 6 
#
# 1 87.6372 6.2219 9.8843 0.0000 9.3545 0.0000
# 2 6.2219 79.4601 16.1250 0.0000 1.0745 0.0000
# 3 9.8843 16.1250 93.6107 0.0000 13.3998 0.0000
# 4 0.0000 0.0000 0.0000 22.0126 0.0000 -2.8051
# 5 9.3545 1.0745 13.3998 0.0000 21.4801 0.0000
# 6 0.0000 0.0000 0.0000 -2.8051 0.0000 14.8148
#
#
#
# Elastic Compliance Matrix: (Units=1/GPa)
#
#
# Indices 1 2 3 4 5 6 
#
# 1 0.012042 -0.000789 -0.000429 0.000000 -0.004937 0.000000
# 2 -0.000789 0.013106 -0.002338 0.000000 0.001147 0.000000
# 3 -0.000429 -0.002338 0.012174 0.000000 -0.007291 0.000000
# 4 0.000000 0.000000 0.000000 0.046552 0.000000 0.008814
# 5 -0.004937 0.001147 -0.007291 0.000000 0.053196 0.000000
# 6 0.000000 0.000000 0.000000 0.008814 0.000000 0.069169
#
#
# Mechanical properties :
#
#
# Convention : Reuss Voigt Hill
#
# Bulk Modulus (GPa) = 33.10226 36.13003 34.61615
# Shear Modulus (GPa) = 22.37928 26.89331 24.63629
#
# Velocity S-wave (km/s) = 3.40424 3.73181 3.57178
# Velocity P-wave (km/s) = 5.70906 6.10557 5.91064
#
# Compressibility (1/GPa) = 0.03020942
#
# Stress axis : x y z
#
# Youngs Moduli (GPa) = 83.04207 76.30242 82.14047
#
# Poissons Ratio (x) = 0.06021 0.03523
# Poissons Ratio (y) = 0.06553 0.19208
# Poissons Ratio (z) = 0.03561 0.17842
#
# Static dielectric constant tensor:
#      x y z
#    x 1.698140 0.000000 0.031130 
#    y 0.000000 1.671500 0.000000 
#    z 0.031130 0.000000 1.667830 
# 
# From -- ./inp_files/111700.got.cif
#   From: 2010.05.17/outbox.cif.g08.bks.cpg/sg12_56_cif.got.tgz:111700.got - 2010.06.03 13:09:07.
