data_PCOD9200609
_publ_section_title
;
Structure prediction by ZEFSAII (Michael W. Deem and Ramdas Pophale) SiO2 
 PCOD9200609
Probable space group: C 2/M
;
_chemical_formula_sum "Si O2"
_cell_formula_units_Z 64
_cell_length_a 32.968050
_cell_length_b 15.578647
_cell_length_c 10.145908
_cell_angle_alpha 90.000000
_cell_angle_beta 39.684195
_cell_angle_gamma 90.000000
_cell_volume 3327.458166
_symmetry_space_group_name_H-M "C 2/M"
_symmetry_group_IT_number 12
_symmetry_cell_setting 'monoclinic'
loop_
_space_group_symop_operation_xyz
x,y,z
-x,y,-z
-x,-y,-z
x,-y,z
1/2+x,1/2+y,z
1/2-x,1/2+y,-z
1/2-x,1/2-y,-z
1/2+x,1/2-y,z
loop_
_atom_site_type_symbol
_atom_site_label
_atom_site_fract_x
_atom_site_fract_y
_atom_site_fract_z
Si Si1 0.424169 0.199959 0.460958
Si Si2 0.299658 0.104047 0.858020
Si Si3 0.802883 0.397164 0.147776
Si Si4 0.065860 0.310675 0.115703
Si Si5 0.190385 0.104197 0.621443
Si Si6 0.198131 0.099495 0.902620
Si Si7 0.569393 0.337418 0.327768
Si Si8 0.927957 0.210770 0.172060
O O1 0.368342 0.137704 0.644404
O O2 0.493424 0.156227 0.305385
O O3 0.422236 0.284446 0.558551
O O4 0.416875 0.233611 0.330700
O O5 0.248972 0.137112 0.877585
O O6 0.298200 0.000000 0.862285
O O7 0.286487 0.133350 0.040780
O O8 0.799577 0.500000 0.155389
O O9 0.751532 0.367516 0.383782
O O10 0.874650 0.370471 0.002004
O O11 0.068165 0.234244 0.216201
O O12 0.073332 0.272104 0.951738
O O13 0.195619 0.135496 0.760384
O O14 0.126783 0.141367 0.714708
O O15 0.187297 0.000000 0.629347
O O16 0.215573 0.000000 0.841933
O O17 0.129526 0.105632 0.142368
O O18 0.500000 0.380485 0.500000
O O19 0.000000 0.174289 0.000000
#
# Coordination Sequence:
#
# PCOD9200609 Si02
#       8
#     8   8   8   8   8   8   8   8
#     4  10  22  37  58  86 113 147 185 232 282 330
#     4  10  22  39  57  83 116 147 186 231 279 333
#     4  10  22  38  58  84 113 148 189 232 276 329
#     4  10  20  39  58  82 115 144 187 234 277 330
#     4  10  22  40  59  81 112 150 190 229 276 333
#     4  10  22  39  58  82 114 150 187 229 279 333
#     4  10  20  37  59  82 112 144 184 233 278 331
#     4  10  22  39  59  84 113 146 187 232 278 330
#
# _framework density 19.233899999999998
#
# number of rings (size 3 to 8) (size 9 to 14) (size 15 to 20)
#    0.000    2.000    2.500    0.000    3.500    3.000 
#    0.000    1.250    0.000    2.250    0.000    0.000 
#    0.000    0.000    0.000    0.000    0.000    0.000 
#
# Total GULP energy -178529.162589 kJ/mol
# GULP energy per Si atom -5579.036331 kJ/mol
# Density = 1.919012 g / cm^3
# Si number density = 19.233900 Si / 1000 Ang^3
#
#
#
# Elastic Constant Matrix: (Units=GPa)
#
#
# Indices 1 2 3 4 5 6 
#
# 1 145.7964 20.1915 66.2953 0.0000 9.2634 0.0000
# 2 20.1915 11.5802 15.9148 0.0000 -1.0215 0.0000
# 3 66.2953 15.9148 129.3184 0.0000 0.1405 0.0000
# 4 0.0000 0.0000 0.0000 29.9607 0.0000 -9.7413
# 5 9.2634 -1.0215 0.1405 0.0000 49.2620 0.0000
# 6 0.0000 0.0000 0.0000 -9.7413 0.0000 23.1746
#
#
#
# Elastic Compliance Matrix: (Units=1/GPa)
#
#
# Indices 1 2 3 4 5 6 
#
# 1 0.010579 -0.013474 -0.003763 0.000000 -0.002258 0.000000
# 2 -0.013474 0.121331 -0.008030 0.000000 0.005073 0.000000
# 3 -0.003763 -0.008030 0.010650 0.000000 0.000511 0.000000
# 4 0.000000 0.000000 0.000000 0.038661 0.000000 0.016251
# 5 -0.002258 0.005073 0.000511 0.000000 0.020828 0.000000
# 6 0.000000 0.000000 0.000000 0.016251 0.000000 0.049982
#
#
# Mechanical properties :
#
#
# Convention : Reuss Voigt Hill
#
# Bulk Modulus (GPa) = 10.86651 54.61090 32.73870
# Shear Modulus (GPa) = 15.00425 32.76568 23.88497
#
# Velocity S-wave (km/s) = 2.79605 4.13187 3.52776
# Velocity P-wave (km/s) = 4.01071 7.15666 5.80102
#
# Compressibility (1/GPa) = 0.09202589
#
# Stress axis : x y z
#
# Youngs Moduli (GPa) = 94.52285 8.24195 93.90091
#
# Poissons Ratio (x) = 0.11105 0.35334
# Poissons Ratio (y) = 1.27363 0.75399
# Poissons Ratio (z) = 0.35568 0.06618
#
# Static dielectric constant tensor:
#      x y z
#    x 1.685870 0.000000 0.002310 
#    y 0.000000 1.652950 0.000000 
#    z 0.002310 0.000000 1.681310 
# 
# From -- ./inp_files/112811.got.cif
#   From: 2010.05.17/outbox.cif.g08.bks.cpg/sg12_57_cif.got.tgz:112811.got - 2010.06.03 13:09:07.
