data_PCOD9200636
_publ_section_title
;
Structure prediction by ZEFSAII (Michael W. Deem and Ramdas Pophale) SiO2 
 PCOD9200636
Probable space group: C 2/M
;
_chemical_formula_sum "Si O2"
_cell_formula_units_Z 44
_cell_length_a 16.632721
_cell_length_b 30.293037
_cell_length_c 5.039621
_cell_angle_alpha 90.000000
_cell_angle_beta 113.309101
_cell_angle_gamma 90.000000
_cell_volume 2331.997532
_symmetry_space_group_name_H-M "C 2/M"
_symmetry_group_IT_number 12
_symmetry_cell_setting 'monoclinic'
loop_
_space_group_symop_operation_xyz
x,y,z
-x,y,-z
-x,-y,-z
x,-y,z
1/2+x,1/2+y,z
1/2-x,1/2+y,-z
1/2-x,1/2-y,-z
1/2+x,1/2-y,z
loop_
_atom_site_type_symbol
_atom_site_label
_atom_site_fract_x
_atom_site_fract_y
_atom_site_fract_z
Si Si1 0.562120 0.550312 0.834272
Si Si2 0.088428 0.318033 0.272962
Si Si3 0.563373 0.000000 0.329283
Si Si4 0.730478 0.609121 0.054326
Si Si5 0.700838 0.796265 0.925371
Si Si6 0.338989 0.911216 0.684795
O O1 0.500000 0.549136 0.500000
O O2 0.596612 0.500000 0.924989
O O3 0.639943 0.584528 0.886322
O O4 0.500000 0.562129 0.000000
O O5 0.121106 0.300521 0.603715
O O6 0.093213 0.371411 0.285473
O O7 0.163393 0.303768 0.168336
O O8 0.000000 0.304802 0.000000
O O9 0.500000 0.000000 0.500000
O O10 0.621552 0.043343 0.366089
O O11 0.500000 0.000000 0.000000
O O12 0.804358 0.591355 0.942033
O O13 0.734991 0.662156 0.041211
O O14 0.757016 0.598345 0.389076
O O15 0.750000 0.750000 0.000000
#
# Coordination Sequence:
#
# PCOD9200636 Si02
#       6
#     8   8   4   8   8   8
#     4  10  21  36  56  82 110 145 185 236 287 333
#     4  10  20  37  59  83 112 149 191 229 281 343
#     4  12  24  36  52  82 118 148 184 230 276 314
#     4  10  21  38  58  81 110 150 190 228 287 345
#     4  10  21  38  59  84 114 147 189 241 287 340
#     4  10  22  35  56  82 111 153 187 228 272 332
#
# _framework density 18.867944999999999
#
# number of rings (size 3 to 8) (size 9 to 14) (size 15 to 20)
#    0.000    1.818    0.000    3.818    2.545    2.909 
#    0.000    2.727    0.000    0.000    0.000    0.000 
#    0.000    0.000    0.000    0.000    0.000    0.000 
#
# Total GULP energy -122647.219144 kJ/mol
# GULP energy per Si atom -5574.873597 kJ/mol
# Density = 1.882500 g / cm^3
# Si number density = 18.867945 Si / 1000 Ang^3
#
#
#
# Elastic Constant Matrix: (Units=GPa)
#
#
# Indices 1 2 3 4 5 6 
#
# 1 49.2288 44.6264 9.9735 0.0000 -6.6465 0.0000
# 2 44.6264 142.8390 10.8422 0.0000 14.1411 0.0000
# 3 9.9735 10.8422 72.4980 0.0000 -8.1699 0.0000
# 4 0.0000 0.0000 0.0000 19.9780 0.0000 -0.2993
# 5 -6.6465 14.1411 -8.1699 0.0000 40.9760 0.0000
# 6 0.0000 0.0000 0.0000 -0.2993 0.0000 6.4403
#
#
#
# Elastic Compliance Matrix: (Units=1/GPa)
#
#
# Indices 1 2 3 4 5 6 
#
# 1 0.031286 -0.010462 -0.001801 0.000000 0.008326 0.000000
# 2 -0.010462 0.010888 -0.000822 0.000000 -0.005619 0.000000
# 3 -0.001801 -0.000822 0.014489 0.000000 0.002880 0.000000
# 4 0.000000 0.000000 0.000000 0.050090 0.000000 0.002328
# 5 0.008326 -0.005619 0.002880 0.000000 0.028268 0.000000
# 6 0.000000 0.000000 0.000000 0.002328 0.000000 0.155381
#
#
# Mechanical properties :
#
#
# Convention : Reuss Voigt Hill
#
# Bulk Modulus (GPa) = 32.79511 43.93889 38.36700
# Shear Modulus (GPa) = 15.30277 26.75378 21.02827
#
# Velocity S-wave (km/s) = 2.85098 3.76965 3.34203
# Velocity P-wave (km/s) = 5.31569 6.50270 5.93893
#
# Compressibility (1/GPa) = 0.03049235
#
# Stress axis : x y z
#
# Youngs Moduli (GPa) = 31.96267 91.84252 69.01866
#
# Poissons Ratio (x) = 0.96088 0.12431
# Poissons Ratio (y) = 0.33440 0.05675
# Poissons Ratio (z) = 0.05757 0.07552
#
# Static dielectric constant tensor:
#      x y z
#    x 1.623100 0.000000 0.008490 
#    y 0.000000 1.673900 0.000000 
#    z 0.008490 0.000000 1.653440 
# 
# From -- ./inp_files/12111.got.cif
#   From: 2010.05.17/outbox.cif.g08.bks.cpg/sg12_7_cif.got.tgz:12111.got - 2010.06.03 13:09:07.
