data_PCOD9200840
_publ_section_title
;
Structure prediction by ZEFSAII (Michael W. Deem and Ramdas Pophale) SiO2 
 PCOD9200840
Probable space group: C 2/M
;
_chemical_formula_sum "Si O2"
_cell_formula_units_Z 48
_cell_length_a 15.460554
_cell_length_b 8.000241
_cell_length_c 15.466657
_cell_angle_alpha 90.000000
_cell_angle_beta 91.839866
_cell_angle_gamma 90.000000
_cell_volume 1912.056071
_symmetry_space_group_name_H-M "C 2/M"
_symmetry_group_IT_number 12
_symmetry_cell_setting 'monoclinic'
loop_
_space_group_symop_operation_xyz
x,y,z
-x,y,-z
-x,-y,-z
x,-y,z
1/2+x,1/2+y,z
1/2-x,1/2+y,-z
1/2-x,1/2-y,-z
1/2+x,1/2-y,z
loop_
_atom_site_type_symbol
_atom_site_label
_atom_site_fract_x
_atom_site_fract_y
_atom_site_fract_z
Si Si1 0.498975 0.309317 0.885210
Si Si2 0.327309 0.703085 0.199315
Si Si3 0.181301 0.301511 0.070866
Si Si4 0.659805 0.200280 0.457571
Si Si5 0.075141 0.196324 0.626025
Si Si6 0.087424 0.689885 0.288448
O O1 0.517200 0.500000 0.905812
O O2 0.592277 0.232386 0.858985
O O3 0.419313 0.252665 0.945094
O O4 0.445520 0.292308 0.793621
O O5 0.328101 0.500000 0.192750
O O6 0.234176 0.757275 0.158981
O O7 0.351357 0.738784 0.299600
O O8 0.176949 0.500000 0.072242
O O9 0.250000 0.250000 0.000000
O O10 0.750000 0.250000 0.500000
O O11 0.596824 0.275397 0.527393
O O12 0.655517 0.260646 0.358396
O O13 0.650766 0.000000 0.453840
O O14 0.995601 0.309975 0.651162
O O15 0.054327 0.000000 0.638478
O O16 0.108585 0.500000 0.261193
#
# Coordination Sequence:
#
# PCOD9200840 Si02
#       6
#     8   8   8   8   8   8
#     4  10  21  40  64  91 118 155 202 247 295 356
#     4   8  19  39  62  85 118 159 195 236 297 359
#     4  11  23  41  63  90 122 157 194 241 299 361
#     4  11  24  37  52  80 117 156 197 243 293 343
#     4  10  20  37  60  84 111 151 198 243 292 350
#     4  10  21  38  58  82 115 155 194 240 296 349
#
# _framework density 25.103867000000001
#
# number of rings (size 3 to 8) (size 9 to 14) (size 15 to 20)
#    0.000    2.000    0.000    4.000    2.333    5.333 
#    0.000   12.500    0.000    0.000    0.000    0.000 
#    0.000    0.000    0.000    0.000    0.000    0.000 
#
# Total GULP energy -133955.515066 kJ/mol
# GULP energy per Si atom -5581.479794 kJ/mol
# Density = 2.504673 g / cm^3
# Si number density = 25.103867 Si / 1000 Ang^3
#
#
#
# Elastic Constant Matrix: (Units=GPa)
#
#
# Indices 1 2 3 4 5 6 
#
# 1 145.2812 0.8714 -26.3867 0.0000 -8.0903 0.0000
# 2 0.8714 46.3448 -3.2522 0.0000 -3.7054 0.0000
# 3 -26.3867 -3.2522 50.6192 0.0000 -11.5276 0.0000
# 4 0.0000 0.0000 0.0000 18.7311 0.0000 0.7207
# 5 -8.0903 -3.7054 -11.5276 0.0000 46.4543 0.0000
# 6 0.0000 0.0000 0.0000 0.7207 0.0000 30.1206
#
#
#
# Elastic Compliance Matrix: (Units=1/GPa)
#
#
# Indices 1 2 3 4 5 6 
#
# 1 0.007881 0.000389 0.004720 0.000000 0.002575 0.000000
# 2 0.000389 0.021908 0.002145 0.000000 0.002347 0.000000
# 3 0.004720 0.002145 0.023932 0.000000 0.006932 0.000000
# 4 0.000000 0.000000 0.000000 0.053436 0.000000 -0.001279
# 5 0.002575 0.002347 0.006932 0.000000 0.023882 0.000000
# 6 0.000000 0.000000 0.000000 -0.001279 0.000000 0.033230
#
#
# Mechanical properties :
#
#
# Convention : Reuss Voigt Hill
#
# Bulk Modulus (GPa) = 14.65652 20.52336 17.58994
# Shear Modulus (GPa) = 28.98436 37.12871 33.05654
#
# Velocity S-wave (km/s) = 3.40159 3.84995 3.63270
# Velocity P-wave (km/s) = 4.61290 5.28734 4.96159
#
# Compressibility (1/GPa) = 0.06822901
#
# Stress axis : x y z
#
# Youngs Moduli (GPa) = 126.87947 45.64483 41.78490
#
# Poissons Ratio (x) = -0.01775 -0.19722
# Poissons Ratio (y) = -0.04934 -0.08962
# Poissons Ratio (z) = -0.59885 -0.09790
#
# Static dielectric constant tensor:
#      x y z
#    x 2.101870 0.000000 0.009640 
#    y 0.000000 1.934850 0.000000 
#    z 0.009640 0.000000 2.194190 
# 
# From -- ./inp_files/267716.got.cif
#   From: 2010.05.17/outbox.cif.g08.bks.cpg/sg12_134_cif.got.tgz:267716.got - 2010.06.03 13:09:07.
