data_PCOD9200551
_publ_section_title
;
Structure prediction by ZEFSAII (Michael W. Deem and Ramdas Pophale) SiO2 
 PCOD9200551
Probable space group: C 2/M
;
_chemical_formula_sum "Si O2"
_cell_formula_units_Z 64
_cell_length_a 17.077561
_cell_length_b 15.057140
_cell_length_c 14.946367
_cell_angle_alpha 90.000000
_cell_angle_beta 110.715401
_cell_angle_gamma 90.000000
_cell_volume 3594.824181
_symmetry_space_group_name_H-M "C 2/M"
_symmetry_group_IT_number 12
_symmetry_cell_setting 'monoclinic'
loop_
_space_group_symop_operation_xyz
x,y,z
-x,y,-z
-x,-y,-z
x,-y,z
1/2+x,1/2+y,z
1/2-x,1/2+y,-z
1/2-x,1/2-y,-z
1/2+x,1/2-y,z
loop_
_atom_site_type_symbol
_atom_site_label
_atom_site_fract_x
_atom_site_fract_y
_atom_site_fract_z
Si Si1 0.283476 0.106026 0.764494
Si Si2 0.025477 0.401161 0.364591
Si Si3 0.096662 0.901902 0.003119
Si Si4 0.859637 0.600439 0.417600
Si Si5 0.417901 0.228869 0.910813
Si Si6 0.393206 0.399647 0.208375
Si Si7 0.275428 0.742126 0.613587
Si Si8 0.458595 0.274474 0.731035
O O1 0.357227 0.150169 0.854001
O O2 0.196814 0.117783 0.784205
O O3 0.278093 0.166117 0.671814
O O4 0.295184 0.000000 0.753399
O O5 0.035546 0.500000 0.332068
O O6 0.098116 0.386146 0.467592
O O7 0.027402 0.326478 0.292094
O O8 0.937908 0.396128 0.381990
O O9 0.129790 0.809103 0.056947
O O10 0.131295 0.000000 0.043940
O O11 0.107021 0.896225 0.900135
O O12 0.000000 0.903091 0.000000
O O13 0.825090 0.500000 0.401134
O O14 0.791694 0.674890 0.371026
O O15 0.451490 0.275183 0.834386
O O16 0.500000 0.200222 0.000000
O O17 0.417230 0.500000 0.242629
O O18 0.464611 0.333165 0.269985
O O19 0.250000 0.750000 0.500000
O O20 0.367980 0.700329 0.656543
#
# Coordination Sequence:
#
# PCOD9200551 Si02
#       8
#     8   8   8   8   8   8   8   8
#     4  10  24  41  58  82 119 159 190 230 288 349
#     4   9  18  33  56  79 105 144 184 226 285 339
#     4   9  16  32  59  84 114 147 183 230 282 337
#     4   9  18  35  56  80 107 138 183 237 283 332
#     4  10  20  37  58  89 114 147 194 236 285 339
#     4  10  20  37  59  84 115 154 190 229 290 346
#     4  11  22  37  57  84 114 151 192 234 285 339
#     4  11  20  33  58  83 113 147 187 237 283 335
#
# _framework density 17.803374999999999
#
# number of rings (size 3 to 8) (size 9 to 14) (size 15 to 20)
#    0.000    2.125    3.750    1.500    0.000    3.750 
#    0.000    1.875    0.000    2.250    0.000    0.000 
#    0.000    0.000    0.000    0.000    0.000    0.000 
#
# Total GULP energy -178258.044523 kJ/mol
# GULP energy per Si atom -5570.563891 kJ/mol
# Density = 1.776285 g / cm^3
# Si number density = 17.803375 Si / 1000 Ang^3
#
#
#
# Elastic Constant Matrix: (Units=GPa)
#
#
# Indices 1 2 3 4 5 6 
#
# 1 79.5134 50.8529 33.7583 0.0000 11.4878 0.0000
# 2 50.8529 137.5204 47.0444 0.0000 18.5607 0.0000
# 3 33.7583 47.0444 89.2359 0.0000 8.7520 0.0000
# 4 0.0000 0.0000 0.0000 25.4193 0.0000 -18.5705
# 5 11.4878 18.5607 8.7520 0.0000 28.3200 0.0000
# 6 0.0000 0.0000 0.0000 -18.5705 0.0000 -46.5404
#
#
#
# Elastic Compliance Matrix: (Units=1/GPa)
#
#
# Indices 1 2 3 4 5 6 
#
# 1 0.017731 -0.004851 -0.003874 0.000000 -0.002816 0.000000
# 2 -0.004851 0.010794 -0.003459 0.000000 -0.004037 0.000000
# 3 -0.003874 -0.003459 0.014560 0.000000 -0.000661 0.000000
# 4 0.000000 0.000000 0.000000 0.030461 0.000000 -0.012154
# 5 -0.002816 -0.004037 -0.000661 0.000000 0.039303 0.000000
# 6 0.000000 0.000000 0.000000 -0.012154 0.000000 -0.016637
#
#
# Mechanical properties :
#
#
# Convention : Reuss Voigt Hill
#
# Bulk Modulus (GPa) = 53.43010 63.28674 58.35842
# Shear Modulus (GPa) = 39.42632 13.08074 26.25353
#
# Velocity S-wave (km/s) = 4.71100 2.71354 3.84427
# Velocity P-wave (km/s) = 7.72449 6.74111 7.24949
#
# Compressibility (1/GPa) = 0.01871604
#
# Stress axis : x y z
#
# Youngs Moduli (GPa) = 56.39965 92.64564 68.68019
#
# Poissons Ratio (x) = 0.44945 0.26606
# Poissons Ratio (y) = 0.27361 0.23758
# Poissons Ratio (z) = 0.21848 0.32048
#
# Static dielectric constant tensor:
#      x y z
#    x 1.608480 0.000000 0.000090 
#    y 0.000000 1.632950 0.000000 
#    z 0.000090 0.000000 1.603250 
# 
# From -- ./inp_files/225325.got.cif
#   From: 2010.05.17/outbox.cif.g08.bks.cpg/sg12_113_cif.got.tgz:225325.got - 2010.06.03 13:09:07.
