data_PCOD9200657
_publ_section_title
;
Structure prediction by ZEFSAII (Michael W. Deem and Ramdas Pophale) SiO2 
 PCOD9200657
Probable space group: C 2/M
;
_chemical_formula_sum "Si O2"
_cell_formula_units_Z 48
_cell_length_a 8.366269
_cell_length_b 32.559543
_cell_length_c 12.295235
_cell_angle_alpha 90.000000
_cell_angle_beta 132.779400
_cell_angle_gamma 90.000000
_cell_volume 2458.259323
_symmetry_space_group_name_H-M "C 2/M"
_symmetry_group_IT_number 12
_symmetry_cell_setting 'monoclinic'
loop_
_space_group_symop_operation_xyz
x,y,z
-x,y,-z
-x,-y,-z
x,-y,z
1/2+x,1/2+y,z
1/2-x,1/2+y,-z
1/2-x,1/2-y,-z
1/2+x,1/2-y,z
loop_
_atom_site_type_symbol
_atom_site_label
_atom_site_fract_x
_atom_site_fract_y
_atom_site_fract_z
Si Si1 0.873941 0.953868 0.325620
Si Si2 0.245600 0.595530 0.592159
Si Si3 0.351214 0.877908 0.695881
Si Si4 0.314292 0.650552 0.835987
Si Si5 0.519810 0.266423 0.845460
Si Si6 0.146985 0.797903 0.670886
O O1 0.680700 0.921244 0.257832
O O2 0.000000 0.955382 0.500000
O O3 0.056516 0.936514 0.327353
O O4 0.803470 0.000000 0.265766
O O5 0.227392 0.616718 0.465247
O O6 0.293140 0.627344 0.711002
O O7 0.000000 0.578127 0.500000
O O8 0.588971 0.858061 0.794327
O O9 0.199254 0.845774 0.687191
O O10 0.385827 0.697784 0.847113
O O11 0.500000 0.632772 0.000000
O O12 0.369537 0.227001 0.766463
O O13 0.549724 0.285595 0.740640
O O14 0.750000 0.250000 0.000000
O O15 0.000000 0.786345 0.500000
#
# Coordination Sequence:
#
# PCOD9200657 Si02
#       6
#     8   8   8   8   8   8
#     4   9  17  33  59  89 116 143 182 231 283 337
#     4   9  19  35  58  87 116 148 187 233 279 333
#     4  10  20  37  59  84 113 146 187 235 286 339
#     4  11  22  38  57  79 111 151 193 232 281 338
#     4  12  25  40  56  81 115 150 193 242 288 339
#     4  12  23  37  58  82 111 147 190 236 287 340
#
# _framework density 19.526012000000001
#
# number of rings (size 3 to 8) (size 9 to 14) (size 15 to 20)
#    0.000    1.500    0.000    7.500    0.000    2.333 
#    0.000    5.000    0.000    3.000    0.000    0.000 
#    0.000    0.000    0.000    0.000    0.000    0.000 
#
# Total GULP energy -133921.232070 kJ/mol
# GULP energy per Si atom -5580.051336 kJ/mol
# Density = 1.948157 g / cm^3
# Si number density = 19.526012 Si / 1000 Ang^3
#
#
#
# Elastic Constant Matrix: (Units=GPa)
#
#
# Indices 1 2 3 4 5 6 
#
# 1 95.3846 61.5817 20.9901 0.0000 15.9618 0.0000
# 2 61.5817 121.0849 34.6383 0.0000 17.5639 0.0000
# 3 20.9901 34.6383 86.0464 0.0000 19.8553 0.0000
# 4 0.0000 0.0000 0.0000 12.6144 0.0000 5.1995
# 5 15.9618 17.5639 19.8553 0.0000 32.4335 0.0000
# 6 0.0000 0.0000 0.0000 5.1995 0.0000 27.2053
#
#
#
# Elastic Compliance Matrix: (Units=1/GPa)
#
#
# Indices 1 2 3 4 5 6 
#
# 1 0.016023 -0.007608 0.000027 0.000000 -0.003782 0.000000
# 2 -0.007608 0.013241 -0.003125 0.000000 -0.001513 0.000000
# 3 0.000027 -0.003125 0.014540 0.000000 -0.007222 0.000000
# 4 0.000000 0.000000 0.000000 0.086054 0.000000 -0.016447
# 5 -0.003782 -0.001513 -0.007222 0.000000 0.037934 0.000000
# 6 0.000000 0.000000 0.000000 -0.016447 0.000000 0.039901
#
#
# Mechanical properties :
#
#
# Convention : Reuss Voigt Hill
#
# Bulk Modulus (GPa) = 44.66159 59.65957 52.16058
# Shear Modulus (GPa) = 21.13548 26.80435 23.96992
#
# Velocity S-wave (km/s) = 3.29359 3.70908 3.50750
# Velocity P-wave (km/s) = 6.11443 6.99738 6.57075
#
# Compressibility (1/GPa) = 0.02239061
#
# Stress axis : x y z
#
# Youngs Moduli (GPa) = 62.41175 75.52025 68.77749
#
# Poissons Ratio (x) = 0.57455 -0.00184
# Poissons Ratio (y) = 0.47482 0.21495
# Poissons Ratio (z) = -0.00167 0.23603
#
# Static dielectric constant tensor:
#      x y z
#    x 1.709890 0.000000 0.031740 
#    y 0.000000 1.685640 0.000000 
#    z 0.031740 0.000000 1.679610 
# 
# From -- ./inp_files/200798.got.cif
#   From: 2010.05.17/outbox.cif.g08.bks.cpg/sg12_101_cif.got.tgz:200798.got - 2010.06.03 13:09:07.
