data_PCOD9200591
_publ_section_title
;
Structure prediction by ZEFSAII (Michael W. Deem and Ramdas Pophale) SiO2 
 PCOD9200591
Probable space group: C 2/M
;
_chemical_formula_sum "Si O2"
_cell_formula_units_Z 64
_cell_length_a 20.031008
_cell_length_b 7.427478
_cell_length_c 19.832060
_cell_angle_alpha 90.000000
_cell_angle_beta 57.936455
_cell_angle_gamma 90.000000
_cell_volume 2500.524660
_symmetry_space_group_name_H-M "C 2/M"
_symmetry_group_IT_number 12
_symmetry_cell_setting 'monoclinic'
loop_
_space_group_symop_operation_xyz
x,y,z
-x,y,-z
-x,-y,-z
x,-y,z
1/2+x,1/2+y,z
1/2-x,1/2+y,-z
1/2-x,1/2-y,-z
1/2+x,1/2-y,z
loop_
_atom_site_type_symbol
_atom_site_label
_atom_site_fract_x
_atom_site_fract_y
_atom_site_fract_z
Si Si1 0.168277 0.218835 0.834001
Si Si2 0.252885 0.214408 0.417665
Si Si3 0.919300 0.779924 0.506704
Si Si4 0.665133 0.215858 0.079267
Si Si5 0.910941 0.794392 0.253280
Si Si6 0.490890 0.288616 0.334583
Si Si7 0.567771 0.791648 0.010823
Si Si8 0.162526 0.283525 0.234758
O O1 0.109423 0.287088 0.808057
O O2 0.142776 0.282456 0.921068
O O3 0.257601 0.277284 0.772870
O O4 0.166659 0.000000 0.834969
O O5 0.250000 0.250000 0.500000
O O6 0.169746 0.276947 0.429001
O O7 0.329272 0.294154 0.339817
O O8 0.258385 0.000000 0.406217
O O9 0.933304 0.718208 0.422246
O O10 0.000000 0.721772 0.500000
O O11 0.919398 0.000000 0.509302
O O12 0.662223 0.282527 0.157353
O O13 0.656465 0.000000 0.086509
O O14 0.750000 0.250000 0.000000
O O15 0.596514 0.286339 0.066337
O O16 0.974478 0.709479 0.269629
O O17 0.934256 0.000000 0.226567
O O18 0.473787 0.500000 0.337945
O O19 0.580187 0.271354 0.310506
O O20 0.546155 0.000000 0.033843
O O21 0.500000 0.707617 0.000000
O O22 0.163797 0.500000 0.232897
#
# Coordination Sequence:
#
# PCOD9200591 Si02
#       8
#     8   8   8   8   8   8   8   8
#     4  10  22  40  59  81 115 153 187 231 282 337
#     4  11  21  37  62  86 112 149 189 233 283 333
#     4   9  19  36  57  82 112 144 184 232 276 323
#     4  10  20  37  59  81 109 145 185 232 279 331
#     4  10  22  40  58  82 116 150 189 233 279 333
#     4  10  21  38  58  81 112 148 186 230 276 330
#     4  10  22  38  58  85 115 145 186 239 285 331
#     4  10  22  38  56  82 115 147 184 231 284 334
#
# _framework density 25.594629000000001
#
# number of rings (size 3 to 8) (size 9 to 14) (size 15 to 20)
#    0.000    2.000    2.500    0.375    3.500    2.250 
#    0.000    0.000    0.000    1.875    0.000    0.000 
#    0.000    0.000    0.000    0.000    0.000    0.000 
#
# Total GULP energy -178942.436706 kJ/mol
# GULP energy per Si atom -5591.951147 kJ/mol
# Density = 2.553637 g / cm^3
# Si number density = 25.594629 Si / 1000 Ang^3
#
#
#
# Elastic Constant Matrix: (Units=GPa)
#
#
# Indices 1 2 3 4 5 6 
#
# 1 127.6351 8.4993 -14.4451 -0.0001 -1.7738 0.0014
# 2 8.4993 97.3372 -6.3812 -0.0002 5.1838 0.0024
# 3 -14.4451 -6.3812 50.8661 -0.0004 -4.9245 0.0002
# 4 -0.0001 -0.0002 -0.0004 13.0271 0.0000 -9.8471
# 5 -1.7738 5.1838 -4.9245 0.0000 48.3534 -0.0004
# 6 0.0014 0.0024 0.0002 -9.8471 -0.0004 12.5692
#
#
#
# Elastic Compliance Matrix: (Units=1/GPa)
#
#
# Indices 1 2 3 4 5 6 
#
# 1 0.008142 -0.000592 0.002296 -0.000001 0.000596 -0.000002
# 2 -0.000592 0.010449 0.001042 -0.000003 -0.001036 -0.000004
# 3 0.002296 0.001042 0.020643 0.000000 0.002075 0.000000
# 4 -0.000001 -0.000003 0.000000 0.188233 0.000002 0.147468
# 5 0.000596 -0.001036 0.002075 0.000002 0.021025 0.000002
# 6 -0.000002 -0.000004 0.000000 0.147468 0.000002 0.195090
#
#
# Mechanical properties :
#
#
# Convention : Reuss Voigt Hill
#
# Bulk Modulus (GPa) = 22.35843 27.90938 25.13391
# Shear Modulus (GPa) = 11.03753 34.00094 22.51924
#
# Velocity S-wave (km/s) = 2.07889 3.64873 2.96943
# Velocity P-wave (km/s) = 3.81011 5.35528 4.64737
#
# Compressibility (1/GPa) = 0.04472586
#
# Stress axis : x y z
#
# Youngs Moduli (GPa) = 122.81434 95.70508 48.44247
#
# Poissons Ratio (x) = 0.05668 -0.11121
# Poissons Ratio (y) = 0.07273 -0.05049
# Poissons Ratio (z) = -0.28194 -0.09976
#
# Static dielectric constant tensor:
#      x y z
#    x 2.060120 0.000000 0.024710 
#    y 0.000000 1.987010 0.000000 
#    z 0.024710 0.000000 1.993940 
# 
# From -- ./inp_files/319983.got.cif
#   From: 2010.05.17/outbox.cif.g08.bks.cpg/sg12_160_cif.got.tgz:319983.got - 2010.06.03 13:09:07.
