data_PCOD9200391
_publ_section_title
;
Structure prediction by ZEFSAII (Michael W. Deem and Ramdas Pophale) SiO2 
 PCOD9200391
Probable space group: C 2/M
;
_chemical_formula_sum "Si O2"
_cell_formula_units_Z 40
_cell_length_a 15.085914
_cell_length_b 26.624835
_cell_length_c 5.422494
_cell_angle_alpha 90.000000
_cell_angle_beta 60.177721
_cell_angle_gamma 90.000000
_cell_volume 1889.571073
_symmetry_space_group_name_H-M "C 2/M"
_symmetry_group_IT_number 12
_symmetry_cell_setting 'monoclinic'
loop_
_space_group_symop_operation_xyz
x,y,z
-x,y,-z
-x,-y,-z
x,-y,z
1/2+x,1/2+y,z
1/2-x,1/2+y,-z
1/2-x,1/2-y,-z
1/2+x,1/2-y,z
loop_
_atom_site_type_symbol
_atom_site_label
_atom_site_fract_x
_atom_site_fract_y
_atom_site_fract_z
Si Si1 0.617438 0.747778 0.592101
Si Si2 0.612812 0.295141 0.097355
Si Si3 0.761807 0.558031 0.448726
Si Si4 0.107360 0.637465 0.486993
Si Si5 0.195788 0.102429 0.030740
O O1 0.500054 0.728243 0.751893
O O2 0.661931 0.726254 0.277214
O O3 0.611177 0.807724 0.602626
O O4 0.663314 0.721775 0.770611
O O5 0.610455 0.355084 0.124082
O O6 0.790486 0.500000 0.385053
O O7 0.859336 0.594233 0.365951
O O8 0.696176 0.566443 0.790704
O O9 0.703761 0.575965 0.283003
O O10 0.197763 0.633085 0.159315
O O11 0.000000 0.629726 0.500000
#
# Coordination Sequence:
#
# PCOD9200391 Si02
#       5
#     8   8   8   8   8
#     4  10  21  35  58  86 129 154 188 232 293 349
#     4  10  20  37  57  89 119 166 184 235 289 359
#     4  10  23  42  62  85 115 156 204 256 296 330
#     4  10  23  40  56  88 123 158 199 243 285 350
#     4  10  23  38  62  86 118 155 206 236 295 355
#
# _framework density 21.168824000000001
#
# number of rings (size 3 to 8) (size 9 to 14) (size 15 to 20)
#    1.200    0.800    2.000    1.800    2.800    2.800 
#    0.000    1.000    0.000    0.000    0.000   56.000 
#    0.000    0.000    0.000    0.000    0.000    0.000 
#
# Total GULP energy -111523.012495 kJ/mol
# GULP energy per Si atom -5576.150625 kJ/mol
# Density = 2.112064 g / cm^3
# Si number density = 21.168824 Si / 1000 Ang^3
#
#
#
# Elastic Constant Matrix: (Units=GPa)
#
#
# Indices 1 2 3 4 5 6 
#
# 1 38.2929 31.6616 26.8355 0.0000 12.4205 0.0000
# 2 31.6616 161.6320 44.1905 0.0000 18.8748 0.0000
# 3 26.8355 44.1905 148.3688 0.0000 51.5612 0.0000
# 4 0.0000 0.0000 0.0000 30.8163 0.0000 6.1589
# 5 12.4205 18.8748 51.5612 0.0000 37.5343 0.0000
# 6 0.0000 0.0000 0.0000 6.1589 0.0000 25.2482
#
#
#
# Elastic Compliance Matrix: (Units=1/GPa)
#
#
# Indices 1 2 3 4 5 6 
#
# 1 0.034086 -0.005329 -0.003041 0.000000 -0.004422 0.000000
# 2 -0.005329 0.007597 -0.001118 0.000000 -0.000522 0.000000
# 3 -0.003041 -0.001118 0.013543 0.000000 -0.017036 0.000000
# 4 0.000000 0.000000 0.000000 0.034113 0.000000 -0.008321
# 5 -0.004422 -0.000522 -0.017036 0.000000 0.051771 0.000000
# 6 0.000000 0.000000 0.000000 -0.008321 0.000000 0.041637
#
#
# Mechanical properties :
#
#
# Convention : Reuss Voigt Hill
#
# Bulk Modulus (GPa) = 27.58561 61.51876 44.55218
# Shear Modulus (GPa) = 23.38552 35.09351 29.23951
#
# Velocity S-wave (km/s) = 3.32733 4.07602 3.72055
# Velocity P-wave (km/s) = 5.27457 7.16073 6.28876
#
# Compressibility (1/GPa) = 0.03625078
#
# Stress axis : x y z
#
# Youngs Moduli (GPa) = 29.33724 131.62584 73.83708
#
# Poissons Ratio (x) = 0.70146 0.22456
# Poissons Ratio (y) = 0.15634 0.08252
# Poissons Ratio (z) = 0.08922 0.14711
#
# Static dielectric constant tensor:
#      x y z
#    x 1.735320 0.000000 0.009660 
#    y 0.000000 1.728880 0.000000 
#    z 0.009660 0.000000 1.885690 
# 
# From -- ./inp_files/15794.got.cif
#   From: 2010.05.17/outbox.cif.g08.bks.cpg/sg12_8_cif.got.tgz:15794.got - 2010.06.03 13:09:07.
