data_PCOD9200573
_publ_section_title
;
Structure prediction by ZEFSAII (Michael W. Deem and Ramdas Pophale) SiO2 
 PCOD9200573
Probable space group: C 2/M
;
_chemical_formula_sum "Si O2"
_cell_formula_units_Z 64
_cell_length_a 29.447787
_cell_length_b 8.969663
_cell_length_c 14.398125
_cell_angle_alpha 90.000000
_cell_angle_beta 64.427094
_cell_angle_gamma 90.000000
_cell_volume 3430.512142
_symmetry_space_group_name_H-M "C 2/M"
_symmetry_group_IT_number 12
_symmetry_cell_setting 'monoclinic'
loop_
_space_group_symop_operation_xyz
x,y,z
-x,y,-z
-x,-y,-z
x,-y,z
1/2+x,1/2+y,z
1/2-x,1/2+y,-z
1/2-x,1/2-y,-z
1/2+x,1/2-y,z
loop_
_atom_site_type_symbol
_atom_site_label
_atom_site_fract_x
_atom_site_fract_y
_atom_site_fract_z
Si Si1 0.979110 0.320693 0.243519
Si Si2 0.585324 0.679260 0.159091
Si Si3 0.547662 0.179346 0.522234
Si Si4 0.766045 0.325673 0.768571
Si Si5 0.159866 0.819985 0.930319
Si Si6 0.283572 0.674738 0.391649
Si Si7 0.126508 0.178019 0.322238
Si Si8 0.879376 0.321051 0.223932
O O1 0.984284 0.500000 0.238100
O O2 0.962896 0.276470 0.362434
O O3 0.934478 0.279869 0.212724
O O4 0.032664 0.248712 0.174657
O O5 0.581222 0.500000 0.161987
O O6 0.598444 0.726788 0.252279
O O7 0.630369 0.720308 0.049529
O O8 0.500000 0.221965 0.500000
O O9 0.597280 0.250799 0.434524
O O10 0.552452 0.000000 0.514899
O O11 0.777334 0.500000 0.776352
O O12 0.718799 0.278051 0.874091
O O13 0.745107 0.313673 0.681863
O O14 0.816147 0.231111 0.734353
O O15 0.132667 0.746361 0.866108
O O16 0.158314 0.000000 0.919909
O O17 0.291322 0.500000 0.404494
O O18 0.250000 0.750000 0.500000
O O19 0.336755 0.756468 0.330270
O O20 0.124278 0.000000 0.330275
O O21 0.875478 0.500000 0.224874
#
# Coordination Sequence:
#
# PCOD9200573 Si02
#       8
#     8   8   8   8   8   8   8   8
#     4  10  22  38  57  84 115 149 190 231 279 341
#     4  10  22  39  59  83 114 148 188 238 288 336
#     4  10  20  37  59  79 109 153 191 226 274 340
#     4   9  20  38  58  79 110 150 189 228 276 337
#     4   9  20  41  62  81 110 151 192 233 284 341
#     4  10  21  37  57  82 113 150 191 233 279 336
#     4  11  23  36  55  87 118 145 185 237 286 334
#     4  10  21  37  57  84 116 147 186 238 285 332
#
# _framework density 18.656106999999999
#
# number of rings (size 3 to 8) (size 9 to 14) (size 15 to 20)
#    0.000    2.125    1.250    1.875    1.750    6.250 
#    0.000    2.500    0.000    0.000    0.000    0.000 
#    0.000    0.000    0.000    0.000    0.000    0.000 
#
# Total GULP energy -178693.508087 kJ/mol
# GULP energy per Si atom -5584.172128 kJ/mol
# Density = 1.861364 g / cm^3
# Si number density = 18.656107 Si / 1000 Ang^3
#
#
#
# Elastic Constant Matrix: (Units=GPa)
#
#
# Indices 1 2 3 4 5 6 
#
# 1 66.3562 13.6367 -1.7327 0.0000 -26.4468 0.0000
# 2 13.6367 19.2937 9.8647 0.0000 -9.0416 0.0000
# 3 -1.7327 9.8647 75.5916 0.0000 -26.7725 0.0000
# 4 0.0000 0.0000 0.0000 26.2654 0.0000 -5.7904
# 5 -26.4468 -9.0416 -26.7725 0.0000 25.0097 0.0000
# 6 0.0000 0.0000 0.0000 -5.7904 0.0000 32.0871
#
#
#
# Elastic Compliance Matrix: (Units=1/GPa)
#
#
# Indices 1 2 3 4 5 6 
#
# 1 0.055374 -0.014494 0.035505 0.000000 0.091323 0.000000
# 2 -0.014494 0.066200 -0.009541 0.000000 -0.001607 0.000000
# 3 0.035505 -0.009541 0.044074 0.000000 0.081277 0.000000
# 4 0.000000 0.000000 0.000000 0.039650 0.000000 0.007155
# 5 0.091323 -0.001607 0.081277 0.000000 0.222980 0.000000
# 6 0.000000 0.000000 0.000000 0.007155 0.000000 0.032456
#
#
# Mechanical properties :
#
#
# Convention : Reuss Voigt Hill
#
# Bulk Modulus (GPa) = 5.30257 22.75318 14.02788
# Shear Modulus (GPa) = 9.98690 25.97064 17.97877
#
# Velocity S-wave (km/s) = 2.31620 3.73510 3.10771
# Velocity P-wave (km/s) = 3.16251 5.55192 4.51804
#
# Compressibility (1/GPa) = 0.18858767
#
# Stress axis : x y z
#
# Youngs Moduli (GPa) = 18.05916 15.10582 22.68913
#
# Poissons Ratio (x) = 0.21895 -0.80558
# Poissons Ratio (y) = 0.26175 0.21647
# Poissons Ratio (z) = -0.64119 0.14412
#
# Static dielectric constant tensor:
#      x y z
#    x 1.625970 0.000000 0.003070 
#    y 0.000000 1.625650 0.000000 
#    z 0.003070 0.000000 1.633950 
# 
# From -- ./inp_files/249032.got.cif
#   From: 2010.05.17/outbox.cif.g08.bks.cpg/sg12_125_cif.got.tgz:249032.got - 2010.06.03 13:09:07.
