data_PCOD9200902
_publ_section_title
;
Structure prediction by ZEFSAII (Michael W. Deem and Ramdas Pophale) SiO2 
 PCOD9200902
Probable space group: C 2/M
;
_chemical_formula_sum "Si O2"
_cell_formula_units_Z 60
_cell_length_a 22.595095
_cell_length_b 12.642758
_cell_length_c 22.650675
_cell_angle_alpha 90.000000
_cell_angle_beta 148.247173
_cell_angle_gamma 90.000000
_cell_volume 3405.133212
_symmetry_space_group_name_H-M "C 2/M"
_symmetry_group_IT_number 12
_symmetry_cell_setting 'monoclinic'
loop_
_space_group_symop_operation_xyz
x,y,z
-x,y,-z
-x,-y,-z
x,-y,z
1/2+x,1/2+y,z
1/2-x,1/2+y,-z
1/2-x,1/2-y,-z
1/2+x,1/2-y,z
loop_
_atom_site_type_symbol
_atom_site_label
_atom_site_fract_x
_atom_site_fract_y
_atom_site_fract_z
Si Si1 0.500000 0.737477 0.000000
Si Si2 0.662740 0.624974 0.045343
Si Si3 0.628880 0.876982 0.430131
Si Si4 0.965528 0.874707 0.187358
Si Si5 0.689197 0.764084 0.362488
Si Si6 0.099344 0.742013 0.755055
Si Si7 0.419214 0.623173 0.378025
Si Si8 0.829780 0.623050 0.778945
O O1 0.422734 0.667509 0.977603
O O2 0.419932 0.811174 0.892566
O O3 0.682303 0.500000 0.070024
O O4 0.779277 0.688388 0.147225
O O5 0.606484 0.640523 0.933264
O O6 0.678240 0.845148 0.407866
O O7 0.697211 0.802898 0.533251
O O8 0.498383 0.844887 0.319778
O O9 0.644953 0.000000 0.455858
O O10 0.907349 0.819191 0.194030
O O11 0.085347 0.817411 0.280429
O O12 0.979656 0.000000 0.209241
O O13 0.682075 0.825693 0.295450
O O14 0.071233 0.808198 0.672548
O O15 0.500000 0.658372 0.500000
O O16 0.447078 0.500000 0.389010
O O17 0.291058 0.628326 0.291776
O O18 0.862645 0.500000 0.802287
#
# Coordination Sequence:
#
# PCOD9200902 Si02
#       8
#     4   8   8   8   8   8   8   8
#     4  12  22  42  62  84 118 150 196 242 294 348
#     4  11  23  40  61  85 116 155 196 239 290 349
#     4  10  21  36  58  88 118 154 193 235 288 342
#     4  10  21  37  60  87 116 153 196 238 288 348
#     4  10  20  37  60  85 120 153 189 241 287 345
#     4  11  21  38  60  84 120 153 194 241 289 338
#     4  10  21  37  59  85 115 152 191 236 290 346
#     4  11  22  38  61  88 115 149 191 243 295 343
#
# _framework density 17.620456000000001
#
# number of rings (size 3 to 8) (size 9 to 14) (size 15 to 20)
#    0.000    1.467    2.667    3.200    0.000    0.000 
#    0.000    4.000    0.000    1.600    0.000    0.000 
#    0.000    0.000    0.000    0.000    0.000    0.000 
#
# Total GULP energy -167599.439399 kJ/mol
# GULP energy per Si atom -5586.647980 kJ/mol
# Density = 1.758035 g / cm^3
# Si number density = 17.620456 Si / 1000 Ang^3
#
#
#
# Elastic Constant Matrix: (Units=GPa)
#
#
# Indices 1 2 3 4 5 6 
#
# 1 93.6861 49.7218 27.8484 0.0000 -10.1717 0.0000
# 2 49.7218 88.4463 26.1490 0.0000 -11.9481 0.0000
# 3 27.8484 26.1490 65.6215 0.0000 -10.7737 0.0000
# 4 0.0000 0.0000 0.0000 22.2370 0.0000 0.3674
# 5 -10.1717 -11.9481 -10.7737 0.0000 36.6131 0.0000
# 6 0.0000 0.0000 0.0000 0.3674 0.0000 17.8247
#
#
#
# Elastic Compliance Matrix: (Units=1/GPa)
#
#
# Indices 1 2 3 4 5 6 
#
# 1 0.015961 -0.007818 -0.003519 0.000000 0.000847 0.000000
# 2 -0.007818 0.016928 -0.003023 0.000000 0.002463 0.000000
# 3 -0.003519 -0.003023 0.018509 0.000000 0.003482 0.000000
# 4 0.000000 0.000000 0.000000 0.044985 0.000000 -0.000927
# 5 0.000847 0.002463 0.003482 0.000000 0.029376 0.000000
# 6 0.000000 0.000000 0.000000 -0.000927 0.000000 0.056121
#
#
# Mechanical properties :
#
#
# Convention : Reuss Voigt Hill
#
# Bulk Modulus (GPa) = 44.09776 50.57691 47.33734
# Shear Modulus (GPa) = 22.91890 24.93729 23.92810
#
# Velocity S-wave (km/s) = 3.61043 3.76606 3.68907
# Velocity P-wave (km/s) = 6.51622 6.90484 6.71334
#
# Compressibility (1/GPa) = 0.02267689
#
# Stress axis : x y z
#
# Youngs Moduli (GPa) = 62.65176 59.07425 54.02831
#
# Poissons Ratio (x) = 0.46184 0.19013
# Poissons Ratio (y) = 0.48981 0.16335
# Poissons Ratio (z) = 0.22048 0.17860
#
# Static dielectric constant tensor:
#      x y z
#    x 1.573900 0.000000 0.003710 
#    y 0.000000 1.567970 0.000000 
#    z 0.003710 0.000000 1.581840 
# 
# From -- ./inp_files/325278.got.cif
#   From: 2010.05.17/outbox.cif.g08.bks.cpg/sg12_163_cif.got.tgz:325278.got - 2010.06.03 13:09:07.
