data_PCOD9200138
_publ_section_title
;
Structure prediction by ZEFSAII (Michael W. Deem and Ramdas Pophale) SiO2 
 PCOD9200138
Probable space group: C 2/M
;
_chemical_formula_sum "Si O2"
_cell_formula_units_Z 52
_cell_length_a 10.547456
_cell_length_b 13.957714
_cell_length_c 22.510522
_cell_angle_alpha 90.000000
_cell_angle_beta 119.164682
_cell_angle_gamma 90.000000
_cell_volume 2893.827027
_symmetry_space_group_name_H-M "C 2/M"
_symmetry_group_IT_number 12
_symmetry_cell_setting 'monoclinic'
loop_
_space_group_symop_operation_xyz
x,y,z
-x,y,-z
-x,-y,-z
x,-y,z
1/2+x,1/2+y,z
1/2-x,1/2+y,-z
1/2-x,1/2-y,-z
1/2+x,1/2-y,z
loop_
_atom_site_type_symbol
_atom_site_label
_atom_site_fract_x
_atom_site_fract_y
_atom_site_fract_z
Si Si1 0.073112 0.259772 0.813832
Si Si2 0.413627 0.114759 0.070422
Si Si3 0.976574 0.111164 0.381758
Si Si4 0.000000 0.753766 0.500000
Si Si5 0.727740 0.239729 0.723803
Si Si6 0.283447 0.889273 0.391045
Si Si7 0.222062 0.385661 0.082648
O O1 0.113904 0.337835 0.872882
O O2 0.148790 0.279047 0.768132
O O3 0.141546 0.162669 0.855696
O O4 0.900063 0.252259 0.769090
O O5 0.574998 0.142369 0.084276
O O6 0.411133 0.000000 0.074505
O O7 0.304149 0.141567 0.992132
O O8 0.017576 0.176010 0.447893
O O9 0.113954 0.113458 0.369146
O O10 0.841835 0.163561 0.319669
O O11 0.947853 0.000000 0.390727
O O12 0.867829 0.682008 0.454818
O O13 0.695961 0.155164 0.669515
O O14 0.332278 0.000000 0.406538
O O15 0.232052 0.500000 0.087405
#
# Coordination Sequence:
#
# PCOD9200138 Si02
#       7
#     8   8   8   4   8   8   8
#     4  12  21  38  59  86 115 153 192 245 288 339
#     4   9  19  36  58  85 114 148 196 244 288 346
#     4  10  21  39  61  85 118 155 193 233 279 337
#     4  10  20  36  64  94 114 144 196 238 278 330
#     4  11  24  37  58  85 119 151 200 234 281 345
#     4  10  21  39  60  85 121 156 186 231 289 340
#     4   9  19  36  59  84 112 152 196 238 292 355
#
# _framework density 17.969283999999998
#
# number of rings (size 3 to 8) (size 9 to 14) (size 15 to 20)
#    0.000    1.846    3.077    2.308    0.000    2.462 
#    0.000    0.000    0.000    1.846    0.000    0.000 
#    0.000    0.000    0.000    0.000    0.000    0.000 
#
# Total GULP energy -145045.478763 kJ/mol
# GULP energy per Si atom -5578.672260 kJ/mol
# Density = 1.792838 g / cm^3
# Si number density = 17.969284 Si / 1000 Ang^3
#
#
#
# Elastic Constant Matrix: (Units=GPa)
#
#
# Indices 1 2 3 4 5 6 
#
# 1 98.2844 45.1108 65.6160 0.0000 -5.4991 0.0000
# 2 45.1108 116.5648 56.7337 0.0000 -6.3779 0.0000
# 3 65.6160 56.7337 123.2305 0.0000 -6.5725 0.0000
# 4 0.0000 0.0000 0.0000 40.9304 0.0000 -9.6841
# 5 -5.4991 -6.3779 -6.5725 0.0000 35.0008 0.0000
# 6 0.0000 0.0000 0.0000 -9.6841 0.0000 35.2538
#
#
#
# Elastic Compliance Matrix: (Units=1/GPa)
#
#
# Indices 1 2 3 4 5 6 
#
# 1 0.016439 -0.002683 -0.007481 0.000000 0.000689 0.000000
# 2 -0.002683 0.011534 -0.003830 0.000000 0.000961 0.000000
# 3 -0.007481 -0.003830 0.013901 0.000000 0.000737 0.000000
# 4 0.000000 0.000000 0.000000 0.026130 0.000000 0.007178
# 5 0.000689 0.000961 0.000737 0.000000 0.028993 0.000000
# 6 0.000000 0.000000 0.000000 0.007178 0.000000 0.030337
#
#
# Mechanical properties :
#
#
# Convention : Reuss Voigt Hill
#
# Bulk Modulus (GPa) = 72.01925 74.77783 73.39854
# Shear Modulus (GPa) = 31.25937 33.61161 32.43549
#
# Velocity S-wave (km/s) = 4.17538 4.32962 4.25320
# Velocity P-wave (km/s) = 7.96311 8.16693 8.06566
#
# Compressibility (1/GPa) = 0.01388518
#
# Stress axis : x y z
#
# Youngs Moduli (GPa) = 60.83024 86.69958 71.93661
#
# Poissons Ratio (x) = 0.23262 0.53818
# Poissons Ratio (y) = 0.16321 0.27554
# Poissons Ratio (z) = 0.45509 0.33208
#
# Static dielectric constant tensor:
#      x y z
#    x 1.601610 0.000000 -0.002430 
#    y 0.000000 1.603810 0.000000 
#    z -0.002430 0.000000 1.623780 
# 
# From -- ./inp_files/299854.got.cif
#   From: 2010.05.17/outbox.cif.g08.bks.cpg/sg12_150_cif.got.tgz:299854.got - 2010.06.03 13:09:07.
