data_PCOD9200107
_publ_section_title
;
Structure prediction by ZEFSAII (Michael W. Deem and Ramdas Pophale) SiO2 
 PCOD9200107
Probable space group: C 2/M
;
_chemical_formula_sum "Si O2"
_cell_formula_units_Z 44
_cell_length_a 9.340856
_cell_length_b 22.407442
_cell_length_c 10.199028
_cell_angle_alpha 90.000000
_cell_angle_beta 47.474835
_cell_angle_gamma 90.000000
_cell_volume 1573.235586
_symmetry_space_group_name_H-M "C 2/M"
_symmetry_group_IT_number 12
_symmetry_cell_setting 'monoclinic'
loop_
_space_group_symop_operation_xyz
x,y,z
-x,y,-z
-x,-y,-z
x,-y,z
1/2+x,1/2+y,z
1/2-x,1/2+y,-z
1/2-x,1/2-y,-z
1/2+x,1/2-y,z
loop_
_atom_site_type_symbol
_atom_site_label
_atom_site_fract_x
_atom_site_fract_y
_atom_site_fract_z
Si Si1 0.246405 0.815438 0.663969
Si Si2 0.000000 0.661655 0.000000
Si Si3 0.696080 0.567482 0.122985
Si Si4 0.387000 0.930251 0.727945
Si Si5 0.031837 0.732090 0.254794
Si Si6 0.337391 0.568671 0.505215
O O1 0.311860 0.878995 0.677922
O O2 0.033462 0.798666 0.743693
O O3 0.278682 0.773256 0.772545
O O4 0.378859 0.793845 0.458580
O O5 0.181137 0.616074 0.874099
O O6 0.965635 0.695752 0.882592
O O7 0.762302 0.500000 0.115570
O O8 0.468057 0.569023 0.293308
O O9 0.750791 0.575146 0.938396
O O10 0.388319 0.915756 0.371914
O O11 0.379339 0.000000 0.689266
O O12 0.500000 0.598306 0.500000
O O13 0.321709 0.500000 0.557371
#
# Coordination Sequence:
#
# PCOD9200107 Si02
#       6
#     8   4   8   8   8   8
#     4  10  22  50  75 114 147 209 264 327 392 484
#     4  12  21  40  72 116 145 210 266 328 388 468
#     4  10  20  36  64 109 164 209 252 318 395 475
#     4  10  20  40  75 114 158 208 259 322 399 476
#     4  10  24  44  80 106 154 196 277 324 396 459
#     4   9  18  32  58 105 160 211 260 310 381 474
#
# _framework density 27.967839000000001
#
# number of rings (size 3 to 8) (size 9 to 14) (size 15 to 20)
#    0.000    2.000    1.818    1.364    0.000    3.636 
#    0.000   12.727    4.000    1.091    0.000   18.455 
#    0.000    0.000    0.000    0.000    0.000    0.000 
#
# Total GULP energy -122994.049708 kJ/mol
# GULP energy per Si atom -5590.638623 kJ/mol
# Density = 2.790418 g / cm^3
# Si number density = 27.967839 Si / 1000 Ang^3
#
#
#
# Elastic Constant Matrix: (Units=GPa)
#
#
# Indices 1 2 3 4 5 6 
#
# 1 151.3741 81.7069 42.8886 0.0000 17.4986 0.0000
# 2 81.7069 156.2077 37.4316 0.0000 23.4570 0.0000
# 3 42.8886 37.4316 214.6650 0.0000 25.8215 0.0000
# 4 0.0000 0.0000 0.0000 10.2489 0.0000 17.8638
# 5 17.4986 23.4570 25.8215 0.0000 36.1702 0.0000
# 6 0.0000 0.0000 0.0000 17.8638 0.0000 49.5931
#
#
#
# Elastic Compliance Matrix: (Units=1/GPa)
#
#
# Indices 1 2 3 4 5 6 
#
# 1 0.009460 -0.004576 -0.000983 0.000000 -0.000907 0.000000
# 2 -0.004576 0.009418 -0.000284 0.000000 -0.003691 0.000000
# 3 -0.000983 -0.000284 0.005278 0.000000 -0.003108 0.000000
# 4 0.000000 0.000000 0.000000 0.262177 0.000000 -0.094438
# 5 -0.000907 -0.003691 -0.003108 0.000000 0.032699 0.000000
# 6 0.000000 0.000000 0.000000 -0.094438 0.000000 0.054181
#
#
# Mechanical properties :
#
#
# Convention : Reuss Voigt Hill
#
# Bulk Modulus (GPa) = 80.19652 94.03347 87.11500
# Shear Modulus (GPa) = 12.85164 43.21707 28.03435
#
# Velocity S-wave (km/s) = 2.14596 3.93522 3.16947
# Velocity P-wave (km/s) = 5.90567 7.37177 6.67907
#
# Compressibility (1/GPa) = 0.01246937
#
# Stress axis : x y z
#
# Youngs Moduli (GPa) = 105.71266 106.18297 189.45824
#
# Poissons Ratio (x) = 0.48592 0.18622
# Poissons Ratio (y) = 0.48377 0.05379
# Poissons Ratio (z) = 0.10390 0.03015
#
# Static dielectric constant tensor:
#      x y z
#    x 2.205500 0.000000 0.017000 
#    y 0.000000 2.228510 0.000000 
#    z 0.017000 0.000000 2.268240 
# 
# From -- ./inp_files/51210.got.cif
#   From: 2010.05.17/outbox.cif.g08.bks.cpg/sg12_26_cif.got.tgz:51210.got - 2010.06.03 13:09:07.
