data_PCOD9200632
_publ_section_title
;
Structure prediction by ZEFSAII (Michael W. Deem and Ramdas Pophale) SiO2 
 PCOD9200632
Probable space group: C 2/M
;
_chemical_formula_sum "Si O2"
_cell_formula_units_Z 64
_cell_length_a 15.043406
_cell_length_b 7.458408
_cell_length_c 23.186687
_cell_angle_alpha 90.000000
_cell_angle_beta 96.217075
_cell_angle_gamma 90.000000
_cell_volume 2586.242662
_symmetry_space_group_name_H-M "C 2/M"
_symmetry_group_IT_number 12
_symmetry_cell_setting 'monoclinic'
loop_
_space_group_symop_operation_xyz
x,y,z
-x,y,-z
-x,-y,-z
x,-y,z
1/2+x,1/2+y,z
1/2-x,1/2+y,-z
1/2-x,1/2-y,-z
1/2+x,1/2-y,z
loop_
_atom_site_type_symbol
_atom_site_label
_atom_site_fract_x
_atom_site_fract_y
_atom_site_fract_z
Si Si1 0.515643 0.703769 0.088039
Si Si2 0.450330 0.213413 0.439953
Si Si3 0.853974 0.210672 0.138570
Si Si4 0.094036 0.714990 0.217266
Si Si5 0.227153 0.214932 0.624091
Si Si6 0.807752 0.212805 0.947599
Si Si7 0.696164 0.283646 0.746649
Si Si8 0.930864 0.280808 0.656734
O O1 0.498971 0.500000 0.066620
O O2 0.419948 0.789892 0.095100
O O3 0.557726 0.702614 0.155768
O O4 0.591523 0.784779 0.052258
O O5 0.500000 0.284552 0.500000
O O6 0.343955 0.242501 0.430215
O O7 0.498317 0.283212 0.385379
O O8 0.464338 0.000000 0.440369
O O9 0.753366 0.222111 0.109142
O O10 0.859796 0.287912 0.203202
O O11 0.875772 0.000000 0.143764
O O12 0.082691 0.500000 0.211264
O O13 0.199606 0.750191 0.232045
O O14 0.053159 0.776222 0.275868
O O15 0.183896 0.284351 0.681165
O O16 0.330309 0.274457 0.629962
O O17 0.231756 0.000000 0.628341
O O18 0.816067 0.000000 0.942989
O O19 0.750000 0.250000 0.000000
O O20 0.684870 0.500000 0.745111
O O21 0.931327 0.500000 0.658383
#
# Coordination Sequence:
#
# PCOD9200632 Si02
#       8
#     8   8   8   8   8   8   8   8
#     4  10  22  36  55  85 116 141 174 224 278 317
#     4  10  21  36  52  74 108 147 184 224 275 327
#     4  10  20  37  59  83 112 147 180 218 272 328
#     4   9  16  31  56  80 106 142 182 217 263 330
#     4   9  18  34  55  78 104 139 184 227 266 320
#     4  11  24  42  60  82 112 148 186 226 267 314
#     4   8  15  30  54  80 106 139 175 213 266 327
#     4   8  17  34  53  75 106 144 179 219 273 327
#
# _framework density 24.746323
#
# number of rings (size 3 to 8) (size 9 to 14) (size 15 to 20)
#    0.000    2.625    1.250    1.875    1.750    2.250 
#    0.000    6.250    0.000    0.000    0.000    0.000 
#    0.000    0.000    0.000    0.000    0.000    0.000 
#
# Total GULP energy -178752.553278 kJ/mol
# GULP energy per Si atom -5586.017290 kJ/mol
# Density = 2.469000 g / cm^3
# Si number density = 24.746323 Si / 1000 Ang^3
#
#
#
# Elastic Constant Matrix: (Units=GPa)
#
#
# Indices 1 2 3 4 5 6 
#
# 1 92.9988 0.1582 8.6805 0.0000 -7.7667 0.0000
# 2 0.1582 76.4755 1.8741 0.0000 -6.7344 0.0000
# 3 8.6805 1.8741 53.7257 0.0000 8.5701 0.0000
# 4 0.0000 0.0000 0.0000 4.8260 0.0000 9.2129
# 5 -7.7667 -6.7344 8.5701 0.0000 41.6186 0.0000
# 6 0.0000 0.0000 0.0000 9.2129 0.0000 7.4810
#
#
#
# Elastic Compliance Matrix: (Units=1/GPa)
#
#
# Indices 1 2 3 4 5 6 
#
# 1 0.011176 0.000259 -0.002227 0.000000 0.002586 0.000000
# 2 0.000259 0.013307 -0.000886 0.000000 0.002384 0.000000
# 3 -0.002227 -0.000886 0.019741 0.000000 -0.004624 0.000000
# 4 0.000000 0.000000 0.000000 -0.153380 0.000000 0.188887
# 5 0.002586 0.002384 -0.004624 0.000000 0.025848 0.000000
# 6 0.000000 0.000000 0.000000 0.188887 0.000000 -0.098944
#
#
# Mechanical properties :
#
#
# Convention : Reuss Voigt Hill
#
# Bulk Modulus (GPa) = 25.96328 27.18063 26.57195
# Shear Modulus (GPa) = -30.54315 24.95095 -2.79610
#
# Velocity S-wave (km/s) = -3.51700 3.17877 -1.06412
# Velocity P-wave (km/s) = 2.44496 4.94776 3.04158
#
# Compressibility (1/GPa) = 0.03851593
#
# Stress axis : x y z
#
# Youngs Moduli (GPa) = 89.47528 75.14717 50.65473
#
# Poissons Ratio (x) = -0.01948 0.11283
# Poissons Ratio (y) = -0.02319 0.04490
# Poissons Ratio (z) = 0.19929 0.06661
#
# Static dielectric constant tensor:
#      x y z
#    x 1.985700 0.000000 -0.032530 
#    y 0.000000 1.943590 0.000000 
#    z -0.032530 0.000000 1.971430 
# 
# From -- ./inp_files/338781.got.cif
#   From: 2010.05.17/outbox.cif.g08.bks.cpg/sg12_170_cif.got.tgz:338781.got - 2010.06.03 13:09:07.
