data_PCOD9200165
_publ_section_title
;
Structure prediction by ZEFSAII (Michael W. Deem and Ramdas Pophale) SiO2 
 PCOD9200165
Probable space group: C 2/M
;
_chemical_formula_sum "Si O2"
_cell_formula_units_Z 40
_cell_length_a 10.726960
_cell_length_b 25.685968
_cell_length_c 8.446821
_cell_angle_alpha 90.000000
_cell_angle_beta 114.513688
_cell_angle_gamma 90.000000
_cell_volume 2117.588159
_symmetry_space_group_name_H-M "C 2/M"
_symmetry_group_IT_number 12
_symmetry_cell_setting 'monoclinic'
loop_
_space_group_symop_operation_xyz
x,y,z
-x,y,-z
-x,-y,-z
x,-y,z
1/2+x,1/2+y,z
1/2-x,1/2+y,-z
1/2-x,1/2-y,-z
1/2+x,1/2-y,z
loop_
_atom_site_type_symbol
_atom_site_label
_atom_site_fract_x
_atom_site_fract_y
_atom_site_fract_z
Si Si1 0.580536 0.786354 0.709829
Si Si2 0.621941 0.100818 0.838088
Si Si3 0.205105 0.280783 0.317594
Si Si4 0.695133 0.102563 0.237982
Si Si5 0.161737 0.000000 0.563021
Si Si6 0.843437 0.500000 0.347911
O O1 0.500000 0.782709 0.500000
O O2 0.635886 0.844757 0.754870
O O3 0.705457 0.746230 0.771506
O O4 0.460341 0.777599 0.775536
O O5 0.459632 0.092811 0.782991
O O6 0.672262 0.051560 0.766382
O O7 0.689066 0.106951 0.045335
O O8 0.250000 0.250000 0.500000
O O9 0.239215 0.342197 0.336067
O O10 0.782587 0.052800 0.329182
O O11 0.229947 0.000000 0.424989
O O12 0.000000 0.000000 0.500000
O O13 0.000000 0.500000 0.500000
#
# Coordination Sequence:
#
# PCOD9200165 Si02
#       6
#     8   8   8   8   4   4
#     4   9  18  33  55  86 116 152 194 241 284 348
#     4  10  20  36  65  89 117 149 209 254 286 339
#     4   9  19  33  57  81 116 153 195 237 286 344
#     4  10  21  40  59  89 121 159 193 250 304 343
#     4  12  27  41  61  87 124 151 193 242 313 370
#     4  12  21  37  67  93 108 154 207 250 290 355
#
# _framework density 18.889415
#
# number of rings (size 3 to 8) (size 9 to 14) (size 15 to 20)
#    0.000    2.000    2.000    1.200    5.600    4.800 
#    0.000    2.000    0.000    0.000    0.000    0.000 
#    0.000    0.000    0.000    0.000    0.000    0.000 
#
# Total GULP energy -111570.370132 kJ/mol
# GULP energy per Si atom -5578.518507 kJ/mol
# Density = 1.884642 g / cm^3
# Si number density = 18.889415 Si / 1000 Ang^3
#
#
#
# Elastic Constant Matrix: (Units=GPa)
#
#
# Indices 1 2 3 4 5 6 
#
# 1 101.4258 77.6839 23.9276 0.0000 -4.7507 0.0000
# 2 77.6839 162.6285 39.7119 0.0000 13.8585 0.0000
# 3 23.9276 39.7119 48.1031 0.0000 -1.2723 0.0000
# 4 0.0000 0.0000 0.0000 -19.7077 0.0000 -15.5024
# 5 -4.7507 13.8585 -1.2723 0.0000 7.4919 0.0000
# 6 0.0000 0.0000 0.0000 -15.5024 0.0000 31.7430
#
#
#
# Elastic Compliance Matrix: (Units=1/GPa)
#
#
# Indices 1 2 3 4 5 6 
#
# 1 0.022991 -0.015205 0.002256 0.000000 0.043088 0.000000
# 2 -0.015205 0.020051 -0.010272 0.000000 -0.048477 0.000000
# 3 0.002256 -0.010272 0.028817 0.000000 0.025326 0.000000
# 4 0.000000 0.000000 0.000000 -0.036659 0.000000 -0.017903
# 5 0.043088 -0.048477 0.025326 0.000000 0.254772 0.000000
# 6 0.000000 0.000000 0.000000 -0.017903 0.000000 0.022760
#
#
# Mechanical properties :
#
#
# Convention : Reuss Voigt Hill
#
# Bulk Modulus (GPa) = 39.34471 66.08934 52.71702
# Shear Modulus (GPa) = 13.59995 15.29439 14.44717
#
# Velocity S-wave (km/s) = 2.68615 2.84858 2.76855
# Velocity P-wave (km/s) = 5.52220 6.77367 6.17970
#
# Compressibility (1/GPa) = 0.02541638
#
# Stress axis : x y z
#
# Youngs Moduli (GPa) = 43.49486 49.87163 34.70184
#
# Poissons Ratio (x) = 0.75830 -0.07828
# Poissons Ratio (y) = 0.66134 0.35647
# Poissons Ratio (z) = -0.09812 0.51231
#
# Static dielectric constant tensor:
#      x y z
#    x 1.696000 0.000000 -0.028180 
#    y 0.000000 1.638460 0.000000 
#    z -0.028180 0.000000 1.670590 
# 
# From -- ./inp_files/51006.got.cif
#   From: 2010.05.17/outbox.cif.g08.bks.cpg/sg12_26_cif.got.tgz:51006.got - 2010.06.03 13:09:07.
