data_PCOD9200301
_publ_section_title
;
Structure prediction by ZEFSAII (Michael W. Deem and Ramdas Pophale) SiO2 
 PCOD9200301
Probable space group: C 2/M
;
_chemical_formula_sum "Si O2"
_cell_formula_units_Z 58
_cell_length_a 8.909037
_cell_length_b 20.173572
_cell_length_c 23.498695
_cell_angle_alpha 90.000000
_cell_angle_beta 141.696493
_cell_angle_gamma 90.000000
_cell_volume 2617.748058
_symmetry_space_group_name_H-M "C 2/M"
_symmetry_group_IT_number 12
_symmetry_cell_setting 'monoclinic'
loop_
_space_group_symop_operation_xyz
x,y,z
-x,y,-z
-x,-y,-z
x,-y,z
1/2+x,1/2+y,z
1/2-x,1/2+y,-z
1/2-x,1/2-y,-z
1/2+x,1/2-y,z
loop_
_atom_site_type_symbol
_atom_site_label
_atom_site_fract_x
_atom_site_fract_y
_atom_site_fract_z
Si Si1 0.312835 0.799609 0.795690
Si Si2 0.739500 0.925152 0.148907
Si Si3 0.431086 0.857188 0.539419
Si Si4 0.076800 0.791447 0.602976
Si Si5 0.335443 0.574438 0.045322
Si Si6 0.500000 0.500000 0.500000
Si Si7 0.240803 0.335072 0.845465
Si Si8 0.904784 0.391099 0.650400
O O1 0.197370 0.863116 0.792894
O O2 0.180451 0.787817 0.696913
O O3 0.291272 0.734021 0.827449
O O4 0.582214 0.818200 0.853723
O O5 0.845308 0.917543 0.116954
O O6 0.797761 0.000000 0.186897
O O7 0.447232 0.921404 0.054633
O O8 0.500000 0.889282 0.500000
O O9 0.528700 0.782673 0.569883
O O10 0.523162 0.894343 0.623159
O O11 0.145293 0.842766 0.459509
O O12 0.271831 0.820454 0.617555
O O13 0.417705 0.500000 0.055454
O O14 0.507730 0.628463 0.069412
O O15 0.687935 0.443569 0.582645
O O16 0.087597 0.385775 0.758162
#
# Coordination Sequence:
#
# PCOD9200301 Si02
#       8
#     8   8   8   8   8   2   8   8
#     4  11  23  37  60  91 128 157 206 262 316 371
#     4   9  20  42  67  92 125 171 208 254 316 375
#     4  11  20  33  63  88 113 149 202 254 302 357
#     4  10  20  37  56  86 117 153 195 248 305 365
#     4   9  20  41  67  90 125 170 214 252 310 386
#     4  12  24  44  62  76 124 176 204 246 304 390
#     4  11  24  39  62  95 126 163 208 269 318 369
#     4  11  23  41  60  84 121 166 202 248 311 369
#
# _framework density 22.156448000000001
#
# number of rings (size 3 to 8) (size 9 to 14) (size 15 to 20)
#    0.000    1.655    2.759    3.310    2.897    2.759 
#    3.724    1.724    0.000    0.000    0.000    0.000 
#    0.000    0.000    0.000    0.000    0.000    0.000 
#
# Total GULP energy -161663.519922 kJ/mol
# GULP energy per Si atom -5574.604135 kJ/mol
# Density = 2.210602 g / cm^3
# Si number density = 22.156448 Si / 1000 Ang^3
#
#
#
# Elastic Constant Matrix: (Units=GPa)
#
#
# Indices 1 2 3 4 5 6 
#
# 1 53.0058 35.9646 16.3232 0.0014 -16.5965 -0.0001
# 2 35.9646 101.2597 17.2263 0.0012 -9.0374 0.0002
# 3 16.3232 17.2263 35.1111 0.0001 -2.6602 -0.0015
# 4 0.0014 0.0012 0.0001 20.6995 -0.0002 11.7416
# 5 -16.5965 -9.0374 -2.6602 -0.0002 33.1648 -0.0009
# 6 -0.0001 0.0002 -0.0015 11.7416 -0.0009 6.5107
#
#
#
# Elastic Compliance Matrix: (Units=1/GPa)
#
#
# Indices 1 2 3 4 5 6 
#
# 1 0.031504 -0.008431 -0.009547 0.000070 0.012702 -0.000125
# 2 -0.008431 0.013246 -0.002641 -0.000022 -0.000822 0.000038
# 3 -0.009547 -0.002641 0.034006 0.000154 -0.002770 -0.000271
# 4 0.000070 -0.000022 0.000154 -2.101682 0.000127 3.790246
# 5 0.012702 -0.000822 -0.002770 0.000127 0.036063 -0.000224
# 6 -0.000125 0.000038 -0.000271 3.790246 -0.000224 -6.681869
#
#
# Mechanical properties :
#
#
# Convention : Reuss Voigt Hill
#
# Bulk Modulus (GPa) = 26.65553 36.48943 31.57248
# Shear Modulus (GPa) = -0.58038 20.06583 9.74272
#
# Velocity S-wave (km/s) = -0.51236 3.01266 2.09923
# Velocity P-wave (km/s) = 3.42150 5.34848 4.48959
#
# Compressibility (1/GPa) = 0.03751567
#
# Stress axis : x y z
#
# Youngs Moduli (GPa) = 31.74229 75.49318 29.40700
#
# Poissons Ratio (x) = 0.63652 0.28075
# Poissons Ratio (y) = 0.26763 0.07767
# Poissons Ratio (z) = 0.30305 0.19940
#
# Static dielectric constant tensor:
#      x y z
#    x 1.878990 0.000000 0.020480 
#    y 0.000000 1.759040 0.000000 
#    z 0.020480 0.000000 1.878920 
# 
# From -- ./inp_files/257118.got.cif
#   From: 2010.05.17/outbox.cif.g08.bks.cpg/sg12_129_cif.got.tgz:257118.got - 2010.06.03 13:09:07.
