data_PCOD9200958
_publ_section_title
;
Structure prediction by ZEFSAII (Michael W. Deem and Ramdas Pophale) SiO2 
 PCOD9200958
Probable space group: C 2/M
;
_chemical_formula_sum "Si O2"
_cell_formula_units_Z 64
_cell_length_a 9.557193
_cell_length_b 21.142816
_cell_length_c 16.628379
_cell_angle_alpha 90.000000
_cell_angle_beta 94.747322
_cell_angle_gamma 90.000000
_cell_volume 3348.502571
_symmetry_space_group_name_H-M "C 2/M"
_symmetry_group_IT_number 12
_symmetry_cell_setting 'monoclinic'
loop_
_space_group_symop_operation_xyz
x,y,z
-x,y,-z
-x,-y,-z
x,-y,z
1/2+x,1/2+y,z
1/2-x,1/2+y,-z
1/2-x,1/2-y,-z
1/2+x,1/2-y,z
loop_
_atom_site_type_symbol
_atom_site_label
_atom_site_fract_x
_atom_site_fract_y
_atom_site_fract_z
Si Si1 0.192444 0.151909 0.797050
Si Si2 0.756868 0.924499 0.932388
Si Si3 0.610102 0.616029 0.230784
Si Si4 0.031158 0.426467 0.165731
Si Si5 0.851812 0.805272 0.033780
Si Si6 0.432183 0.801150 0.411231
Si Si7 0.875641 0.429208 0.330031
Si Si8 0.826631 0.751864 0.686206
O O1 0.328365 0.113374 0.832345
O O2 0.140478 0.193481 0.869858
O O3 0.248085 0.196179 0.729058
O O4 0.057031 0.110461 0.766219
O O5 0.845330 0.906311 0.856243
O O6 0.593930 0.911570 0.902329
O O7 0.773138 0.000000 0.949694
O O8 0.804251 0.875260 0.002188
O O9 0.712632 0.578894 0.296390
O O10 0.647470 0.689411 0.252117
O O11 0.065628 0.500000 0.156757
O O12 0.961297 0.418741 0.250786
O O13 0.750000 0.750000 0.000000
O O14 0.000000 0.793096 0.000000
O O15 0.500000 0.787349 0.500000
O O16 0.420692 0.875844 0.394061
O O17 0.276798 0.774595 0.389435
O O18 0.529725 0.771876 0.345955
O O19 0.902051 0.500000 0.359329
#
# Coordination Sequence:
#
# PCOD9200958 Si02
#       8
#     8   8   8   8   8   8   8   8
#     4  12  23  37  62  86 118 160 203 252 302 363
#     4  10  22  44  64  87 124 161 209 263 308 361
#     4  10  20  37  60  87 117 161 199 246 301 350
#     4   9  20  37  62  88 113 156 203 253 304 352
#     4  12  28  43  60  89 122 164 209 260 317 363
#     4  11  22  38  63  91 124 157 192 246 303 362
#     4   9  19  38  61  87 120 157 201 241 294 364
#     4  11  22  38  59  92 123 155 202 242 299 365
#
# _framework density 19.113022000000001
#
# number of rings (size 3 to 8) (size 9 to 14) (size 15 to 20)
#    0.000    1.500    3.750    2.250    1.750    2.000 
#    0.000    1.250    0.000    0.000    0.000    0.875 
#    0.000    0.000    0.000    0.000    0.000    0.000 
#
# Total GULP energy -178708.378916 kJ/mol
# GULP energy per Si atom -5584.636841 kJ/mol
# Density = 1.906952 g / cm^3
# Si number density = 19.113022 Si / 1000 Ang^3
#
#
#
# Elastic Constant Matrix: (Units=GPa)
#
#
# Indices 1 2 3 4 5 6 
#
# 1 111.4848 34.3278 -2.0781 0.0000 -2.9680 0.0000
# 2 34.3278 68.4874 9.7760 0.0000 -1.2490 0.0000
# 3 -2.0781 9.7760 35.6615 0.0000 2.2658 0.0000
# 4 0.0000 0.0000 0.0000 13.8437 0.0000 2.8572
# 5 -2.9680 -1.2490 2.2658 0.0000 18.3185 0.0000
# 6 0.0000 0.0000 0.0000 2.8572 0.0000 22.2186
#
#
#
# Elastic Compliance Matrix: (Units=1/GPa)
#
#
# Indices 1 2 3 4 5 6 
#
# 1 0.010791 -0.005691 0.002119 0.000000 0.001098 0.000000
# 2 -0.005691 0.018242 -0.005395 0.000000 0.000989 0.000000
# 3 0.002119 -0.005395 0.029880 0.000000 -0.003720 0.000000
# 4 0.000000 0.000000 0.000000 0.074205 0.000000 -0.009543
# 5 0.001098 0.000989 -0.003720 0.000000 0.055295 0.000000
# 6 0.000000 0.000000 0.000000 -0.009543 0.000000 0.046234
#
#
# Mechanical properties :
#
#
# Convention : Reuss Voigt Hill
#
# Bulk Modulus (GPa) = 24.40285 33.29834 28.85059
# Shear Modulus (GPa) = 18.77994 22.45003 20.61498
#
# Velocity S-wave (km/s) = 3.13800 3.43095 3.28774
# Velocity P-wave (km/s) = 5.09164 5.75803 5.43506
#
# Compressibility (1/GPa) = 0.04097882
#
# Stress axis : x y z
#
# Youngs Moduli (GPa) = 92.67001 54.81861 33.46682
#
# Poissons Ratio (x) = 0.31198 -0.07092
# Poissons Ratio (y) = 0.52740 0.18056
# Poissons Ratio (z) = -0.19639 0.29576
#
# Static dielectric constant tensor:
#      x y z
#    x 1.672600 0.000000 0.017460 
#    y 0.000000 1.661460 0.000000 
#    z 0.017460 0.000000 1.666640 
# 
# From -- ./inp_files/258091.got.cif
#   From: 2010.05.17/outbox.cif.g08.bks.cpg/sg12_130_cif.got.tgz:258091.got - 2010.06.03 13:09:07.
