data_PCOD9200069
_publ_section_title
;
Structure prediction by ZEFSAII (Michael W. Deem and Ramdas Pophale) SiO2 
 PCOD9200069
Probable space group: C 2/M
;
_chemical_formula_sum "Si O2"
_cell_formula_units_Z 58
_cell_length_a 27.126068
_cell_length_b 9.685924
_cell_length_c 11.570277
_cell_angle_alpha 90.000000
_cell_angle_beta 90.583817
_cell_angle_gamma 90.000000
_cell_volume 3039.828718
_symmetry_space_group_name_H-M "C 2/M"
_symmetry_group_IT_number 12
_symmetry_cell_setting 'monoclinic'
loop_
_space_group_symop_operation_xyz
x,y,z
-x,y,-z
-x,-y,-z
x,-y,z
1/2+x,1/2+y,z
1/2-x,1/2+y,-z
1/2-x,1/2-y,-z
1/2+x,1/2-y,z
loop_
_atom_site_type_symbol
_atom_site_label
_atom_site_fract_x
_atom_site_fract_y
_atom_site_fract_z
Si Si1 0.919597 0.839608 0.051956
Si Si2 0.745297 0.331400 0.120945
Si Si3 0.668976 0.661159 0.761152
Si Si4 0.435221 0.260155 0.624741
Si Si5 0.019589 0.347680 0.789681
Si Si6 0.366199 0.663230 0.825100
Si Si7 0.391348 0.848689 0.393360
Si Si8 0.500000 0.500000 0.500000
O O1 0.872704 0.833198 0.138681
O O2 0.964403 0.760840 0.113338
O O3 0.933360 0.000000 0.039825
O O4 0.900013 0.778964 0.930440
O O5 0.750202 0.500000 0.110081
O O6 0.787072 0.262645 0.201463
O O7 0.690714 0.296283 0.166214
O O8 0.750000 0.250000 0.000000
O O9 0.683201 0.500000 0.749847
O O10 0.643796 0.723700 0.645858
O O11 0.471299 0.184886 0.715325
O O12 0.390273 0.311245 0.702461
O O13 0.413739 0.170027 0.520281
O O14 0.467195 0.380318 0.565981
O O15 0.017179 0.500000 0.840623
O O16 0.063568 0.344474 0.696133
O O17 0.366280 0.500000 0.847775
O O18 0.367426 0.000000 0.381303
#
# Coordination Sequence:
#
# PCOD9200069 Si02
#       8
#     8   8   8   8   8   8   8   2
#     4   9  19  36  58  86 119 158 197 245 300 363
#     4  11  21  39  64  91 123 163 201 246 305 370
#     4  10  20  36  63  93 121 154 206 254 300 367
#     4  12  23  38  62  89 120 160 210 256 302 361
#     4  10  21  37  58  85 121 159 201 247 305 363
#     4  10  22  39  59  89 126 157 200 254 307 359
#     4  10  21  38  60  87 120 160 205 255 309 364
#     4  12  24  36  62  94 116 156 218 252 302 356
#
# _framework density 19.080023000000001
#
# number of rings (size 3 to 8) (size 9 to 14) (size 15 to 20)
#    0.000    1.655    3.448    1.241    1.931    2.207 
#    0.000    6.897    0.000    0.000    0.000    0.000 
#    0.000    0.000    0.000    0.000    0.000    0.000 
#
# Total GULP energy -161531.483176 kJ/mol
# GULP energy per Si atom -5570.051144 kJ/mol
# Density = 1.903660 g / cm^3
# Si number density = 19.080023 Si / 1000 Ang^3
#
#
#
# Elastic Constant Matrix: (Units=GPa)
#
#
# Indices 1 2 3 4 5 6 
#
# 1 78.7620 48.1453 42.0401 0.0000 1.3296 0.0000
# 2 48.1453 103.0105 38.6388 0.0000 7.2595 0.0000
# 3 42.0401 38.6388 67.7437 0.0000 -4.3228 0.0000
# 4 0.0000 0.0000 0.0000 7.1301 0.0000 -12.1936
# 5 1.3296 7.2595 -4.3228 0.0000 31.7264 0.0000
# 6 0.0000 0.0000 0.0000 -12.1936 0.0000 -36.7663
#
#
#
# Elastic Compliance Matrix: (Units=1/GPa)
#
#
# Indices 1 2 3 4 5 6 
#
# 1 0.022017 -0.006474 -0.010022 0.000000 -0.000807 0.000000
# 2 -0.006474 0.014730 -0.004622 0.000000 -0.003729 0.000000
# 3 -0.010022 -0.004622 0.023919 0.000000 0.004737 0.000000
# 4 0.000000 0.000000 0.000000 0.089492 0.000000 -0.029680
# 5 -0.000807 -0.003729 0.004737 0.000000 0.033052 0.000000
# 6 0.000000 0.000000 0.000000 -0.029680 0.000000 -0.017355
#
#
# Mechanical properties :
#
#
# Convention : Reuss Voigt Hill
#
# Bulk Modulus (GPa) = 54.25829 56.35161 55.30495
# Shear Modulus (GPa) = 23.33889 8.46417 15.90153
#
# Velocity S-wave (km/s) = 3.50124 2.10850 2.89002
# Velocity P-wave (km/s) = 6.69655 5.96038 6.33916
#
# Compressibility (1/GPa) = 0.01843036
#
# Stress axis : x y z
#
# Youngs Moduli (GPa) = 45.41939 67.88815 41.80733
#
# Poissons Ratio (x) = 0.43953 0.41899
# Poissons Ratio (y) = 0.29406 0.19322
# Poissons Ratio (z) = 0.45519 0.31376
#
# Static dielectric constant tensor:
#      x y z
#    x 1.670850 0.000000 0.012420 
#    y 0.000000 1.668950 0.000000 
#    z 0.012420 0.000000 1.693800 
# 
# From -- ./inp_files/186683.got.cif
#   From: 2010.05.17/outbox.cif.g08.bks.cpg/sg12_94_cif.got.tgz:186683.got - 2010.06.03 13:09:07.
