data_PCOD9200020
_publ_section_title
;
Structure prediction by ZEFSAII (Michael W. Deem and Ramdas Pophale) SiO2 
 PCOD9200020
Probable space group: C 2/M
;
_chemical_formula_sum "Si O2"
_cell_formula_units_Z 56
_cell_length_a 11.622721
_cell_length_b 28.112394
_cell_length_c 9.341680
_cell_angle_alpha 90.000000
_cell_angle_beta 69.397167
_cell_angle_gamma 90.000000
_cell_volume 2857.103873
_symmetry_space_group_name_H-M "C 2/M"
_symmetry_group_IT_number 12
_symmetry_cell_setting 'monoclinic'
loop_
_space_group_symop_operation_xyz
x,y,z
-x,y,-z
-x,-y,-z
x,-y,z
1/2+x,1/2+y,z
1/2-x,1/2+y,-z
1/2-x,1/2-y,-z
1/2+x,1/2-y,z
loop_
_atom_site_type_symbol
_atom_site_label
_atom_site_fract_x
_atom_site_fract_y
_atom_site_fract_z
Si Si1 0.490084 0.319329 0.340696
Si Si2 0.765014 0.864414 0.904415
Si Si3 0.352829 0.446002 0.083497
Si Si4 0.704199 0.752079 0.681751
Si Si5 0.347939 0.181389 0.788316
Si Si6 0.380241 0.858984 0.290439
Si Si7 0.223557 0.110826 0.617583
O O1 0.500000 0.300745 0.500000
O O2 0.612735 0.342367 0.220984
O O3 0.420981 0.280165 0.269155
O O4 0.396767 0.364041 0.392983
O O5 0.662277 0.883158 0.838057
O O6 0.799252 0.907392 0.996808
O O7 0.706042 0.824053 0.030711
O O8 0.314915 0.500000 0.067906
O O9 0.312851 0.432854 0.264170
O O10 0.500000 0.442752 0.000000
O O11 0.750000 0.750000 0.500000
O O12 0.810299 0.732492 0.740643
O O13 0.680227 0.807290 0.711010
O O14 0.482498 0.158149 0.735343
O O15 0.276815 0.148554 0.706900
O O16 0.322054 0.889052 0.446044
#
# Coordination Sequence:
#
# PCOD9200020 Si02
#       7
#     8   8   8   8   8   8   8
#     4  11  20  36  59  87 124 163 208 252 312 369
#     4  11  23  41  62  89 127 167 201 264 325 369
#     4  10  21  40  68  98 126 155 198 259 333 402
#     4  11  23  36  57  86 121 172 217 266 290 350
#     4  10  24  40  57  85 123 170 217 254 304 367
#     4  12  23  39  60  86 124 172 216 257 308 362
#     4  10  20  36  63  86 118 162 199 257 308 377
#
# _framework density 19.600266999999999
#
# number of rings (size 3 to 8) (size 9 to 14) (size 15 to 20)
#    0.000    1.286    5.714    0.857    4.000    0.571 
#    2.571    0.714    0.000   16.286    0.000    0.000 
#    0.000    0.000    0.000    0.000    0.000    0.000 
#
# Total GULP energy -156007.560556 kJ/mol
# GULP energy per Si atom -5571.698591 kJ/mol
# Density = 1.955566 g / cm^3
# Si number density = 19.600267 Si / 1000 Ang^3
#
#
#
# Elastic Constant Matrix: (Units=GPa)
#
#
# Indices 1 2 3 4 5 6 
#
# 1 103.8340 10.1459 41.3329 0.0000 -7.3608 0.0000
# 2 10.1459 67.1255 18.4036 0.0000 -1.7357 0.0000
# 3 41.3329 18.4036 120.3123 0.0000 -0.3669 0.0000
# 4 0.0000 0.0000 0.0000 23.1523 0.0000 -0.1575
# 5 -7.3608 -1.7357 -0.3669 0.0000 30.1679 0.0000
# 6 0.0000 0.0000 0.0000 -0.1575 0.0000 13.5713
#
#
#
# Elastic Compliance Matrix: (Units=1/GPa)
#
#
# Indices 1 2 3 4 5 6 
#
# 1 0.011400 -0.000607 -0.003815 0.000000 0.002700 0.000000
# 2 -0.000607 0.015605 -0.002176 0.000000 0.000723 0.000000
# 3 -0.003815 -0.002176 0.009952 0.000000 -0.000935 0.000000
# 4 0.000000 0.000000 0.000000 0.043196 0.000000 0.000501
# 5 0.002700 0.000723 -0.000935 0.000000 0.033837 0.000000
# 6 0.000000 0.000000 0.000000 0.000501 0.000000 0.073691
#
#
# Mechanical properties :
#
#
# Convention : Reuss Voigt Hill
#
# Bulk Modulus (GPa) = 42.08793 47.89295 44.99044
# Shear Modulus (GPa) = 23.94655 28.13758 26.04207
#
# Velocity S-wave (km/s) = 3.49914 3.79300 3.64903
# Velocity P-wave (km/s) = 6.15183 6.60836 6.38418
#
# Compressibility (1/GPa) = 0.02375978
#
# Stress axis : x y z
#
# Youngs Moduli (GPa) = 87.71694 64.08374 100.47730
#
# Poissons Ratio (x) = 0.03891 0.38336
# Poissons Ratio (y) = 0.05327 0.21865
# Poissons Ratio (z) = 0.33468 0.13946
#
# Static dielectric constant tensor:
#      x y z
#    x 1.746660 0.000000 -0.035200 
#    y 0.000000 1.516570 0.000000 
#    z -0.035200 0.000000 1.680000 
# 
# From -- ./inp_files/54152.got.cif
#   From: 2010.05.17/outbox.cif.g08.bks.cpg/sg12_28_cif.got.tgz:54152.got - 2010.06.03 13:09:07.
