data_PCOD9200287
_publ_section_title
;
Structure prediction by ZEFSAII (Michael W. Deem and Ramdas Pophale) SiO2 
 PCOD9200287
Probable space group: C 2/M
;
_chemical_formula_sum "Si O2"
_cell_formula_units_Z 52
_cell_length_a 14.284812
_cell_length_b 33.928262
_cell_length_c 8.048293
_cell_angle_alpha 90.000000
_cell_angle_beta 147.223986
_cell_angle_gamma 90.000000
_cell_volume 2111.655627
_symmetry_space_group_name_H-M "C 2/M"
_symmetry_group_IT_number 12
_symmetry_cell_setting 'monoclinic'
loop_
_space_group_symop_operation_xyz
x,y,z
-x,y,-z
-x,-y,-z
x,-y,z
1/2+x,1/2+y,z
1/2-x,1/2+y,-z
1/2-x,1/2-y,-z
1/2+x,1/2-y,z
loop_
_atom_site_type_symbol
_atom_site_label
_atom_site_fract_x
_atom_site_fract_y
_atom_site_fract_z
Si Si1 0.274922 0.043988 0.859119
Si Si2 0.978391 0.695207 0.663000
Si Si3 0.640127 0.741932 0.076214
Si Si4 0.031460 0.159539 0.845689
Si Si5 0.306191 0.043426 0.516358
Si Si6 0.142853 0.617316 0.586528
Si Si7 0.000000 0.107520 0.500000
O O1 0.245773 0.045558 0.616367
O O2 0.159813 0.077431 0.771620
O O3 0.228447 0.000000 0.850126
O O4 0.483582 0.047097 0.180794
O O5 0.938661 0.650336 0.660955
O O6 0.000000 0.691548 0.500000
O O7 0.146419 0.718728 0.976782
O O8 0.805487 0.722603 0.411661
O O9 0.544262 0.706126 0.837276
O O10 0.500000 0.755741 0.000000
O O11 0.937520 0.134831 0.562099
O O12 0.222146 0.142555 0.108638
O O13 0.000000 0.155238 0.000000
O O14 0.251315 0.082041 0.337761
O O15 0.259237 0.000000 0.380618
O O16 0.000000 0.601808 0.500000
#
# Coordination Sequence:
#
# PCOD9200287 Si02
#       7
#     8   8   8   8   8   8   4
#     4   9  19  35  56  84 118 150 191 247 292 341
#     4  10  21  37  59  82 117 155 191 249 298 348
#     4  10  21  40  58  83 117 155 195 247 297 350
#     4  10  23  39  58  85 123 154 193 247 294 345
#     4   9  18  36  58  81 115 156 193 237 296 351
#     4  10  20  37  56  82 119 148 194 251 291 337
#     4  12  21  36  62  88 112 162 198 230 297 364
#
# _framework density 24.625226999999999
#
# number of rings (size 3 to 8) (size 9 to 14) (size 15 to 20)
#    0.000    2.154    0.000    3.923    1.077    0.308 
#    5.538    1.538    0.000    4.154    0.000    0.000 
#    0.000    0.000    0.000    0.000    0.000    0.000 
#
# Total GULP energy -144948.684146 kJ/mol
# GULP energy per Si atom -5574.949390 kJ/mol
# Density = 2.456918 g / cm^3
# Si number density = 24.625227 Si / 1000 Ang^3
#
#
#
# Elastic Constant Matrix: (Units=GPa)
#
#
# Indices 1 2 3 4 5 6 
#
# 1 68.7562 22.4553 0.1251 0.0000 -1.9424 0.0000
# 2 22.4553 153.8636 15.5048 0.0000 -27.5584 0.0000
# 3 0.1251 15.5048 24.0662 0.0000 -1.1492 0.0000
# 4 0.0000 0.0000 0.0000 -0.3149 0.0000 25.2262
# 5 -1.9424 -27.5584 -1.1492 0.0000 20.9805 0.0000
# 6 0.0000 0.0000 0.0000 25.2262 0.0000 6.4713
#
#
#
# Elastic Compliance Matrix: (Units=1/GPa)
#
#
# Indices 1 2 3 4 5 6 
#
# 1 0.015393 -0.002796 0.001618 0.000000 -0.002159 0.000000
# 2 -0.002796 0.009640 -0.005619 0.000000 0.012096 0.000000
# 3 0.001618 -0.005619 0.044936 0.000000 -0.004769 0.000000
# 4 0.000000 0.000000 0.000000 -0.010137 0.000000 0.039515
# 5 -0.002159 0.012096 -0.004769 0.000000 0.063090 0.000000
# 6 0.000000 0.000000 0.000000 0.039515 0.000000 0.000493
#
#
# Mechanical properties :
#
#
# Convention : Reuss Voigt Hill
#
# Bulk Modulus (GPa) = 17.73797 35.87294 26.80546
# Shear Modulus (GPa) = 32.09218 19.33407 25.71312
#
# Velocity S-wave (km/s) = 3.61394 2.80506 3.23488
# Velocity P-wave (km/s) = 4.96315 5.00903 4.98614
#
# Compressibility (1/GPa) = 0.05637623
#
# Stress axis : x y z
#
# Youngs Moduli (GPa) = 64.96250 103.73412 22.25404
#
# Poissons Ratio (x) = 0.29009 -0.03602
# Poissons Ratio (y) = 0.18166 0.12503
# Poissons Ratio (z) = -0.10514 0.58283
#
# Static dielectric constant tensor:
#      x y z
#    x 1.976460 0.000000 -0.029030 
#    y 0.000000 2.049260 0.000000 
#    z -0.029030 0.000000 2.094410 
# 
# From -- ./inp_files/68660.got.cif
#   From: 2010.05.17/outbox.cif.g08.bks.cpg/sg12_35_cif.got.tgz:68660.got - 2010.06.03 13:09:07.
