data_PCOD9200453
_publ_section_title
;
Structure prediction by ZEFSAII (Michael W. Deem and Ramdas Pophale) SiO2 
 PCOD9200453
Probable space group: C 2/M
;
_chemical_formula_sum "Si O2"
_cell_formula_units_Z 48
_cell_length_a 8.723333
_cell_length_b 11.587961
_cell_length_c 24.775546
_cell_angle_alpha 90.000000
_cell_angle_beta 117.400693
_cell_angle_gamma 90.000000
_cell_volume 2223.477066
_symmetry_space_group_name_H-M "C 2/M"
_symmetry_group_IT_number 12
_symmetry_cell_setting 'monoclinic'
loop_
_space_group_symop_operation_xyz
x,y,z
-x,y,-z
-x,-y,-z
x,-y,z
1/2+x,1/2+y,z
1/2-x,1/2+y,-z
1/2-x,1/2-y,-z
1/2+x,1/2-y,z
loop_
_atom_site_type_symbol
_atom_site_label
_atom_site_fract_x
_atom_site_fract_y
_atom_site_fract_z
Si Si1 0.370449 0.376172 0.683896
Si Si2 0.206015 0.867212 0.025902
Si Si3 0.857390 0.372582 0.169801
Si Si4 0.757187 0.701152 0.755655
Si Si5 0.587618 0.373838 0.431319
Si Si6 0.571745 0.876457 0.451413
O O1 0.321301 0.500000 0.699186
O O2 0.579051 0.366072 0.718117
O O3 0.293708 0.277822 0.708694
O O4 0.322008 0.374931 0.612937
O O5 0.295903 0.853905 0.098739
O O6 0.251814 0.000000 0.013153
O O7 0.250000 0.750000 0.000000
O O8 0.000000 0.868010 0.000000
O O9 0.798944 0.500000 0.176789
O O10 0.777637 0.280897 0.197923
O O11 0.065053 0.365988 0.206262
O O12 0.496212 0.500000 0.419482
O O13 0.509373 0.245638 0.418542
O O14 0.721138 0.371464 0.503265
O O15 0.500000 0.883587 0.500000
O O16 0.537534 0.000000 0.417742
#
# Coordination Sequence:
#
# PCOD9200453 Si02
#       6
#     8   8   8   8   8   8
#     4  10  21  37  56  81 111 143 185 235 280 330
#     4  10  21  37  58  87 120 151 190 236 281 334
#     4  10  20  37  58  81 113 150 187 230 278 329
#     4  10  21  36  57  81 109 147 189 229 277 334
#     4   9  19  34  51  74 105 136 172 223 277 330
#     4   9  18  33  53  75 101 133 174 217 271 337
#
# _framework density 21.587810000000001
#
# number of rings (size 3 to 8) (size 9 to 14) (size 15 to 20)
#    0.000    2.333    0.000    2.000    2.333    0.667 
#    0.000    8.333    0.000    0.000    0.000    0.000 
#    0.000    0.000    0.000    0.000    0.000    0.000 
#
# Total GULP energy -133760.664468 kJ/mol
# GULP energy per Si atom -5573.361020 kJ/mol
# Density = 2.153868 g / cm^3
# Si number density = 21.587810 Si / 1000 Ang^3
#
#
#
# Elastic Constant Matrix: (Units=GPa)
#
#
# Indices 1 2 3 4 5 6 
#
# 1 47.1381 22.8284 18.7904 0.0000 7.7286 0.0000
# 2 22.8284 207.8369 45.1162 0.0000 -12.2306 0.0000
# 3 18.7904 45.1162 97.6562 0.0000 15.6668 0.0000
# 4 0.0000 0.0000 0.0000 180.7720 0.0000 -97.2625
# 5 7.7286 -12.2306 15.6668 0.0000 30.1116 0.0000
# 6 0.0000 0.0000 0.0000 -97.2625 0.0000 21.8226
#
#
#
# Elastic Compliance Matrix: (Units=1/GPa)
#
#
# Indices 1 2 3 4 5 6 
#
# 1 0.024417 -0.002462 -0.002613 0.000000 -0.005908 0.000000
# 2 -0.002462 0.006020 -0.003056 0.000000 0.004667 0.000000
# 3 -0.002613 -0.003056 0.013361 0.000000 -0.007523 0.000000
# 4 0.000000 0.000000 0.000000 -0.003957 0.000000 -0.017636
# 5 -0.005908 0.004667 -0.007523 0.000000 0.040536 0.000000
# 6 0.000000 0.000000 0.000000 -0.017636 0.000000 -0.032778
#
#
# Mechanical properties :
#
#
# Convention : Reuss Voigt Hill
#
# Bulk Modulus (GPa) = 36.31638 58.45568 47.38603
# Shear Modulus (GPa) = 68.45483 64.26765 66.36124
#
# Velocity S-wave (km/s) = 5.63727 5.46214 5.55039
# Velocity P-wave (km/s) = 7.69616 8.18027 7.94190
#
# Compressibility (1/GPa) = 0.02753578
#
# Stress axis : x y z
#
# Youngs Moduli (GPa) = 40.95520 166.11299 74.84200
#
# Poissons Ratio (x) = 0.40904 0.19554
# Poissons Ratio (y) = 0.10085 0.22873
# Poissons Ratio (z) = 0.10701 0.50767
#
# Static dielectric constant tensor:
#      x y z
#    x 1.811080 0.000000 0.043550 
#    y 0.000000 1.838390 0.000000 
#    z 0.043550 0.000000 1.744650 
# 
# From -- ./inp_files/332215.got.cif
#   From: 2010.05.17/outbox.cif.g08.bks.cpg/sg12_167_cif.got.tgz:332215.got - 2010.06.03 13:09:07.
