data_PCOD9200531
_publ_section_title
;
Structure prediction by ZEFSAII (Michael W. Deem and Ramdas Pophale) SiO2 
 PCOD9200531
Probable space group: C 2/M
;
_chemical_formula_sum "Si O2"
_cell_formula_units_Z 48
_cell_length_a 11.495548
_cell_length_b 12.797361
_cell_length_c 19.248365
_cell_angle_alpha 90.000000
_cell_angle_beta 134.008253
_cell_angle_gamma 90.000000
_cell_volume 2036.655699
_symmetry_space_group_name_H-M "C 2/M"
_symmetry_group_IT_number 12
_symmetry_cell_setting 'monoclinic'
loop_
_space_group_symop_operation_xyz
x,y,z
-x,y,-z
-x,-y,-z
x,-y,z
1/2+x,1/2+y,z
1/2-x,1/2+y,-z
1/2-x,1/2-y,-z
1/2+x,1/2-y,z
loop_
_atom_site_type_symbol
_atom_site_label
_atom_site_fract_x
_atom_site_fract_y
_atom_site_fract_z
Si Si1 0.112839 0.825615 0.112469
Si Si2 0.035715 0.109945 0.433921
Si Si3 0.191316 0.389775 0.214508
Si Si4 0.984700 0.341589 0.415172
Si Si5 0.016675 0.340247 0.739034
Si Si6 0.601108 0.378723 0.258026
O O1 0.140998 0.704629 0.144767
O O2 0.294412 0.865126 0.174149
O O3 0.041759 0.874687 0.153706
O O4 0.000000 0.839970 0.000000
O O5 0.871127 0.113490 0.321037
O O6 0.082227 0.231839 0.454386
O O7 0.000000 0.097895 0.500000
O O8 0.122946 0.000000 0.449119
O O9 0.172007 0.500000 0.169390
O O10 0.082322 0.385222 0.238345
O O11 0.032227 0.381353 0.357894
O O12 0.788420 0.340611 0.329610
O O13 0.000000 0.385579 0.500000
O O14 0.984064 0.213918 0.733726
O O15 0.592925 0.500000 0.278428
#
# Coordination Sequence:
#
# PCOD9200531 Si02
#       6
#     8   8   8   8   8   8
#     4  10  22  41  61  83 112 147 186 234 292 345
#     4   9  16  31  55  83 113 145 184 228 272 326
#     4  10  20  37  58  86 116 146 188 234 280 334
#     4  10  20  37  59  81 120 155 190 229 280 328
#     4  10  20  38  58  83 109 152 185 236 280 334
#     4  10  22  39  56  84 117 150 192 233 278 334
#
# _framework density 23.568048000000001
#
# number of rings (size 3 to 8) (size 9 to 14) (size 15 to 20)
#    0.000    2.167    5.000    0.000    0.000    8.333 
#    0.000    1.667    0.000    0.000    0.000    0.000 
#    0.000    0.000    0.000    0.000    0.000    0.000 
#
# Total GULP energy -133656.979047 kJ/mol
# GULP energy per Si atom -5569.040794 kJ/mol
# Density = 2.351441 g / cm^3
# Si number density = 23.568048 Si / 1000 Ang^3
#
#
#
# Elastic Constant Matrix: (Units=GPa)
#
#
# Indices 1 2 3 4 5 6 
#
# 1 94.7580 -0.4235 42.7080 0.0000 -14.4929 0.0000
# 2 -0.4235 150.5667 10.2433 0.0000 1.4564 0.0000
# 3 42.7080 10.2433 115.7263 0.0000 -31.6914 0.0000
# 4 0.0000 0.0000 0.0000 -65.8574 0.0000 -4.2988
# 5 -14.4929 1.4564 -31.6914 0.0000 33.5420 0.0000
# 6 0.0000 0.0000 0.0000 -4.2988 0.0000 0.9503
#
#
#
# Elastic Compliance Matrix: (Units=1/GPa)
#
#
# Indices 1 2 3 4 5 6 
#
# 1 0.012724 0.000318 -0.004347 0.000000 0.001377 0.000000
# 2 0.000318 0.006723 -0.001018 0.000000 -0.001116 0.000000
# 3 -0.004347 -0.001018 0.013265 0.000000 0.010700 0.000000
# 4 0.000000 0.000000 0.000000 -0.011723 0.000000 -0.053028
# 5 0.001377 -0.001116 0.010700 0.000000 0.040566 0.000000
# 6 0.000000 0.000000 0.000000 -0.053028 0.000000 0.812387
#
#
# Mechanical properties :
#
#
# Convention : Reuss Voigt Hill
#
# Bulk Modulus (GPa) = 44.21136 51.78960 48.00048
# Shear Modulus (GPa) = 5.60805 14.29519 9.95162
#
# Velocity S-wave (km/s) = 1.54424 2.46549 2.05710
# Velocity P-wave (km/s) = 4.68821 5.48881 5.10423
#
# Compressibility (1/GPa) = 0.02261862
#
# Stress axis : x y z
#
# Youngs Moduli (GPa) = 78.58903 148.75335 75.38372
#
# Poissons Ratio (x) = -0.04733 0.32769
# Poissons Ratio (y) = -0.02501 0.07675
# Poissons Ratio (z) = 0.34162 0.15146
#
# Static dielectric constant tensor:
#      x y z
#    x 1.916580 0.000000 0.001610 
#    y 0.000000 2.066930 0.000000 
#    z 0.001610 0.000000 1.847010 
# 
# From -- ./inp_files/204460.got.cif
#   From: 2010.05.17/outbox.cif.g08.bks.cpg/sg12_103_cif.got.tgz:204460.got - 2010.06.03 13:09:07.
