data_PCOD9200859
_publ_section_title
;
Structure prediction by ZEFSAII (Michael W. Deem and Ramdas Pophale) SiO2 
 PCOD9200859
Probable space group: C 2/M
;
_chemical_formula_sum "Si O2"
_cell_formula_units_Z 64
_cell_length_a 16.679077
_cell_length_b 8.388648
_cell_length_c 33.873847
_cell_angle_alpha 90.000000
_cell_angle_beta 41.561798
_cell_angle_gamma 90.000000
_cell_volume 3144.285381
_symmetry_space_group_name_H-M "C 2/M"
_symmetry_group_IT_number 12
_symmetry_cell_setting 'monoclinic'
loop_
_space_group_symop_operation_xyz
x,y,z
-x,y,-z
-x,-y,-z
x,-y,z
1/2+x,1/2+y,z
1/2-x,1/2+y,-z
1/2-x,1/2-y,-z
1/2+x,1/2-y,z
loop_
_atom_site_type_symbol
_atom_site_label
_atom_site_fract_x
_atom_site_fract_y
_atom_site_fract_z
Si Si1 0.734977 0.811259 0.623279
Si Si2 0.364533 0.307444 0.863709
Si Si3 0.539060 0.693491 0.865687
Si Si4 0.337260 0.688987 0.501921
Si Si5 0.483292 0.688463 0.739761
Si Si6 0.602665 0.692636 0.931095
Si Si7 0.697999 0.807123 0.255580
Si Si8 0.589069 0.812774 0.377925
O O1 0.792059 0.751581 0.561143
O O2 0.592872 0.780414 0.678811
O O3 0.797890 0.719098 0.635646
O O4 0.759600 0.000000 0.618024
O O5 0.358787 0.500000 0.866665
O O6 0.421694 0.251363 0.884311
O O7 0.457824 0.263836 0.794234
O O8 0.233067 0.247208 0.899038
O O9 0.530777 0.500000 0.870606
O O10 0.564514 0.749135 0.901119
O O11 0.660293 0.731513 0.796290
O O12 0.327333 0.500000 0.507156
O O13 0.250000 0.750000 0.500000
O O14 0.473015 0.733904 0.440559
O O15 0.508490 0.500000 0.729151
O O16 0.363127 0.728618 0.759710
O O17 0.606295 0.500000 0.928055
O O18 0.500000 0.741317 0.000000
O O19 0.625482 0.753731 0.321092
O O20 0.688337 0.000000 0.256154
O O21 0.563830 0.000000 0.384042
#
# Coordination Sequence:
#
# PCOD9200859 Si02
#       8
#     8   8   8   8   8   8   8   8
#     4  11  24  40  58  82 114 153 194 237 295 360
#     4  10  21  38  60  87 120 160 200 243 300 360
#     4   9  18  36  60  83 118 162 196 237 299 357
#     4  11  24  41  59  81 111 150 194 239 295 360
#     4  11  22  36  58  88 118 148 196 250 295 350
#     4  10  21  38  61  89 120 158 204 247 291 352
#     4  10  20  37  60  84 115 156 195 234 298 364
#     4  11  23  38  59  86 113 147 194 243 294 358
#
# _framework density 20.354386999999999
#
# number of rings (size 3 to 8) (size 9 to 14) (size 15 to 20)
#    0.000    1.625    1.250    3.375    0.000   10.750 
#    0.000    1.250    0.000    0.000    0.000    0.000 
#    0.000    0.000    0.000    0.000    0.000    0.000 
#
# Total GULP energy -178745.725902 kJ/mol
# GULP energy per Si atom -5585.803934 kJ/mol
# Density = 2.030806 g / cm^3
# Si number density = 20.354387 Si / 1000 Ang^3
#
#
#
# Elastic Constant Matrix: (Units=GPa)
#
#
# Indices 1 2 3 4 5 6 
#
# 1 132.5273 1.7165 46.3385 0.0013 11.9955 0.0010
# 2 1.7165 6.1093 13.5548 -0.0008 2.8768 -0.0026
# 3 46.3385 13.5548 115.9539 0.0018 4.7927 0.0013
# 4 0.0013 -0.0008 0.0018 10.1834 -0.0009 -6.4121
# 5 11.9955 2.8768 4.7927 -0.0009 21.0012 -0.0007
# 6 0.0010 -0.0026 0.0013 -6.4121 -0.0007 33.1576
#
#
#
# Elastic Compliance Matrix: (Units=1/GPa)
#
#
# Indices 1 2 3 4 5 6 
#
# 1 0.009646 0.010903 -0.004886 0.000000 -0.005888 0.000001
# 2 0.010903 0.246693 -0.031841 0.000037 -0.032754 0.000026
# 3 -0.004886 -0.031841 0.014137 -0.000006 0.003926 -0.000004
# 4 0.000000 0.000037 -0.000006 0.111814 0.000001 0.021623
# 5 -0.005888 -0.032754 0.003926 0.000001 0.054570 -0.000001
# 6 0.000001 0.000026 -0.000004 0.021623 -0.000001 0.034341
#
#
# Mechanical properties :
#
#
# Convention : Reuss Voigt Hill
#
# Bulk Modulus (GPa) = 4.56983 41.97891 23.27437
# Shear Modulus (GPa) = 8.39221 25.73382 17.06302
#
# Velocity S-wave (km/s) = 2.03273 3.55954 2.89848
# Velocity P-wave (km/s) = 2.78556 6.12883 4.76035
#
# Compressibility (1/GPa) = 0.21882635
#
# Stress axis : x y z
#
# Youngs Moduli (GPa) = 103.67320 4.05363 70.73858
#
# Poissons Ratio (x) = -0.04420 0.34562
# Poissons Ratio (y) = -1.13034 2.25241
# Poissons Ratio (z) = 0.50653 0.12907
#
# Static dielectric constant tensor:
#      x y z
#    x 1.684200 0.000000 0.086490 
#    y 0.000000 1.703140 -0.000010 
#    z 0.086490 -0.000010 1.584380 
# 
# From -- ./inp_files/375367.got.cif
#   From: 2010.05.17/outbox.cif.g08.bks.cpg/sg12_188_cif.got.tgz:375367.got - 2010.06.03 13:09:07.
