data_PCOD9200897
_publ_section_title
;
Structure prediction by ZEFSAII (Michael W. Deem and Ramdas Pophale) SiO2 
 PCOD9200897
Probable space group: C 2/M
;
_chemical_formula_sum "Si O2"
_cell_formula_units_Z 64
_cell_length_a 20.603277
_cell_length_b 18.301155
_cell_length_c 21.856769
_cell_angle_alpha 90.000000
_cell_angle_beta 157.885370
_cell_angle_gamma 90.000000
_cell_volume 3102.562657
_symmetry_space_group_name_H-M "C 2/M"
_symmetry_group_IT_number 12
_symmetry_cell_setting 'monoclinic'
loop_
_space_group_symop_operation_xyz
x,y,z
-x,y,-z
-x,-y,-z
x,-y,z
1/2+x,1/2+y,z
1/2-x,1/2+y,-z
1/2-x,1/2-y,-z
1/2+x,1/2-y,z
loop_
_atom_site_type_symbol
_atom_site_label
_atom_site_fract_x
_atom_site_fract_y
_atom_site_fract_z
Si Si1 0.838120 0.414282 0.111540
Si Si2 0.072121 0.086636 0.244496
Si Si3 0.640414 0.914783 0.288210
Si Si4 0.157142 0.670354 0.597086
Si Si5 0.700259 0.227843 0.173962
Si Si6 0.148437 0.823497 0.429824
Si Si7 0.193283 0.081168 0.695430
Si Si8 0.425655 0.789962 0.280087
O O1 0.860536 0.500000 0.147842
O O2 0.924856 0.358534 0.234782
O O3 0.945026 0.403608 0.141747
O O4 0.633887 0.398886 0.934661
O O5 0.183482 0.121293 0.286405
O O6 0.142513 0.121028 0.368704
O O7 0.096119 0.000000 0.264795
O O8 0.763782 0.862610 0.435763
O O9 0.677800 0.904893 0.249186
O O10 0.685050 0.000000 0.339984
O O11 0.227386 0.735358 0.701006
O O12 0.000000 0.635094 0.500000
O O13 0.066365 0.700488 0.456690
O O14 0.787491 0.148914 0.243089
O O15 0.748004 0.282187 0.160971
O O16 0.500000 0.217248 0.000000
O O17 0.250000 0.750000 0.500000
O O18 0.963569 0.786978 0.280938
O O19 0.000000 0.081341 0.500000
O O20 0.227056 0.000000 0.750265
#
# Coordination Sequence:
#
# PCOD9200897 Si02
#       8
#     8   8   8   8   8   8   8   8
#     4  10  22  40  60  87 123 156 191 241 302 359
#     4  11  24  40  59  88 123 157 194 244 298 352
#     4  10  20  37  60  85 118 157 197 241 292 349
#     4  10  21  39  63  86 116 152 199 243 288 351
#     4  11  23  38  59  88 121 154 194 246 299 353
#     4  12  21  35  59  89 115 153 198 242 285 346
#     4  10  21  38  61  85 115 159 203 245 291 345
#     4  11  22  39  61  90 114 157 198 244 294 347
#
# _framework density 20.628108999999998
#
# number of rings (size 3 to 8) (size 9 to 14) (size 15 to 20)
#    0.000    1.375    2.500    3.750    0.000    3.500 
#    0.000    2.500    0.000    6.750    0.000    0.000 
#    0.000    0.000    0.000    0.000    0.000    0.000 
#
# Total GULP energy -178615.615802 kJ/mol
# GULP energy per Si atom -5581.737994 kJ/mol
# Density = 2.058116 g / cm^3
# Si number density = 20.628109 Si / 1000 Ang^3
#
#
#
# Elastic Constant Matrix: (Units=GPa)
#
#
# Indices 1 2 3 4 5 6 
#
# 1 68.7077 25.9320 8.8938 0.0123 20.3924 -0.0069
# 2 25.9320 76.1725 26.6444 -0.0198 9.8184 0.0060
# 3 8.8938 26.6444 62.7636 0.0368 22.7419 -0.0077
# 4 0.0123 -0.0198 0.0368 20.9388 -0.0045 16.2655
# 5 20.3924 9.8184 22.7419 -0.0045 24.6455 -0.0026
# 6 -0.0069 0.0060 -0.0077 16.2655 -0.0026 13.6484
#
#
#
# Elastic Compliance Matrix: (Units=1/GPa)
#
#
# Indices 1 2 3 4 5 6 
#
# 1 0.023796 -0.008066 0.009048 -0.000743 -0.024825 0.000901
# 2 -0.008066 0.018152 -0.009557 0.000711 0.008262 -0.000863
# 3 0.009048 -0.009557 0.030109 -0.001202 -0.031463 0.001452
# 4 -0.000743 0.000711 -0.001202 0.643419 0.001476 -0.766796
# 5 -0.024825 0.008262 -0.031463 0.001476 0.086857 -0.001776
# 6 0.000901 -0.000863 0.001452 -0.766796 -0.001776 0.987099
#
#
# Mechanical properties :
#
#
# Convention : Reuss Voigt Hill
#
# Bulk Modulus (GPa) = 18.21272 36.73158 27.47215
# Shear Modulus (GPa) = 2.73990 21.59147 12.16568
#
# Velocity S-wave (km/s) = 1.15374 3.23879 2.43114
# Velocity P-wave (km/s) = 3.25930 5.64194 4.60731
#
# Compressibility (1/GPa) = 0.05490669
#
# Stress axis : x y z
#
# Youngs Moduli (GPa) = 42.02402 55.08883 33.21274
#
# Poissons Ratio (x) = 0.44436 -0.30051
# Poissons Ratio (y) = 0.33898 0.31742
# Poissons Ratio (z) = -0.38024 0.52649
#
# Static dielectric constant tensor:
#      x y z
#    x 1.776160 0.000000 0.066610 
#    y 0.000000 1.705470 -0.000010 
#    z 0.066610 -0.000010 1.765340 
# 
# From -- ./inp_files/347943.got.cif
#   From: 2010.05.17/outbox.cif.g08.bks.cpg/sg12_174_cif.got.tgz:347943.got - 2010.06.03 13:09:07.
