data_PCOD9200306
_publ_section_title
;
Structure prediction by ZEFSAII (Michael W. Deem and Ramdas Pophale) SiO2 
 PCOD9200306
Probable space group: C 2/M
;
_chemical_formula_sum "Si O2"
_cell_formula_units_Z 40
_cell_length_a 15.022446
_cell_length_b 22.037084
_cell_length_c 4.793971
_cell_angle_alpha 90.000000
_cell_angle_beta 83.346377
_cell_angle_gamma 90.000000
_cell_volume 1576.359285
_symmetry_space_group_name_H-M "C 2/M"
_symmetry_group_IT_number 12
_symmetry_cell_setting 'monoclinic'
loop_
_space_group_symop_operation_xyz
x,y,z
-x,y,-z
-x,-y,-z
x,-y,z
1/2+x,1/2+y,z
1/2-x,1/2+y,-z
1/2-x,1/2-y,-z
1/2+x,1/2-y,z
loop_
_atom_site_type_symbol
_atom_site_label
_atom_site_fract_x
_atom_site_fract_y
_atom_site_fract_z
Si Si1 0.846568 0.309989 0.144587
Si Si2 0.143108 0.434643 0.654866
Si Si3 0.756674 0.095781 0.085383
Si Si4 0.099452 0.759416 0.390554
Si Si5 0.061392 0.115079 0.708516
O O1 0.758694 0.335064 0.017135
O O2 0.888913 0.259695 0.931861
O O3 0.898670 0.373521 0.195861
O O4 0.833929 0.280363 0.447290
O O5 0.096300 0.500000 0.685001
O O6 0.178310 0.420540 0.333176
O O7 0.233238 0.438292 0.810332
O O8 0.851452 0.084718 0.189911
O O9 0.097730 0.827562 0.512134
O O10 0.000000 0.736432 0.500000
O O11 0.000000 0.081540 0.500000
O O12 0.000000 0.132268 0.000000
#
# Coordination Sequence:
#
# PCOD9200306 Si02
#       5
#     8   8   8   8   8
#     4  10  20  37  56  89 105 150 189 238 271 325
#     4  10  20  38  61  84 110 144 189 241 295 323
#     4  10  21  37  59  88 107 151 190 238 271 330
#     4  11  21  36  56  82 120 155 181 217 283 341
#     4  11  23  38  57  83 121 159 181 219 282 340
#
# _framework density 25.374925000000001
#
# number of rings (size 3 to 8) (size 9 to 14) (size 15 to 20)
#    1.200    0.400    2.000    4.800    0.000    1.600 
#    0.000    0.000    0.000   15.600    0.000    0.000 
#    0.000    0.000    0.000    0.000    0.000    0.000 
#
# Total GULP energy -111470.003978 kJ/mol
# GULP energy per Si atom -5573.500199 kJ/mol
# Density = 2.531717 g / cm^3
# Si number density = 25.374925 Si / 1000 Ang^3
#
#
#
# Elastic Constant Matrix: (Units=GPa)
#
#
# Indices 1 2 3 4 5 6 
#
# 1 36.7558 -3.6478 0.6459 0.0000 10.8116 0.0000
# 2 -3.6478 66.3724 0.8634 0.0000 -12.8669 0.0000
# 3 0.6459 0.8634 119.3310 0.0000 11.0380 0.0000
# 4 0.0000 0.0000 0.0000 -122.4484 0.0000 -122.3356
# 5 10.8116 -12.8669 11.0380 0.0000 44.4078 0.0000
# 6 0.0000 0.0000 0.0000 -122.3356 0.0000 -126.5127
#
#
#
# Elastic Compliance Matrix: (Units=1/GPa)
#
#
# Indices 1 2 3 4 5 6 
#
# 1 0.029339 0.000208 0.000506 0.000000 -0.007208 0.000000
# 2 0.000208 0.016001 -0.000554 0.000000 0.004723 0.000000
# 3 0.000506 -0.000554 0.008605 0.000000 -0.002423 0.000000
# 4 0.000000 0.000000 0.000000 -0.240855 0.000000 0.232903
# 5 -0.007208 0.004723 -0.002423 0.000000 0.026244 0.000000
# 6 0.000000 0.000000 0.000000 0.232903 0.000000 -0.233118
#
#
# Mechanical properties :
#
#
# Convention : Reuss Voigt Hill
#
# Bulk Modulus (GPa) = 18.42737 24.24248 21.33493
# Shear Modulus (GPa) = -13.29726 -25.93747 -19.61737
#
# Velocity S-wave (km/s) = -2.29166 -3.20061 -2.78348
# Velocity P-wave (km/s) = 0.52493 2.02090 1.37995
#
# Compressibility (1/GPa) = 0.05426710
#
# Stress axis : x y z
#
# Youngs Moduli (GPa) = 34.08469 62.49699 116.20589
#
# Poissons Ratio (x) = -0.01303 -0.05885
# Poissons Ratio (y) = -0.00710 0.06435
# Poissons Ratio (z) = -0.01726 0.03461
#
# Static dielectric constant tensor:
#      x y z
#    x 2.101820 0.000000 0.027880 
#    y 0.000000 2.235100 0.000000 
#    z 0.027880 0.000000 1.933490 
# 
# From -- ./inp_files/11321.got.cif
#   From: 2010.05.17/outbox.cif.g08.bks.cpg/sg12_6_cif.got.tgz:11321.got - 2010.06.03 13:09:07.
