data_PCOD9200418
_publ_section_title
;
Structure prediction by ZEFSAII (Michael W. Deem and Ramdas Pophale) SiO2 
 PCOD9200418
Probable space group: C 2/M
;
_chemical_formula_sum "Si O2"
_cell_formula_units_Z 56
_cell_length_a 19.366087
_cell_length_b 8.427464
_cell_length_c 19.253103
_cell_angle_alpha 90.000000
_cell_angle_beta 117.687679
_cell_angle_gamma 90.000000
_cell_volume 2782.434366
_symmetry_space_group_name_H-M "C 2/M"
_symmetry_group_IT_number 12
_symmetry_cell_setting 'monoclinic'
loop_
_space_group_symop_operation_xyz
x,y,z
-x,y,-z
-x,-y,-z
x,-y,z
1/2+x,1/2+y,z
1/2-x,1/2+y,-z
1/2-x,1/2-y,-z
1/2+x,1/2-y,z
loop_
_atom_site_type_symbol
_atom_site_label
_atom_site_fract_x
_atom_site_fract_y
_atom_site_fract_z
Si Si1 0.660782 0.310647 0.749589
Si Si2 0.058281 0.686282 0.813835
Si Si3 0.676527 0.309164 0.232146
Si Si4 0.593161 0.687039 0.332564
Si Si5 0.671761 0.815300 0.497919
Si Si6 0.512354 0.691546 0.085095
Si Si7 0.423523 0.688863 0.425484
O O1 0.653129 0.500000 0.752166
O O2 0.637234 0.232083 0.811214
O O3 0.746627 0.269179 0.762515
O O4 0.600653 0.251110 0.661607
O O5 0.043735 0.500000 0.800843
O O6 0.989661 0.780080 0.741486
O O7 0.049359 0.736836 0.889599
O O8 0.684971 0.500000 0.232591
O O9 0.656867 0.270188 0.303257
O O10 0.598719 0.264612 0.152849
O O11 0.600041 0.500000 0.351848
O O12 0.606713 0.783974 0.408623
O O13 0.750000 0.750000 0.500000
O O14 0.647172 0.722950 0.555254
O O15 0.679563 0.000000 0.517608
O O16 0.506804 0.500000 0.086381
O O17 0.500000 0.740585 0.000000
O O18 0.500000 0.755587 0.500000
O O19 0.434945 0.500000 0.423433
#
# Coordination Sequence:
#
# PCOD9200418 Si02
#       7
#     8   8   8   8   8   8   8
#     4  11  22  36  56  81 112 150 191 233 279 335
#     4  11  22  36  58  86 115 146 183 226 273 331
#     4   9  19  35  57  84 112 144 182 229 282 332
#     4  10  20  37  58  79 108 145 188 235 282 336
#     4  12  24  36  53  78 109 145 188 238 289 339
#     4   9  19  39  65  89 115 148 185 225 273 332
#     4  10  22  39  57  77 106 147 193 241 289 336
#
# _framework density 20.126262000000001
#
# number of rings (size 3 to 8) (size 9 to 14) (size 15 to 20)
#    0.000    1.714    0.000    6.000    0.000    8.000 
#    0.000    0.714    0.000    0.000    0.000    0.000 
#    0.000    0.000    0.000    0.000    0.000    0.000 
#
# Total GULP energy -156502.591871 kJ/mol
# GULP energy per Si atom -5589.378281 kJ/mol
# Density = 2.008045 g / cm^3
# Si number density = 20.126262 Si / 1000 Ang^3
#
#
#
# Elastic Constant Matrix: (Units=GPa)
#
#
# Indices 1 2 3 4 5 6 
#
# 1 97.1890 8.7621 21.9623 0.0000 -24.9582 0.0000
# 2 8.7621 15.7628 12.9148 0.0000 -1.6720 0.0000
# 3 21.9623 12.9148 88.1120 0.0000 -24.5627 0.0000
# 4 0.0000 0.0000 0.0000 19.7102 0.0000 -2.6665
# 5 -24.9582 -1.6720 -24.5627 0.0000 28.3693 0.0000
# 6 0.0000 0.0000 0.0000 -2.6665 0.0000 31.6987
#
#
#
# Elastic Compliance Matrix: (Units=1/GPa)
#
#
# Indices 1 2 3 4 5 6 
#
# 1 0.014003 -0.007392 0.001194 0.000000 0.012918 0.000000
# 2 -0.007392 0.076911 -0.013155 0.000000 -0.013360 0.000000
# 3 0.001194 -0.013155 0.017210 0.000000 0.015176 0.000000
# 4 0.000000 0.000000 0.000000 0.051319 0.000000 0.004317
# 5 0.012918 -0.013360 0.015176 0.000000 0.058966 0.000000
# 6 0.000000 0.000000 0.000000 0.004317 0.000000 0.031910
#
#
# Mechanical properties :
#
#
# Convention : Reuss Voigt Hill
#
# Bulk Modulus (GPa) = 14.40540 32.03800 23.22170
# Shear Modulus (GPa) = 16.01719 26.45061 21.23390
#
# Velocity S-wave (km/s) = 2.82412 3.62917 3.25165
# Velocity P-wave (km/s) = 4.21986 5.78915 5.06564
#
# Compressibility (1/GPa) = 0.06941843
#
# Stress axis : x y z
#
# Youngs Moduli (GPa) = 71.41287 13.00211 58.10470
#
# Poissons Ratio (x) = 0.09611 -0.06939
# Poissons Ratio (y) = 0.52789 0.76436
# Poissons Ratio (z) = -0.08528 0.17104
#
# Static dielectric constant tensor:
#      x y z
#    x 1.742210 0.000000 0.015650 
#    y 0.000000 1.683110 0.000000 
#    z 0.015650 0.000000 1.719580 
# 
# From -- ./inp_files/275540.got.cif
#   From: 2010.05.17/outbox.cif.g08.bks.cpg/sg12_138_cif.got.tgz:275540.got - 2010.06.03 13:09:07.
