data_PCOD9200423
_publ_section_title
;
Structure prediction by ZEFSAII (Michael W. Deem and Ramdas Pophale) SiO2 
 PCOD9200423
Probable space group: C 2/M
;
_chemical_formula_sum "Si O2"
_cell_formula_units_Z 56
_cell_length_a 9.349723
_cell_length_b 19.314678
_cell_length_c 27.550920
_cell_angle_alpha 90.000000
_cell_angle_beta 141.622260
_cell_angle_gamma 90.000000
_cell_volume 3088.903163
_symmetry_space_group_name_H-M "C 2/M"
_symmetry_group_IT_number 12
_symmetry_cell_setting 'monoclinic'
loop_
_space_group_symop_operation_xyz
x,y,z
-x,y,-z
-x,-y,-z
x,-y,z
1/2+x,1/2+y,z
1/2-x,1/2+y,-z
1/2-x,1/2-y,-z
1/2+x,1/2-y,z
loop_
_atom_site_type_symbol
_atom_site_label
_atom_site_fract_x
_atom_site_fract_y
_atom_site_fract_z
Si Si1 0.741492 0.078548 0.449172
Si Si2 0.381859 0.822259 0.309248
Si Si3 0.672157 0.582850 0.000495
Si Si4 0.729077 0.421510 0.437595
Si Si5 0.884942 0.678789 0.877166
Si Si6 0.538287 0.325282 0.875153
Si Si7 0.039239 0.820598 0.307236
O O1 0.573133 0.119911 0.369446
O O2 0.772701 0.112913 0.510081
O O3 0.000000 0.073842 0.500000
O O4 0.648840 0.000000 0.431238
O O5 0.242617 0.813489 0.322258
O O6 0.498852 0.751129 0.324161
O O7 0.190386 0.839384 0.217602
O O8 0.698293 0.500000 0.004018
O O9 0.916382 0.621453 0.071959
O O10 0.500000 0.597622 0.000000
O O11 0.575793 0.615597 0.925003
O O12 0.634400 0.500000 0.415384
O O13 0.601993 0.379266 0.362394
O O14 0.000000 0.425921 0.500000
O O15 0.750547 0.680907 0.893234
O O16 0.690793 0.664175 0.784888
O O17 0.996487 0.752962 0.892592
#
# Coordination Sequence:
#
# PCOD9200423 Si02
#       7
#     8   8   8   8   8   8   8
#     4  10  22  39  56  80 112 151 194 234 283 338
#     4  10  22  38  58  85 116 147 187 237 281 335
#     4  11  24  41  60  87 120 151 188 233 282 337
#     4  10  20  37  58  79 111 151 192 234 281 336
#     4  10  21  39  62  87 117 151 192 234 281 343
#     4  10  21  39  63  87 115 153 190 233 286 339
#     4  10  22  37  58  87 114 147 189 234 285 331
#
# _framework density 18.129413
#
# number of rings (size 3 to 8) (size 9 to 14) (size 15 to 20)
#    0.000    1.857    1.429    1.714    2.000    4.571 
#    0.000    2.857    0.000    0.000    0.000    0.000 
#    0.000    0.000    0.000    0.000    0.000    0.000 
#
# Total GULP energy -156212.549409 kJ/mol
# GULP energy per Si atom -5579.019622 kJ/mol
# Density = 1.808815 g / cm^3
# Si number density = 18.129413 Si / 1000 Ang^3
#
#
#
# Elastic Constant Matrix: (Units=GPa)
#
#
# Indices 1 2 3 4 5 6 
#
# 1 103.3535 54.3480 53.4741 -0.0015 -3.2556 -0.0002
# 2 54.3480 111.3942 80.4698 0.0005 -3.4880 0.0001
# 3 53.4741 80.4698 99.4465 0.0064 -4.5126 0.0010
# 4 -0.0015 0.0005 0.0064 134.4954 0.0011 20.2003
# 5 -3.2556 -3.4880 -4.5126 0.0011 30.8618 0.0002
# 6 -0.0002 0.0001 0.0010 20.2003 0.0002 36.1848
#
#
#
# Elastic Compliance Matrix: (Units=1/GPa)
#
#
# Indices 1 2 3 4 5 6 
#
# 1 0.013904 -0.003330 -0.004764 0.000000 0.000394 0.000000
# 2 -0.003330 0.022405 -0.016349 0.000001 -0.000210 0.000000
# 3 -0.004764 -0.016349 0.025912 -0.000001 0.001438 0.000000
# 4 0.000000 0.000001 -0.000001 0.008116 0.000000 -0.004531
# 5 0.000394 -0.000210 0.001438 0.000000 0.032631 0.000000
# 6 0.000000 0.000000 0.000000 -0.004531 0.000000 0.030165
#
#
# Mechanical properties :
#
#
# Convention : Reuss Voigt Hill
#
# Bulk Modulus (GPa) = 74.98797 76.75311 75.87054
# Shear Modulus (GPa) = 26.81490 48.70190 37.75840
#
# Velocity S-wave (km/s) = 3.85006 5.18862 4.56863
# Velocity P-wave (km/s) = 7.82409 8.85008 8.35285
#
# Compressibility (1/GPa) = 0.01333547
#
# Stress axis : x y z
#
# Youngs Moduli (GPa) = 71.92332 44.63205 38.59208
#
# Poissons Ratio (x) = 0.14860 0.18386
# Poissons Ratio (y) = 0.23947 0.63095
# Poissons Ratio (z) = 0.34266 0.72969
#
# Static dielectric constant tensor:
#      x y z
#    x 1.574040 0.000000 -0.024890 
#    y 0.000000 1.598100 0.000000 
#    z -0.024890 0.000000 1.604200 
# 
# From -- ./inp_files/257177.got.cif
#   From: 2010.05.17/outbox.cif.g08.bks.cpg/sg12_129_cif.got.tgz:257177.got - 2010.06.03 13:09:07.
