data_PCOD9200721
_publ_section_title
;
Structure prediction by ZEFSAII (Michael W. Deem and Ramdas Pophale) SiO2 
 PCOD9200721
Probable space group: C 2/M
;
_chemical_formula_sum "Si O2"
_cell_formula_units_Z 56
_cell_length_a 11.264191
_cell_length_b 18.322756
_cell_length_c 14.075455
_cell_angle_alpha 90.000000
_cell_angle_beta 94.622420
_cell_angle_gamma 90.000000
_cell_volume 2895.598661
_symmetry_space_group_name_H-M "C 2/M"
_symmetry_group_IT_number 12
_symmetry_cell_setting 'monoclinic'
loop_
_space_group_symop_operation_xyz
x,y,z
-x,y,-z
-x,-y,-z
x,-y,z
1/2+x,1/2+y,z
1/2-x,1/2+y,-z
1/2-x,1/2-y,-z
1/2+x,1/2-y,z
loop_
_atom_site_type_symbol
_atom_site_label
_atom_site_fract_x
_atom_site_fract_y
_atom_site_fract_z
Si Si1 0.815374 0.189274 0.632612
Si Si2 0.385684 0.587838 0.059679
Si Si3 0.553973 0.915845 0.403969
Si Si4 0.558277 0.676746 0.748796
Si Si5 0.797640 0.847745 0.423442
Si Si6 0.610398 0.844156 0.750021
Si Si7 0.874396 0.587947 0.041770
O O1 0.851351 0.158426 0.532054
O O2 0.766989 0.270159 0.604915
O O3 0.711044 0.143635 0.676391
O O4 0.920840 0.189245 0.714786
O O5 0.383367 0.500000 0.069462
O O6 0.412720 0.626667 0.160568
O O7 0.500000 0.605497 0.000000
O O8 0.253137 0.610171 0.013496
O O9 0.500000 0.886581 0.500000
O O10 0.694810 0.907539 0.418800
O O11 0.507930 0.870479 0.311302
O O12 0.517088 0.000000 0.391378
O O13 0.613289 0.642361 0.657065
O O14 0.609870 0.757733 0.768576
O O15 0.626647 0.885121 0.849747
O O16 0.876295 0.500000 0.040019
O O17 0.000000 0.612479 0.000000
#
# Coordination Sequence:
#
# PCOD9200721 Si02
#       7
#     8   8   8   8   8   8   8
#     4  10  20  37  59  86 126 164 198 239 295 368
#     4  10  23  44  63  83 117 162 205 251 316 381
#     4  11  22  38  60  89 124 162 205 250 298 359
#     4  11  23  36  63  93 118 160 204 250 307 359
#     4  10  21  36  58  87 125 162 198 244 295 356
#     4  11  22  37  61  90 123 156 205 249 306 361
#     4  10  23  41  62  87 118 160 206 261 318 363
#
# _framework density 19.339697000000001
#
# number of rings (size 3 to 8) (size 9 to 14) (size 15 to 20)
#    0.000    1.571    2.857    1.714    2.000    1.714 
#    0.000    1.429    0.000    1.714    0.000    0.000 
#    0.000    0.000    0.000    0.000    0.000    0.000 
#
# Total GULP energy -156180.697963 kJ/mol
# GULP energy per Si atom -5577.882070 kJ/mol
# Density = 1.929568 g / cm^3
# Si number density = 19.339697 Si / 1000 Ang^3
#
#
#
# Elastic Constant Matrix: (Units=GPa)
#
#
# Indices 1 2 3 4 5 6 
#
# 1 84.9353 14.7609 46.7557 0.0000 8.3159 0.0000
# 2 14.7609 16.1628 33.2882 0.0000 -3.5549 0.0000
# 3 46.7557 33.2882 143.1738 0.0000 11.8368 0.0000
# 4 0.0000 0.0000 0.0000 25.0396 0.0000 -1.4253
# 5 8.3159 -3.5549 11.8368 0.0000 31.7142 0.0000
# 6 0.0000 0.0000 0.0000 -1.4253 0.0000 17.3917
#
#
#
# Elastic Compliance Matrix: (Units=1/GPa)
#
#
# Indices 1 2 3 4 5 6 
#
# 1 0.015201 -0.010242 -0.002227 0.000000 -0.004303 0.000000
# 2 -0.010242 0.147172 -0.033493 0.000000 0.031683 0.000000
# 3 -0.002227 -0.033493 0.016263 0.000000 -0.009240 0.000000
# 4 0.000000 0.000000 0.000000 0.040124 0.000000 0.003288
# 5 -0.004303 0.031683 -0.009240 0.000000 0.039660 0.000000
# 6 0.000000 0.000000 0.000000 0.003288 0.000000 0.057768
#
#
# Mechanical properties :
#
#
# Convention : Reuss Voigt Hill
#
# Bulk Modulus (GPa) = 11.53232 48.20906 29.87069
# Shear Modulus (GPa) = 11.44124 24.79356 18.11740
#
# Velocity S-wave (km/s) = 2.43491 3.58439 3.06404
# Velocity P-wave (km/s) = 3.72572 6.48939 5.29118
#
# Compressibility (1/GPa) = 0.08671279
#
# Stress axis : x y z
#
# Youngs Moduli (GPa) = 65.78567 6.79476 61.48996
#
# Poissons Ratio (x) = 0.06959 0.13694
# Poissons Ratio (y) = 0.67377 2.05946
# Poissons Ratio (z) = 0.14651 0.22757
#
# Static dielectric constant tensor:
#      x y z
#    x 1.732510 0.000000 -0.017370 
#    y 0.000000 1.664700 0.000000 
#    z -0.017370 0.000000 1.640830 
# 
# From -- ./inp_files/133221.got.cif
#   From: 2010.05.17/outbox.cif.g08.bks.cpg/sg12_67_cif.got.tgz:133221.got - 2010.06.03 13:09:07.
