data_PCOD9200803
_publ_section_title
;
Structure prediction by ZEFSAII (Michael W. Deem and Ramdas Pophale) SiO2 
 PCOD9200803
Probable space group: C 2/M
;
_chemical_formula_sum "Si O2"
_cell_formula_units_Z 64
_cell_length_a 19.836410
_cell_length_b 7.613122
_cell_length_c 22.709058
_cell_angle_alpha 90.000000
_cell_angle_beta 49.075963
_cell_angle_gamma 90.000000
_cell_volume 2591.222491
_symmetry_space_group_name_H-M "C 2/M"
_symmetry_group_IT_number 12
_symmetry_cell_setting 'monoclinic'
loop_
_space_group_symop_operation_xyz
x,y,z
-x,y,-z
-x,-y,-z
x,-y,z
1/2+x,1/2+y,z
1/2-x,1/2+y,-z
1/2-x,1/2-y,-z
1/2+x,1/2-y,z
loop_
_atom_site_type_symbol
_atom_site_label
_atom_site_fract_x
_atom_site_fract_y
_atom_site_fract_z
Si Si1 0.959638 0.283595 0.671727
Si Si2 0.718591 0.201931 0.920130
Si Si3 0.347981 0.801106 0.423607
Si Si4 0.032187 0.714335 0.080085
Si Si5 0.412446 0.201926 0.826836
Si Si6 0.789922 0.786829 0.332482
Si Si7 0.095514 0.713797 0.421152
Si Si8 0.665600 0.703648 0.824588
O O1 0.957232 0.500000 0.674203
O O2 0.930706 0.219313 0.752377
O O3 0.900650 0.234177 0.649669
O O4 0.061228 0.218980 0.604207
O O5 0.805775 0.294025 0.895644
O O6 0.715671 0.212049 0.850901
O O7 0.724997 0.000000 0.934925
O O8 0.623497 0.271855 0.996725
O O9 0.250000 0.750000 0.500000
O O10 0.348331 0.784408 0.352567
O O11 0.355850 0.000000 0.438442
O O12 0.030138 0.500000 0.079243
O O13 0.039410 0.777634 0.143621
O O14 0.940422 0.778451 0.104924
O O15 0.441887 0.000000 0.807372
O O16 0.686518 0.732151 0.400666
O O17 0.817065 0.728473 0.251446
O O18 0.795422 0.000000 0.331784
O O19 0.094697 0.500000 0.424566
O O20 0.000000 0.773446 0.500000
O O21 0.692877 0.500000 0.808984
#
# Coordination Sequence:
#
# PCOD9200803 Si02
#       8
#     8   8   8   8   8   8   8   8
#     4   9  18  33  55  81 107 143 188 229 274 330
#     4  11  23  38  57  83 116 151 188 235 292 348
#     4  11  22  37  59  85 115 151 189 230 278 332
#     4  10  22  39  58  82 114 151 190 237 291 347
#     4  10  20  37  60  83 110 146 192 240 286 345
#     4  10  21  37  57  83 113 143 182 233 283 333
#     4   9  16  29  52  78 104 137 178 221 264 319
#     4  11  23  38  59  85 114 151 194 240 287 340
#
# _framework density 24.698765000000002
#
# number of rings (size 3 to 8) (size 9 to 14) (size 15 to 20)
#    0.000    1.875    0.000    4.125    0.000    9.000 
#    0.000    1.250    0.000    4.125    0.000    0.000 
#    0.000    0.000    0.000    0.000    0.000    0.000 
#
# Total GULP energy -178993.965845 kJ/mol
# GULP energy per Si atom -5593.561433 kJ/mol
# Density = 2.464255 g / cm^3
# Si number density = 24.698765 Si / 1000 Ang^3
#
#
#
# Elastic Constant Matrix: (Units=GPa)
#
#
# Indices 1 2 3 4 5 6 
#
# 1 106.4706 -12.4766 -13.1857 0.0000 -0.2528 0.0004
# 2 -12.4766 47.4136 -4.6191 0.0003 -0.8930 0.0003
# 3 -13.1857 -4.6191 64.2577 -0.0001 0.2723 0.0001
# 4 0.0000 0.0003 -0.0001 15.8050 0.0000 0.8794
# 5 -0.2528 -0.8930 0.2723 0.0000 40.1907 0.0001
# 6 0.0004 0.0003 0.0001 0.8794 0.0001 9.7788
#
#
#
# Elastic Compliance Matrix: (Units=1/GPa)
#
#
# Indices 1 2 3 4 5 6 
#
# 1 0.010007 0.002855 0.002258 0.000000 0.000111 -0.000001
# 2 0.002855 0.022063 0.002170 0.000000 0.000493 -0.000001
# 3 0.002258 0.002170 0.016182 0.000000 -0.000047 0.000000
# 4 0.000000 0.000000 0.000000 0.063589 0.000000 -0.005719
# 5 0.000111 0.000493 -0.000047 0.000000 0.024893 0.000000
# 6 -0.000001 -0.000001 0.000000 -0.005719 0.000000 0.102776
#
#
# Mechanical properties :
#
#
# Convention : Reuss Voigt Hill
#
# Bulk Modulus (GPa) = 15.91894 17.50879 16.71386
# Shear Modulus (GPa) = 20.33483 29.71645 25.02564
#
# Velocity S-wave (km/s) = 2.87246 3.47242 3.18659
# Velocity P-wave (km/s) = 4.17859 4.81469 4.50787
#
# Compressibility (1/GPa) = 0.06281826
#
# Stress axis : x y z
#
# Youngs Moduli (GPa) = 99.93222 45.32471 61.79745
#
# Poissons Ratio (x) = -0.12942 -0.13955
# Poissons Ratio (y) = -0.28534 -0.13409
# Poissons Ratio (z) = -0.22566 -0.09835
#
# Static dielectric constant tensor:
#      x y z
#    x 1.895220 0.000000 -0.014190 
#    y 0.000000 1.941580 0.000000 
#    z -0.014190 0.000000 2.027890 
# 
# From -- ./inp_files/345947.got.cif
#   From: 2010.05.17/outbox.cif.g08.bks.cpg/sg12_173_cif.got.tgz:345947.got - 2010.06.03 13:09:07.
