data_PCOD9200322
_publ_section_title
;
Structure prediction by ZEFSAII (Michael W. Deem and Ramdas Pophale) SiO2 
 PCOD9200322
Probable space group: C 2/M
;
_chemical_formula_sum "Si O2"
_cell_formula_units_Z 48
_cell_length_a 9.159454
_cell_length_b 29.018801
_cell_length_c 8.793085
_cell_angle_alpha 90.000000
_cell_angle_beta 73.192777
_cell_angle_gamma 90.000000
_cell_volume 2237.333329
_symmetry_space_group_name_H-M "C 2/M"
_symmetry_group_IT_number 12
_symmetry_cell_setting 'monoclinic'
loop_
_space_group_symop_operation_xyz
x,y,z
-x,y,-z
-x,-y,-z
x,-y,z
1/2+x,1/2+y,z
1/2-x,1/2+y,-z
1/2-x,1/2-y,-z
1/2+x,1/2-y,z
loop_
_atom_site_type_symbol
_atom_site_label
_atom_site_fract_x
_atom_site_fract_y
_atom_site_fract_z
Si Si1 0.664338 0.886894 0.511188
Si Si2 0.774749 0.707672 0.652679
Si Si3 0.206906 0.110560 0.210156
Si Si4 0.080609 0.792990 0.276071
Si Si5 0.059253 0.947677 0.657884
Si Si6 0.162396 0.684695 0.023795
O O1 0.500000 0.900234 0.500000
O O2 0.682728 0.831744 0.480309
O O3 0.683993 0.900192 0.681783
O O4 0.798240 0.913220 0.380653
O O5 0.854955 0.757428 0.619250
O O6 0.593314 0.714323 0.715134
O O7 0.834352 0.688907 0.797511
O O8 0.104529 0.153369 0.307602
O O9 0.086201 0.071504 0.206801
O O10 0.298661 0.132741 0.043927
O O11 0.196831 0.788422 0.098668
O O12 0.000000 0.947104 0.500000
O O13 0.099333 0.000000 0.684880
O O14 0.000000 0.697802 0.000000
#
# Coordination Sequence:
#
# PCOD9200322 Si02
#       6
#     8   8   8   8   8   8
#     4  11  22  36  56  86 116 140 183 236 284 336
#     4  12  22  37  55  78 114 157 193 225 274 326
#     4   9  21  39  55  83 112 145 188 234 274 336
#     4  10  23  35  55  78 112 152 195 228 262 335
#     4   9  18  38  64  83 108 147 186 231 286 341
#     4  10  20  37  57  78 113 152 191 233 269 322
#
# _framework density 21.454113
#
# number of rings (size 3 to 8) (size 9 to 14) (size 15 to 20)
#    1.000    0.833    1.667    3.000    2.333    1.000 
#    0.000    0.000    0.000    2.500    0.000    0.000 
#    0.000    0.000    0.000    0.000    0.000    0.000 
#
# Total GULP energy -134030.613183 kJ/mol
# GULP energy per Si atom -5584.608883 kJ/mol
# Density = 2.140528 g / cm^3
# Si number density = 21.454113 Si / 1000 Ang^3
#
#
#
# Elastic Constant Matrix: (Units=GPa)
#
#
# Indices 1 2 3 4 5 6 
#
# 1 147.6149 16.6615 9.0024 0.0000 -23.1411 0.0000
# 2 16.6615 79.5628 -7.3519 0.0000 -4.1574 0.0000
# 3 9.0024 -7.3519 51.6373 0.0000 -4.1018 0.0000
# 4 0.0000 0.0000 0.0000 21.6790 0.0000 -3.6495
# 5 -23.1411 -4.1574 -4.1018 0.0000 25.5822 0.0000
# 6 0.0000 0.0000 0.0000 -3.6495 0.0000 13.8904
#
#
#
# Elastic Compliance Matrix: (Units=1/GPa)
#
#
# Indices 1 2 3 4 5 6 
#
# 1 0.008084 -0.001430 -0.001064 0.000000 0.006909 0.000000
# 2 -0.001430 0.013135 0.002214 0.000000 0.001196 0.000000
# 3 -0.001064 0.002214 0.020074 0.000000 0.002616 0.000000
# 4 0.000000 0.000000 0.000000 0.048262 0.000000 0.012680
# 5 0.006909 0.001196 0.002616 0.000000 0.045954 0.000000
# 6 0.000000 0.000000 0.000000 0.012680 0.000000 0.075324
#
#
# Mechanical properties :
#
#
# Convention : Reuss Voigt Hill
#
# Bulk Modulus (GPa) = 24.54943 35.04876 29.79909
# Shear Modulus (GPa) = 22.22507 29.59717 25.91112
#
# Velocity S-wave (km/s) = 3.22209 3.71827 3.47903
# Velocity P-wave (km/s) = 5.03091 5.89967 5.48252
#
# Compressibility (1/GPa) = 0.04073414
#
# Stress axis : x y z
#
# Youngs Moduli (GPa) = 123.70305 76.13067 49.81453
#
# Poissons Ratio (x) = 0.10888 0.05301
# Poissons Ratio (y) = 0.17691 -0.11031
# Poissons Ratio (z) = 0.13163 -0.16859
#
# Static dielectric constant tensor:
#      x y z
#    x 1.765370 0.000000 0.006920 
#    y 0.000000 1.811230 0.000000 
#    z 0.006920 0.000000 1.800230 
# 
# From -- ./inp_files/123477.got.cif
#   From: 2010.05.17/outbox.cif.g08.bks.cpg/sg12_62_cif.got.tgz:123477.got - 2010.06.03 13:09:07.
