data_PCOD9200457
_publ_section_title
;
Structure prediction by ZEFSAII (Michael W. Deem and Ramdas Pophale) SiO2 
 PCOD9200457
Probable space group: C 2/M
;
_chemical_formula_sum "Si O2"
_cell_formula_units_Z 40
_cell_length_a 9.110160
_cell_length_b 10.107316
_cell_length_c 31.762023
_cell_angle_alpha 90.000000
_cell_angle_beta 41.487508
_cell_angle_gamma 90.000000
_cell_volume 1937.436724
_symmetry_space_group_name_H-M "C 2/M"
_symmetry_group_IT_number 12
_symmetry_cell_setting 'monoclinic'
loop_
_space_group_symop_operation_xyz
x,y,z
-x,y,-z
-x,-y,-z
x,-y,z
1/2+x,1/2+y,z
1/2-x,1/2+y,-z
1/2-x,1/2-y,-z
1/2+x,1/2-y,z
loop_
_atom_site_type_symbol
_atom_site_label
_atom_site_fract_x
_atom_site_fract_y
_atom_site_fract_z
Si Si1 0.504806 0.351760 0.325181
Si Si2 0.748216 0.650708 0.539030
Si Si3 0.753357 0.348602 0.959777
Si Si4 0.518867 0.645491 0.847256
Si Si5 0.010508 0.273967 0.761551
O O1 0.416116 0.500000 0.341223
O O2 0.398855 0.295532 0.390533
O O3 0.770735 0.353580 0.272504
O O4 0.448502 0.279768 0.294106
O O5 0.671490 0.500000 0.544991
O O6 0.750000 0.750000 0.500000
O O7 0.000000 0.641631 0.500000
O O8 0.834092 0.500000 0.950071
O O9 0.893663 0.269849 0.894678
O O10 0.500000 0.358814 0.000000
O O11 0.750000 0.250000 0.000000
O O12 0.430631 0.500000 0.878346
O O13 0.498929 0.664708 0.801179
O O14 0.773257 0.654842 0.808447
#
# Coordination Sequence:
#
# PCOD9200457 Si02
#       5
#     8   8   8   8   8
#     4  10  20  37  58  81 115 155 193 238 291 345
#     4  10  21  37  58  85 116 152 196 244 293 347
#     4  11  25  43  64  90 120 155 195 239 287 342
#     4  11  23  39  61  89 119 152 193 239 288 345
#     4  10  22  37  58  86 117 152 194 238 288 345
#
# _framework density 20.645837
#
# number of rings (size 3 to 8) (size 9 to 14) (size 15 to 20)
#    0.000    1.600    0.000    4.200    0.000   10.000 
#    0.000    5.000    0.000    0.000    0.000    0.000 
#    0.000    0.000    0.000    0.000    0.000    0.000 
#
# Total GULP energy -111601.895065 kJ/mol
# GULP energy per Si atom -5580.094753 kJ/mol
# Density = 2.059885 g / cm^3
# Si number density = 20.645837 Si / 1000 Ang^3
#
#
#
# Elastic Constant Matrix: (Units=GPa)
#
#
# Indices 1 2 3 4 5 6 
#
# 1 83.6349 28.4350 12.9055 0.0000 10.3975 0.0000
# 2 28.4350 132.7364 44.9236 0.0000 20.9055 0.0000
# 3 12.9055 44.9236 98.9031 -0.0001 11.8112 -0.0001
# 4 0.0000 0.0000 -0.0001 6.4910 0.0000 -10.4490
# 5 10.3975 20.9055 11.8112 0.0000 38.7737 0.0000
# 6 0.0000 0.0000 -0.0001 -10.4490 0.0000 3.4884
#
#
#
# Elastic Compliance Matrix: (Units=1/GPa)
#
#
# Indices 1 2 3 4 5 6 
#
# 1 0.013075 -0.002333 -0.000392 0.000000 -0.002129 0.000000
# 2 -0.002333 0.009862 -0.003751 0.000000 -0.003549 0.000000
# 3 -0.000392 -0.003751 0.012050 0.000000 -0.001543 0.000000
# 4 0.000000 0.000000 0.000000 -0.040310 0.000000 -0.120744
# 5 -0.002129 -0.003549 -0.001543 0.000000 0.028745 0.000000
# 6 0.000000 0.000000 0.000000 -0.120744 0.000000 -0.075007
#
#
# Mechanical properties :
#
#
# Convention : Reuss Voigt Hill
#
# Bulk Modulus (GPa) = 45.38334 54.20028 49.79181
# Shear Modulus (GPa) = -159.81054 25.01798 -67.39628
#
# Velocity S-wave (km/s) = -8.80760 3.48482 -5.71969
# Velocity P-wave (km/s) = 9.02231 6.51931 4.41026
#
# Compressibility (1/GPa) = 0.02203452
#
# Stress axis : x y z
#
# Youngs Moduli (GPa) = 76.48137 101.39904 82.98590
#
# Poissons Ratio (x) = 0.23656 0.03255
# Poissons Ratio (y) = 0.17843 0.31130
# Poissons Ratio (z) = 0.03000 0.38037
#
# Static dielectric constant tensor:
#      x y z
#    x 1.707940 0.000000 0.003390 
#    y 0.000000 1.778300 0.000000 
#    z 0.003390 0.000000 1.765790 
# 
# From -- ./inp_files/332106.got.cif
#   From: 2010.05.17/outbox.cif.g08.bks.cpg/sg12_167_cif.got.tgz:332106.got - 2010.06.03 13:09:07.
