data_PCOD9200090
_publ_section_title
;
Structure prediction by ZEFSAII (Michael W. Deem and Ramdas Pophale) SiO2 
 PCOD9200090
Probable space group: C 2/M
;
_chemical_formula_sum "Si O2"
_cell_formula_units_Z 56
_cell_length_a 17.851076
_cell_length_b 23.490598
_cell_length_c 10.677229
_cell_angle_alpha 90.000000
_cell_angle_beta 150.432535
_cell_angle_gamma 90.000000
_cell_volume 2209.319199
_symmetry_space_group_name_H-M "C 2/M"
_symmetry_group_IT_number 12
_symmetry_cell_setting 'monoclinic'
loop_
_space_group_symop_operation_xyz
x,y,z
-x,y,-z
-x,-y,-z
x,-y,z
1/2+x,1/2+y,z
1/2-x,1/2+y,-z
1/2-x,1/2-y,-z
1/2+x,1/2-y,z
loop_
_atom_site_type_symbol
_atom_site_label
_atom_site_fract_x
_atom_site_fract_y
_atom_site_fract_z
Si Si1 0.930666 0.062857 0.126204
Si Si2 0.833303 0.671386 0.666888
Si Si3 0.918144 0.310999 0.164411
Si Si4 0.331533 0.737664 0.350022
Si Si5 0.360553 0.667890 0.859385
Si Si6 0.872219 0.437005 0.149699
Si Si7 0.740053 0.938040 0.297283
O O1 0.774673 0.064332 0.975590
O O2 0.078371 0.071178 0.428020
O O3 0.945100 0.000000 0.089986
O O4 0.924021 0.112522 0.016926
O O5 0.991659 0.691702 0.837736
O O6 0.732160 0.712078 0.609525
O O7 0.745321 0.656621 0.411446
O O8 0.839860 0.611893 0.746451
O O9 0.000110 0.262027 0.369330
O O10 0.741373 0.303536 0.863128
O O11 0.946364 0.373876 0.265520
O O12 0.234344 0.794608 0.182898
O O13 0.500000 0.700655 0.000000
O O14 0.949579 0.500000 0.283233
O O15 0.813116 0.438216 0.921851
O O16 0.706469 0.000000 0.304697
#
# Coordination Sequence:
#
# PCOD9200090 Si02
#       7
#     8   8   8   8   8   8   8
#     4  10  22  40  64  94 130 176 225 273 334 402
#     4  11  21  37  61  97 130 168 216 273 337 391
#     4  11  23  40  68 100 134 180 224 275 336 402
#     4  11  23  40  65  99 135 175 224 271 335 404
#     4  11  20  35  62  91 128 169 212 269 330 391
#     4  10  22  42  66  92 130 180 226 273 335 406
#     4  10  20  36  63  95 130 170 222 283 335 393
#
# _framework density 25.347173999999999
#
# number of rings (size 3 to 8) (size 9 to 14) (size 15 to 20)
#    0.000    1.429    2.857    4.286    0.000    3.143 
#    0.000    7.143    3.143    6.857    0.000    0.000 
#    0.000    0.000    0.000    0.000    0.000    0.000 
#
# Total GULP energy -156428.853262 kJ/mol
# GULP energy per Si atom -5586.744759 kJ/mol
# Density = 2.528948 g / cm^3
# Si number density = 25.347174 Si / 1000 Ang^3
#
#
#
# Elastic Constant Matrix: (Units=GPa)
#
#
# Indices 1 2 3 4 5 6 
#
# 1 53.6722 31.6727 7.2285 0.0000 4.6209 0.0000
# 2 31.6727 138.1179 38.9328 0.0000 0.5551 0.0000
# 3 7.2285 38.9328 81.3173 0.0000 -1.3868 0.0000
# 4 0.0000 0.0000 0.0000 28.9132 0.0000 -7.6350
# 5 4.6209 0.5551 -1.3868 0.0000 39.9490 0.0000
# 6 0.0000 0.0000 0.0000 -7.6350 0.0000 40.0702
#
#
#
# Elastic Compliance Matrix: (Units=1/GPa)
#
#
# Indices 1 2 3 4 5 6 
#
# 1 0.021801 -0.005123 0.000473 0.000000 -0.002434 0.000000
# 2 -0.005123 0.009576 -0.004124 0.000000 0.000316 0.000000
# 3 0.000473 -0.004124 0.014238 0.000000 0.000497 0.000000
# 4 0.000000 0.000000 0.000000 0.036419 0.000000 0.006939
# 5 -0.002434 0.000316 0.000497 0.000000 0.025326 0.000000
# 6 0.000000 0.000000 0.000000 0.006939 0.000000 0.026278
#
#
# Mechanical properties :
#
#
# Convention : Reuss Voigt Hill
#
# Bulk Modulus (GPa) = 35.62797 47.64173 41.63485
# Shear Modulus (GPa) = 31.14456 34.80471 32.97464
#
# Velocity S-wave (km/s) = 3.50911 3.70958 3.61074
# Velocity P-wave (km/s) = 5.52313 6.09791 5.81762
#
# Compressibility (1/GPa) = 0.02806783
#
# Stress axis : x y z
#
# Youngs Moduli (GPa) = 45.87048 104.42589 70.23256
#
# Poissons Ratio (x) = 0.53496 -0.03324
# Poissons Ratio (y) = 0.23499 0.28964
# Poissons Ratio (z) = -0.02171 0.43066
#
# Static dielectric constant tensor:
#      x y z
#    x 2.039550 0.000000 0.037290 
#    y 0.000000 2.092590 0.000000 
#    z 0.037290 0.000000 2.063980 
# 
# From -- ./inp_files/170319.got.cif
#   From: 2010.05.17/outbox.cif.g08.bks.cpg/sg12_86_cif.got.tgz:170319.got - 2010.06.03 13:09:07.
