data_PCOD9200510
_publ_section_title
;
Structure prediction by ZEFSAII (Michael W. Deem and Ramdas Pophale) SiO2 
 PCOD9200510
Probable space group: C 2/M
;
_chemical_formula_sum "Si O2"
_cell_formula_units_Z 58
_cell_length_a 24.963525
_cell_length_b 7.790143
_cell_length_c 22.706738
_cell_angle_alpha 90.000000
_cell_angle_beta 142.957197
_cell_angle_gamma 90.000000
_cell_volume 2660.108357
_symmetry_space_group_name_H-M "C 2/M"
_symmetry_group_IT_number 12
_symmetry_cell_setting 'monoclinic'
loop_
_space_group_symop_operation_xyz
x,y,z
-x,y,-z
-x,-y,-z
x,-y,z
1/2+x,1/2+y,z
1/2-x,1/2+y,-z
1/2-x,1/2-y,-z
1/2+x,1/2-y,z
loop_
_atom_site_type_symbol
_atom_site_label
_atom_site_fract_x
_atom_site_fract_y
_atom_site_fract_z
Si Si1 0.543231 0.705448 0.839919
Si Si2 0.546357 0.810083 0.457760
Si Si3 0.138116 0.202934 0.259034
Si Si4 0.404432 0.290386 0.241789
Si Si5 0.200388 0.706356 0.064368
Si Si6 0.205511 0.192555 0.521885
Si Si7 0.397423 0.207995 0.903673
Si Si8 0.500000 0.500000 0.500000
O O1 0.536874 0.500000 0.832627
O O2 0.457226 0.767728 0.800216
O O3 0.547573 0.764624 0.776411
O O4 0.634101 0.747071 0.953584
O O5 0.453742 0.782662 0.341762
O O6 0.623024 0.795895 0.475548
O O7 0.552344 0.653122 0.508445
O O8 0.552511 0.000000 0.489386
O O9 0.217172 0.296538 0.361703
O O10 0.140103 0.228842 0.191046
O O11 0.146141 0.000000 0.279301
O O12 0.407881 0.500000 0.249269
O O13 0.301731 0.236084 0.146961
O O14 0.202962 0.500000 0.069094
O O15 0.157367 0.768267 0.087759
O O16 0.250000 0.250000 0.500000
O O17 0.172222 0.000000 0.483887
O O18 0.396086 0.000000 0.901790
O O19 0.500000 0.263010 0.000000
#
# Coordination Sequence:
#
# PCOD9200510 Si02
#       8
#     8   8   8   8   8   8   8   2
#     4  10  21  36  59  89 133 176 218 279 342 406
#     4  12  26  48  77 106 139 191 242 296 366 430
#     4  11  23  38  61  95 129 175 225 275 348 416
#     4  10  21  41  63  93 132 175 224 286 349 405
#     4  10  21  36  60  88 126 173 224 276 338 404
#     4  12  25  46  73 106 145 182 234 304 365 431
#     4  10  20  37  58  84 124 169 217 273 335 408
#     4  12  26  52  76 102 152 186 238 304 360 422
#
# _framework density 21.803623999999999
#
# number of rings (size 3 to 8) (size 9 to 14) (size 15 to 20)
#    0.000    1.241    2.759    3.103    0.000    4.690 
#    2.483    1.379    0.000    0.000    0.000    0.000 
#    0.000    0.000    0.000    0.000    0.000    0.000 
#
# Total GULP energy -161944.900264 kJ/mol
# GULP energy per Si atom -5584.306906 kJ/mol
# Density = 2.175400 g / cm^3
# Si number density = 21.803624 Si / 1000 Ang^3
#
#
#
# Elastic Constant Matrix: (Units=GPa)
#
#
# Indices 1 2 3 4 5 6 
#
# 1 85.2856 27.4199 -5.2991 0.0000 -4.9869 0.0000
# 2 27.4199 97.4314 -3.1511 0.0000 -0.8752 0.0000
# 3 -5.2991 -3.1511 64.2214 0.0000 4.4369 0.0000
# 4 0.0000 0.0000 0.0000 26.0461 0.0000 -4.5233
# 5 -4.9869 -0.8752 4.4369 0.0000 29.4862 0.0000
# 6 0.0000 0.0000 0.0000 -4.5233 0.0000 14.6102
#
#
#
# Elastic Compliance Matrix: (Units=1/GPa)
#
#
# Indices 1 2 3 4 5 6 
#
# 1 0.013056 -0.003632 0.000762 0.000000 0.001986 0.000000
# 2 -0.003632 0.011292 0.000277 0.000000 -0.000321 0.000000
# 3 0.000762 0.000277 0.015802 0.000000 -0.002241 0.000000
# 4 0.000000 0.000000 0.000000 0.040575 0.000000 0.012562
# 5 0.001986 -0.000321 -0.002241 0.000000 0.034578 0.000000
# 6 0.000000 0.000000 0.000000 0.012562 0.000000 0.072335
#
#
# Mechanical properties :
#
#
# Convention : Reuss Voigt Hill
#
# Bulk Modulus (GPa) = 28.60115 31.65309 30.12712
# Shear Modulus (GPa) = 24.45230 29.22640 26.83935
#
# Velocity S-wave (km/s) = 3.35248 3.66517 3.51231
# Velocity P-wave (km/s) = 5.30392 5.69738 5.50417
#
# Compressibility (1/GPa) = 0.03496363
#
# Stress axis : x y z
#
# Youngs Moduli (GPa) = 76.59041 88.55961 63.28164
#
# Poissons Ratio (x) = 0.32165 -0.04822
# Poissons Ratio (y) = 0.27817 -0.01750
# Poissons Ratio (z) = -0.05836 -0.02449
#
# Static dielectric constant tensor:
#      x y z
#    x 1.822160 0.000000 0.009670 
#    y 0.000000 1.821190 0.000000 
#    z 0.009670 0.000000 1.755820 
# 
# From -- ./inp_files/351504.got.cif
#   From: 2010.05.17/outbox.cif.g08.bks.cpg/sg12_176_cif.got.tgz:351504.got - 2010.06.03 13:09:07.
