data_PCOD9200331
_publ_section_title
;
Structure prediction by ZEFSAII (Michael W. Deem and Ramdas Pophale) SiO2 
 PCOD9200331
Probable space group: C 2/M
;
_chemical_formula_sum "Si O2"
_cell_formula_units_Z 50
_cell_length_a 16.473957
_cell_length_b 13.276404
_cell_length_c 20.755313
_cell_angle_alpha 90.000000
_cell_angle_beta 30.220381
_cell_angle_gamma 90.000000
_cell_volume 2284.852690
_symmetry_space_group_name_H-M "C 2/M"
_symmetry_group_IT_number 12
_symmetry_cell_setting 'monoclinic'
loop_
_space_group_symop_operation_xyz
x,y,z
-x,y,-z
-x,-y,-z
x,-y,z
1/2+x,1/2+y,z
1/2-x,1/2+y,-z
1/2-x,1/2-y,-z
1/2+x,1/2-y,z
loop_
_atom_site_type_symbol
_atom_site_label
_atom_site_fract_x
_atom_site_fract_y
_atom_site_fract_z
Si Si1 0.016133 0.796739 0.922338
Si Si2 0.500000 0.500000 0.000000
Si Si3 0.918149 0.706464 0.251171
Si Si4 0.077405 0.888702 0.657678
Si Si5 0.315750 0.111754 0.867551
Si Si6 0.535998 0.887929 0.589545
Si Si7 0.941056 0.828882 0.472424
O O1 0.833565 0.814697 0.024020
O O2 0.000000 0.736602 0.000000
O O3 0.079439 0.907117 0.900929
O O4 0.111321 0.745558 0.800304
O O5 0.971120 0.800917 0.259759
O O6 0.752418 0.664821 0.392167
O O7 0.060895 0.626118 0.158996
O O8 0.273834 0.884054 0.522044
O O9 0.013688 0.872691 0.628665
O O10 0.031472 0.000000 0.712403
O O11 0.426032 0.123219 0.728578
O O12 0.238928 0.000000 0.913837
O O13 0.509764 0.789170 0.565163
O O14 0.506511 0.000000 0.582473
O O15 0.000000 0.872314 0.500000
#
# Coordination Sequence:
#
# PCOD9200331 Si02
#       7
#     8   2   8   8   8   8   8
#     4  10  22  37  56  86 116 144 181 232 287 333
#     4   8  20  40  52  80 124 132 178 232 288 338
#     4  11  22  37  60  84 112 150 193 230 273 334
#     4  10  20  37  57  80 111 148 190 234 273 330
#     4  11  19  36  61  80 112 151 189 229 271 333
#     4   9  18  34  56  79 107 142 184 229 277 330
#     4  11  22  36  54  83 117 146 186 233 282 333
#
# _framework density 21.883248999999999
#
# number of rings (size 3 to 8) (size 9 to 14) (size 15 to 20)
#    0.480    1.280    4.000    1.440    3.360    0.640 
#    0.000    0.000    0.000    0.480    0.000    0.000 
#    0.000    0.000    0.000    0.000    0.000    0.000 
#
# Total GULP energy -139241.250015 kJ/mol
# GULP energy per Si atom -5569.650001 kJ/mol
# Density = 2.183344 g / cm^3
# Si number density = 21.883249 Si / 1000 Ang^3
#
#
#
# Elastic Constant Matrix: (Units=GPa)
#
#
# Indices 1 2 3 4 5 6 
#
# 1 51.9526 3.4428 -3.5859 -0.0002 17.1776 -0.0001
# 2 3.4428 31.8853 2.7717 -0.0005 -0.3815 0.0004
# 3 -3.5859 2.7717 29.4691 -0.0001 14.3568 0.0000
# 4 -0.0002 -0.0005 -0.0001 13.4333 0.0001 -0.3977
# 5 17.1776 -0.3815 14.3568 0.0001 39.8637 0.0000
# 6 -0.0001 0.0004 0.0000 -0.3977 0.0000 15.7527
#
#
#
# Elastic Compliance Matrix: (Units=1/GPa)
#
#
# Indices 1 2 3 4 5 6 
#
# 1 0.025065 -0.003797 0.010535 0.000000 -0.014631 0.000000
# 2 -0.003797 0.032288 -0.005393 0.000001 0.003887 -0.000001
# 3 0.010535 -0.005393 0.046037 0.000001 -0.021171 0.000000
# 4 0.000000 0.000001 0.000001 0.074497 0.000000 0.001881
# 5 -0.014631 0.003887 -0.021171 0.000000 0.039052 0.000000
# 6 0.000000 -0.000001 0.000000 0.001881 0.000000 0.063529
#
#
# Mechanical properties :
#
#
# Convention : Reuss Voigt Hill
#
# Bulk Modulus (GPa) = 9.42683 13.17379 11.30031
# Shear Modulus (GPa) = 15.96741 21.18850 18.57795
#
# Velocity S-wave (km/s) = 2.70416 3.11505 2.91685
# Velocity P-wave (km/s) = 3.75061 4.35559 4.06437
#
# Compressibility (1/GPa) = 0.10608021
#
# Stress axis : x y z
#
# Youngs Moduli (GPa) = 39.89672 30.97151 21.72149
#
# Poissons Ratio (x) = 0.11760 -0.22884
# Poissons Ratio (y) = 0.15150 0.11714
# Poissons Ratio (z) = -0.42031 0.16702
#
# Static dielectric constant tensor:
#      x y z
#    x 1.411990 0.000000 -0.003910 
#    y 0.000000 1.831230 0.000000 
#    z -0.003910 0.000000 1.774710 
# 
# From -- ./inp_files/277565.got.cif
#   From: 2010.05.17/outbox.cif.g08.bks.cpg/sg12_139_cif.got.tgz:277565.got - 2010.06.03 13:09:07.
