data_PCOD9200521
_publ_section_title
;
Structure prediction by ZEFSAII (Michael W. Deem and Ramdas Pophale) SiO2 
 PCOD9200521
Probable space group: C 2/M
;
_chemical_formula_sum "Si O2"
_cell_formula_units_Z 64
_cell_length_a 31.160558
_cell_length_b 7.508215
_cell_length_c 24.279497
_cell_angle_alpha 90.000000
_cell_angle_beta 150.133463
_cell_angle_gamma 90.000000
_cell_volume 2828.750816
_symmetry_space_group_name_H-M "C 2/M"
_symmetry_group_IT_number 12
_symmetry_cell_setting 'monoclinic'
loop_
_space_group_symop_operation_xyz
x,y,z
-x,y,-z
-x,-y,-z
x,-y,z
1/2+x,1/2+y,z
1/2-x,1/2+y,-z
1/2-x,1/2-y,-z
1/2+x,1/2-y,z
loop_
_atom_site_type_symbol
_atom_site_label
_atom_site_fract_x
_atom_site_fract_y
_atom_site_fract_z
Si Si1 0.527759 0.716179 0.284394
Si Si2 0.741173 0.219535 0.673409
Si Si3 0.718933 0.199197 0.526294
Si Si4 0.089503 0.217428 0.071142
Si Si5 0.760168 0.288009 0.946527
Si Si6 0.931749 0.795964 0.075325
Si Si7 0.059655 0.704716 0.518635
Si Si8 0.927049 0.215195 0.277684
O O1 0.534575 0.500000 0.290538
O O2 0.615994 0.789192 0.406647
O O3 0.503000 0.782014 0.196052
O O4 0.452754 0.762382 0.243922
O O5 0.743300 0.284776 0.612146
O O6 0.825909 0.273965 0.801223
O O7 0.652729 0.279523 0.604974
O O8 0.737433 0.000000 0.668242
O O9 0.750000 0.250000 0.500000
O O10 0.751687 0.000000 0.568616
O O11 0.093497 0.000000 0.075214
O O12 0.085987 0.282114 0.004203
O O13 0.000000 0.268372 0.000000
O O14 0.767971 0.500000 0.948297
O O15 0.670368 0.227836 0.818957
O O16 0.750000 0.250000 0.000000
O O17 0.843404 0.203880 0.011550
O O18 0.959330 0.000000 0.096337
O O19 0.076354 0.500000 0.554326
O O20 0.000000 0.788309 0.500000
O O21 0.998827 0.708882 0.397592
O O22 0.930364 0.000000 0.285506
#
# Coordination Sequence:
#
# PCOD9200521 Si02
#       8
#     8   8   8   8   8   8   8   8
#     4  10  20  37  58  85 118 149 190 239 289 349
#     4   9  19  36  55  84 118 145 188 241 285 341
#     4  11  23  38  60  87 117 151 190 240 297 347
#     4   9  19  35  59  86 112 149 195 242 292 340
#     4  11  22  37  56  83 118 155 193 234 286 348
#     4  10  21  37  60  88 117 152 195 244 296 347
#     4  10  21  36  57  85 115 149 191 239 286 338
#     4  10  21  37  55  79 117 154 190 234 287 353
#
# _framework density 22.624827
#
# number of rings (size 3 to 8) (size 9 to 14) (size 15 to 20)
#    0.000    2.000    2.500    0.750    3.500    1.750 
#    0.000    0.000    0.000    1.875    0.000    0.000 
#    0.000    0.000    0.000    0.000    0.000    0.000 
#
# Total GULP energy -178662.917935 kJ/mol
# GULP energy per Si atom -5583.216185 kJ/mol
# Density = 2.257333 g / cm^3
# Si number density = 22.624827 Si / 1000 Ang^3
#
#
#
# Elastic Constant Matrix: (Units=GPa)
#
#
# Indices 1 2 3 4 5 6 
#
# 1 142.0836 -2.6721 48.1507 0.0000 -32.9529 0.0000
# 2 -2.6721 57.1083 -11.7995 0.0001 -6.2014 0.0000
# 3 48.1507 -11.7995 130.1472 0.0000 -31.6022 0.0000
# 4 0.0000 0.0001 0.0000 12.6658 0.0000 -2.8493
# 5 -32.9529 -6.2014 -31.6022 0.0000 31.0169 0.0000
# 6 0.0000 0.0000 0.0000 -2.8493 0.0000 9.0008
#
#
#
# Elastic Compliance Matrix: (Units=1/GPa)
#
#
# Indices 1 2 3 4 5 6 
#
# 1 0.009608 0.001201 -0.001208 0.000000 0.009217 0.000000
# 2 0.001201 0.019192 0.003371 0.000000 0.008548 0.000000
# 3 -0.001208 0.003371 0.011013 0.000000 0.010612 0.000000
# 4 0.000000 0.000000 0.000000 0.085007 0.000000 0.026910
# 5 0.009217 0.008548 0.010612 0.000000 0.054554 0.000000
# 6 0.000000 0.000000 0.000000 0.026910 0.000000 0.119620
#
#
# Mechanical properties :
#
#
# Convention : Reuss Voigt Hill
#
# Bulk Modulus (GPa) = 21.48649 44.07748 32.78198
# Shear Modulus (GPa) = 16.24552 30.24736 23.24644
#
# Velocity S-wave (km/s) = 2.68253 3.66034 3.20890
# Velocity P-wave (km/s) = 4.37174 6.11460 5.31510
#
# Compressibility (1/GPa) = 0.04654088
#
# Stress axis : x y z
#
# Youngs Moduli (GPa) = 104.08427 52.10637 90.80405
#
# Poissons Ratio (x) = -0.06257 0.10965
# Poissons Ratio (y) = -0.12499 -0.30612
# Poissons Ratio (z) = 0.12569 -0.17566
#
# Static dielectric constant tensor:
#      x y z
#    x 1.854190 0.000000 -0.010000 
#    y 0.000000 1.904900 0.000000 
#    z -0.010000 0.000000 1.809520 
# 
# From -- ./inp_files/353540.got.cif
#   From: 2010.05.17/outbox.cif.g08.bks.cpg/sg12_177_cif.got.tgz:353540.got - 2010.06.03 13:09:07.
