data_PCOD9200529
_publ_section_title
;
Structure prediction by ZEFSAII (Michael W. Deem and Ramdas Pophale) SiO2 
 PCOD9200529
Probable space group: C 2/M
;
_chemical_formula_sum "Si O2"
_cell_formula_units_Z 48
_cell_length_a 12.415893
_cell_length_b 14.288274
_cell_length_c 16.128927
_cell_angle_alpha 90.000000
_cell_angle_beta 52.339529
_cell_angle_gamma 90.000000
_cell_volume 2265.133559
_symmetry_space_group_name_H-M "C 2/M"
_symmetry_group_IT_number 12
_symmetry_cell_setting 'monoclinic'
loop_
_space_group_symop_operation_xyz
x,y,z
-x,y,-z
-x,-y,-z
x,-y,z
1/2+x,1/2+y,z
1/2-x,1/2+y,-z
1/2-x,1/2-y,-z
1/2+x,1/2-y,z
loop_
_atom_site_type_symbol
_atom_site_label
_atom_site_fract_x
_atom_site_fract_y
_atom_site_fract_z
Si Si1 0.544163 0.198629 0.063605
Si Si2 0.320527 0.744977 0.378508
Si Si3 0.557960 0.394793 0.237695
Si Si4 0.120120 0.103068 0.011613
Si Si5 0.558870 0.108593 0.229495
Si Si6 0.758912 0.741441 0.759206
O O1 0.645918 0.283403 0.992765
O O2 0.588748 0.134996 0.119017
O O3 0.402843 0.246300 0.158834
O O4 0.500000 0.146583 0.000000
O O5 0.250000 0.750000 0.500000
O O6 0.413036 0.652208 0.325104
O O7 0.427305 0.830689 0.317584
O O8 0.215469 0.745848 0.351261
O O9 0.568264 0.500000 0.265125
O O10 0.582301 0.398771 0.127338
O O11 0.667961 0.326604 0.227988
O O12 0.191464 0.000000 0.965295
O O13 0.000000 0.096652 0.000000
O O14 0.683168 0.147427 0.226459
O O15 0.533485 0.000000 0.252001
#
# Coordination Sequence:
#
# PCOD9200529 Si02
#       6
#     8   8   8   8   8   8
#     4  10  20  37  59  81 120 157 193 229 279 331
#     4  10  22  41  61  83 112 147 186 234 291 344
#     4  10  20  37  58  86 114 145 190 232 277 335
#     4   9  16  31  55  83 113 144 183 231 275 323
#     4  10  22  39  56  84 119 151 189 234 283 338
#     4  10  20  38  58  83 109 152 185 238 281 335
#
# _framework density 21.190804
#
# number of rings (size 3 to 8) (size 9 to 14) (size 15 to 20)
#    0.000    2.167    5.000    0.000    0.000    8.333 
#    0.000    1.667    0.000    0.000    0.000    0.000 
#    0.000    0.000    0.000    0.000    0.000    0.000 
#
# Total GULP energy -133812.093469 kJ/mol
# GULP energy per Si atom -5575.503895 kJ/mol
# Density = 2.114257 g / cm^3
# Si number density = 21.190804 Si / 1000 Ang^3
#
#
#
# Elastic Constant Matrix: (Units=GPa)
#
#
# Indices 1 2 3 4 5 6 
#
# 1 99.5397 42.7810 29.0852 0.0000 27.4429 0.0000
# 2 42.7810 154.9571 13.1745 0.0000 9.9969 0.0000
# 3 29.0852 13.1745 97.9845 0.0000 27.8576 0.0000
# 4 0.0000 0.0000 0.0000 18.7660 0.0000 -2.1188
# 5 27.4429 9.9969 27.8576 0.0000 33.1756 0.0000
# 6 0.0000 0.0000 0.0000 -2.1188 0.0000 16.5598
#
#
#
# Elastic Compliance Matrix: (Units=1/GPa)
#
#
# Indices 1 2 3 4 5 6 
#
# 1 0.014562 -0.003277 -0.000969 0.000000 -0.010244 0.000000
# 2 -0.003277 0.007332 -0.000204 0.000000 0.000673 0.000000
# 3 -0.000969 -0.000204 0.013498 0.000000 -0.010471 0.000000
# 4 0.000000 0.000000 0.000000 0.054069 0.000000 0.006918
# 5 -0.010244 0.000673 -0.010471 0.000000 0.047206 0.000000
# 6 0.000000 0.000000 0.000000 0.006918 0.000000 0.061272
#
#
# Mechanical properties :
#
#
# Convention : Reuss Voigt Hill
#
# Bulk Modulus (GPa) = 37.74956 58.06252 47.90604
# Shear Modulus (GPa) = 23.18338 31.52966 27.35652
#
# Velocity S-wave (km/s) = 3.31120 3.86151 3.59689
# Velocity P-wave (km/s) = 5.69838 6.88048 6.31714
#
# Compressibility (1/GPa) = 0.02649037
#
# Stress axis : x y z
#
# Youngs Moduli (GPa) = 68.67034 136.38649 74.08606
#
# Poissons Ratio (x) = 0.44695 0.07182
# Poissons Ratio (y) = 0.22504 0.01515
# Poissons Ratio (z) = 0.06657 0.02788
#
# Static dielectric constant tensor:
#      x y z
#    x 1.879380 0.000000 -0.048560 
#    y 0.000000 1.767360 0.000000 
#    z -0.048560 0.000000 1.846730 
# 
# From -- ./inp_files/204307.got.cif
#   From: 2010.05.17/outbox.cif.g08.bks.cpg/sg12_103_cif.got.tgz:204307.got - 2010.06.03 13:09:07.
