data_PCOD9200180
_publ_section_title
;
Structure prediction by ZEFSAII (Michael W. Deem and Ramdas Pophale) SiO2 
 PCOD9200180
Probable space group: C 2/M
;
_chemical_formula_sum "Si O2"
_cell_formula_units_Z 48
_cell_length_a 21.871718
_cell_length_b 18.428131
_cell_length_c 5.439234
_cell_angle_alpha 90.000000
_cell_angle_beta 72.216715
_cell_angle_gamma 90.000000
_cell_volume 2087.558052
_symmetry_space_group_name_H-M "C 2/M"
_symmetry_group_IT_number 12
_symmetry_cell_setting 'monoclinic'
loop_
_space_group_symop_operation_xyz
x,y,z
-x,y,-z
-x,-y,-z
x,-y,z
1/2+x,1/2+y,z
1/2-x,1/2+y,-z
1/2-x,1/2-y,-z
1/2+x,1/2-y,z
loop_
_atom_site_type_symbol
_atom_site_label
_atom_site_fract_x
_atom_site_fract_y
_atom_site_fract_z
Si Si1 0.231695 0.418717 0.991324
Si Si2 0.832090 0.918963 0.457059
Si Si3 0.727505 0.183393 0.365902
Si Si4 0.083079 0.582156 0.051924
Si Si5 0.924074 0.336558 0.428855
Si Si6 0.037451 0.171034 0.699059
O O1 0.227067 0.500000 0.125813
O O2 0.298010 0.423439 0.762532
O O3 0.232703 0.332740 0.070922
O O4 0.161606 0.419103 0.946031
O O5 0.773561 0.884407 0.376728
O O6 0.893472 0.867563 0.375009
O O7 0.849453 0.000000 0.354504
O O8 0.750000 0.250000 0.500000
O O9 0.652708 0.173017 0.499884
O O10 0.062318 0.500000 0.125715
O O11 0.065058 0.631840 0.310208
O O12 0.060110 0.610296 0.815457
O O13 0.952846 0.257323 0.345661
O O14 0.000000 0.145218 0.500000
O O15 0.000000 0.157504 0.000000
#
# Coordination Sequence:
#
# PCOD9200180 Si02
#       6
#     8   8   8   8   8   8
#     4   9  20  35  58  98 144 175 204 264 347 428
#     4  11  24  43  69 101 139 179 228 289 349 417
#     4  11  21  36  64 102 136 170 219 281 363 428
#     4  10  20  36  66 107 143 175 210 266 355 436
#     4  11  22  41  68  99 141 181 226 287 347 414
#     4  12  29  50  70  95 134 192 251 291 333 391
#
# _framework density 22.993372999999998
#
# number of rings (size 3 to 8) (size 9 to 14) (size 15 to 20)
#    0.000    1.333    3.333    2.000    2.333    4.000 
#    0.000    0.000    0.000   10.000    0.000    0.000 
#    0.000    0.000    0.000    0.000    0.000    0.000 
#
# Total GULP energy -133744.764780 kJ/mol
# GULP energy per Si atom -5572.698533 kJ/mol
# Density = 2.294104 g / cm^3
# Si number density = 22.993373 Si / 1000 Ang^3
#
#
#
# Elastic Constant Matrix: (Units=GPa)
#
#
# Indices 1 2 3 4 5 6 
#
# 1 96.0152 23.1026 33.3026 0.0000 -13.9900 0.0000
# 2 23.1026 107.7132 22.6410 0.0000 6.8685 0.0000
# 3 33.3026 22.6410 97.1993 0.0000 -9.5507 0.0000
# 4 0.0000 0.0000 0.0000 18.6289 0.0000 6.1604
# 5 -13.9900 6.8685 -9.5507 0.0000 40.3076 0.0000
# 6 0.0000 0.0000 0.0000 6.1604 0.0000 34.6672
#
#
#
# Elastic Compliance Matrix: (Units=1/GPa)
#
#
# Indices 1 2 3 4 5 6 
#
# 1 0.012735 -0.002262 -0.003445 0.000000 0.003989 0.000000
# 2 -0.002262 0.010368 -0.001936 0.000000 -0.003010 0.000000
# 3 -0.003445 -0.001936 0.012116 0.000000 0.002005 0.000000
# 4 0.000000 0.000000 0.000000 0.057031 0.000000 -0.010135
# 5 0.003989 -0.003010 0.002005 0.000000 0.027182 0.000000
# 6 0.000000 0.000000 0.000000 -0.010135 0.000000 0.030647
#
#
# Mechanical properties :
#
#
# Convention : Reuss Voigt Hill
#
# Bulk Modulus (GPa) = 50.16316 51.00222 50.58269
# Shear Modulus (GPa) = 29.06822 33.51283 31.29053
#
# Velocity S-wave (km/s) = 3.55942 3.82186 3.69297
# Velocity P-wave (km/s) = 6.22546 6.45794 6.34276
#
# Compressibility (1/GPa) = 0.01993495
#
# Stress axis : x y z
#
# Youngs Moduli (GPa) = 78.52213 96.45127 82.53363
#
# Poissons Ratio (x) = 0.21816 0.28429
# Poissons Ratio (y) = 0.17761 0.15978
# Poissons Ratio (z) = 0.27047 0.18672
#
# Static dielectric constant tensor:
#      x y z
#    x 1.935270 0.000000 0.142410 
#    y 0.000000 2.038080 0.000000 
#    z 0.142410 0.000000 2.324980 
# 
# From -- ./inp_files/24747.got.cif
#   From: 2010.05.17/outbox.cif.g08.bks.cpg/sg12_13_cif.got.tgz:24747.got - 2010.06.03 13:09:07.
