data_PCOD9200433
_publ_section_title
;
Structure prediction by ZEFSAII (Michael W. Deem and Ramdas Pophale) SiO2 
 PCOD9200433
Probable space group: C 2/M
;
_chemical_formula_sum "Si O2"
_cell_formula_units_Z 40
_cell_length_a 17.273571
_cell_length_b 15.719763
_cell_length_c 13.589788
_cell_angle_alpha 90.000000
_cell_angle_beta 34.061559
_cell_angle_gamma 90.000000
_cell_volume 2066.776107
_symmetry_space_group_name_H-M "C 2/M"
_symmetry_group_IT_number 12
_symmetry_cell_setting 'monoclinic'
loop_
_space_group_symop_operation_xyz
x,y,z
-x,y,-z
-x,-y,-z
x,-y,z
1/2+x,1/2+y,z
1/2-x,1/2+y,-z
1/2-x,1/2-y,-z
1/2+x,1/2-y,z
loop_
_atom_site_type_symbol
_atom_site_label
_atom_site_fract_x
_atom_site_fract_y
_atom_site_fract_z
Si Si1 0.234868 0.695025 0.112206
Si Si2 0.452727 0.901578 0.389276
Si Si3 0.469886 0.633685 0.137670
Si Si4 0.227572 0.748184 0.332199
Si Si5 0.774868 0.093691 0.525108
O O1 0.213678 0.755462 0.229950
O O2 0.109500 0.629388 0.230249
O O3 0.250000 0.750000 0.000000
O O4 0.380036 0.649463 0.977150
O O5 0.367287 0.833451 0.542797
O O6 0.378373 0.895067 0.360749
O O7 0.437630 0.000000 0.436812
O O8 0.381671 0.717858 0.200416
O O9 0.375278 0.595158 0.323628
O O10 0.500000 0.591038 0.000000
O O11 0.191720 0.829492 0.436266
O O12 0.783959 0.000000 0.561421
#
# Coordination Sequence:
#
# PCOD9200433 Si02
#       5
#     8   8   8   8   8
#     4  11  21  34  55  81 113 147 182 231 285 329
#     4  10  21  37  60  87 111 141 185 236 285 330
#     4   9  19  34  55  81 110 145 184 231 283 330
#     4  10  20  37  58  80 112 151 191 229 274 338
#     4  10  20  37  60  83 112 151 192 229 271 337
#
# _framework density 19.353814
#
# number of rings (size 3 to 8) (size 9 to 14) (size 15 to 20)
#    0.000    2.000    0.000    5.400    0.000    2.800 
#    0.000    5.000    0.000   13.800    0.000    0.000 
#    0.000    0.000    0.000    0.000    0.000    0.000 
#
# Total GULP energy -111476.118254 kJ/mol
# GULP energy per Si atom -5573.805913 kJ/mol
# Density = 1.930976 g / cm^3
# Si number density = 19.353814 Si / 1000 Ang^3
#
#
#
# Elastic Constant Matrix: (Units=GPa)
#
#
# Indices 1 2 3 4 5 6 
#
# 1 117.7256 78.2208 57.6777 0.0000 -1.8574 0.0000
# 2 78.2208 132.0845 64.7716 0.0000 18.8035 0.0000
# 3 57.6777 64.7716 97.0279 0.0000 -19.6812 0.0000
# 4 0.0000 0.0000 0.0000 2.8301 0.0000 -12.1962
# 5 -1.8574 18.8035 -19.6812 0.0000 45.2264 0.0000
# 6 0.0000 0.0000 0.0000 -12.1962 0.0000 1.1126
#
#
#
# Elastic Compliance Matrix: (Units=1/GPa)
#
#
# Indices 1 2 3 4 5 6 
#
# 1 0.015379 -0.007700 -0.003537 0.000000 0.002294 0.000000
# 2 -0.007700 0.019455 -0.011094 0.000000 -0.013233 0.000000
# 3 -0.003537 -0.011094 0.022727 0.000000 0.014358 0.000000
# 4 0.000000 0.000000 0.000000 -0.007641 0.000000 -0.083766
# 5 0.002294 -0.013233 0.014358 0.000000 0.033955 0.000000
# 6 0.000000 0.000000 0.000000 -0.083766 0.000000 -0.019437
#
#
# Mechanical properties :
#
#
# Convention : Reuss Voigt Hill
#
# Bulk Modulus (GPa) = 77.52233 83.13091 80.32662
# Shear Modulus (GPa) = 44.09170 19.57834 31.83502
#
# Velocity S-wave (km/s) = 4.77822 3.18402 4.06013
# Velocity P-wave (km/s) = 8.40144 7.52089 7.97333
#
# Compressibility (1/GPa) = 0.01289951
#
# Stress axis : x y z
#
# Youngs Moduli (GPa) = 65.02214 51.40034 44.00013
#
# Poissons Ratio (x) = 0.39578 0.15562
# Poissons Ratio (y) = 0.50066 0.48816
# Poissons Ratio (z) = 0.22997 0.57026
#
# Static dielectric constant tensor:
#      x y z
#    x 1.669620 0.000000 -0.001910 
#    y 0.000000 1.747190 0.000000 
#    z -0.001910 0.000000 1.707400 
# 
# From -- ./inp_files/225554.got.cif
#   From: 2010.05.17/outbox.cif.g08.bks.cpg/sg12_113_cif.got.tgz:225554.got - 2010.06.03 13:09:07.
