data_PCOD9200952
_publ_section_title
;
Structure prediction by ZEFSAII (Michael W. Deem and Ramdas Pophale) SiO2 
 PCOD9200952
Probable space group: C 2/M
;
_chemical_formula_sum "Si O2"
_cell_formula_units_Z 48
_cell_length_a 17.397454
_cell_length_b 17.213655
_cell_length_c 19.838531
_cell_angle_alpha 90.000000
_cell_angle_beta 157.126663
_cell_angle_gamma 90.000000
_cell_volume 2309.284872
_symmetry_space_group_name_H-M "C 2/M"
_symmetry_group_IT_number 12
_symmetry_cell_setting 'monoclinic'
loop_
_space_group_symop_operation_xyz
x,y,z
-x,y,-z
-x,-y,-z
x,-y,z
1/2+x,1/2+y,z
1/2-x,1/2+y,-z
1/2-x,1/2-y,-z
1/2+x,1/2-y,z
loop_
_atom_site_type_symbol
_atom_site_label
_atom_site_fract_x
_atom_site_fract_y
_atom_site_fract_z
Si Si1 0.788963 0.587355 0.369473
Si Si2 0.085386 0.594264 0.261353
Si Si3 0.150637 0.411543 0.058821
Si Si4 0.702257 0.703079 0.191681
Si Si5 0.994114 0.844847 0.421725
Si Si6 0.941718 0.409442 0.294216
O O1 0.703284 0.500000 0.295906
O O2 0.855100 0.604706 0.499232
O O3 0.000000 0.585328 0.500000
O O4 0.672183 0.654055 0.235922
O O5 0.131404 0.500000 0.291644
O O6 0.282453 0.646237 0.421629
O O7 0.972984 0.603619 0.240913
O O8 0.956829 0.621991 0.093565
O O9 0.190518 0.500000 0.071799
O O10 0.354238 0.378969 0.251122
O O11 0.000000 0.411050 0.000000
O O12 0.879489 0.764186 0.343439
O O13 0.776540 0.642979 0.195049
O O14 0.500000 0.739179 0.000000
O O15 0.000000 0.886529 0.500000
O O16 0.894133 0.500000 0.267161
#
# Coordination Sequence:
#
# PCOD9200952 Si02
#       6
#     8   8   8   8   8   8
#     4   8  15  33  60  84 109 149 197 239 285 346
#     4  10  22  40  64  90 120 156 196 248 302 351
#     4  10  20  37  60  87 116 151 205 254 290 348
#     4  11  23  37  58  89 122 158 202 244 291 355
#     4  12  23  37  61  87 121 160 202 241 298 351
#     4   9  19  40  63  88 119 153 197 246 298 355
#
# _framework density 20.785655999999999
#
# number of rings (size 3 to 8) (size 9 to 14) (size 15 to 20)
#    0.000    2.000    1.667    4.000    0.000    2.667 
#    3.000    0.833    0.000    0.000    0.000    0.000 
#    0.000    0.000    0.000    0.000    0.000    0.000 
#
# Total GULP energy -133838.078029 kJ/mol
# GULP energy per Si atom -5576.586585 kJ/mol
# Density = 2.073835 g / cm^3
# Si number density = 20.785656 Si / 1000 Ang^3
#
#
#
# Elastic Constant Matrix: (Units=GPa)
#
#
# Indices 1 2 3 4 5 6 
#
# 1 85.7083 7.7032 40.8976 -0.0041 -29.2130 -0.0003
# 2 7.7032 51.2922 44.7725 0.0005 -10.9882 -0.0107
# 3 40.8976 44.7725 137.1309 0.1220 -35.1958 -0.0183
# 4 -0.0041 0.0005 0.1220 131.9492 0.0520 -18.5986
# 5 -29.2130 -10.9882 -35.1958 0.0520 28.9476 -0.0030
# 6 -0.0003 -0.0107 -0.0183 -18.5986 -0.0030 10.0238
#
#
#
# Elastic Compliance Matrix: (Units=1/GPa)
#
#
# Indices 1 2 3 4 5 6 
#
# 1 0.018119 0.002559 -0.001885 -0.000005 0.016965 -0.000004
# 2 0.002559 0.027638 -0.009349 0.000013 0.001706 0.000037
# 3 -0.001885 -0.009349 0.013821 -0.000020 0.011353 -0.000018
# 4 -0.000005 0.000013 -0.000020 0.010263 -0.000041 0.019042
# 5 0.016965 0.001706 0.011353 -0.000041 0.066116 -0.000033
# 6 -0.000004 0.000037 -0.000018 0.019042 -0.000033 0.135093
#
#
# Mechanical properties :
#
#
# Convention : Reuss Voigt Hill
#
# Bulk Modulus (GPa) = 23.68134 51.20865 37.44500
# Shear Modulus (GPa) = 16.53022 46.23466 31.38244
#
# Velocity S-wave (km/s) = 2.82311 4.72142 3.88985
# Velocity P-wave (km/s) = 4.69515 7.37648 6.18292
#
# Compressibility (1/GPa) = 0.04222734
#
# Stress axis : x y z
#
# Youngs Moduli (GPa) = 55.18976 36.18219 72.35576
#
# Poissons Ratio (x) = -0.09257 0.13640
# Poissons Ratio (y) = -0.14121 0.67643
# Poissons Ratio (z) = 0.10404 0.33826
#
# Static dielectric constant tensor:
#      x y z
#    x 1.742370 0.000000 -0.027240 
#    y 0.000000 1.810900 -0.000020 
#    z -0.027240 -0.000020 1.801330 
# 
# From -- ./inp_files/317541.got.cif
#   From: 2010.05.17/outbox.cif.g08.bks.cpg/sg12_159_cif.got.tgz:317541.got - 2010.06.03 13:09:07.
