data_PCOD9200446
_publ_section_title
;
Structure prediction by ZEFSAII (Michael W. Deem and Ramdas Pophale) SiO2 
 PCOD9200446
Probable space group: C 2/M
;
_chemical_formula_sum "Si O2"
_cell_formula_units_Z 48
_cell_length_a 28.223571
_cell_length_b 7.477295
_cell_length_c 10.076433
_cell_angle_alpha 90.000000
_cell_angle_beta 88.599081
_cell_angle_gamma 90.000000
_cell_volume 2125.854163
_symmetry_space_group_name_H-M "C 2/M"
_symmetry_group_IT_number 12
_symmetry_cell_setting 'monoclinic'
loop_
_space_group_symop_operation_xyz
x,y,z
-x,y,-z
-x,-y,-z
x,-y,z
1/2+x,1/2+y,z
1/2-x,1/2+y,-z
1/2-x,1/2-y,-z
1/2+x,1/2-y,z
loop_
_atom_site_type_symbol
_atom_site_label
_atom_site_fract_x
_atom_site_fract_y
_atom_site_fract_z
Si Si1 0.148798 0.781925 0.433629
Si Si2 0.041651 0.788746 0.404836
Si Si3 0.858781 0.715717 0.022256
Si Si4 0.540615 0.215975 0.097857
Si Si5 0.687797 0.288523 0.711446
Si Si6 0.714787 0.207649 0.180836
O O1 0.094507 0.718799 0.428819
O O2 0.173020 0.719834 0.568579
O O3 0.178226 0.717621 0.305341
O O4 0.149207 0.000000 0.430139
O O5 0.031136 0.766790 0.250076
O O6 0.000000 0.713516 0.500000
O O7 0.044414 0.000000 0.433657
O O8 0.858693 0.500000 0.012095
O O9 0.852766 0.763750 0.176034
O O10 0.907582 0.779443 0.953254
O O11 0.813269 0.785056 0.943056
O O12 0.541316 0.000000 0.092643
O O13 0.500000 0.278388 0.000000
O O14 0.695804 0.500000 0.692209
O O15 0.735990 0.211114 0.771367
O O16 0.724283 0.000000 0.148125
#
# Coordination Sequence:
#
# PCOD9200446 Si02
#       6
#     8   8   8   8   8   8
#     4  10  21  37  56  82 114 146 184 229 275 327
#     4  10  22  39  59  84 113 145 183 228 276 329
#     4  10  21  37  56  81 113 146 184 228 274 328
#     4  10  22  40  60  84 113 144 183 230 276 327
#     4  10  22  36  55  84 114 146 186 229 273 327
#     4  10  20  37  58  81 111 147 187 230 276 326
#
# _framework density 22.579160000000002
#
# number of rings (size 3 to 8) (size 9 to 14) (size 15 to 20)
#    0.000    2.000    1.667    1.000    2.333    3.333 
#    0.000    0.000    0.000    0.000    0.000    0.000 
#    0.000    0.000    0.000    0.000    0.000    0.000 
#
# Total GULP energy -134176.997252 kJ/mol
# GULP energy per Si atom -5590.708219 kJ/mol
# Density = 2.252777 g / cm^3
# Si number density = 22.579160 Si / 1000 Ang^3
#
#
#
# Elastic Constant Matrix: (Units=GPa)
#
#
# Indices 1 2 3 4 5 6 
#
# 1 100.6763 -0.4820 16.5317 0.0000 -1.0069 0.0000
# 2 -0.4820 65.6538 -17.3246 0.0000 5.6319 0.0000
# 3 16.5317 -17.3246 74.4972 0.0000 6.1547 0.0000
# 4 0.0000 0.0000 0.0000 -2.3755 0.0000 -31.5696
# 5 -1.0069 5.6319 6.1547 0.0000 40.2215 0.0000
# 6 0.0000 0.0000 0.0000 -31.5696 0.0000 -13.3268
#
#
#
# Elastic Compliance Matrix: (Units=1/GPa)
#
#
# Indices 1 2 3 4 5 6 
#
# 1 0.010349 -0.000649 -0.002508 0.000000 0.000734 0.000000
# 2 -0.000649 0.016606 0.004253 0.000000 -0.002992 0.000000
# 3 -0.002508 0.004253 0.015216 0.000000 -0.002987 0.000000
# 4 0.000000 0.000000 0.000000 0.013810 0.000000 -0.032715
# 5 0.000734 -0.002992 -0.002987 0.000000 0.025757 0.000000
# 6 0.000000 0.000000 0.000000 -0.032715 0.000000 0.002462
#
#
# Mechanical properties :
#
#
# Convention : Reuss Voigt Hill
#
# Bulk Modulus (GPa) = 22.54172 26.47529 24.50850
# Shear Modulus (GPa) = 51.65600 21.04397 36.34999
#
# Velocity S-wave (km/s) = 4.78826 3.05619 4.01670
# Velocity P-wave (km/s) = 6.36985 4.91983 5.69121
#
# Compressibility (1/GPa) = 0.04436219
#
# Stress axis : x y z
#
# Youngs Moduli (GPa) = 96.62869 60.22084 65.72189
#
# Poissons Ratio (x) = 0.03907 0.16483
# Poissons Ratio (y) = 0.06269 -0.27951
# Poissons Ratio (z) = 0.24235 -0.25611
#
# Static dielectric constant tensor:
#      x y z
#    x 1.835670 0.000000 0.015500 
#    y 0.000000 1.823330 0.000000 
#    z 0.015500 0.000000 1.772840 
# 
# From -- ./inp_files/94414.got.cif
#   From: 2010.05.17/outbox.cif.g08.bks.cpg/sg12_48_cif.got.tgz:94414.got - 2010.06.03 13:09:07.
