data_PCOD9200312
_publ_section_title
;
Structure prediction by ZEFSAII (Michael W. Deem and Ramdas Pophale) SiO2 
 PCOD9200312
Probable space group: C 2/M
;
_chemical_formula_sum "Si O2"
_cell_formula_units_Z 56
_cell_length_a 9.172631
_cell_length_b 21.497981
_cell_length_c 32.355553
_cell_angle_alpha 90.000000
_cell_angle_beta 152.386295
_cell_angle_gamma 90.000000
_cell_volume 2957.315492
_symmetry_space_group_name_H-M "C 2/M"
_symmetry_group_IT_number 12
_symmetry_cell_setting 'monoclinic'
loop_
_space_group_symop_operation_xyz
x,y,z
-x,y,-z
-x,-y,-z
x,-y,z
1/2+x,1/2+y,z
1/2-x,1/2+y,-z
1/2-x,1/2-y,-z
1/2+x,1/2-y,z
loop_
_atom_site_type_symbol
_atom_site_label
_atom_site_fract_x
_atom_site_fract_y
_atom_site_fract_z
Si Si1 0.743617 0.319527 0.597868
Si Si2 0.350655 0.158765 0.155955
Si Si3 0.805801 0.855670 0.201115
Si Si4 0.776400 0.428628 0.268429
Si Si5 0.874026 0.071110 0.082895
Si Si6 0.261815 0.237395 0.684639
Si Si7 0.554887 0.783962 0.060317
O O1 0.500000 0.329903 0.500000
O O2 0.603984 0.290033 0.604191
O O3 0.932505 0.381732 0.656991
O O4 0.004585 0.269898 0.648531
O O5 0.560032 0.124037 0.174334
O O6 0.549796 0.181706 0.245537
O O7 0.291413 0.225621 0.118897
O O8 0.042228 0.120587 0.093757
O O9 0.651950 0.833646 0.118961
O O10 0.051885 0.908210 0.249873
O O11 0.992574 0.793601 0.262672
O O12 0.872160 0.500000 0.295526
O O13 0.572728 0.421246 0.175235
O O14 0.925935 0.000000 0.080635
O O15 0.500000 0.073734 0.000000
O O16 0.500000 0.805165 0.000000
O O17 0.250000 0.750000 0.000000
#
# Coordination Sequence:
#
# PCOD9200312 Si02
#       7
#     8   8   8   8   8   8   8
#     4  11  21  37  65  92 122 158 192 243 303 363
#     4  11  21  36  59  81 117 158 196 244 302 357
#     4  10  22  36  58  83 117 161 194 240 304 358
#     4  10  23  41  60  84 120 160 202 251 295 349
#     4  10  23  40  60  83 111 158 212 257 297 343
#     4  10  20  37  56  90 126 150 189 241 295 365
#     4  11  23  33  50  84 118 149 191 245 298 348
#
# _framework density 18.936093
#
# number of rings (size 3 to 8) (size 9 to 14) (size 15 to 20)
#    0.000    1.571    4.286    0.429    4.000    0.857 
#    0.000    0.000    0.000    3.000    0.000    1.000 
#    0.000    0.000    0.000    0.000    0.000    0.000 
#
# Total GULP energy -156175.005549 kJ/mol
# GULP energy per Si atom -5577.678770 kJ/mol
# Density = 1.889299 g / cm^3
# Si number density = 18.936093 Si / 1000 Ang^3
#
#
#
# Elastic Constant Matrix: (Units=GPa)
#
#
# Indices 1 2 3 4 5 6 
#
# 1 73.5786 38.3568 1.0630 0.0233 -4.1804 -0.0065
# 2 38.3568 98.3531 29.9103 0.0408 -10.3220 0.0131
# 3 1.0630 29.9103 83.1019 0.0810 -19.1201 0.0242
# 4 0.0233 0.0408 0.0810 14.9952 0.0313 -2.3056
# 5 -4.1804 -10.3220 -19.1201 0.0313 29.6562 0.0041
# 6 -0.0065 0.0131 0.0242 -2.3056 0.0041 11.3008
#
#
#
# Elastic Compliance Matrix: (Units=1/GPa)
#
#
# Indices 1 2 3 4 5 6 
#
# 1 0.017586 -0.007557 0.002889 -0.000025 0.001711 0.000007
# 2 -0.007557 0.014726 -0.005013 -0.000005 0.000828 -0.000012
# 3 0.002889 -0.005013 0.015843 -0.000103 0.008877 -0.000051
# 4 -0.000025 -0.000005 -0.000103 0.068849 -0.000146 0.014047
# 5 0.001711 0.000828 0.008877 -0.000146 0.039973 -0.000063
# 6 0.000007 -0.000012 -0.000051 0.014047 -0.000063 0.091355
#
#
# Mechanical properties :
#
#
# Convention : Reuss Voigt Hill
#
# Bulk Modulus (GPa) = 34.73132 43.74377 39.23754
# Shear Modulus (GPa) = 18.03148 23.57067 20.80108
#
# Velocity S-wave (km/s) = 3.08917 3.53193 3.31794
# Velocity P-wave (km/s) = 5.57719 6.30742 5.95351
#
# Compressibility (1/GPa) = 0.02879245
#
# Stress axis : x y z
#
# Youngs Moduli (GPa) = 56.86318 67.90620 63.11782
#
# Poissons Ratio (x) = 0.51319 -0.18234
# Poissons Ratio (y) = 0.42973 0.31642
# Poissons Ratio (z) = -0.16427 0.34042
#
# Static dielectric constant tensor:
#      x y z
#    x 1.669890 0.000000 0.008350 
#    y 0.000000 1.704910 0.000000 
#    z 0.008350 0.000000 1.691400 
# 
# From -- ./inp_files/197516.got.cif
#   From: 2010.05.17/outbox.cif.g08.bks.cpg/sg12_99_cif.got.tgz:197516.got - 2010.06.03 13:09:07.
