data_PCOD9200257
_publ_section_title
;
Structure prediction by ZEFSAII (Michael W. Deem and Ramdas Pophale) SiO2 
 PCOD9200257
Probable space group: C 2/M
;
_chemical_formula_sum "Si O2"
_cell_formula_units_Z 56
_cell_length_a 31.837533
_cell_length_b 8.729386
_cell_length_c 12.242473
_cell_angle_alpha 90.000000
_cell_angle_beta 63.387057
_cell_angle_gamma 90.000000
_cell_volume 3041.974420
_symmetry_space_group_name_H-M "C 2/M"
_symmetry_group_IT_number 12
_symmetry_cell_setting 'monoclinic'
loop_
_space_group_symop_operation_xyz
x,y,z
-x,y,-z
-x,-y,-z
x,-y,z
1/2+x,1/2+y,z
1/2-x,1/2+y,-z
1/2-x,1/2-y,-z
1/2+x,1/2-y,z
loop_
_atom_site_type_symbol
_atom_site_label
_atom_site_fract_x
_atom_site_fract_y
_atom_site_fract_z
Si Si1 0.960047 0.315485 0.698479
Si Si2 0.618557 0.683701 0.068584
Si Si3 0.065569 0.315502 0.515766
Si Si4 0.837981 0.186363 0.209111
Si Si5 0.296620 0.816142 0.888973
Si Si6 0.728946 0.815706 0.326815
Si Si7 0.149151 0.816838 0.562264
O O1 0.957055 0.500000 0.708968
O O2 0.931254 0.241579 0.829761
O O3 0.936941 0.269936 0.608856
O O4 0.014975 0.274467 0.626492
O O5 0.620091 0.500000 0.069314
O O6 0.658245 0.748188 0.103759
O O7 0.632394 0.736571 0.930456
O O8 0.069575 0.500000 0.513018
O O9 0.108217 0.245511 0.532538
O O10 0.783390 0.232399 0.261285
O O11 0.856325 0.236144 0.306001
O O12 0.838294 0.000000 0.207477
O O13 0.294062 0.777962 0.763567
O O14 0.296765 0.000000 0.898357
O O15 0.250000 0.750000 0.000000
O O16 0.698722 0.740058 0.456974
O O17 0.727542 0.000000 0.341189
O O18 0.148463 0.000000 0.561659
#
# Coordination Sequence:
#
# PCOD9200257 Si02
#       7
#     8   8   8   8   8   8   8
#     4   9  19  37  60  84 107 139 177 217 269 330
#     4  11  21  36  56  80 112 147 179 219 272 321
#     4   9  19  38  60  80 109 141 173 217 275 329
#     4   9  20  38  53  72 109 151 183 217 265 321
#     4  11  21  34  54  79 109 143 178 220 266 317
#     4  10  20  37  56  74 106 148 182 218 271 321
#     4  11  22  35  55  81 107 138 185 231 264 313
#
# _framework density 18.409096000000002
#
# number of rings (size 3 to 8) (size 9 to 14) (size 15 to 20)
#    0.000    2.000    1.429    3.429    0.000    5.714 
#    0.000    5.714    0.000    4.286    0.000    0.000 
#    0.000    0.000    0.000    0.000    0.000    0.000 
#
# Total GULP energy -156372.145214 kJ/mol
# GULP energy per Si atom -5584.719472 kJ/mol
# Density = 1.836720 g / cm^3
# Si number density = 18.409096 Si / 1000 Ang^3
#
#
#
# Elastic Constant Matrix: (Units=GPa)
#
#
# Indices 1 2 3 4 5 6 
#
# 1 53.1405 14.3104 52.8527 0.0000 -1.1166 0.0000
# 2 14.3104 22.4008 30.8400 0.0000 -0.9828 0.0000
# 3 52.8527 30.8400 144.8987 0.0000 -9.5264 0.0000
# 4 0.0000 0.0000 0.0000 30.5605 0.0000 -6.3059
# 5 -1.1166 -0.9828 -9.5264 0.0000 23.0351 0.0000
# 6 0.0000 0.0000 0.0000 -6.3059 0.0000 23.9941
#
#
#
# Elastic Compliance Matrix: (Units=1/GPa)
#
#
# Indices 1 2 3 4 5 6 
#
# 1 0.030246 -0.005654 -0.010021 0.000000 -0.002919 0.000000
# 2 -0.005654 0.064395 -0.011802 0.000000 -0.002407 0.000000
# 3 -0.010021 -0.011802 0.013367 0.000000 0.004539 0.000000
# 4 0.000000 0.000000 0.000000 0.034598 0.000000 0.009093
# 5 -0.002919 -0.002407 0.004539 0.000000 0.045045 0.000000
# 6 0.000000 0.000000 0.000000 0.009093 0.000000 0.044067
#
#
# Mechanical properties :
#
#
# Convention : Reuss Voigt Hill
#
# Bulk Modulus (GPa) = 18.84844 46.27180 32.56012
# Shear Modulus (GPa) = 16.42813 23.68041 20.05427
#
# Velocity S-wave (km/s) = 2.99053 3.59045 3.30414
# Velocity P-wave (km/s) = 4.71012 6.50986 5.68171
#
# Compressibility (1/GPa) = 0.05305479
#
# Stress axis : x y z
#
# Youngs Moduli (GPa) = 33.06229 15.52905 74.81210
#
# Poissons Ratio (x) = 0.08780 0.74969
# Poissons Ratio (y) = 0.18694 0.88291
# Poissons Ratio (z) = 0.33131 0.18327
#
# Static dielectric constant tensor:
#      x y z
#    x 1.615660 0.000000 0.003950 
#    y 0.000000 1.622500 0.000000 
#    z 0.003950 0.000000 1.638650 
# 
# From -- ./inp_files/186811.got.cif
#   From: 2010.05.17/outbox.cif.g08.bks.cpg/sg12_94_cif.got.tgz:186811.got - 2010.06.03 13:09:07.
