data_PCOD9200743
_publ_section_title
;
Structure prediction by ZEFSAII (Michael W. Deem and Ramdas Pophale) SiO2 
 PCOD9200743
Probable space group: C 2/M
;
_chemical_formula_sum "Si O2"
_cell_formula_units_Z 50
_cell_length_a 25.747965
_cell_length_b 7.716732
_cell_length_c 15.611481
_cell_angle_alpha 90.000000
_cell_angle_beta 129.551332
_cell_angle_gamma 90.000000
_cell_volume 2391.693120
_symmetry_space_group_name_H-M "C 2/M"
_symmetry_group_IT_number 12
_symmetry_cell_setting 'monoclinic'
loop_
_space_group_symop_operation_xyz
x,y,z
-x,y,-z
-x,-y,-z
x,-y,z
1/2+x,1/2+y,z
1/2-x,1/2+y,-z
1/2-x,1/2-y,-z
1/2+x,1/2-y,z
loop_
_atom_site_type_symbol
_atom_site_label
_atom_site_fract_x
_atom_site_fract_y
_atom_site_fract_z
Si Si1 0.603241 0.791754 0.348696
Si Si2 0.000000 0.500000 0.000000
Si Si3 0.438854 0.308309 0.031549
Si Si4 0.658008 0.787106 0.222415
Si Si5 0.427507 0.293323 0.393050
Si Si6 0.687630 0.293031 0.602265
Si Si7 0.451185 0.207431 0.226438
O O1 0.625394 0.731092 0.278068
O O2 0.657868 0.742256 0.477300
O O3 0.529219 0.730809 0.300235
O O4 0.601268 0.000000 0.343671
O O5 0.989392 0.652916 0.061343
O O6 0.468430 0.500000 0.056162
O O7 0.380320 0.285558 0.900098
O O8 0.415387 0.278922 0.104092
O O9 0.735911 0.734055 0.305659
O O10 0.650136 0.000000 0.207871
O O11 0.500000 0.222412 0.500000
O O12 0.429032 0.500000 0.409634
O O13 0.366125 0.222915 0.385332
O O14 0.421450 0.263214 0.285807
O O15 0.691300 0.500000 0.616692
O O16 0.450515 0.000000 0.223092
#
# Coordination Sequence:
#
# PCOD9200743 Si02
#       7
#     8   2   8   8   8   8   8
#     4  10  21  34  57  87 123 162 203 259 317 384
#     4  12  22  44  64  94 138 164 212 268 304 374
#     4  12  25  41  66  95 128 175 215 260 321 379
#     4  10  21  40  61  85 129 172 210 260 319 386
#     4  10  20  37  59  88 124 159 214 274 317 379
#     4  10  21  37  60  88 122 169 211 262 324 378
#     4  11  22  38  62  90 127 164 210 267 326 382
#
# _framework density 20.905692999999999
#
# number of rings (size 3 to 8) (size 9 to 14) (size 15 to 20)
#    0.000    1.440    3.200    2.160    2.240    2.880 
#    0.000    0.800    0.000    0.000    0.000    0.000 
#    0.000    0.000    0.000    0.000    0.000    0.000 
#
# Total GULP energy -139535.523673 kJ/mol
# GULP energy per Si atom -5581.420947 kJ/mol
# Density = 2.085811 g / cm^3
# Si number density = 20.905693 Si / 1000 Ang^3
#
#
#
# Elastic Constant Matrix: (Units=GPa)
#
#
# Indices 1 2 3 4 5 6 
#
# 1 108.4163 12.5743 69.2064 0.0000 -9.7589 0.0000
# 2 12.5743 76.7755 0.6604 0.0000 8.4284 0.0000
# 3 69.2064 0.6604 138.3272 0.0000 -13.8399 0.0000
# 4 0.0000 0.0000 0.0000 25.1692 0.0000 -7.5001
# 5 -9.7589 8.4284 -13.8399 0.0000 35.4354 0.0000
# 6 0.0000 0.0000 0.0000 -7.5001 0.0000 16.3802
#
#
#
# Elastic Compliance Matrix: (Units=1/GPa)
#
#
# Indices 1 2 3 4 5 6 
#
# 1 0.014023 -0.002433 -0.006827 0.000000 0.001774 0.000000
# 2 -0.002433 0.013817 0.000786 0.000000 -0.003649 0.000000
# 3 -0.006827 0.000786 0.010859 0.000000 0.002174 0.000000
# 4 0.000000 0.000000 0.000000 0.046008 0.000000 0.021066
# 5 0.001774 -0.003649 0.002174 0.000000 0.030426 0.000000
# 6 0.000000 0.000000 0.000000 0.021066 0.000000 0.070695
#
#
# Mechanical properties :
#
#
# Convention : Reuss Voigt Hill
#
# Bulk Modulus (GPa) = 45.97286 54.26678 50.11982
# Shear Modulus (GPa) = 23.80647 31.46884 27.63766
#
# Velocity S-wave (km/s) = 3.37821 3.88400 3.63990
# Velocity P-wave (km/s) = 6.10366 6.79177 6.45689
#
# Compressibility (1/GPa) = 0.02175197
#
# Stress axis : x y z
#
# Youngs Moduli (GPa) = 71.30896 72.37295 92.09323
#
# Poissons Ratio (x) = 0.17607 0.62871
# Poissons Ratio (y) = 0.17348 -0.07239
# Poissons Ratio (z) = 0.48682 -0.05689
#
# Static dielectric constant tensor:
#      x y z
#    x 1.778580 0.000000 0.024070 
#    y 0.000000 1.770860 0.000000 
#    z 0.024070 0.000000 1.767170 
# 
# From -- ./inp_files/237252.got.cif
#   From: 2010.05.17/outbox.cif.g08.bks.cpg/sg12_119_cif.got.tgz:237252.got - 2010.06.03 13:09:07.
