data_PCOD9200406
_publ_section_title
;
Structure prediction by ZEFSAII (Michael W. Deem and Ramdas Pophale) SiO2 
 PCOD9200406
Probable space group: C 2/M
;
_chemical_formula_sum "Si O2"
_cell_formula_units_Z 56
_cell_length_a 20.950851
_cell_length_b 8.572021
_cell_length_c 20.322808
_cell_angle_alpha 90.000000
_cell_angle_beta 59.117764
_cell_angle_gamma 90.000000
_cell_volume 3132.342954
_symmetry_space_group_name_H-M "C 2/M"
_symmetry_group_IT_number 12
_symmetry_cell_setting 'monoclinic'
loop_
_space_group_symop_operation_xyz
x,y,z
-x,y,-z
-x,-y,-z
x,-y,z
1/2+x,1/2+y,z
1/2-x,1/2+y,-z
1/2-x,1/2-y,-z
1/2+x,1/2-y,z
loop_
_atom_site_type_symbol
_atom_site_label
_atom_site_fract_x
_atom_site_fract_y
_atom_site_fract_z
Si Si1 0.907233 0.189537 0.835104
Si Si2 0.257347 0.311960 0.836331
Si Si3 0.211512 0.186769 0.586370
Si Si4 0.291495 0.686429 0.673208
Si Si5 0.040394 0.189077 0.674581
Si Si6 0.957661 0.685969 0.590411
Si Si7 0.821106 0.812989 0.002742
O O1 0.836733 0.238331 0.826821
O O2 0.889730 0.235922 0.919642
O O3 0.984371 0.241443 0.762201
O O4 0.907093 0.000000 0.833945
O O5 0.256893 0.500000 0.838765
O O6 0.254905 0.261995 0.761835
O O7 0.191365 0.250871 0.917641
O O8 0.250000 0.250000 0.500000
O O9 0.254923 0.240234 0.628277
O O10 0.125600 0.239882 0.636301
O O11 0.212313 0.000000 0.582711
O O12 0.285496 0.500000 0.672090
O O13 0.377693 0.733102 0.631909
O O14 0.005848 0.251101 0.625322
O O15 0.039347 0.000000 0.673691
O O16 0.947826 0.500000 0.601719
O O17 0.000000 0.718332 0.500000
O O18 0.818804 0.000000 0.005867
O O19 0.750000 0.750000 0.000000
#
# Coordination Sequence:
#
# PCOD9200406 Si02
#       7
#     8   8   8   8   8   8   8
#     4   8  14  29  50  75 105 136 175 217 260 314
#     4   9  17  31  51  76 106 140 177 220 266 319
#     4  11  24  40  59  81 108 144 187 230 274 332
#     4  11  22  38  59  79 108 147 185 227 274 327
#     4  10  20  37  58  78 105 144 184 221 271 331
#     4  11  23  36  53  81 112 137 173 229 280 326
#     4   9  16  26  45  74 109 141 171 215 264 319
#
# _framework density 17.877991000000002
#
# number of rings (size 3 to 8) (size 9 to 14) (size 15 to 20)
#    0.000    2.143    1.429    3.429    0.000    5.714 
#    0.000    0.714    0.000    0.857    0.000    6.000 
#    0.000    0.000    0.000    0.000    0.000    0.000 
#
# Total GULP energy -156177.660299 kJ/mol
# GULP energy per Si atom -5577.773582 kJ/mol
# Density = 1.783730 g / cm^3
# Si number density = 17.877991 Si / 1000 Ang^3
#
#
#
# Elastic Constant Matrix: (Units=GPa)
#
#
# Indices 1 2 3 4 5 6 
#
# 1 58.3748 16.2637 15.2241 0.0000 14.4081 -0.0001
# 2 16.2637 21.9401 33.4768 0.0000 3.9199 -0.0005
# 3 15.2241 33.4768 120.0689 0.0000 20.5716 0.0001
# 4 0.0000 0.0000 0.0000 28.1980 0.0000 2.9000
# 5 14.4081 3.9199 20.5716 0.0000 23.8192 0.0000
# 6 -0.0001 -0.0005 0.0001 2.9000 0.0000 22.7087
#
#
#
# Elastic Compliance Matrix: (Units=1/GPa)
#
#
# Indices 1 2 3 4 5 6 
#
# 1 0.027897 -0.029311 0.007863 0.000000 -0.018842 -0.000001
# 2 -0.029311 0.111158 -0.031900 0.000000 0.026987 0.000002
# 3 0.007863 -0.031900 0.018944 0.000000 -0.015868 -0.000001
# 4 0.000000 0.000000 0.000000 0.035935 0.000000 -0.004589
# 5 -0.018842 0.026987 -0.015868 0.000000 0.062644 0.000001
# 6 -0.000001 0.000002 -0.000001 -0.004589 0.000001 0.044622
#
#
# Mechanical properties :
#
#
# Convention : Reuss Voigt Hill
#
# Bulk Modulus (GPa) = 19.49146 36.70145 28.09645
# Shear Modulus (GPa) = 11.76480 23.97315 17.86897
#
# Velocity S-wave (km/s) = 2.56805 3.66584 3.16491
# Velocity P-wave (km/s) = 4.44065 6.20414 5.39493
#
# Compressibility (1/GPa) = 0.05130453
#
# Stress axis : x y z
#
# Youngs Moduli (GPa) = 35.84634 8.99619 52.78641
#
# Poissons Ratio (x) = 0.26369 -0.41508
# Poissons Ratio (y) = 1.05070 1.68387
# Poissons Ratio (z) = -0.28187 0.28698
#
# Static dielectric constant tensor:
#      x y z
#    x 1.607690 0.000000 -0.000080 
#    y 0.000000 1.609000 0.000000 
#    z -0.000080 0.000000 1.648760 
# 
# From -- ./inp_files/319688.got.cif
#   From: 2010.05.17/outbox.cif.g08.bks.cpg/sg12_160_cif.got.tgz:319688.got - 2010.06.03 13:09:07.
