data_PCOD9200976
_publ_section_title
;
Structure prediction by ZEFSAII (Michael W. Deem and Ramdas Pophale) SiO2 
 PCOD9200976
Probable space group: C 2/M
;
_chemical_formula_sum "Si O2"
_cell_formula_units_Z 64
_cell_length_a 21.905775
_cell_length_b 17.968649
_cell_length_c 13.886108
_cell_angle_alpha 90.000000
_cell_angle_beta 147.497715
_cell_angle_gamma 90.000000
_cell_volume 2936.961789
_symmetry_space_group_name_H-M "C 2/M"
_symmetry_group_IT_number 12
_symmetry_cell_setting 'monoclinic'
loop_
_space_group_symop_operation_xyz
x,y,z
-x,y,-z
-x,-y,-z
x,-y,z
1/2+x,1/2+y,z
1/2-x,1/2+y,-z
1/2-x,1/2-y,-z
1/2+x,1/2-y,z
loop_
_atom_site_type_symbol
_atom_site_label
_atom_site_fract_x
_atom_site_fract_y
_atom_site_fract_z
Si Si1 0.225001 0.653052 0.167486
Si Si2 0.926003 0.843578 0.311027
Si Si3 0.590544 0.087033 0.702563
Si Si4 0.133835 0.087641 0.480776
Si Si5 0.246996 0.090203 0.438655
Si Si6 0.890291 0.086742 0.922090
Si Si7 0.309977 0.689728 0.972392
Si Si8 0.497275 0.086951 0.794465
O O1 0.317364 0.616825 0.216100
O O2 0.275728 0.635386 0.338413
O O3 0.224611 0.738115 0.133418
O O4 0.097993 0.624431 0.987082
O O5 0.000000 0.812033 0.500000
O O6 0.012831 0.895769 0.368493
O O7 0.873327 0.791583 0.157319
O O8 0.500000 0.107656 0.500000
O O9 0.701070 0.138134 0.846390
O O10 0.531893 0.092603 0.728505
O O11 0.621683 0.000000 0.728382
O O12 0.153223 0.106898 0.394816
O O13 0.158791 0.000000 0.524513
O O14 0.211703 0.112361 0.284385
O O15 0.370292 0.118153 0.634827
O O16 0.253425 0.000000 0.441885
O O17 0.891464 0.139846 0.014359
O O18 0.876137 0.000000 0.931536
O O19 0.000000 0.090206 0.000000
O O20 0.494727 0.000000 0.817758
#
# Coordination Sequence:
#
# PCOD9200976 Si02
#       8
#     8   8   8   8   8   8   8   8
#     4  11  24  41  58  93 127 171 210 260 325 389
#     4  10  23  41  62  89 124 166 219 264 319 381
#     4  10  21  36  61  95 123 160 211 260 320 390
#     4  10  22  42  68  93 123 168 226 273 319 382
#     4   9  19  39  64  93 122 159 209 262 321 375
#     4  10  21  40  67  95 125 164 214 267 319 377
#     4  12  23  41  63  92 133 169 212 262 329 395
#     4  10  20  37  60  87 124 160 208 267 312 372
#
# _framework density 21.791226999999999
#
# number of rings (size 3 to 8) (size 9 to 14) (size 15 to 20)
#    0.000    1.750    1.250    2.625    0.000    8.750 
#    6.750    2.500    0.000    0.000    0.000    0.000 
#    0.000    0.000    0.000    0.000    0.000    0.000 
#
# Total GULP energy -178746.150512 kJ/mol
# GULP energy per Si atom -5585.817204 kJ/mol
# Density = 2.174163 g / cm^3
# Si number density = 21.791227 Si / 1000 Ang^3
#
#
#
# Elastic Constant Matrix: (Units=GPa)
#
#
# Indices 1 2 3 4 5 6 
#
# 1 69.2715 25.9035 22.7300 0.0000 3.9441 0.0000
# 2 25.9035 58.5868 28.3226 0.0000 -3.6076 0.0000
# 3 22.7300 28.3226 109.1900 0.0000 -2.4281 0.0000
# 4 0.0000 0.0000 0.0000 7.8544 0.0000 -8.3000
# 5 3.9441 -3.6076 -2.4281 0.0000 45.2716 0.0000
# 6 0.0000 0.0000 0.0000 -8.3000 0.0000 16.6296
#
#
#
# Elastic Compliance Matrix: (Units=1/GPa)
#
#
# Indices 1 2 3 4 5 6 
#
# 1 0.017848 -0.007098 -0.001924 0.000000 -0.002224 0.000000
# 2 -0.007098 0.022414 -0.004288 0.000000 0.002175 0.000000
# 3 -0.001924 -0.004288 0.010680 0.000000 0.000399 0.000000
# 4 0.000000 0.000000 0.000000 0.269412 0.000000 0.134466
# 5 -0.002224 0.002175 0.000399 0.000000 0.022477 0.000000
# 6 0.000000 0.000000 0.000000 0.134466 0.000000 0.127247
#
#
# Mechanical properties :
#
#
# Convention : Reuss Voigt Hill
#
# Bulk Modulus (GPa) = 41.11473 43.44005 42.27739
# Shear Modulus (GPa) = 9.90480 24.62392 17.26436
#
# Velocity S-wave (km/s) = 2.13429 3.36518 2.81777
# Velocity P-wave (km/s) = 4.99821 5.92260 5.47993
#
# Compressibility (1/GPa) = 0.02432219
#
# Stress axis : x y z
#
# Youngs Moduli (GPa) = 56.02828 44.61504 93.63391
#
# Poissons Ratio (x) = 0.31669 0.18012
# Poissons Ratio (y) = 0.39771 0.40149
# Poissons Ratio (z) = 0.10778 0.19131
#
# Static dielectric constant tensor:
#      x y z
#    x 1.794750 0.000000 0.013000 
#    y 0.000000 1.758290 0.000000 
#    z 0.013000 0.000000 1.837730 
# 
# From -- ./inp_files/241524.got.cif
#   From: 2010.05.17/outbox.cif.g08.bks.cpg/sg12_121_cif.got.tgz:241524.got - 2010.06.03 13:09:07.
