data_PCOD9200415
_publ_section_title
;
Structure prediction by ZEFSAII (Michael W. Deem and Ramdas Pophale) SiO2 
 PCOD9200415
Probable space group: C 2/M
;
_chemical_formula_sum "Si O2"
_cell_formula_units_Z 56
_cell_length_a 21.198010
_cell_length_b 8.059512
_cell_length_c 32.279566
_cell_angle_alpha 90.000000
_cell_angle_beta 147.562354
_cell_angle_gamma 90.000000
_cell_volume 2958.048358
_symmetry_space_group_name_H-M "C 2/M"
_symmetry_group_IT_number 12
_symmetry_cell_setting 'monoclinic'
loop_
_space_group_symop_operation_xyz
x,y,z
-x,y,-z
-x,-y,-z
x,-y,z
1/2+x,1/2+y,z
1/2-x,1/2+y,-z
1/2-x,1/2-y,-z
1/2+x,1/2-y,z
loop_
_atom_site_type_symbol
_atom_site_label
_atom_site_fract_x
_atom_site_fract_y
_atom_site_fract_z
Si Si1 0.188732 0.199427 0.757899
Si Si2 0.831647 0.698515 0.006738
Si Si3 0.672182 0.702867 0.843157
Si Si4 0.908224 0.197305 0.824673
Si Si5 0.915060 0.202971 0.734381
Si Si6 0.434343 0.300110 0.591560
Si Si7 0.230377 0.800380 0.423508
O O1 0.192749 0.259897 0.807644
O O2 0.303790 0.241157 0.795796
O O3 0.067941 0.259927 0.669547
O O4 0.180212 0.000000 0.755360
O O5 0.834117 0.500000 0.006739
O O6 0.963490 0.759698 0.086683
O O7 0.750000 0.750000 0.000000
O O8 0.769939 0.758544 0.930252
O O9 0.673382 0.500000 0.843549
O O10 0.543225 0.751678 0.788087
O O11 0.898703 0.262523 0.772199
O O12 0.899358 0.000000 0.817530
O O13 0.816514 0.257683 0.646896
O O14 0.914274 0.000000 0.734626
O O15 0.435337 0.500000 0.593492
O O16 0.359672 0.249314 0.510130
O O17 0.360147 0.241830 0.590750
O O18 0.224929 0.000000 0.420345
#
# Coordination Sequence:
#
# PCOD9200415 Si02
#       7
#     8   8   8   8   8   8   8
#     4  10  20  37  58  79 107 146 187 220 264 326
#     4  11  21  36  59  85 110 140 182 227 271 319
#     4   9  17  33  59  81 102 140 187 223 256 317
#     4  11  23  38  56  79 113 146 178 226 277 322
#     4   9  16  32  56  80 102 139 186 221 257 315
#     4   9  17  30  51  79 109 136 168 221 276 315
#     4   9  16  29  54  81 103 133 180 224 259 313
#
# _framework density 18.931401000000001
#
# number of rings (size 3 to 8) (size 9 to 14) (size 15 to 20)
#    0.000    2.286    2.857    0.857    0.000    1.143 
#    0.000    6.429    0.000    4.286    0.000    0.000 
#    0.000    0.000    0.000    0.000    0.000    0.000 
#
# Total GULP energy -156233.555144 kJ/mol
# GULP energy per Si atom -5579.769827 kJ/mol
# Density = 1.888831 g / cm^3
# Si number density = 18.931401 Si / 1000 Ang^3
#
#
#
# Elastic Constant Matrix: (Units=GPa)
#
#
# Indices 1 2 3 4 5 6 
#
# 1 144.9051 2.5712 100.2525 0.0003 -4.4994 -0.0005
# 2 2.5712 6.6413 3.0113 0.0007 -5.0593 -0.0010
# 3 100.2525 3.0113 205.2158 -0.0001 -12.7142 -0.0002
# 4 0.0003 0.0007 -0.0001 26.2592 -0.0001 2.3406
# 5 -4.4994 -5.0593 -12.7142 -0.0001 30.5878 0.0001
# 6 -0.0005 -0.0010 -0.0002 2.3406 0.0001 23.5380
#
#
#
# Elastic Compliance Matrix: (Units=1/GPa)
#
#
# Indices 1 2 3 4 5 6 
#
# 1 0.010471 -0.002491 -0.005141 0.000000 -0.001009 0.000000
# 2 -0.002491 0.172995 0.000440 -0.000005 0.028430 0.000008
# 3 -0.005141 0.000440 0.007530 0.000000 0.002446 0.000000
# 4 0.000000 -0.000005 0.000000 0.038422 -0.000001 -0.003821
# 5 -0.001009 0.028430 0.002446 -0.000001 0.038264 0.000001
# 6 0.000000 0.000008 0.000000 -0.003821 0.000001 0.042864
#
#
# Mechanical properties :
#
#
# Convention : Reuss Voigt Hill
#
# Bulk Modulus (GPa) = 5.66218 63.15913 34.41065
# Shear Modulus (GPa) = 13.02758 32.80549 22.91653
#
# Velocity S-wave (km/s) = 2.62610 4.16728 3.48300
# Velocity P-wave (km/s) = 3.49179 7.52260 5.86439
#
# Compressibility (1/GPa) = 0.17661057
#
# Stress axis : x y z
#
# Youngs Moduli (GPa) = 95.50284 5.78051 132.80879
#
# Poissons Ratio (x) = 0.01440 0.68280
# Poissons Ratio (y) = 0.23791 -0.05842
# Poissons Ratio (z) = 0.49100 -0.00254
#
# Static dielectric constant tensor:
#      x y z
#    x 1.620540 0.000000 -0.025320 
#    y 0.000000 1.684330 0.000000 
#    z -0.025320 0.000000 1.662260 
# 
# From -- ./inp_files/363098.got.cif
#   From: 2010.05.17/outbox.cif.g08.bks.cpg/sg12_182_cif.got.tgz:363098.got - 2010.06.03 13:09:07.
