data_PCOD9200140
_publ_section_title
;
Structure prediction by ZEFSAII (Michael W. Deem and Ramdas Pophale) SiO2 
 PCOD9200140
Probable space group: C 2/M
;
_chemical_formula_sum "Si O2"
_cell_formula_units_Z 56
_cell_length_a 26.532168
_cell_length_b 11.601953
_cell_length_c 10.064489
_cell_angle_alpha 90.000000
_cell_angle_beta 60.163320
_cell_angle_gamma 90.000000
_cell_volume 2687.438776
_symmetry_space_group_name_H-M "C 2/M"
_symmetry_group_IT_number 12
_symmetry_cell_setting 'monoclinic'
loop_
_space_group_symop_operation_xyz
x,y,z
-x,y,-z
-x,-y,-z
x,-y,z
1/2+x,1/2+y,z
1/2-x,1/2+y,-z
1/2-x,1/2-y,-z
1/2+x,1/2-y,z
loop_
_atom_site_type_symbol
_atom_site_label
_atom_site_fract_x
_atom_site_fract_y
_atom_site_fract_z
Si Si1 0.682531 0.367171 0.723387
Si Si2 0.380828 0.871746 0.547254
Si Si3 0.993339 0.757868 0.358200
Si Si4 0.227035 0.293451 0.888158
Si Si5 0.552267 0.636636 0.841819
Si Si6 0.182150 0.128587 0.428089
Si Si7 0.607304 0.873021 0.155892
O O1 0.677636 0.500000 0.767801
O O2 0.717823 0.306167 0.791663
O O3 0.616584 0.318905 0.793503
O O4 0.709298 0.363412 0.540272
O O5 0.449387 0.850553 0.430314
O O6 0.351793 0.750557 0.541604
O O7 0.372712 0.874300 0.716491
O O8 0.362986 0.000000 0.519470
O O9 0.964377 0.840277 0.288477
O O10 0.000000 0.804506 0.500000
O O11 0.055614 0.718842 0.221109
O O12 0.273408 0.372716 0.752547
O O13 0.250000 0.250000 0.000000
O O14 0.163753 0.346733 0.995721
O O15 0.554531 0.500000 0.860830
O O16 0.500000 0.685327 0.000000
O O17 0.152173 0.000000 0.468161
O O18 0.584395 0.000000 0.152962
#
# Coordination Sequence:
#
# PCOD9200140 Si02
#       7
#     8   8   8   8   8   8   8
#     4  10  23  42  65  91 128 174 219 267 328 395
#     4  10  20  38  65  96 127 171 219 264 327 392
#     4  10  20  36  64  94 125 167 217 267 321 391
#     4  12  24  41  66  95 127 170 220 277 328 392
#     4  10  20  37  61  90 131 173 210 262 329 396
#     4  11  23  43  66  95 132 174 220 270 326 392
#     4  10  21  39  60  92 131 167 211 272 330 383
#
# _framework density 20.837685
#
# number of rings (size 3 to 8) (size 9 to 14) (size 15 to 20)
#    0.000    1.571    2.857    2.143    0.000    3.714 
#    0.000    3.571    0.000    1.714    0.000    0.000 
#    0.000    0.000    0.000    0.000    0.000    0.000 
#
# Total GULP energy -156037.937700 kJ/mol
# GULP energy per Si atom -5572.783489 kJ/mol
# Density = 2.079026 g / cm^3
# Si number density = 20.837685 Si / 1000 Ang^3
#
#
#
# Elastic Constant Matrix: (Units=GPa)
#
#
# Indices 1 2 3 4 5 6 
#
# 1 71.5683 34.6608 29.8400 0.0000 10.2418 0.0000
# 2 34.6608 91.6106 14.4194 0.0000 10.5983 0.0000
# 3 29.8400 14.4194 105.3600 0.0000 -2.3679 0.0000
# 4 0.0000 0.0000 0.0000 17.9345 0.0000 0.2351
# 5 10.2418 10.5983 -2.3679 0.0000 42.4553 0.0000
# 6 0.0000 0.0000 0.0000 0.2351 0.0000 23.7961
#
#
#
# Elastic Compliance Matrix: (Units=1/GPa)
#
#
# Indices 1 2 3 4 5 6 
#
# 1 0.019444 -0.006218 -0.004732 0.000000 -0.003402 0.000000
# 2 -0.006218 0.013506 -0.000130 0.000000 -0.001879 0.000000
# 3 -0.004732 -0.000130 0.010889 0.000000 0.001781 0.000000
# 4 0.000000 0.000000 0.000000 0.055766 0.000000 -0.000551
# 5 -0.003402 -0.001879 0.001781 0.000000 0.024943 0.000000
# 6 0.000000 0.000000 0.000000 -0.000551 0.000000 0.042029
#
#
# Mechanical properties :
#
#
# Convention : Reuss Voigt Hill
#
# Bulk Modulus (GPa) = 46.12679 47.37546 46.75113
# Shear Modulus (GPa) = 25.51477 29.47841 27.49659
#
# Velocity S-wave (km/s) = 3.50302 3.76529 3.63652
# Velocity P-wave (km/s) = 6.20852 6.45663 6.33379
#
# Compressibility (1/GPa) = 0.02167937
#
# Stress axis : x y z
#
# Youngs Moduli (GPa) = 51.42916 74.04022 91.83287
#
# Poissons Ratio (x) = 0.46040 0.43459
# Poissons Ratio (y) = 0.31980 0.01190
# Poissons Ratio (z) = 0.24338 0.00959
#
# Static dielectric constant tensor:
#      x y z
#    x 1.799170 0.000000 -0.056570 
#    y 0.000000 1.773010 0.000000 
#    z -0.056570 0.000000 1.759610 
# 
# From -- ./inp_files/103121.got.cif
#   From: 2010.05.17/outbox.cif.g08.bks.cpg/sg12_52_cif.got.tgz:103121.got - 2010.06.03 13:09:07.
