data_PCOD9200438
_publ_section_title
;
Structure prediction by ZEFSAII (Michael W. Deem and Ramdas Pophale) SiO2 
 PCOD9200438
Probable space group: C 2/M
;
_chemical_formula_sum "Si O2"
_cell_formula_units_Z 52
_cell_length_a 31.271759
_cell_length_b 19.215771
_cell_length_c 5.048034
_cell_angle_alpha 90.000000
_cell_angle_beta 115.770440
_cell_angle_gamma 90.000000
_cell_volume 2731.724800
_symmetry_space_group_name_H-M "C 2/M"
_symmetry_group_IT_number 12
_symmetry_cell_setting 'monoclinic'
loop_
_space_group_symop_operation_xyz
x,y,z
-x,y,-z
-x,-y,-z
x,-y,z
1/2+x,1/2+y,z
1/2-x,1/2+y,-z
1/2-x,1/2-y,-z
1/2+x,1/2-y,z
loop_
_atom_site_type_symbol
_atom_site_label
_atom_site_fract_x
_atom_site_fract_y
_atom_site_fract_z
Si Si1 0.251077 0.082032 0.098689
Si Si2 0.553245 0.280749 0.742306
Si Si3 0.388795 0.690225 0.592252
Si Si4 0.903531 0.371300 0.158754
Si Si5 0.465835 0.000000 0.160056
Si Si6 0.347064 0.156417 0.503423
Si Si7 0.811931 0.081348 0.573638
O O1 0.295112 0.130842 0.286720
O O2 0.208513 0.096186 0.190527
O O3 0.264419 0.000000 0.166574
O O4 0.230928 0.092128 0.750641
O O5 0.500000 0.293664 0.500000
O O6 0.588747 0.319521 0.635883
O O7 0.564962 0.198521 0.747343
O O8 0.568339 0.299283 0.081582
O O9 0.358199 0.761742 0.497920
O O10 0.355036 0.629604 0.603178
O O11 0.933251 0.432645 0.108816
O O12 0.883260 0.382485 0.398484
O O13 0.859679 0.359080 0.841288
O O14 0.500000 0.000000 0.500000
O O15 0.500000 0.000000 0.000000
O O16 0.825172 0.000000 0.595271
#
# Coordination Sequence:
#
# PCOD9200438 Si02
#       7
#     8   8   8   8   4   8   8
#     4  10  21  34  55  80 111 148 184 221 266 331
#     4  10  20  37  58  81 107 141 182 225 274 331
#     4  10  21  36  58  82 109 142 182 225 276 329
#     4  10  22  35  53  77 109 145 181 234 272 317
#     4  12  24  36  52  76 106 150 196 230 282 324
#     4  10  21  36  53  82 108 143 188 224 276 310
#     4  10  21  38  56  82 110 144 180 220 278 333
#
# _framework density 19.035592999999999
#
# number of rings (size 3 to 8) (size 9 to 14) (size 15 to 20)
#    0.000    1.846    0.000    3.692    2.154    3.692 
#    0.000    0.000    0.000    2.769    0.000    0.000 
#    0.000    0.000    0.000    0.000    0.000    0.000 
#
# Total GULP energy -145181.966408 kJ/mol
# GULP energy per Si atom -5583.921785 kJ/mol
# Density = 1.899227 g / cm^3
# Si number density = 19.035593 Si / 1000 Ang^3
#
#
#
# Elastic Constant Matrix: (Units=GPa)
#
#
# Indices 1 2 3 4 5 6 
#
# 1 57.2011 28.9114 4.4084 0.0000 -3.6633 0.0000
# 2 28.9114 41.7696 3.8035 0.0000 13.9021 0.0000
# 3 4.4084 3.8035 43.2263 0.0000 -1.9725 0.0000
# 4 0.0000 0.0000 0.0000 14.8633 0.0000 -1.0010
# 5 -3.6633 13.9021 -1.9725 0.0000 39.6310 0.0000
# 6 0.0000 0.0000 0.0000 -1.0010 0.0000 11.1040
#
#
#
# Elastic Compliance Matrix: (Units=1/GPa)
#
#
# Indices 1 2 3 4 5 6 
#
# 1 0.031114 -0.025418 -0.000399 0.000000 0.011772 0.000000
# 2 -0.025418 0.048219 -0.002535 0.000000 -0.019390 0.000000
# 3 -0.000399 -0.002535 0.023490 0.000000 0.002022 0.000000
# 4 0.000000 0.000000 0.000000 0.067691 0.000000 0.006102
# 5 0.011772 -0.019390 0.002022 0.000000 0.033223 0.000000
# 6 0.000000 0.000000 0.000000 0.006102 0.000000 0.090608
#
#
# Mechanical properties :
#
#
# Convention : Reuss Voigt Hill
#
# Bulk Modulus (GPa) = 21.68372 24.04930 22.86651
# Shear Modulus (GPa) = 13.64547 20.12457 16.88502
#
# Velocity S-wave (km/s) = 2.68029 3.25500 2.98153
# Velocity P-wave (km/s) = 4.58197 5.17571 4.88787
#
# Compressibility (1/GPa) = 0.04611755
#
# Stress axis : x y z
#
# Youngs Moduli (GPa) = 32.14002 20.73891 42.57105
#
# Poissons Ratio (x) = 0.52714 0.01700
# Poissons Ratio (y) = 0.81693 0.10794
# Poissons Ratio (z) = 0.01284 0.05258
#
# Static dielectric constant tensor:
#      x y z
#    x 1.640350 0.000000 -0.007650 
#    y 0.000000 1.632340 0.000000 
#    z -0.007650 0.000000 1.647850 
# 
# From -- ./inp_files/29336.got.cif
#   From: 2010.05.17/outbox.cif.g08.bks.cpg/sg12_15_cif.got.tgz:29336.got - 2010.06.03 13:09:07.
