data_PCOD9200993
_publ_section_title
;
Structure prediction by ZEFSAII (Michael W. Deem and Ramdas Pophale) SiO2 
 PCOD9200993
Probable space group: C 2/M
;
_chemical_formula_sum "Si O2"
_cell_formula_units_Z 60
_cell_length_a 23.053362
_cell_length_b 22.393503
_cell_length_c 11.946126
_cell_angle_alpha 90.000000
_cell_angle_beta 29.717659
_cell_angle_gamma 90.000000
_cell_volume 3057.210993
_symmetry_space_group_name_H-M "C 2/M"
_symmetry_group_IT_number 12
_symmetry_cell_setting 'monoclinic'
loop_
_space_group_symop_operation_xyz
x,y,z
-x,y,-z
-x,-y,-z
x,-y,z
1/2+x,1/2+y,z
1/2-x,1/2+y,-z
1/2-x,1/2-y,-z
1/2+x,1/2-y,z
loop_
_atom_site_type_symbol
_atom_site_label
_atom_site_fract_x
_atom_site_fract_y
_atom_site_fract_z
Si Si1 0.766669 0.842840 0.571388
Si Si2 0.736346 0.683993 0.067448
Si Si3 0.073042 0.651398 0.072338
Si Si4 0.971866 0.433730 0.425300
Si Si5 0.174852 0.705225 0.495915
Si Si6 0.234899 0.117712 0.839086
Si Si7 0.500000 0.623352 0.500000
Si Si8 0.479604 0.571139 0.288901
O O1 0.799805 0.775389 0.553319
O O2 0.741508 0.830807 0.482848
O O3 0.869675 0.889892 0.427204
O O4 0.645947 0.860811 0.837359
O O5 0.609785 0.667413 0.325175
O O6 0.750000 0.750000 0.000000
O O7 0.831292 0.676720 0.003441
O O8 0.747068 0.637267 0.947555
O O9 0.021510 0.596624 0.230849
O O10 0.962391 0.695227 0.247653
O O11 0.021181 0.500000 0.348179
O O12 0.831807 0.432072 0.652165
O O13 0.000000 0.404317 0.500000
O O14 0.219605 0.674021 0.308463
O O15 0.103116 0.096891 0.035005
O O16 0.492742 0.583402 0.400470
O O17 0.467146 0.500000 0.289175
#
# Coordination Sequence:
#
# PCOD9200993 Si02
#       8
#     8   8   8   8   8   8   4   8
#     4  11  24  44  64  96 121 174 216 268 324 377
#     4  11  22  34  60  94 132 162 203 261 328 389
#     4  11  22  40  62  96 124 163 210 264 321 380
#     4  10  20  37  60  88 127 168 205 247 306 381
#     4  10  25  42  67  88 130 165 219 269 322 385
#     4  10  22  40  60  95 126 167 207 263 318 382
#     4  10  23  40  58  96 134 174 207 258 334 392
#     4  11  24  42  67  95 131 172 218 266 320 393
#
# _framework density 19.625730000000001
#
# number of rings (size 3 to 8) (size 9 to 14) (size 15 to 20)
#    0.000    1.467    2.667    1.800    5.600    2.133 
#    0.000    4.000    0.000    4.000    0.000    0.000 
#    0.000    0.000    0.000    0.000    0.000    0.000 
#
# Total GULP energy -167269.790132 kJ/mol
# GULP energy per Si atom -5575.659671 kJ/mol
# Density = 1.958106 g / cm^3
# Si number density = 19.625730 Si / 1000 Ang^3
#
#
#
# Elastic Constant Matrix: (Units=GPa)
#
#
# Indices 1 2 3 4 5 6 
#
# 1 62.7646 3.7722 15.7170 -0.0001 -15.6346 0.0002
# 2 3.7722 58.6566 15.8491 -0.0003 -12.6970 -0.0010
# 3 15.7170 15.8491 108.6519 -0.0012 -24.4844 -0.0049
# 4 -0.0001 -0.0003 -0.0012 -13.0839 0.0003 -78.0014
# 5 -15.6346 -12.6970 -24.4844 0.0003 33.4840 0.0007
# 6 0.0002 -0.0010 -0.0049 -78.0014 0.0007 -293.6247
#
#
#
# Elastic Compliance Matrix: (Units=1/GPa)
#
#
# Indices 1 2 3 4 5 6 
#
# 1 0.018133 0.000838 -0.000917 0.000000 0.008114 0.000000
# 2 0.000838 0.018777 -0.001398 0.000000 0.006489 0.000000
# 3 -0.000917 -0.001398 0.011164 0.000000 0.007205 0.000000
# 4 0.000000 0.000000 0.000000 0.130939 -0.000001 -0.034784
# 5 0.008114 0.006489 0.007205 -0.000001 0.041383 0.000000
# 6 0.000000 0.000000 0.000000 -0.034784 0.000000 0.005835
#
#
# Mechanical properties :
#
#
# Convention : Reuss Voigt Hill
#
# Bulk Modulus (GPa) = 22.16287 33.41664 27.78976
# Shear Modulus (GPa) = 20.47305 -41.66261 -10.59478
#
# Velocity S-wave (km/s) = 3.23332 -4.61245 -2.32597
# Velocity P-wave (km/s) = 5.02558 3.36189 2.64142
#
# Compressibility (1/GPa) = 0.04512050
#
# Stress axis : x y z
#
# Youngs Moduli (GPa) = 55.14811 53.25702 89.57443
#
# Poissons Ratio (x) = -0.04463 0.08212
# Poissons Ratio (y) = -0.04621 0.12522
# Poissons Ratio (z) = 0.05056 0.07445
#
# Static dielectric constant tensor:
#      x y z
#    x 1.707910 0.000000 0.002320 
#    y 0.000000 1.685810 0.000000 
#    z 0.002320 0.000000 1.708580 
# 
# From -- ./inp_files/178012.got.cif
#   From: 2010.05.17/outbox.cif.g08.bks.cpg/sg12_90_cif.got.tgz:178012.got - 2010.06.03 13:09:07.
