data_PCOD9200351
_publ_section_title
;
Structure prediction by ZEFSAII (Michael W. Deem and Ramdas Pophale) SiO2 
 PCOD9200351
Probable space group: C 2/M
;
_chemical_formula_sum "Si O2"
_cell_formula_units_Z 56
_cell_length_a 27.492429
_cell_length_b 8.693772
_cell_length_c 16.094916
_cell_angle_alpha 90.000000
_cell_angle_beta 129.191780
_cell_angle_gamma 90.000000
_cell_volume 2981.477082
_symmetry_space_group_name_H-M "C 2/M"
_symmetry_group_IT_number 12
_symmetry_cell_setting 'monoclinic'
loop_
_space_group_symop_operation_xyz
x,y,z
-x,y,-z
-x,-y,-z
x,-y,z
1/2+x,1/2+y,z
1/2-x,1/2+y,-z
1/2-x,1/2-y,-z
1/2+x,1/2-y,z
loop_
_atom_site_type_symbol
_atom_site_label
_atom_site_fract_x
_atom_site_fract_y
_atom_site_fract_z
Si Si1 0.521500 0.814952 0.337575
Si Si2 0.358923 0.182869 0.439849
Si Si3 0.781345 0.183798 0.115547
Si Si4 0.510313 0.184501 0.884718
Si Si5 0.587235 0.316434 0.670847
Si Si6 0.232150 0.315819 0.243871
Si Si7 0.096588 0.816978 0.111680
O O1 0.594039 0.776268 0.434515
O O2 0.499343 0.772440 0.221467
O O3 0.476875 0.735574 0.356636
O O4 0.515571 0.000000 0.340054
O O5 0.396381 0.231583 0.396973
O O6 0.292131 0.266455 0.363034
O O7 0.348639 0.000000 0.428509
O O8 0.854848 0.222505 0.205017
O O9 0.748655 0.232963 0.166706
O O10 0.776525 0.000000 0.107011
O O11 0.750000 0.250000 0.000000
O O12 0.450021 0.239953 0.871963
O O13 0.515676 0.000000 0.896629
O O14 0.570122 0.260481 0.993897
O O15 0.587902 0.500000 0.656837
O O16 0.225857 0.500000 0.238623
O O17 0.167441 0.238247 0.200024
O O18 0.091444 0.000000 0.111550
#
# Coordination Sequence:
#
# PCOD9200351 Si02
#       7
#     8   8   8   8   8   8   8
#     4  10  22  37  57  83 112 147 189 232 278 326
#     4  10  20  37  57  82 113 147 189 233 273 326
#     4   9  20  34  49  75 109 142 181 224 266 321
#     4  10  21  39  60  84 113 146 183 230 281 332
#     4  10  21  35  52  79 113 151 190 227 273 328
#     4  10  21  38  58  81 109 148 187 224 278 336
#     4  11  22  38  60  86 113 144 183 229 280 335
#
# _framework density 18.782636
#
# number of rings (size 3 to 8) (size 9 to 14) (size 15 to 20)
#    0.000    2.000    0.000    5.143    2.000    7.429 
#    0.000    0.714    0.000    0.000    0.000    0.000 
#    0.000    0.000    0.000    0.000    0.000    0.000 
#
# Total GULP energy -156371.360840 kJ/mol
# GULP energy per Si atom -5584.691459 kJ/mol
# Density = 1.873989 g / cm^3
# Si number density = 18.782636 Si / 1000 Ang^3
#
#
#
# Elastic Constant Matrix: (Units=GPa)
#
#
# Indices 1 2 3 4 5 6 
#
# 1 35.3813 4.2034 11.2633 0.0000 20.6881 0.0000
# 2 4.2034 28.6820 4.4235 0.0000 2.9423 0.0000
# 3 11.2633 4.4235 54.1215 0.0000 11.1541 0.0000
# 4 0.0000 0.0000 0.0000 29.3237 0.0000 9.8581
# 5 20.6881 2.9423 11.1541 0.0000 25.9264 0.0000
# 6 0.0000 0.0000 0.0000 9.8581 0.0000 19.2839
#
#
#
# Elastic Compliance Matrix: (Units=1/GPa)
#
#
# Indices 1 2 3 4 5 6 
#
# 1 0.053600 -0.003246 -0.002360 0.000000 -0.041387 0.000000
# 2 -0.003246 0.035726 -0.002132 0.000000 -0.000548 0.000000
# 3 -0.002360 -0.002132 0.020524 0.000000 -0.006705 0.000000
# 4 0.000000 0.000000 0.000000 0.041179 0.000000 -0.021051
# 5 -0.041387 -0.000548 -0.006705 0.000000 0.074542 0.000000
# 6 0.000000 0.000000 0.000000 -0.021051 0.000000 0.062618
#
#
# Mechanical properties :
#
#
# Convention : Reuss Voigt Hill
#
# Bulk Modulus (GPa) = 10.59601 17.55171 14.07386
# Shear Modulus (GPa) = 14.91996 21.45979 18.18987
#
# Velocity S-wave (km/s) = 2.82148 3.38380 3.11535
# Velocity P-wave (km/s) = 4.03335 4.96304 4.52215
#
# Compressibility (1/GPa) = 0.09437511
#
# Stress axis : x y z
#
# Youngs Moduli (GPa) = 18.65678 27.99114 48.72316
#
# Poissons Ratio (x) = 0.09085 0.11498
# Poissons Ratio (y) = 0.06055 0.10386
# Poissons Ratio (z) = 0.04403 0.05967
#
# Static dielectric constant tensor:
#      x y z
#    x 1.626010 0.000000 0.005260 
#    y 0.000000 1.630320 0.000000 
#    z 0.005260 0.000000 1.669850 
# 
# From -- ./inp_files/288421.got.cif
#   From: 2010.05.17/outbox.cif.g08.bks.cpg/sg12_145_cif.got.tgz:288421.got - 2010.06.03 13:09:07.
