data_PCOD9200835
_publ_section_title
;
Structure prediction by ZEFSAII (Michael W. Deem and Ramdas Pophale) SiO2 
 PCOD9200835
Probable space group: C 2/M
;
_chemical_formula_sum "Si O2"
_cell_formula_units_Z 48
_cell_length_a 31.547014
_cell_length_b 7.734580
_cell_length_c 9.249632
_cell_angle_alpha 90.000000
_cell_angle_beta 89.023987
_cell_angle_gamma 90.000000
_cell_volume 2256.609615
_symmetry_space_group_name_H-M "C 2/M"
_symmetry_group_IT_number 12
_symmetry_cell_setting 'monoclinic'
loop_
_space_group_symop_operation_xyz
x,y,z
-x,y,-z
-x,-y,-z
x,-y,z
1/2+x,1/2+y,z
1/2-x,1/2+y,-z
1/2-x,1/2-y,-z
1/2+x,1/2-y,z
loop_
_atom_site_type_symbol
_atom_site_label
_atom_site_fract_x
_atom_site_fract_y
_atom_site_fract_z
Si Si1 0.331665 0.211574 0.833899
Si Si2 0.496466 0.703185 0.163493
Si Si3 0.748070 0.706515 0.669068
Si Si4 0.337171 0.203932 0.161512
Si Si5 0.914475 0.297551 0.344568
Si Si6 0.418543 0.210016 0.671870
O O1 0.290089 0.270036 0.749684
O O2 0.374938 0.262415 0.751713
O O3 0.330534 0.000000 0.833336
O O4 0.331962 0.273609 0.999548
O O5 0.486639 0.500000 0.154121
O O6 0.458288 0.784752 0.256040
O O7 0.540623 0.727465 0.243390
O O8 0.500000 0.772984 0.000000
O O9 0.746688 0.500000 0.683397
O O10 0.750000 0.750000 0.500000
O O11 0.705829 0.777226 0.746130
O O12 0.376438 0.278670 0.250538
O O13 0.346085 0.000000 0.141538
O O14 0.904006 0.500000 0.366100
O O15 0.918824 0.226433 0.506232
O O16 0.420489 0.000000 0.672623
#
# Coordination Sequence:
#
# PCOD9200835 Si02
#       6
#     8   8   8   8   8   8
#     4   9  19  36  59  84 111 145 185 229 274 328
#     4  11  24  39  55  80 114 148 184 229 279 329
#     4  11  22  37  57  83 115 150 188 229 275 326
#     4  10  20  37  60  85 112 144 184 229 278 328
#     4  10  21  37  60  86 111 144 186 229 274 331
#     4  10  20  37  60  84 109 142 186 229 273 329
#
# _framework density 21.270847
#
# number of rings (size 3 to 8) (size 9 to 14) (size 15 to 20)
#    0.000    1.833    0.000    4.000    0.000    8.667 
#    0.000    5.000    0.000    0.000    0.000    0.000 
#    0.000    0.000    0.000    0.000    0.000    0.000 
#
# Total GULP energy -134171.967312 kJ/mol
# GULP energy per Si atom -5590.498638 kJ/mol
# Density = 2.122243 g / cm^3
# Si number density = 21.270847 Si / 1000 Ang^3
#
#
#
# Elastic Constant Matrix: (Units=GPa)
#
#
# Indices 1 2 3 4 5 6 
#
# 1 168.7498 -28.4962 103.4725 0.0000 19.2921 0.0000
# 2 -28.4962 27.7545 -14.8712 0.0000 8.4918 0.0000
# 3 103.4725 -14.8712 234.0445 0.0000 14.0815 0.0000
# 4 0.0000 0.0000 0.0000 16.1746 0.0000 -2.5113
# 5 19.2921 8.4918 14.0815 0.0000 43.5341 0.0000
# 6 0.0000 0.0000 0.0000 -2.5113 0.0000 22.1329
#
#
#
# Elastic Compliance Matrix: (Units=1/GPa)
#
#
# Indices 1 2 3 4 5 6 
#
# 1 0.010620 0.010641 -0.003683 0.000000 -0.005591 0.000000
# 2 0.010641 0.051074 -0.000588 0.000000 -0.014488 0.000000
# 3 -0.003683 -0.000588 0.005873 0.000000 -0.000153 0.000000
# 4 0.000000 0.000000 0.000000 0.062934 0.000000 0.007141
# 5 -0.005591 -0.014488 -0.000153 0.000000 0.028324 0.000000
# 6 0.000000 0.000000 0.000000 0.007141 0.000000 0.045992
#
#
# Mechanical properties :
#
#
# Convention : Reuss Voigt Hill
#
# Bulk Modulus (GPa) = 12.45193 61.19542 36.82368
# Shear Modulus (GPa) = 22.84730 41.06455 31.95592
#
# Velocity S-wave (km/s) = 3.28092 4.39858 3.88020
# Velocity P-wave (km/s) = 4.49659 7.39112 6.11752
#
# Compressibility (1/GPa) = 0.08030883
#
# Stress axis : x y z
#
# Youngs Moduli (GPa) = 94.16007 19.57945 170.27913
#
# Poissons Ratio (x) = -0.20835 0.62709
# Poissons Ratio (y) = -1.00199 0.10007
# Poissons Ratio (z) = 0.34677 0.01151
#
# Static dielectric constant tensor:
#      x y z
#    x 1.696820 0.000000 0.028170 
#    y 0.000000 1.809360 0.000000 
#    z 0.028170 0.000000 1.744680 
# 
# From -- ./inp_files/108573.got.cif
#   From: 2010.05.17/outbox.cif.g08.bks.cpg/sg12_55_cif.got.tgz:108573.got - 2010.06.03 13:09:07.
