data_PCOD9200110
_publ_section_title
;
Structure prediction by ZEFSAII (Michael W. Deem and Ramdas Pophale) SiO2 
 PCOD9200110
Probable space group: C 2/M
;
_chemical_formula_sum "Si O2"
_cell_formula_units_Z 48
_cell_length_a 17.891886
_cell_length_b 18.294676
_cell_length_c 14.870446
_cell_angle_alpha 90.000000
_cell_angle_beta 31.175345
_cell_angle_gamma 90.000000
_cell_volume 2519.698137
_symmetry_space_group_name_H-M "C 2/M"
_symmetry_group_IT_number 12
_symmetry_cell_setting 'monoclinic'
loop_
_space_group_symop_operation_xyz
x,y,z
-x,y,-z
-x,-y,-z
x,-y,z
1/2+x,1/2+y,z
1/2-x,1/2+y,-z
1/2-x,1/2-y,-z
1/2+x,1/2-y,z
loop_
_atom_site_type_symbol
_atom_site_label
_atom_site_fract_x
_atom_site_fract_y
_atom_site_fract_z
Si Si1 0.623321 0.420744 0.125128
Si Si2 0.057917 0.808274 0.032722
Si Si3 0.553992 0.913568 0.211258
Si Si4 0.664496 0.225649 0.181141
Si Si5 0.549083 0.354742 0.549753
Si Si6 0.167418 0.304880 0.655334
O O1 0.625998 0.500000 0.079125
O O2 0.579689 0.364537 0.092168
O O3 0.508155 0.414924 0.322189
O O4 0.785223 0.410961 0.999712
O O5 0.947689 0.746049 0.176373
O O6 0.217052 0.773553 0.862550
O O7 0.000000 0.841194 0.000000
O O8 0.593821 0.855149 0.248888
O O9 0.424143 0.871288 0.295289
O O10 0.524259 0.000000 0.260006
O O11 0.540177 0.283092 0.326865
O O12 0.750000 0.250000 0.000000
O O13 0.500000 0.371484 0.500000
O O14 0.714987 0.338191 0.398439
O O15 0.250000 0.250000 0.500000
#
# Coordination Sequence:
#
# PCOD9200110 Si02
#       6
#     8   8   8   8   8   8
#     4  10  21  40  60  82 121 164 197 242 300 359
#     4  11  21  36  62  88 114 155 205 252 287 355
#     4  10  20  36  64  86 113 161 200 238 304 362
#     4  11  17  39  62  82 117 157 202 246 294 354
#     4  12  23  36  60  89 118 156 202 251 299 355
#     4  12  20  37  59  89 122 151 196 249 305 350
#
# _framework density 19.049900999999998
#
# number of rings (size 3 to 8) (size 9 to 14) (size 15 to 20)
#    0.000    1.000    8.333    1.000    0.000    1.333 
#    0.000    0.000    0.000    3.000    0.000    0.000 
#    0.000    0.000    0.000    0.000    0.000    0.000 
#
# Total GULP energy -133606.858507 kJ/mol
# GULP energy per Si atom -5566.952438 kJ/mol
# Density = 1.900654 g / cm^3
# Si number density = 19.049901 Si / 1000 Ang^3
#
#
#
# Elastic Constant Matrix: (Units=GPa)
#
#
# Indices 1 2 3 4 5 6 
#
# 1 145.8328 32.8852 42.8769 0.0002 -29.8579 -0.0001
# 2 32.8852 111.4363 28.6554 0.0001 -11.1767 -0.0001
# 3 42.8769 28.6554 49.8742 0.0003 -26.8530 -0.0003
# 4 0.0002 0.0001 0.0003 22.6138 -0.0003 -12.6987
# 5 -29.8579 -11.1767 -26.8530 -0.0003 36.4148 0.0002
# 6 -0.0001 -0.0001 -0.0003 -12.6987 0.0002 9.6793
#
#
#
# Elastic Compliance Matrix: (Units=1/GPa)
#
#
# Indices 1 2 3 4 5 6 
#
# 1 0.009442 -0.000959 -0.005898 0.000000 0.003098 0.000000
# 2 -0.000959 0.010719 -0.006611 0.000000 -0.002371 0.000000
# 3 -0.005898 -0.006611 0.041832 0.000001 0.023982 0.000002
# 4 0.000000 0.000000 0.000001 0.167957 0.000001 0.220350
# 5 0.003098 -0.002371 0.023982 0.000001 0.046959 0.000001
# 6 0.000000 0.000000 0.000002 0.220350 0.000001 0.392401
#
#
# Mechanical properties :
#
#
# Convention : Reuss Voigt Hill
#
# Bulk Modulus (GPa) = 28.52544 57.33093 42.92818
# Shear Modulus (GPa) = 7.06284 27.25663 17.15974
#
# Velocity S-wave (km/s) = 1.92759 3.78670 3.00455
# Velocity P-wave (km/s) = 4.46774 7.01992 5.88387
#
# Compressibility (1/GPa) = 0.03505643
#
# Stress axis : x y z
#
# Youngs Moduli (GPa) = 105.91154 93.29362 23.90520
#
# Poissons Ratio (x) = 0.08946 0.14100
# Poissons Ratio (y) = 0.10156 0.15804
# Poissons Ratio (z) = 0.62469 0.61676
#
# Static dielectric constant tensor:
#      x y z
#    x 1.681820 0.000000 -0.006100 
#    y 0.000000 1.736190 0.000000 
#    z -0.006100 0.000000 1.696320 
# 
# From -- ./inp_files/226739.got.cif
#   From: 2010.05.17/outbox.cif.g08.bks.cpg/sg12_114_cif.got.tgz:226739.got - 2010.06.03 13:09:07.
