data_PCOD9200186
_publ_section_title
;
Structure prediction by ZEFSAII (Michael W. Deem and Ramdas Pophale) SiO2 
 PCOD9200186
Probable space group: C 2/M
;
_chemical_formula_sum "Si O2"
_cell_formula_units_Z 64
_cell_length_a 25.658618
_cell_length_b 14.156190
_cell_length_c 11.709562
_cell_angle_alpha 90.000000
_cell_angle_beta 138.323838
_cell_angle_gamma 90.000000
_cell_volume 2828.065519
_symmetry_space_group_name_H-M "C 2/M"
_symmetry_group_IT_number 12
_symmetry_cell_setting 'monoclinic'
loop_
_space_group_symop_operation_xyz
x,y,z
-x,y,-z
-x,-y,-z
x,-y,z
1/2+x,1/2+y,z
1/2-x,1/2+y,-z
1/2-x,1/2-y,-z
1/2+x,1/2-y,z
loop_
_atom_site_type_symbol
_atom_site_label
_atom_site_fract_x
_atom_site_fract_y
_atom_site_fract_z
Si Si1 0.886541 0.108568 0.169228
Si Si2 0.075976 0.100329 0.204328
Si Si3 0.080531 0.721289 0.641782
Si Si4 0.340185 0.772871 0.465979
Si Si5 0.810978 0.105755 0.819007
Si Si6 0.712751 0.891563 0.993030
Si Si7 0.224871 0.613463 0.285568
Si Si8 0.579121 0.817246 0.196904
O O1 0.938112 0.184955 0.316179
O O2 0.799548 0.119020 0.082156
O O3 0.911648 0.000000 0.223321
O O4 0.876444 0.131855 0.019321
O O5 0.150215 0.102752 0.240930
O O6 0.065731 0.209649 0.221526
O O7 0.079068 0.000000 0.277702
O O8 0.000000 0.090070 0.000000
O O9 0.109783 0.745998 0.563878
O O10 0.000000 0.663828 0.500000
O O11 0.149920 0.671138 0.824653
O O12 0.261484 0.826011 0.297345
O O13 0.302175 0.672946 0.448122
O O14 0.383464 0.848352 0.620923
O O15 0.785792 0.000000 0.810755
O O16 0.716385 0.874499 0.134880
O O17 0.689623 0.000000 0.939056
O O18 0.228600 0.500000 0.315515
O O19 0.150231 0.660986 0.226201
O O20 0.500000 0.846860 0.000000
#
# Coordination Sequence:
#
# PCOD9200186 Si02
#       8
#     8   8   8   8   8   8   8   8
#     4  10  20  39  64  94 127 163 209 256 313 383
#     4   9  19  36  59  91 124 161 208 260 321 375
#     4  12  26  38  64  98 134 171 204 261 325 380
#     4  12  24  43  62  97 127 164 218 265 314 379
#     4  10  20  36  66  95 122 164 213 268 314 370
#     4  10  21  41  68  94 123 165 214 261 313 379
#     4  11  24  43  69  95 127 171 217 264 317 377
#     4  11  26  43  65  92 130 173 212 266 320 381
#
# _framework density 22.630310000000001
#
# number of rings (size 3 to 8) (size 9 to 14) (size 15 to 20)
#    0.000    1.375    3.750    1.500    1.750    2.750 
#    0.000    0.000    0.000    0.000    0.000    0.000 
#    0.000    0.000    0.000    0.000    0.000    0.000 
#
# Total GULP energy -178450.239576 kJ/mol
# GULP energy per Si atom -5576.569987 kJ/mol
# Density = 2.257880 g / cm^3
# Si number density = 22.630310 Si / 1000 Ang^3
#
#
#
# Elastic Constant Matrix: (Units=GPa)
#
#
# Indices 1 2 3 4 5 6 
#
# 1 60.7814 14.1350 28.5721 0.0000 -6.0564 0.0000
# 2 14.1350 57.7901 21.1869 0.0000 4.4677 0.0000
# 3 28.5721 21.1869 92.0596 0.0000 -5.4558 0.0000
# 4 0.0000 0.0000 0.0000 4.3917 0.0000 -5.8674
# 5 -6.0564 4.4677 -5.4558 0.0000 36.3889 0.0000
# 6 0.0000 0.0000 0.0000 -5.8674 0.0000 22.7719
#
#
#
# Elastic Compliance Matrix: (Units=1/GPa)
#
#
# Indices 1 2 3 4 5 6 
#
# 1 0.019969 -0.003169 -0.005296 0.000000 0.002919 0.000000
# 2 -0.003169 0.019731 -0.003766 0.000000 -0.003515 0.000000
# 3 -0.005296 -0.003766 0.013468 0.000000 0.001600 0.000000
# 4 0.000000 0.000000 0.000000 0.347237 0.000000 0.089469
# 5 0.002919 -0.003515 0.001600 0.000000 0.028638 0.000000
# 6 0.000000 0.000000 0.000000 0.089469 0.000000 0.066967
#
#
# Mechanical properties :
#
#
# Convention : Reuss Voigt Hill
#
# Bulk Modulus (GPa) = 34.83316 37.60212 36.21764
# Shear Modulus (GPa) = 9.43326 22.49297 15.96311
#
# Velocity S-wave (km/s) = 2.04389 3.15609 2.65879
# Velocity P-wave (km/s) = 4.58210 5.47111 5.04622
#
# Compressibility (1/GPa) = 0.02870828
#
# Stress axis : x y z
#
# Youngs Moduli (GPa) = 50.07651 50.68070 74.25209
#
# Poissons Ratio (x) = 0.16058 0.39321
# Poissons Ratio (y) = 0.15867 0.27963
# Poissons Ratio (z) = 0.26519 0.19086
#
# Static dielectric constant tensor:
#      x y z
#    x 1.820400 0.000000 -0.057260 
#    y 0.000000 1.971790 0.000000 
#    z -0.057260 0.000000 1.962720 
# 
# From -- ./inp_files/183840.got.cif
#   From: 2010.05.17/outbox.cif.g08.bks.cpg/sg12_92_cif.got.tgz:183840.got - 2010.06.03 13:09:07.
