data_PCOD9200930
_publ_section_title
;
Structure prediction by ZEFSAII (Michael W. Deem and Ramdas Pophale) SiO2 
 PCOD9200930
Probable space group: C 2/M
;
_chemical_formula_sum "Si O2"
_cell_formula_units_Z 34
_cell_length_a 15.861288
_cell_length_b 9.844738
_cell_length_c 18.540604
_cell_angle_alpha 90.000000
_cell_angle_beta 29.441605
_cell_angle_gamma 90.000000
_cell_volume 1423.056176
_symmetry_space_group_name_H-M "C 2/M"
_symmetry_group_IT_number 12
_symmetry_cell_setting 'monoclinic'
loop_
_space_group_symop_operation_xyz
x,y,z
-x,y,-z
-x,-y,-z
x,-y,z
1/2+x,1/2+y,z
1/2-x,1/2+y,-z
1/2-x,1/2-y,-z
1/2+x,1/2-y,z
loop_
_atom_site_type_symbol
_atom_site_label
_atom_site_fract_x
_atom_site_fract_y
_atom_site_fract_z
Si Si1 0.420876 0.656856 0.958617
Si Si2 0.421197 0.267639 0.464485
Si Si3 0.000000 0.500000 0.500000
Si Si4 0.907733 0.842194 0.795594
Si Si5 0.783775 0.352809 0.256355
O O1 0.406184 0.500000 0.991972
O O2 0.437078 0.660859 0.859425
O O3 0.592035 0.730785 0.858188
O O4 0.254201 0.745657 0.099794
O O5 0.439230 0.119390 0.487120
O O6 0.434847 0.286769 0.368972
O O7 0.600573 0.339667 0.354708
O O8 0.266211 0.338286 0.622082
O O9 0.873197 0.000000 0.804256
O O10 0.863506 0.500000 0.183583
#
# Coordination Sequence:
#
# PCOD9200930 Si02
#       5
#     8   8   2   8   8
#     4  10  23  38  58  86 124 157 196 245 294 346
#     4  10  21  37  64  84 117 153 199 241 297 351
#     4   8  20  36  54  94 116 144 182 250 296 336
#     4  10  21  41  61  85 117 160 202 242 289 353
#     4  10  20  37  60  86 117 152 193 247 294 350
#
# _framework density 23.892239
#
# number of rings (size 3 to 8) (size 9 to 14) (size 15 to 20)
#    0.000    2.353    0.000    3.529    8.235    2.824 
#    0.000    3.529    0.000    0.000    0.000    0.000 
#    0.000    0.000    0.000    0.000    0.000    0.000 
#
# Total GULP energy -94789.476961 kJ/mol
# GULP energy per Si atom -5575.851586 kJ/mol
# Density = 2.383786 g / cm^3
# Si number density = 23.892239 Si / 1000 Ang^3
#
#
#
# Elastic Constant Matrix: (Units=GPa)
#
#
# Indices 1 2 3 4 5 6 
#
# 1 51.7892 20.4114 14.4456 0.0000 12.7198 -0.0001
# 2 20.4114 219.7667 42.2658 0.0002 -11.1047 -0.0001
# 3 14.4456 42.2658 103.1825 0.0004 4.7726 -0.0001
# 4 0.0000 0.0002 0.0004 10.0198 -0.0001 4.2071
# 5 12.7198 -11.1047 4.7726 -0.0001 49.9611 0.0001
# 6 -0.0001 -0.0001 -0.0001 4.2071 0.0001 22.9316
#
#
#
# Elastic Compliance Matrix: (Units=1/GPa)
#
#
# Indices 1 2 3 4 5 6 
#
# 1 0.022085 -0.001959 -0.002018 0.000000 -0.005865 0.000000
# 2 -0.001959 0.005198 -0.001940 0.000000 0.001840 0.000000
# 3 -0.002018 -0.001940 0.010813 0.000000 -0.000950 0.000000
# 4 0.000000 0.000000 0.000000 0.108132 0.000000 -0.019838
# 5 -0.005865 0.001840 -0.000950 0.000000 0.022009 0.000000
# 6 0.000000 0.000000 0.000000 -0.019838 0.000000 0.047247
#
#
# Mechanical properties :
#
#
# Convention : Reuss Voigt Hill
#
# Bulk Modulus (GPa) = 38.07955 58.77601 48.42778
# Shear Modulus (GPa) = 21.17995 36.42354 28.80174
#
# Velocity S-wave (km/s) = 2.98061 3.90871 3.47578
# Velocity P-wave (km/s) = 5.27428 6.71003 6.03501
#
# Compressibility (1/GPa) = 0.02626081
#
# Stress axis : x y z
#
# Youngs Moduli (GPa) = 45.28009 192.36868 92.48334
#
# Poissons Ratio (x) = 0.37694 0.18663
# Poissons Ratio (y) = 0.08872 0.17943
# Poissons Ratio (z) = 0.09137 0.37322
#
# Static dielectric constant tensor:
#      x y z
#    x 2.062680 0.000000 0.071740 
#    y 0.000000 1.840390 0.000000 
#    z 0.071740 0.000000 1.917420 
# 
# From -- ./inp_files/107740.got.cif
#   From: 2010.05.17/outbox.cif.g08.bks.cpg/sg12_54_cif.got.tgz:107740.got - 2010.06.03 13:09:07.
