data_PCOD9200674
_publ_section_title
;
Structure prediction by ZEFSAII (Michael W. Deem and Ramdas Pophale) SiO2 
 PCOD9200674
Probable space group: C 2/M
;
_chemical_formula_sum "Si O2"
_cell_formula_units_Z 64
_cell_length_a 11.960240
_cell_length_b 14.627285
_cell_length_c 28.951804
_cell_angle_alpha 90.000000
_cell_angle_beta 143.372305
_cell_angle_gamma 90.000000
_cell_volume 3021.842743
_symmetry_space_group_name_H-M "C 2/M"
_symmetry_group_IT_number 12
_symmetry_cell_setting 'monoclinic'
loop_
_space_group_symop_operation_xyz
x,y,z
-x,y,-z
-x,-y,-z
x,-y,z
1/2+x,1/2+y,z
1/2-x,1/2+y,-z
1/2-x,1/2-y,-z
1/2+x,1/2-y,z
loop_
_atom_site_type_symbol
_atom_site_label
_atom_site_fract_x
_atom_site_fract_y
_atom_site_fract_z
Si Si1 0.048943 0.760725 0.961524
Si Si2 0.982680 0.809598 0.289419
Si Si3 0.942429 0.602273 0.289551
Si Si4 0.475155 0.604922 0.857328
Si Si5 0.252032 0.107414 0.868979
Si Si6 0.860340 0.398941 0.549299
Si Si7 0.933542 0.894757 0.370817
Si Si8 0.884272 0.256168 0.416834
O O1 0.955880 0.836216 0.897153
O O2 0.938967 0.664683 0.922045
O O3 0.250000 0.750000 0.000000
O O4 0.000000 0.786170 0.000000
O O5 0.947970 0.702243 0.268196
O O6 0.889192 0.870229 0.219381
O O7 0.910526 0.842664 0.315038
O O8 0.205920 0.818480 0.367082
O O9 0.960292 0.500000 0.273029
O O10 0.725179 0.603928 0.235489
O O11 0.094147 0.604591 0.381202
O O12 0.517862 0.500000 0.883588
O O13 0.641131 0.637866 0.878536
O O14 0.289173 0.000000 0.884580
O O15 0.926427 0.500000 0.555421
O O16 0.646667 0.391472 0.461458
O O17 0.975613 0.315442 0.567373
O O18 0.822207 0.835694 0.370801
O O19 0.879986 0.000000 0.349015
O O20 0.000000 0.231133 0.500000
#
# Coordination Sequence:
#
# PCOD9200674 Si02
#       8
#     8   8   8   8   8   8   8   8
#     4  12  25  46  78 110 145 183 228 281 349 419
#     4  12  23  39  66  91 133 175 228 277 335 403
#     4  10  20  37  64  91 125 174 223 275 339 404
#     4  10  22  44  71 102 141 180 227 281 340 412
#     4  11  25  44  71 106 141 185 232 277 344 419
#     4  10  20  37  59  84 119 166 224 282 341 400
#     4  11  24  41  58  85 128 172 221 287 342 397
#     4  12  23  36  60  88 123 169 226 282 345 400
#
# _framework density 21.179130000000001
#
# number of rings (size 3 to 8) (size 9 to 14) (size 15 to 20)
#    0.000    1.000    5.000    2.250    0.000    4.000 
#    0.000    0.000    0.000    0.750    0.000    0.000 
#    0.000    0.000    0.000    0.000    0.000    0.000 
#
# Total GULP energy -178393.101255 kJ/mol
# GULP energy per Si atom -5574.784414 kJ/mol
# Density = 2.113092 g / cm^3
# Si number density = 21.179130 Si / 1000 Ang^3
#
#
#
# Elastic Constant Matrix: (Units=GPa)
#
#
# Indices 1 2 3 4 5 6 
#
# 1 109.9294 40.8782 50.2641 0.0000 -6.3523 0.0000
# 2 40.8782 103.5506 16.9798 0.0000 -5.7754 0.0000
# 3 50.2641 16.9798 78.8856 0.0000 -14.3516 0.0000
# 4 0.0000 0.0000 0.0000 -23.8150 0.0000 13.0096
# 5 -6.3523 -5.7754 -14.3516 0.0000 35.3317 0.0000
# 6 0.0000 0.0000 0.0000 13.0096 0.0000 13.0411
#
#
#
# Elastic Compliance Matrix: (Units=1/GPa)
#
#
# Indices 1 2 3 4 5 6 
#
# 1 0.014607 -0.004439 -0.008645 0.000000 -0.001611 0.000000
# 2 -0.004439 0.011381 0.000617 0.000000 0.001313 0.000000
# 3 -0.008645 0.000617 0.019207 0.000000 0.006348 0.000000
# 4 0.000000 0.000000 0.000000 -0.027179 0.000000 0.027113
# 5 -0.001611 0.001313 0.006348 0.000000 0.030807 0.000000
# 6 0.000000 0.000000 0.000000 0.027113 0.000000 0.049633
#
#
# Mechanical properties :
#
#
# Convention : Reuss Voigt Hill
#
# Bulk Modulus (GPa) = 49.35130 56.51220 52.93175
# Shear Modulus (GPa) = 38.41927 17.19447 27.80687
#
# Velocity S-wave (km/s) = 4.26375 2.85241 3.62738
# Velocity P-wave (km/s) = 6.89868 6.13100 6.52614
#
# Compressibility (1/GPa) = 0.02026289
#
# Stress axis : x y z
#
# Youngs Moduli (GPa) = 68.46025 87.86312 52.06424
#
# Poissons Ratio (x) = 0.38999 0.45009
# Poissons Ratio (y) = 0.30387 -0.03214
# Poissons Ratio (z) = 0.59183 -0.05424
#
# Static dielectric constant tensor:
#      x y z
#    x 1.807010 0.000000 0.036220 
#    y 0.000000 1.066700 0.000000 
#    z 0.036220 0.000000 1.814290 
# 
# From -- ./inp_files/358455.got.cif
#   From: 2010.05.17/outbox.cif.g08.bks.cpg/sg12_180_cif.got.tgz:358455.got - 2010.06.03 13:09:07.
