data_PCOD9200390
_publ_section_title
;
Structure prediction by ZEFSAII (Michael W. Deem and Ramdas Pophale) SiO2 
 PCOD9200390
Probable space group: C 2/M
;
_chemical_formula_sum "Si O2"
_cell_formula_units_Z 48
_cell_length_a 11.092670
_cell_length_b 18.574577
_cell_length_c 12.490570
_cell_angle_alpha 90.000000
_cell_angle_beta 123.812729
_cell_angle_gamma 90.000000
_cell_volume 2138.284974
_symmetry_space_group_name_H-M "C 2/M"
_symmetry_group_IT_number 12
_symmetry_cell_setting 'monoclinic'
loop_
_space_group_symop_operation_xyz
x,y,z
-x,y,-z
-x,-y,-z
x,-y,z
1/2+x,1/2+y,z
1/2-x,1/2+y,-z
1/2-x,1/2-y,-z
1/2+x,1/2-y,z
loop_
_atom_site_type_symbol
_atom_site_label
_atom_site_fract_x
_atom_site_fract_y
_atom_site_fract_z
Si Si1 0.325732 0.082892 0.417982
Si Si2 0.112415 0.213145 0.629567
Si Si3 0.058782 0.677226 0.908945
Si Si4 0.597581 0.416537 0.145298
Si Si5 0.376504 0.183942 0.626597
Si Si6 0.635381 0.338354 0.870496
O O1 0.500000 0.082754 0.500000
O O2 0.248299 0.110792 0.270455
O O3 0.295485 0.129989 0.507172
O O4 0.278077 0.000000 0.406219
O O5 0.252634 0.230815 0.625989
O O6 0.172172 0.176417 0.765475
O O7 0.000000 0.169076 0.500000
O O8 0.000652 0.273597 0.620871
O O9 0.074004 0.762286 0.886077
O O10 0.960849 0.645679 0.766181
O O11 0.220522 0.645167 0.991352
O O12 0.000000 0.670823 0.000000
O O13 0.619622 0.500000 0.129465
O O14 0.484206 0.399990 0.183758
O O15 0.500000 0.384270 0.000000
#
# Coordination Sequence:
#
# PCOD9200390 Si02
#       6
#     8   8   8   8   8   8
#     4  10  23  43  66  94 127 167 215 268 321 377
#     4  11  22  37  58  90 127 167 209 261 321 384
#     4  10  20  37  57  88 125 164 202 255 323 375
#     4  10  22  41  65  90 121 166 216 263 314 381
#     4  11  23  39  63  93 131 168 215 263 322 389
#     4  10  21  36  59  87 126 162 207 261 312 382
#
# _framework density 22.447897000000001
#
# number of rings (size 3 to 8) (size 9 to 14) (size 15 to 20)
#    0.000    1.667    1.667    2.500    2.333    4.000 
#    3.000    0.833    0.000    4.000    0.000    1.167 
#    0.000    0.000    0.000    0.000    0.000    0.000 
#
# Total GULP energy -133767.508077 kJ/mol
# GULP energy per Si atom -5573.646170 kJ/mol
# Density = 2.239680 g / cm^3
# Si number density = 22.447897 Si / 1000 Ang^3
#
#
#
# Elastic Constant Matrix: (Units=GPa)
#
#
# Indices 1 2 3 4 5 6 
#
# 1 118.7341 6.6173 35.9567 0.0000 2.3466 0.0000
# 2 6.6173 16.2238 21.4402 0.0000 -2.6350 0.0000
# 3 35.9567 21.4402 203.8420 0.0000 23.9482 0.0000
# 4 0.0000 0.0000 0.0000 19.9987 0.0000 5.2392
# 5 2.3466 -2.6350 23.9482 0.0000 49.5964 0.0000
# 6 0.0000 0.0000 0.0000 5.2392 0.0000 17.1317
#
#
#
# Elastic Compliance Matrix: (Units=1/GPa)
#
#
# Indices 1 2 3 4 5 6 
#
# 1 0.008944 -0.001754 -0.001413 0.000000 0.000166 0.000000
# 2 -0.001754 0.074966 -0.008537 0.000000 0.008188 0.000000
# 3 -0.001413 -0.008537 0.006465 0.000000 -0.003508 0.000000
# 4 0.000000 0.000000 0.000000 0.054358 0.000000 -0.016624
# 5 0.000166 0.008188 -0.003508 0.000000 0.022284 0.000000
# 6 0.000000 0.000000 0.000000 -0.016624 0.000000 0.063455
#
#
# Mechanical properties :
#
#
# Convention : Reuss Voigt Hill
#
# Bulk Modulus (GPa) = 14.93286 51.86979 33.40132
# Shear Modulus (GPa) = 18.10256 35.66442 26.88349
#
# Velocity S-wave (km/s) = 2.84284 3.99025 3.46438
# Velocity P-wave (km/s) = 4.17640 6.66231 5.56007
#
# Compressibility (1/GPa) = 0.06696641
#
# Stress axis : x y z
#
# Youngs Moduli (GPa) = 111.80061 13.33940 154.67624
#
# Poissons Ratio (x) = 0.02340 0.21851
# Poissons Ratio (y) = 0.19614 1.32054
# Poissons Ratio (z) = 0.15794 0.11388
#
# Static dielectric constant tensor:
#      x y z
#    x 1.899970 0.000000 0.002690 
#    y 0.000000 1.825110 0.000000 
#    z 0.002690 0.000000 1.943170 
# 
# From -- ./inp_files/133393.got.cif
#   From: 2010.05.17/outbox.cif.g08.bks.cpg/sg12_67_cif.got.tgz:133393.got - 2010.06.03 13:09:07.
