data_PCOD9200356
_publ_section_title
;
Structure prediction by ZEFSAII (Michael W. Deem and Ramdas Pophale) SiO2 
 PCOD9200356
Probable space group: C 2/M
;
_chemical_formula_sum "Si O2"
_cell_formula_units_Z 64
_cell_length_a 31.062785
_cell_length_b 7.406136
_cell_length_c 15.418370
_cell_angle_alpha 90.000000
_cell_angle_beta 129.028037
_cell_angle_gamma 90.000000
_cell_volume 2755.503409
_symmetry_space_group_name_H-M "C 2/M"
_symmetry_group_IT_number 12
_symmetry_cell_setting 'monoclinic'
loop_
_space_group_symop_operation_xyz
x,y,z
-x,y,-z
-x,-y,-z
x,-y,z
1/2+x,1/2+y,z
1/2-x,1/2+y,-z
1/2-x,1/2-y,-z
1/2+x,1/2-y,z
loop_
_atom_site_type_symbol
_atom_site_label
_atom_site_fract_x
_atom_site_fract_y
_atom_site_fract_z
Si Si1 0.785226 0.284410 0.958749
Si Si2 0.792139 0.205182 0.289433
Si Si3 0.008454 0.706995 0.915498
Si Si4 0.485034 0.793063 0.387651
Si Si5 0.774442 0.214326 0.626364
Si Si6 0.411879 0.222012 0.136977
Si Si7 0.105824 0.219222 0.484098
Si Si8 0.387056 0.281642 0.700034
O O1 0.790707 0.500000 0.952801
O O2 0.748714 0.210844 0.832722
O O3 0.750000 0.250000 0.000000
O O4 0.848335 0.219066 0.047090
O O5 0.759996 0.200158 0.340024
O O6 0.852184 0.285147 0.388454
O O7 0.803142 0.000000 0.273930
O O8 0.026942 0.500000 0.953633
O O9 0.947446 0.709891 0.797333
O O10 0.051308 0.782198 0.898959
O O11 0.000000 0.791528 0.000000
O O12 0.500000 0.708241 0.500000
O O13 0.440199 0.717026 0.263343
O O14 0.543957 0.789490 0.414162
O O15 0.467701 0.000000 0.383254
O O16 0.750000 0.250000 0.500000
O O17 0.838372 0.276211 0.702650
O O18 0.773474 0.000000 0.639790
O O19 0.414306 0.000000 0.141664
O O20 0.128008 0.269937 0.417408
O O21 0.104026 0.000000 0.485556
O O22 0.389677 0.500000 0.706295
#
# Coordination Sequence:
#
# PCOD9200356 Si02
#       8
#     8   8   8   8   8   8   8   8
#     4  10  23  42  64  85 116 158 198 250 301 345
#     4  10  22  40  60  85 118 157 198 244 298 350
#     4  10  21  36  59  87 112 150 198 235 279 347
#     4  10  21  36  58  86 112 145 187 235 291 345
#     4  11  22  37  57  85 120 157 194 237 288 349
#     4   9  19  38  57  83 119 146 186 244 289 334
#     4  10  20  37  57  82 117 149 186 237 289 347
#     4  10  21  37  55  80 118 154 185 233 292 341
#
# _framework density 23.226247000000001
#
# number of rings (size 3 to 8) (size 9 to 14) (size 15 to 20)
#    0.000    2.000    2.500    0.375    3.500    2.500 
#    0.000    1.250    0.000    0.000    0.000    0.000 
#    0.000    0.000    0.000    0.000    0.000    0.000 
#
# Total GULP energy -178751.731584 kJ/mol
# GULP energy per Si atom -5585.991612 kJ/mol
# Density = 2.317338 g / cm^3
# Si number density = 23.226247 Si / 1000 Ang^3
#
#
#
# Elastic Constant Matrix: (Units=GPa)
#
#
# Indices 1 2 3 4 5 6 
#
# 1 51.0710 -14.8600 42.8242 0.0000 11.3442 0.0000
# 2 -14.8600 81.9466 -0.0179 0.0000 0.5065 0.0000
# 3 42.8242 -0.0179 192.2075 0.0000 6.3622 0.0000
# 4 0.0000 0.0000 0.0000 1.5815 0.0000 4.8744
# 5 11.3442 0.5065 6.3622 0.0000 47.3147 0.0000
# 6 0.0000 0.0000 0.0000 4.8744 0.0000 13.6122
#
#
#
# Elastic Compliance Matrix: (Units=1/GPa)
#
#
# Indices 1 2 3 4 5 6 
#
# 1 0.027244 0.004975 -0.005878 0.000000 -0.005795 0.000000
# 2 0.004975 0.013112 -0.001068 0.000001 -0.001190 0.000000
# 3 -0.005878 -0.001068 0.006494 0.000000 0.000547 0.000000
# 4 0.000000 0.000001 0.000000 -6.096311 0.000000 2.183037
# 5 -0.005795 -0.001190 0.000547 0.000000 0.022464 0.000000
# 6 0.000000 0.000000 0.000000 2.183037 0.000000 -0.708263
#
#
# Mechanical properties :
#
#
# Convention : Reuss Voigt Hill
#
# Bulk Modulus (GPa) = 23.30518 42.34642 32.82580
# Shear Modulus (GPa) = -0.74438 32.32027 15.78795
#
# Velocity S-wave (km/s) = -0.56673 3.73438 2.61002
# Velocity P-wave (km/s) = 3.10282 6.07173 4.82148
#
# Compressibility (1/GPa) = 0.04290892
#
# Stress axis : x y z
#
# Youngs Moduli (GPa) = 36.70550 76.26423 153.98702
#
# Poissons Ratio (x) = -0.37940 0.90509
# Poissons Ratio (y) = -0.18260 0.16443
# Poissons Ratio (z) = 0.21574 0.08144
#
# Static dielectric constant tensor:
#      x y z
#    x 1.845160 0.000000 -0.016600 
#    y 0.000000 1.882600 0.000000 
#    z -0.016600 0.000000 1.886300 
# 
# From -- ./inp_files/250061.got.cif
#   From: 2010.05.17/outbox.cif.g08.bks.cpg/sg12_126_cif.got.tgz:250061.got - 2010.06.03 13:09:07.
