data_PCOD9200727
_publ_section_title
;
Structure prediction by ZEFSAII (Michael W. Deem and Ramdas Pophale) SiO2 
 PCOD9200727
Probable space group: C 2/M
;
_chemical_formula_sum "Si O2"
_cell_formula_units_Z 56
_cell_length_a 25.016647
_cell_length_b 8.836026
_cell_length_c 17.250662
_cell_angle_alpha 90.000000
_cell_angle_beta 44.706156
_cell_angle_gamma 90.000000
_cell_volume 2682.489883
_symmetry_space_group_name_H-M "C 2/M"
_symmetry_group_IT_number 12
_symmetry_cell_setting 'monoclinic'
loop_
_space_group_symop_operation_xyz
x,y,z
-x,y,-z
-x,-y,-z
x,-y,z
1/2+x,1/2+y,z
1/2-x,1/2+y,-z
1/2-x,1/2-y,-z
1/2+x,1/2-y,z
loop_
_atom_site_type_symbol
_atom_site_label
_atom_site_fract_x
_atom_site_fract_y
_atom_site_fract_z
Si Si1 0.619065 0.823473 0.533490
Si Si2 0.695764 0.321335 0.901174
Si Si3 0.167064 0.822848 0.331646
Si Si4 0.906220 0.677950 0.870543
Si Si5 0.411302 0.824687 0.114087
Si Si6 0.429999 0.319412 0.259306
Si Si7 0.555342 0.171796 0.343161
O O1 0.669616 0.751131 0.414033
O O2 0.616570 0.736642 0.617540
O O3 0.532538 0.814738 0.589862
O O4 0.636930 0.000000 0.526912
O O5 0.701749 0.500000 0.905584
O O6 0.772639 0.253960 0.787473
O O7 0.633389 0.277549 0.900706
O O8 0.665472 0.243236 0.010393
O O9 0.086528 0.786344 0.374087
O O10 0.179906 0.000000 0.324084
O O11 0.916796 0.500000 0.878355
O O12 0.900994 0.691363 0.783391
O O13 0.982635 0.765473 0.817570
O O14 0.402160 0.760948 0.209848
O O15 0.385961 0.000000 0.134926
O O16 0.500000 0.820549 0.000000
O O17 0.427327 0.500000 0.255069
O O18 0.568275 0.000000 0.358903
#
# Coordination Sequence:
#
# PCOD9200727 Si02
#       7
#     8   8   8   8   8   8   8
#     4  10  21  40  64  88 119 157 200 246 294 345
#     4  12  25  40  60  86 120 158 199 244 296 356
#     4  12  25  40  59  85 120 159 200 245 297 353
#     4  10  20  37  59  87 121 156 195 244 298 349
#     4  11  22  38  63  90 121 156 194 240 294 351
#     4  11  21  35  60  93 123 152 195 244 293 346
#     4   9  20  38  62  88 117 155 199 244 294 349
#
# _framework density 20.876127
#
# number of rings (size 3 to 8) (size 9 to 14) (size 15 to 20)
#    0.000    1.286    1.429    6.429    0.000    6.286 
#    0.000    0.714    0.000    0.000    0.000    0.000 
#    0.000    0.000    0.000    0.000    0.000    0.000 
#
# Total GULP energy -156658.585566 kJ/mol
# GULP energy per Si atom -5594.949485 kJ/mol
# Density = 2.082861 g / cm^3
# Si number density = 20.876127 Si / 1000 Ang^3
#
#
#
# Elastic Constant Matrix: (Units=GPa)
#
#
# Indices 1 2 3 4 5 6 
#
# 1 18.1691 0.6150 1.6146 0.0017 8.6004 0.0004
# 2 0.6150 116.1303 45.1825 0.0033 16.5225 0.0044
# 3 1.6146 45.1825 119.4479 0.0028 25.5977 -0.0045
# 4 0.0017 0.0033 0.0028 34.9814 -0.0002 10.1364
# 5 8.6004 16.5225 25.5977 -0.0002 25.2542 -0.0018
# 6 0.0004 0.0044 -0.0045 10.1364 -0.0018 2.4956
#
#
#
# Elastic Compliance Matrix: (Units=1/GPa)
#
#
# Indices 1 2 3 4 5 6 
#
# 1 0.068416 0.002018 0.004583 -0.000023 -0.029266 0.000067
# 2 0.002018 0.010404 -0.003011 -0.000040 -0.004442 0.000136
# 3 0.004583 -0.003011 0.011959 0.000034 -0.011713 -0.000121
# 4 -0.000023 -0.000040 0.000034 -0.161572 0.000046 0.656249
# 5 -0.029266 -0.004442 -0.011713 0.000046 0.064342 -0.000150
# 6 0.000067 0.000136 -0.000121 0.656249 -0.000150 -2.264750
#
#
# Mechanical properties :
#
#
# Convention : Reuss Voigt Hill
#
# Bulk Modulus (GPa) = 10.20820 38.73015 24.46918
# Shear Modulus (GPa) = -2.22645 26.30193 12.03774
#
# Velocity S-wave (km/s) = -1.03384 3.55336 2.40391
# Velocity P-wave (km/s) = 1.86425 5.95213 4.41040
#
# Compressibility (1/GPa) = 0.09796045
#
# Stress axis : x y z
#
# Youngs Moduli (GPa) = 14.61645 96.11978 83.62129
#
# Poissons Ratio (x) = -0.19399 -0.38327
# Poissons Ratio (y) = -0.02950 0.25175
# Poissons Ratio (z) = -0.06699 0.28938
#
# Static dielectric constant tensor:
#      x y z
#    x 1.761450 0.000000 -0.022010 
#    y 0.000000 1.696920 0.000000 
#    z -0.022010 0.000000 1.776080 
# 
# From -- ./inp_files/295048.got.cif
#   From: 2010.05.17/outbox.cif.g08.bks.cpg/sg12_148_cif.got.tgz:295048.got - 2010.06.03 13:09:07.
