data_PCOD9200065
_publ_section_title
;
Structure prediction by ZEFSAII (Michael W. Deem and Ramdas Pophale) SiO2 
 PCOD9200065
Probable space group: C 2/M
;
_chemical_formula_sum "Si O2"
_cell_formula_units_Z 48
_cell_length_a 19.319474
_cell_length_b 14.839717
_cell_length_c 11.747788
_cell_angle_alpha 90.000000
_cell_angle_beta 45.241551
_cell_angle_gamma 90.000000
_cell_volume 2391.581841
_symmetry_space_group_name_H-M "C 2/M"
_symmetry_group_IT_number 12
_symmetry_cell_setting 'monoclinic'
loop_
_space_group_symop_operation_xyz
x,y,z
-x,y,-z
-x,-y,-z
x,-y,z
1/2+x,1/2+y,z
1/2-x,1/2+y,-z
1/2-x,1/2-y,-z
1/2+x,1/2-y,z
loop_
_atom_site_type_symbol
_atom_site_label
_atom_site_fract_x
_atom_site_fract_y
_atom_site_fract_z
Si Si1 0.876430 0.605217 0.884578
Si Si2 0.739353 0.642421 0.503024
Si Si3 0.419101 0.897749 0.449154
Si Si4 0.385754 0.394339 0.143499
Si Si5 0.293251 0.201986 0.777080
Si Si6 0.741438 0.398865 0.235440
O O1 0.867493 0.500000 0.863271
O O2 0.803593 0.661652 0.890365
O O3 0.984132 0.635825 0.725518
O O4 0.846759 0.609914 0.051073
O O5 0.750000 0.750000 0.500000
O O6 0.832964 0.602663 0.457327
O O7 0.647514 0.614499 0.686356
O O8 0.739108 0.611743 0.373515
O O9 0.378694 0.841538 0.601314
O O10 0.434312 0.000000 0.469934
O O11 0.372831 0.500000 0.124508
O O12 0.308968 0.331950 0.161899
O O13 0.500000 0.370846 0.000000
O O14 0.309114 0.308866 0.752580
O O15 0.705507 0.500000 0.247428
#
# Coordination Sequence:
#
# PCOD9200065 Si02
#       6
#     8   8   8   8   8   8
#     4  10  22  38  62  93 119 153 195 243 301 358
#     4  11  20  39  59  87 121 160 192 241 301 352
#     4  10  20  36  63  93 118 149 196 249 300 350
#     4  10  21  37  62  90 115 151 200 249 293 344
#     4  11  20  39  61  88 120 157 198 244 294 343
#     4  11  23  39  59  85 123 161 196 238 297 356
#
# _framework density 20.070398000000001
#
# number of rings (size 3 to 8) (size 9 to 14) (size 15 to 20)
#    0.000    1.500    3.333    5.000    0.000    3.333 
#    0.000    2.500    0.000    2.000    0.000    0.000 
#    0.000    0.000    0.000    0.000    0.000    0.000 
#
# Total GULP energy -133866.184567 kJ/mol
# GULP energy per Si atom -5577.757690 kJ/mol
# Density = 2.002472 g / cm^3
# Si number density = 20.070398 Si / 1000 Ang^3
#
#
#
# Elastic Constant Matrix: (Units=GPa)
#
#
# Indices 1 2 3 4 5 6 
#
# 1 55.0569 9.5721 61.2018 0.0000 2.9035 0.0000
# 2 9.5721 117.8319 31.5947 0.0000 -7.4121 0.0000
# 3 61.2018 31.5947 160.3902 0.0000 0.7965 0.0000
# 4 0.0000 0.0000 0.0000 22.4289 0.0000 6.1738
# 5 2.9035 -7.4121 0.7965 0.0000 25.5968 0.0000
# 6 0.0000 0.0000 0.0000 6.1738 0.0000 -1.3403
#
#
#
# Elastic Compliance Matrix: (Units=1/GPa)
#
#
# Indices 1 2 3 4 5 6 
#
# 1 0.031834 0.000499 -0.012230 0.000000 -0.003086 0.000000
# 2 0.000499 0.009151 -0.002006 0.000000 0.002656 0.000000
# 3 -0.012230 -0.002006 0.011295 0.000000 0.000455 0.000000
# 4 0.000000 0.000000 0.000000 0.019659 0.000000 0.090554
# 5 -0.003086 0.002656 0.000455 0.000000 0.040172 0.000000
# 6 0.000000 0.000000 0.000000 0.090554 0.000000 -0.328977
#
#
# Mechanical properties :
#
#
# Convention : Reuss Voigt Hill
#
# Bulk Modulus (GPa) = 40.31430 59.77960 50.04695
# Shear Modulus (GPa) = -27.60571 24.73111 -1.43730
#
# Velocity S-wave (km/s) = -3.71272 3.51410 -0.84716
# Velocity P-wave (km/s) = 1.32325 6.80550 4.90234
#
# Compressibility (1/GPa) = 0.02480509
#
# Stress axis : x y z
#
# Youngs Moduli (GPa) = 31.41256 109.27614 88.53760
#
# Poissons Ratio (x) = -0.05455 1.08285
# Poissons Ratio (y) = -0.01568 0.17763
# Poissons Ratio (z) = 0.38419 0.21924
#
# Static dielectric constant tensor:
#      x y z
#    x 1.696420 0.000000 0.012310 
#    y 0.000000 1.779790 0.000000 
#    z 0.012310 0.000000 1.739060 
# 
# From -- ./inp_files/143523.got.cif
#   From: 2010.05.17/outbox.cif.g08.bks.cpg/sg12_72_cif.got.tgz:143523.got - 2010.06.03 13:09:07.
