data_PCOD9200454
_publ_section_title
;
Structure prediction by ZEFSAII (Michael W. Deem and Ramdas Pophale) SiO2 
 PCOD9200454
Probable space group: C 2/M
;
_chemical_formula_sum "Si O2"
_cell_formula_units_Z 48
_cell_length_a 8.840611
_cell_length_b 11.609839
_cell_length_c 24.002271
_cell_angle_alpha 90.000000
_cell_angle_beta 64.923166
_cell_angle_gamma 90.000000
_cell_volume 2231.333448
_symmetry_space_group_name_H-M "C 2/M"
_symmetry_group_IT_number 12
_symmetry_cell_setting 'monoclinic'
loop_
_space_group_symop_operation_xyz
x,y,z
-x,y,-z
-x,-y,-z
x,-y,z
1/2+x,1/2+y,z
1/2-x,1/2+y,-z
1/2-x,1/2-y,-z
1/2+x,1/2-y,z
loop_
_atom_site_type_symbol
_atom_site_label
_atom_site_fract_x
_atom_site_fract_y
_atom_site_fract_z
Si Si1 0.432343 0.624420 0.948218
Si Si2 0.608290 0.874042 0.064817
Si Si3 0.647334 0.875608 0.183273
Si Si4 0.858103 0.132817 0.474744
Si Si5 0.150863 0.203464 0.745824
Si Si6 0.045809 0.872882 0.328119
O O1 0.464277 0.500000 0.914611
O O2 0.482571 0.751098 0.919287
O O3 0.500000 0.616178 0.000000
O O4 0.231363 0.629230 0.992375
O O5 0.702633 0.874311 0.110107
O O6 0.520556 0.000000 0.076810
O O7 0.786030 0.860566 0.208807
O O8 0.505828 0.781375 0.212807
O O9 0.567035 0.000000 0.204896
O O10 0.750000 0.250000 0.500000
O O11 0.944842 0.143461 0.400908
O O12 0.000000 0.134286 0.500000
O O13 0.782412 0.000000 0.489003
O O14 0.081881 0.134145 0.703799
O O15 0.308572 0.279890 0.701916
O O16 0.122921 0.000000 0.317204
#
# Coordination Sequence:
#
# PCOD9200454 Si02
#       6
#     8   8   8   8   8   8
#     4   9  18  33  53  75 101 135 176 217 273 339
#     4   9  19  34  51  74 105 136 173 225 278 333
#     4  10  21  37  56  81 111 143 185 236 284 332
#     4  10  21  37  58  87 120 153 191 236 284 335
#     4  10  21  36  57  81 109 147 189 231 279 336
#     4  10  20  37  58  81 113 150 189 231 278 333
#
# _framework density 21.511800999999998
#
# number of rings (size 3 to 8) (size 9 to 14) (size 15 to 20)
#    0.000    2.333    0.000    2.000    2.333    0.667 
#    0.000    8.333    0.000    0.000    0.000    0.000 
#    0.000    0.000    0.000    0.000    0.000    0.000 
#
# Total GULP energy -133702.524323 kJ/mol
# GULP energy per Si atom -5570.938513 kJ/mol
# Density = 2.146284 g / cm^3
# Si number density = 21.511801 Si / 1000 Ang^3
#
#
#
# Elastic Constant Matrix: (Units=GPa)
#
#
# Indices 1 2 3 4 5 6 
#
# 1 51.5170 26.5317 21.8731 0.0000 10.0391 0.0000
# 2 26.5317 196.9299 40.9516 0.0000 -1.8969 0.0000
# 3 21.8731 40.9516 98.0564 0.0000 14.3308 0.0000
# 4 0.0000 0.0000 0.0000 73.6372 0.0000 -45.0854
# 5 10.0391 -1.8969 14.3308 0.0000 28.3139 0.0000
# 6 0.0000 0.0000 0.0000 -45.0854 0.0000 54.6975
#
#
#
# Elastic Compliance Matrix: (Units=1/GPa)
#
#
# Indices 1 2 3 4 5 6 
#
# 1 0.023408 -0.002566 -0.003144 0.000000 -0.006880 0.000000
# 2 -0.002566 0.005916 -0.002256 0.000000 0.002448 0.000000
# 3 -0.003144 -0.002256 0.012636 0.000000 -0.005432 0.000000
# 4 0.000000 0.000000 0.000000 0.027416 0.000000 0.022598
# 5 -0.006880 0.002448 -0.005432 0.000000 0.040671 0.000000
# 6 0.000000 0.000000 0.000000 0.022598 0.000000 0.036909
#
#
# Mechanical properties :
#
#
# Convention : Reuss Voigt Hill
#
# Bulk Modulus (GPa) = 38.42166 58.35735 48.38951
# Shear Modulus (GPa) = 29.14318 48.47284 38.80801
#
# Velocity S-wave (km/s) = 3.68469 4.75206 4.25200
# Velocity P-wave (km/s) = 6.00017 7.56944 6.83002
#
# Compressibility (1/GPa) = 0.02602699
#
# Stress axis : x y z
#
# Youngs Moduli (GPa) = 42.71965 169.02013 79.14042
#
# Poissons Ratio (x) = 0.43373 0.24885
# Poissons Ratio (y) = 0.10962 0.17856
# Poissons Ratio (z) = 0.13433 0.38136
#
# Static dielectric constant tensor:
#      x y z
#    x 1.804480 0.000000 -0.028890 
#    y 0.000000 1.819360 0.000000 
#    z -0.028890 0.000000 1.746280 
# 
# From -- ./inp_files/332214.got.cif
#   From: 2010.05.17/outbox.cif.g08.bks.cpg/sg12_167_cif.got.tgz:332214.got - 2010.06.03 13:09:07.
