data_PCOD9200886
_publ_section_title
;
Structure prediction by ZEFSAII (Michael W. Deem and Ramdas Pophale) SiO2 
 PCOD9200886
Probable space group: C 2/M
;
_chemical_formula_sum "Si O2"
_cell_formula_units_Z 64
_cell_length_a 9.012298
_cell_length_b 19.338569
_cell_length_c 26.671504
_cell_angle_alpha 90.000000
_cell_angle_beta 40.190514
_cell_angle_gamma 90.000000
_cell_volume 2999.784539
_symmetry_space_group_name_H-M "C 2/M"
_symmetry_group_IT_number 12
_symmetry_cell_setting 'monoclinic'
loop_
_space_group_symop_operation_xyz
x,y,z
-x,y,-z
-x,-y,-z
x,-y,z
1/2+x,1/2+y,z
1/2-x,1/2+y,-z
1/2-x,1/2-y,-z
1/2+x,1/2-y,z
loop_
_atom_site_type_symbol
_atom_site_label
_atom_site_fract_x
_atom_site_fract_y
_atom_site_fract_z
Si Si1 0.374792 0.833520 0.606752
Si Si2 0.751150 0.419730 0.449230
Si Si3 0.501619 0.581976 0.768530
Si Si4 0.535516 0.300060 0.351340
Si Si5 0.147072 0.422055 0.690728
Si Si6 0.116929 0.920189 0.854291
Si Si7 0.149909 0.797065 0.913716
Si Si8 0.338368 0.188866 0.179017
O O1 0.604933 0.878885 0.547107
O O2 0.198175 0.876990 0.687594
O O3 0.440273 0.762008 0.616419
O O4 0.225008 0.816764 0.596648
O O5 0.500000 0.391441 0.500000
O O6 0.725101 0.500000 0.470554
O O7 0.878816 0.416538 0.362652
O O8 0.522491 0.500000 0.754711
O O9 0.523664 0.594582 0.822437
O O10 0.266221 0.614600 0.808562
O O11 0.673287 0.366406 0.335980
O O12 0.670103 0.279978 0.265209
O O13 0.229680 0.500000 0.680081
O O14 0.894148 0.413582 0.778628
O O15 0.041020 0.863995 0.914331
O O16 0.062182 0.000000 0.880834
O O17 0.405548 0.814115 0.866463
O O18 0.167694 0.737570 0.867727
O O19 0.000000 0.775888 0.000000
#
# Coordination Sequence:
#
# PCOD9200886 Si02
#       8
#     8   8   8   8   8   8   8   8
#     4  11  21  35  57  88 122 157 197 246 296 349
#     4  10  21  39  63  90 124 164 199 237 293 358
#     4  10  21  36  61  89 115 149 197 253 296 342
#     4  11  22  36  61  90 120 153 200 255 299 340
#     4  10  20  37  61  88 120 154 197 244 290 346
#     4  10  20  37  60  85 115 152 196 244 292 347
#     4  12  24  40  60  86 120 157 195 241 301 364
#     4  11  23  38  59  86 118 154 197 248 294 357
#
# _framework density 21.334865000000001
#
# number of rings (size 3 to 8) (size 9 to 14) (size 15 to 20)
#    0.000    1.375    2.500    4.500    0.000    3.250 
#    0.000    3.125    0.000    4.125    0.000    0.000 
#    0.000    0.000    0.000    0.000    0.000    0.000 
#
# Total GULP energy -179029.318786 kJ/mol
# GULP energy per Si atom -5594.666212 kJ/mol
# Density = 2.128631 g / cm^3
# Si number density = 21.334865 Si / 1000 Ang^3
#
#
#
# Elastic Constant Matrix: (Units=GPa)
#
#
# Indices 1 2 3 4 5 6 
#
# 1 102.2957 44.2630 9.0536 -0.0119 -0.9372 0.0131
# 2 44.2630 86.3168 -0.0134 -0.0101 10.0323 0.0107
# 3 9.0536 -0.0134 38.8487 -0.0015 9.3539 -0.0077
# 4 -0.0119 -0.0101 -0.0015 15.3285 0.0056 2.1413
# 5 -0.9372 10.0323 9.3539 0.0056 21.5045 -0.0170
# 6 0.0131 0.0107 -0.0077 2.1413 -0.0170 41.0989
#
#
#
# Elastic Compliance Matrix: (Units=1/GPa)
#
#
# Indices 1 2 3 4 5 6 
#
# 1 0.013567 -0.007678 -0.004657 0.000003 0.006199 -0.000001
# 2 -0.007678 0.016678 0.004188 0.000010 -0.009937 -0.000006
# 3 -0.004657 0.004188 0.030546 0.000008 -0.015443 -0.000001
# 4 0.000003 0.000010 0.000008 0.065716 -0.000028 -0.003424
# 5 0.006199 -0.009937 -0.015443 -0.000028 0.058125 0.000023
# 6 -0.000001 -0.000006 -0.000001 -0.003424 0.000023 0.024510
#
#
# Mechanical properties :
#
#
# Convention : Reuss Voigt Hill
#
# Bulk Modulus (GPa) = 22.47385 37.11862 29.79624
# Shear Modulus (GPa) = 20.80997 27.19693 24.00345
#
# Velocity S-wave (km/s) = 3.12652 3.57426 3.35786
# Velocity P-wave (km/s) = 4.85698 5.87108 5.38794
#
# Compressibility (1/GPa) = 0.04449615
#
# Stress axis : x y z
#
# Youngs Moduli (GPa) = 73.70890 59.95857 32.73745
#
# Poissons Ratio (x) = 0.46038 0.15246
# Poissons Ratio (y) = 0.56596 -0.13710
# Poissons Ratio (z) = 0.34326 -0.25109
#
# Static dielectric constant tensor:
#      x y z
#    x 1.768480 0.000000 0.008940 
#    y 0.000000 1.757520 0.000000 
#    z 0.008940 0.000000 1.791980 
# 
# From -- ./inp_files/372898.got.cif
#   From: 2010.05.17/outbox.cif.g08.bks.cpg/sg12_187_cif.got.tgz:372898.got - 2010.06.03 13:09:07.
