data_PCOD9200268
_publ_section_title
;
Structure prediction by ZEFSAII (Michael W. Deem and Ramdas Pophale) SiO2 
 PCOD9200268
Probable space group: C 2/M
;
_chemical_formula_sum "Si O2"
_cell_formula_units_Z 52
_cell_length_a 15.911016
_cell_length_b 24.106096
_cell_length_c 13.819728
_cell_angle_alpha 90.000000
_cell_angle_beta 31.848524
_cell_angle_gamma 90.000000
_cell_volume 2796.991355
_symmetry_space_group_name_H-M "C 2/M"
_symmetry_group_IT_number 12
_symmetry_cell_setting 'monoclinic'
loop_
_space_group_symop_operation_xyz
x,y,z
-x,y,-z
-x,-y,-z
x,-y,z
1/2+x,1/2+y,z
1/2-x,1/2+y,-z
1/2-x,1/2-y,-z
1/2+x,1/2-y,z
loop_
_atom_site_type_symbol
_atom_site_label
_atom_site_fract_x
_atom_site_fract_y
_atom_site_fract_z
Si Si1 0.292769 0.934110 0.394506
Si Si2 0.490877 0.240008 0.289952
Si Si3 0.500000 0.326535 0.000000
Si Si4 0.388765 0.063026 0.012387
Si Si5 0.183485 0.863030 0.318121
Si Si6 0.687350 0.769348 0.914857
Si Si7 0.207885 0.161921 0.616882
O O1 0.484540 0.929217 0.196067
O O2 0.218387 0.903240 0.373590
O O3 0.237330 0.896262 0.536081
O O4 0.255526 0.000000 0.431990
O O5 0.639439 0.259870 0.208621
O O6 0.372526 0.197639 0.460209
O O7 0.397228 0.295171 0.345820
O O8 0.567483 0.212010 0.118010
O O9 0.617470 0.287853 0.946657
O O10 0.615503 0.351931 0.806234
O O11 0.332301 0.000000 0.068886
O O12 0.500000 0.070504 0.000000
O O13 0.239678 0.103085 0.168050
O O14 0.293071 0.808964 0.197702
O O15 0.000000 0.847884 0.500000
#
# Coordination Sequence:
#
# PCOD9200268 Si02
#       7
#     8   8   4   8   8   8   8
#     4  10  21  36  55  77 106 148 191 223 271 333
#     4   9  20  36  56  78 112 149 188 218 281 327
#     4  10  24  34  55  80 111 138 194 224 288 326
#     4   8  16  30  45  66  97 136 179 212 246 309
#     4  11  21  28  50  80 115 146 176 216 273 328
#     4  10  21  34  50  84 112 145 183 227 265 345
#     4  10  20  37  56  78 107 149 182 238 274 330
#
# _framework density 18.591405999999999
#
# number of rings (size 3 to 8) (size 9 to 14) (size 15 to 20)
#    0.000    2.308    0.000    3.231   11.846    1.231 
#    0.000    0.385    0.000    0.000    0.000    2.154 
#    0.000    0.000    0.000    0.000    0.000    0.000 
#
# Total GULP energy -144828.872800 kJ/mol
# GULP energy per Si atom -5570.341262 kJ/mol
# Density = 1.854909 g / cm^3
# Si number density = 18.591406 Si / 1000 Ang^3
#
#
#
# Elastic Constant Matrix: (Units=GPa)
#
#
# Indices 1 2 3 4 5 6 
#
# 1 23.5189 4.1319 20.2127 0.0101 5.5751 -0.0068
# 2 4.1319 77.8354 56.6946 0.0038 21.5842 0.0021
# 3 20.2127 56.6946 143.1464 -0.0056 22.7572 0.0007
# 4 0.0101 0.0038 -0.0056 33.7097 0.0033 9.7545
# 5 5.5751 21.5842 22.7572 0.0033 30.2168 0.0009
# 6 -0.0068 0.0021 0.0007 9.7545 0.0009 14.1611
#
#
#
# Elastic Compliance Matrix: (Units=1/GPa)
#
#
# Indices 1 2 3 4 5 6 
#
# 1 0.050122 0.005059 -0.007993 -0.000029 -0.006841 0.000044
# 2 0.005059 0.020737 -0.007298 -0.000005 -0.010250 0.000004
# 3 -0.007993 -0.007298 0.011294 0.000008 -0.001818 -0.000008
# 4 -0.000029 -0.000005 0.000008 0.037050 0.000000 -0.025521
# 5 -0.006841 -0.010250 -0.001818 0.000000 0.043047 -0.000004
# 6 0.000044 0.000004 -0.000008 -0.025521 -0.000004 0.088195
#
#
# Mechanical properties :
#
#
# Convention : Reuss Voigt Hill
#
# Bulk Modulus (GPa) = 16.21076 45.17544 30.69310
# Shear Modulus (GPa) = 17.15425 26.51495 21.83460
#
# Velocity S-wave (km/s) = 3.04089 3.78060 3.43074
# Velocity P-wave (km/s) = 4.58996 6.58855 5.67789
#
# Compressibility (1/GPa) = 0.06168742
#
# Stress axis : x y z
#
# Youngs Moduli (GPa) = 19.95150 48.22253 88.54266
#
# Poissons Ratio (x) = -0.24394 0.70774
# Poissons Ratio (y) = -0.10093 0.64618
# Poissons Ratio (z) = 0.15948 0.35193
#
# Static dielectric constant tensor:
#      x y z
#    x 1.654280 0.000000 0.021390 
#    y 0.000000 1.671140 0.000030 
#    z 0.021390 0.000030 1.716910 
# 
# From -- ./inp_files/227387.got.cif
#   From: 2010.05.17/outbox.cif.g08.bks.cpg/sg12_114_cif.got.tgz:227387.got - 2010.06.03 13:09:07.
