data_PCOD9200185
_publ_section_title
;
Structure prediction by ZEFSAII (Michael W. Deem and Ramdas Pophale) SiO2 
 PCOD9200185
Probable space group: C 2/M
;
_chemical_formula_sum "Si O2"
_cell_formula_units_Z 64
_cell_length_a 13.464332
_cell_length_b 34.296994
_cell_length_c 9.037148
_cell_angle_alpha 90.000000
_cell_angle_beta 128.676729
_cell_angle_gamma 90.000000
_cell_volume 3257.974669
_symmetry_space_group_name_H-M "C 2/M"
_symmetry_group_IT_number 12
_symmetry_cell_setting 'monoclinic'
loop_
_space_group_symop_operation_xyz
x,y,z
-x,y,-z
-x,-y,-z
x,-y,z
1/2+x,1/2+y,z
1/2-x,1/2+y,-z
1/2-x,1/2-y,-z
1/2+x,1/2-y,z
loop_
_atom_site_type_symbol
_atom_site_label
_atom_site_fract_x
_atom_site_fract_y
_atom_site_fract_z
Si Si1 0.545735 0.598544 0.877838
Si Si2 0.375076 0.899384 0.789480
Si Si3 0.216163 0.646223 0.792669
Si Si4 0.452058 0.930064 0.303783
Si Si5 0.363107 0.231275 0.197393
Si Si6 0.122145 0.763641 0.456315
Si Si7 0.180550 0.849915 0.441903
Si Si8 0.264407 0.455654 0.111291
O O1 0.426794 0.617309 0.682974
O O2 0.613112 0.564676 0.847817
O O3 0.500000 0.586111 0.000000
O O4 0.654442 0.631448 0.007808
O O5 0.431515 0.920402 0.696754
O O6 0.285875 0.864213 0.655715
O O7 0.291913 0.929078 0.809857
O O8 0.500000 0.887617 0.000000
O O9 0.117729 0.610664 0.717654
O O10 0.159085 0.685251 0.808730
O O11 0.251556 0.654672 0.654928
O O12 0.500000 0.948475 0.500000
O O13 0.346749 0.953937 0.116269
O O14 0.502108 0.242682 0.268402
O O15 0.366003 0.250269 0.363256
O O16 0.250000 0.250000 0.000000
O O17 0.250000 0.750000 0.500000
O O18 0.115195 0.810026 0.431406
O O19 0.287427 0.500000 0.178002
#
# Coordination Sequence:
#
# PCOD9200185 Si02
#       8
#     8   8   8   8   8   8   8   8
#     4   9  21  40  69  97 117 167 217 256 324 374
#     4  10  23  38  63  96 125 169 211 255 330 377
#     4  10  20  38  67  89 120 163 212 273 312 374
#     4  10  20  36  66  95 117 162 220 256 316 381
#     4  11  25  41  61  88 127 171 216 265 330 393
#     4  11  25  40  59  96 127 168 213 267 336 372
#     4  11  21  41  66  87 130 163 213 274 308 392
#     4  10  23  43  62  92 138 165 201 265 322 388
#
# _framework density 19.644107000000002
#
# number of rings (size 3 to 8) (size 9 to 14) (size 15 to 20)
#    0.000    1.750    2.500    0.750    3.500    8.750 
#    0.000    1.250    0.000    0.000    0.000    0.000 
#    0.000    0.000    0.000    0.000    0.000    0.000 
#
# Total GULP energy -178789.638551 kJ/mol
# GULP energy per Si atom -5587.176205 kJ/mol
# Density = 1.959940 g / cm^3
# Si number density = 19.644107 Si / 1000 Ang^3
#
#
#
# Elastic Constant Matrix: (Units=GPa)
#
#
# Indices 1 2 3 4 5 6 
#
# 1 103.7117 21.9357 20.0782 0.0000 21.7258 0.0000
# 2 21.9357 86.4871 11.9489 0.0000 15.3279 0.0000
# 3 20.0782 11.9489 79.0586 0.0000 13.9264 0.0000
# 4 0.0000 0.0000 0.0000 10.4429 0.0000 -1.4018
# 5 21.7258 15.3279 13.9264 0.0000 25.7316 0.0000
# 6 0.0000 0.0000 0.0000 -1.4018 0.0000 10.8988
#
#
#
# Elastic Compliance Matrix: (Units=1/GPa)
#
#
# Indices 1 2 3 4 5 6 
#
# 1 0.011983 -0.001331 -0.001326 0.000000 -0.008608 0.000000
# 2 -0.001331 0.013106 -0.000515 0.000000 -0.006405 0.000000
# 3 -0.001326 -0.000515 0.014162 0.000000 -0.006239 0.000000
# 4 0.000000 0.000000 0.000000 0.097442 0.000000 0.012533
# 5 -0.008608 -0.006405 -0.006239 0.000000 0.053322 0.000000
# 6 0.000000 0.000000 0.000000 0.012533 0.000000 0.093365
#
#
# Mechanical properties :
#
#
# Convention : Reuss Voigt Hill
#
# Bulk Modulus (GPa) = 30.38653 41.90921 36.14787
# Shear Modulus (GPa) = 16.62824 23.76762 20.19793
#
# Velocity S-wave (km/s) = 2.91258 3.48215 3.21002
# Velocity P-wave (km/s) = 5.17812 6.12762 5.67277
#
# Compressibility (1/GPa) = 0.03290932
#
# Stress axis : x y z
#
# Youngs Moduli (GPa) = 83.44876 76.29993 70.60966
#
# Poissons Ratio (x) = 0.10153 0.09363
# Poissons Ratio (y) = 0.11104 0.03634
# Poissons Ratio (z) = 0.11065 0.03927
#
# Static dielectric constant tensor:
#      x y z
#    x 1.659510 0.000000 -0.007840 
#    y 0.000000 1.666200 0.000000 
#    z -0.007840 0.000000 1.684540 
# 
# From -- ./inp_files/68641.got.cif
#   From: 2010.05.17/outbox.cif.g08.bks.cpg/sg12_35_cif.got.tgz:68641.got - 2010.06.03 13:09:07.
