data_PCOD9200787
_publ_section_title
;
Structure prediction by ZEFSAII (Michael W. Deem and Ramdas Pophale) SiO2 
 PCOD9200787
Probable space group: C 2/M
;
_chemical_formula_sum "Si O2"
_cell_formula_units_Z 56
_cell_length_a 24.703666
_cell_length_b 7.648033
_cell_length_c 13.791373
_cell_angle_alpha 90.000000
_cell_angle_beta 122.544086
_cell_angle_gamma 90.000000
_cell_volume 2196.518110
_symmetry_space_group_name_H-M "C 2/M"
_symmetry_group_IT_number 12
_symmetry_cell_setting 'monoclinic'
loop_
_space_group_symop_operation_xyz
x,y,z
-x,y,-z
-x,-y,-z
x,-y,z
1/2+x,1/2+y,z
1/2-x,1/2+y,-z
1/2-x,1/2-y,-z
1/2+x,1/2-y,z
loop_
_atom_site_type_symbol
_atom_site_label
_atom_site_fract_x
_atom_site_fract_y
_atom_site_fract_z
Si Si1 0.180198 0.807848 0.402250
Si Si2 0.722703 0.701520 0.761114
Si Si3 0.604426 0.697896 0.531200
Si Si4 0.362475 0.789411 0.923288
Si Si5 0.651703 0.795179 0.871632
Si Si6 0.010565 0.787711 0.701237
Si Si7 0.062890 0.210422 0.178949
O O1 0.250000 0.750000 0.500000
O O2 0.139612 0.819002 0.461408
O O3 0.131235 0.712016 0.283860
O O4 0.189096 0.000000 0.368880
O O5 0.724674 0.500000 0.728093
O O6 0.660564 0.784100 0.649365
O O7 0.793759 0.774850 0.814467
O O8 0.705675 0.705329 0.858452
O O9 0.591962 0.500000 0.558725
O O10 0.536901 0.775157 0.430230
O O11 0.426676 0.743342 0.925306
O O12 0.359978 0.000000 0.924164
O O13 0.360312 0.725148 0.031847
O O14 0.582742 0.770183 0.754556
O O15 0.667240 0.000000 0.891227
O O16 0.987303 0.727761 0.787121
O O17 0.007499 0.000000 0.696963
O O18 0.060962 0.000000 0.185870
#
# Coordination Sequence:
#
# PCOD9200787 Si02
#       7
#     8   8   8   8   8   8   8
#     4   9  16  28  47  75 109 141 172 213 263 318
#     4  10  20  37  60  82 104 141 186 224 267 322
#     4   8  16  32  55  79 104 135 177 221 260 314
#     4  10  22  38  57  81 110 144 181 221 275 330
#     4  11  24  39  54  78 111 145 182 229 274 317
#     4   9  19  38  59  81 109 144 182 218 263 323
#     4   9  19  34  55  82 110 140 180 226 267 312
#
# _framework density 25.494896000000001
#
# number of rings (size 3 to 8) (size 9 to 14) (size 15 to 20)
#    0.000    2.571    0.000    3.429    0.000    5.143 
#    0.000    9.286    0.000    0.000    0.000    0.000 
#    0.000    0.000    0.000    0.000    0.000    0.000 
#
# Total GULP energy -156215.297845 kJ/mol
# GULP energy per Si atom -5579.117780 kJ/mol
# Density = 2.543687 g / cm^3
# Si number density = 25.494896 Si / 1000 Ang^3
#
#
#
# Elastic Constant Matrix: (Units=GPa)
#
#
# Indices 1 2 3 4 5 6 
#
# 1 148.3679 -5.6272 23.4863 0.0000 -1.8751 0.0000
# 2 -5.6272 55.0502 -3.5043 0.0000 0.9090 0.0000
# 3 23.4863 -3.5043 67.0794 0.0000 0.0617 0.0000
# 4 0.0000 0.0000 0.0000 13.9631 0.0000 -2.6976
# 5 -1.8751 0.9090 0.0617 0.0000 39.1392 0.0000
# 6 0.0000 0.0000 0.0000 -2.6976 0.0000 2.9770
#
#
#
# Elastic Compliance Matrix: (Units=1/GPa)
#
#
# Indices 1 2 3 4 5 6 
#
# 1 0.007158 0.000568 -0.002477 0.000000 0.000334 0.000000
# 2 0.000568 0.018278 0.000756 0.000000 -0.000398 0.000000
# 3 -0.002477 0.000756 0.015815 0.000000 -0.000161 0.000000
# 4 0.000000 0.000000 0.000000 0.086816 0.000000 0.078671
# 5 0.000334 -0.000398 -0.000161 0.000000 0.025575 0.000000
# 6 0.000000 0.000000 0.000000 0.078671 0.000000 0.407202
#
#
# Mechanical properties :
#
#
# Convention : Reuss Voigt Hill
#
# Bulk Modulus (GPa) = 25.67639 33.24524 29.46082
# Shear Modulus (GPa) = 8.67859 28.29203 18.48531
#
# Velocity S-wave (km/s) = 1.84701 3.33485 2.69561
# Velocity P-wave (km/s) = 3.82644 5.28172 4.61184
#
# Compressibility (1/GPa) = 0.03894628
#
# Stress axis : x y z
#
# Youngs Moduli (GPa) = 139.70680 54.71040 63.23294
#
# Poissons Ratio (x) = -0.03110 0.15661
# Poissons Ratio (y) = -0.07942 -0.04782
# Poissons Ratio (z) = 0.34602 -0.04137
#
# Static dielectric constant tensor:
#      x y z
#    x 2.011540 0.000000 0.042560 
#    y 0.000000 1.988760 0.000000 
#    z 0.042560 0.000000 2.214750 
# 
# From -- ./inp_files/238921.got.cif
#   From: 2010.05.17/outbox.cif.g08.bks.cpg/sg12_120_cif.got.tgz:238921.got - 2010.06.03 13:09:07.
