data_PCOD9200901
_publ_section_title
;
Structure prediction by ZEFSAII (Michael W. Deem and Ramdas Pophale) SiO2 
 PCOD9200901
Probable space group: C 2/M
;
_chemical_formula_sum "Si O2"
_cell_formula_units_Z 56
_cell_length_a 22.780119
_cell_length_b 15.903886
_cell_length_c 9.513734
_cell_angle_alpha 90.000000
_cell_angle_beta 132.972757
_cell_angle_gamma 90.000000
_cell_volume 2521.913474
_symmetry_space_group_name_H-M "C 2/M"
_symmetry_group_IT_number 12
_symmetry_cell_setting 'monoclinic'
loop_
_space_group_symop_operation_xyz
x,y,z
-x,y,-z
-x,-y,-z
x,-y,z
1/2+x,1/2+y,z
1/2-x,1/2+y,-z
1/2-x,1/2-y,-z
1/2+x,1/2-y,z
loop_
_atom_site_type_symbol
_atom_site_label
_atom_site_fract_x
_atom_site_fract_y
_atom_site_fract_z
Si Si1 0.195892 0.324074 0.103215
Si Si2 0.918952 0.281834 0.447971
Si Si3 0.379627 0.593417 0.919288
Si Si4 0.190007 0.095699 0.491196
Si Si5 0.024154 0.742648 0.880238
Si Si6 0.739646 0.859511 0.878574
Si Si7 0.407139 0.593014 0.390577
O O1 0.240476 0.351817 0.317998
O O2 0.225590 0.232720 0.103524
O O3 0.100285 0.315750 0.962360
O O4 0.227010 0.379859 0.022614
O O5 0.850358 0.351149 0.326756
O O6 0.888345 0.192713 0.328538
O O7 0.000000 0.305732 0.500000
O O8 0.949174 0.267570 0.654992
O O9 0.413776 0.500000 0.954486
O O10 0.343236 0.626233 0.711963
O O11 0.305583 0.587467 0.905775
O O12 0.443272 0.661462 0.075256
O O13 0.118560 0.091365 0.488397
O O14 0.218972 0.000000 0.515248
O O15 0.000000 0.725526 0.000000
O O16 0.500000 0.591487 0.500000
O O17 0.377857 0.500000 0.289828
#
# Coordination Sequence:
#
# PCOD9200901 Si02
#       7
#     8   8   8   8   8   8   8
#     4  10  21  38  57  88 116 155 210 254 294 354
#     4  11  20  36  56  86 123 157 198 249 300 354
#     4  10  24  42  61  89 124 164 203 248 305 362
#     4  10  20  37  60  85 119 159 202 251 298 358
#     4  11  24  36  59  91 122 160 195 248 309 361
#     4  10  21  37  61  85 120 159 205 255 293 357
#     4   9  18  30  51  82 116 155 193 232 286 352
#
# _framework density 22.205361
#
# number of rings (size 3 to 8) (size 9 to 14) (size 15 to 20)
#    0.000    1.857    2.857    0.857    2.000    2.571 
#    0.000    2.857    0.000    1.714    0.000    0.000 
#    0.000    0.000    0.000    0.000    0.000    0.000 
#
# Total GULP energy -156201.806020 kJ/mol
# GULP energy per Si atom -5578.635929 kJ/mol
# Density = 2.215482 g / cm^3
# Si number density = 22.205361 Si / 1000 Ang^3
#
#
#
# Elastic Constant Matrix: (Units=GPa)
#
#
# Indices 1 2 3 4 5 6 
#
# 1 101.6800 -1.1890 18.2502 0.0000 0.4907 0.0000
# 2 -1.1890 30.0683 8.7679 0.0000 0.1180 0.0000
# 3 18.2502 8.7679 114.6636 0.0000 -8.3370 0.0000
# 4 0.0000 0.0000 0.0000 20.2601 0.0000 -0.3824
# 5 0.4907 0.1180 -8.3370 0.0000 26.6679 0.0000
# 6 0.0000 0.0000 0.0000 -0.3824 0.0000 11.8004
#
#
#
# Elastic Compliance Matrix: (Units=1/GPa)
#
#
# Indices 1 2 3 4 5 6 
#
# 1 0.010161 0.000912 -0.001741 0.000000 -0.000735 0.000000
# 2 0.000912 0.034123 -0.002831 0.000000 -0.001053 0.000000
# 3 -0.001741 -0.002831 0.009432 0.000000 0.002993 0.000000
# 4 0.000000 0.000000 0.000000 0.049388 0.000000 0.001601
# 5 -0.000735 -0.001053 0.002993 0.000000 0.038452 0.000000
# 6 0.000000 0.000000 0.000000 0.001601 0.000000 0.084795
#
#
# Mechanical properties :
#
#
# Convention : Reuss Voigt Hill
#
# Bulk Modulus (GPa) = 21.55249 33.11891 27.33570
# Shear Modulus (GPa) = 20.06926 26.45120 23.26023
#
# Velocity S-wave (km/s) = 3.00959 3.45513 3.24003
# Velocity P-wave (km/s) = 4.66947 5.55558 5.13168
#
# Compressibility (1/GPa) = 0.04639836
#
# Stress axis : x y z
#
# Youngs Moduli (GPa) = 98.41169 29.30547 106.01857
#
# Poissons Ratio (x) = -0.02673 0.18453
# Poissons Ratio (y) = -0.08977 0.30014
# Poissons Ratio (z) = 0.17129 0.08296
#
# Static dielectric constant tensor:
#      x y z
#    x 1.830040 0.000000 -0.006420 
#    y 0.000000 1.877830 0.000000 
#    z -0.006420 0.000000 1.912260 
# 
# From -- ./inp_files/87814.got.cif
#   From: 2010.05.17/outbox.cif.g08.bks.cpg/sg12_44_cif.got.tgz:87814.got - 2010.06.03 13:09:07.
