data_PCOD9200403
_publ_section_title
;
Structure prediction by ZEFSAII (Michael W. Deem and Ramdas Pophale) SiO2 
 PCOD9200403
Probable space group: C 2/M
;
_chemical_formula_sum "Si O2"
_cell_formula_units_Z 64
_cell_length_a 19.839805
_cell_length_b 7.530627
_cell_length_c 19.674558
_cell_angle_alpha 90.000000
_cell_angle_beta 99.314205
_cell_angle_gamma 90.000000
_cell_volume 2900.744893
_symmetry_space_group_name_H-M "C 2/M"
_symmetry_group_IT_number 12
_symmetry_cell_setting 'monoclinic'
loop_
_space_group_symop_operation_xyz
x,y,z
-x,y,-z
-x,-y,-z
x,-y,z
1/2+x,1/2+y,z
1/2-x,1/2+y,-z
1/2-x,1/2-y,-z
1/2+x,1/2-y,z
loop_
_atom_site_type_symbol
_atom_site_label
_atom_site_fract_x
_atom_site_fract_y
_atom_site_fract_z
Si Si1 0.097571 0.213203 0.178597
Si Si2 0.078045 0.716969 0.515984
Si Si3 0.307957 0.211364 0.565208
Si Si4 0.947482 0.287376 0.209889
Si Si5 0.171322 0.784514 0.058872
Si Si6 0.373478 0.782384 0.328444
Si Si7 0.675277 0.207915 0.902905
Si Si8 0.276733 0.296131 0.712906
O O1 0.115948 0.273104 0.105315
O O2 0.158735 0.282031 0.236900
O O3 0.022612 0.252250 0.194053
O O4 0.101821 0.000000 0.178875
O O5 0.079314 0.500000 0.516129
O O6 0.122138 0.773561 0.458499
O O7 0.111659 0.775388 0.592379
O O8 0.000000 0.773488 0.500000
O O9 0.250000 0.250000 0.500000
O O10 0.291909 0.294324 0.635065
O O11 0.311190 0.000000 0.576413
O O12 0.941474 0.500000 0.209889
O O13 0.930953 0.227611 0.283905
O O14 0.886515 0.217095 0.151751
O O15 0.247507 0.721296 0.092954
O O16 0.172793 0.000000 0.057192
O O17 0.158632 0.724099 0.980071
O O18 0.299105 0.719327 0.291338
O O19 0.371606 0.000000 0.330250
O O20 0.680238 0.000000 0.886185
O O21 0.270969 0.500000 0.735731
#
# Coordination Sequence:
#
# PCOD9200403 Si02
#       8
#     8   8   8   8   8   8   8   8
#     4  10  22  37  54  78 111 144 177 218 268 324
#     4   9  18  31  51  79 105 134 175 219 258 305
#     4  11  21  35  57  83 109 138 178 225 269 319
#     4  10  21  35  55  80 108 141 181 222 265 318
#     4   9  18  35  58  81 105 142 185 218 261 322
#     4   9  17  33  55  75 100 140 182 218 258 312
#     4   9  18  34  56  83 108 136 178 228 268 306
#     4  10  20  37  58  78 104 141 181 223 267 314
#
# _framework density 22.063299000000001
#
# number of rings (size 3 to 8) (size 9 to 14) (size 15 to 20)
#    0.000    2.375    1.250    1.125    1.750    5.000 
#    0.000    3.125    0.000    4.500    0.000    0.000 
#    0.000    0.000    0.000    0.000    0.000    0.000 
#
# Total GULP energy -178715.694207 kJ/mol
# GULP energy per Si atom -5584.865444 kJ/mol
# Density = 2.201308 g / cm^3
# Si number density = 22.063299 Si / 1000 Ang^3
#
#
#
# Elastic Constant Matrix: (Units=GPa)
#
#
# Indices 1 2 3 4 5 6 
#
# 1 116.1480 -2.9245 30.0027 0.0000 -27.5796 0.0000
# 2 -2.9245 57.6552 -6.3613 0.0000 1.2719 0.0000
# 3 30.0027 -6.3613 62.4342 0.0000 -20.6556 0.0000
# 4 0.0000 0.0000 0.0000 14.7465 0.0000 -3.3540
# 5 -27.5796 1.2719 -20.6556 0.0000 42.3603 0.0000
# 6 0.0000 0.0000 0.0000 -3.3540 0.0000 15.8102
#
#
#
# Elastic Compliance Matrix: (Units=1/GPa)
#
#
# Indices 1 2 3 4 5 6 
#
# 1 0.010758 0.000053 -0.003395 0.000000 0.005347 0.000000
# 2 0.000053 0.017548 0.001907 0.000000 0.000438 0.000000
# 3 -0.003395 0.001907 0.020380 0.000000 0.007670 0.000000
# 4 0.000000 0.000000 0.000000 0.071250 0.000000 0.015115
# 5 0.005347 0.000438 0.007670 0.000000 0.030815 0.000000
# 6 0.000000 0.000000 0.000000 0.015115 0.000000 0.066457
#
#
# Mechanical properties :
#
#
# Convention : Reuss Voigt Hill
#
# Bulk Modulus (GPa) = 21.82637 30.85233 26.33935
# Shear Modulus (GPa) = 21.24494 28.95144 25.09819
#
# Velocity S-wave (km/s) = 3.10644 3.62636 3.37642
# Velocity P-wave (km/s) = 4.77292 5.61675 5.21194
#
# Compressibility (1/GPa) = 0.04581613
#
# Stress axis : x y z
#
# Youngs Moduli (GPa) = 92.95665 56.98664 49.06705
#
# Poissons Ratio (x) = -0.00303 0.16659
# Poissons Ratio (y) = -0.00494 -0.09358
# Poissons Ratio (z) = 0.31561 -0.10869
#
# Static dielectric constant tensor:
#      x y z
#    x 1.798260 0.000000 0.001290 
#    y 0.000000 1.852900 0.000000 
#    z 0.001290 0.000000 1.785050 
# 
# From -- ./inp_files/314144.got.cif
#   From: 2010.05.17/outbox.cif.g08.bks.cpg/sg12_158_cif.got.tgz:314144.got - 2010.06.03 13:09:07.
