data_PCOD9200569
_publ_section_title
;
Structure prediction by ZEFSAII (Michael W. Deem and Ramdas Pophale) SiO2 
 PCOD9200569
Probable space group: C 2/M
;
_chemical_formula_sum "Si O2"
_cell_formula_units_Z 64
_cell_length_a 14.846524
_cell_length_b 8.739980
_cell_length_c 26.370955
_cell_angle_alpha 90.000000
_cell_angle_beta 85.633289
_cell_angle_gamma 90.000000
_cell_volume 3411.917799
_symmetry_space_group_name_H-M "C 2/M"
_symmetry_group_IT_number 12
_symmetry_cell_setting 'monoclinic'
loop_
_space_group_symop_operation_xyz
x,y,z
-x,y,-z
-x,-y,-z
x,-y,z
1/2+x,1/2+y,z
1/2-x,1/2+y,-z
1/2-x,1/2-y,-z
1/2+x,1/2-y,z
loop_
_atom_site_type_symbol
_atom_site_label
_atom_site_fract_x
_atom_site_fract_y
_atom_site_fract_z
Si Si1 0.730431 0.315732 0.171878
Si Si2 0.614537 0.818124 0.909872
Si Si3 0.349674 0.681709 0.987905
Si Si4 0.388805 0.684629 0.635118
Si Si5 0.271407 0.186282 0.282565
Si Si6 0.923367 0.319928 0.880368
Si Si7 0.748409 0.815596 0.556188
Si Si8 0.088840 0.315171 0.639356
O O1 0.732249 0.500000 0.171981
O O2 0.795910 0.266113 0.123215
O O3 0.765127 0.261340 0.224937
O O4 0.631084 0.259484 0.162151
O O5 0.599584 0.729835 0.962817
O O6 0.530602 0.797754 0.875867
O O7 0.621687 0.000000 0.921269
O O8 0.346103 0.500000 0.982880
O O9 0.250000 0.750000 0.000000
O O10 0.390420 0.753071 0.935477
O O11 0.394564 0.500000 0.635120
O O12 0.319464 0.729945 0.683041
O O13 0.335716 0.730807 0.585977
O O14 0.488708 0.750588 0.637001
O O15 0.358792 0.234221 0.311418
O O16 0.273182 0.000000 0.282196
O O17 0.904382 0.500000 0.880177
O O18 0.750000 0.750000 0.500000
O O19 0.657994 0.770835 0.591148
O O20 0.748864 0.000000 0.554117
O O21 0.083784 0.500000 0.640007
#
# Coordination Sequence:
#
# PCOD9200569 Si02
#       8
#     8   8   8   8   8   8   8   8
#     4  10  20  37  59  79 104 142 180 216 265 324
#     4  10  22  38  56  80 110 141 175 215 263 317
#     4  12  23  37  59  82 107 141 178 217 265 320
#     4   9  18  34  54  77 106 140 180 224 269 315
#     4   8  17  35  56  76 103 140 179 218 266 320
#     4  11  23  38  56  82 113 141 174 221 266 314
#     4   9  19  34  51  75 110 147 180 221 267 318
#     4   9  18  34  55  78 105 140 183 223 265 319
#
# _framework density 18.757778999999999
#
# number of rings (size 3 to 8) (size 9 to 14) (size 15 to 20)
#    0.000    2.250    1.250    3.375    0.000    5.000 
#    0.000    6.875    0.000    0.000    0.000    0.000 
#    0.000    0.000    0.000    0.000    0.000    0.000 
#
# Total GULP energy -178560.730647 kJ/mol
# GULP energy per Si atom -5580.022833 kJ/mol
# Density = 1.871509 g / cm^3
# Si number density = 18.757779 Si / 1000 Ang^3
#
#
#
# Elastic Constant Matrix: (Units=GPa)
#
#
# Indices 1 2 3 4 5 6 
#
# 1 113.2021 17.0017 32.6906 0.0000 19.2587 0.0000
# 2 17.0017 11.7956 11.4447 0.0000 2.4733 0.0000
# 3 32.6906 11.4447 101.7313 0.0000 21.5816 0.0000
# 4 0.0000 0.0000 0.0000 22.7451 0.0000 5.7772
# 5 19.2587 2.4733 21.5816 0.0000 16.3141 0.0000
# 6 0.0000 0.0000 0.0000 5.7772 0.0000 32.6778
#
#
#
# Elastic Compliance Matrix: (Units=1/GPa)
#
#
# Indices 1 2 3 4 5 6 
#
# 1 0.013702 -0.017312 0.000583 0.000000 -0.014322 0.000000
# 2 -0.017312 0.117040 -0.011364 0.000000 0.017727 0.000000
# 3 0.000583 -0.011364 0.014876 0.000000 -0.018645 0.000000
# 4 0.000000 0.000000 0.000000 0.046033 0.000000 -0.008138
# 5 -0.014322 0.017727 -0.018645 0.000000 0.100181 0.000000
# 6 0.000000 0.000000 0.000000 -0.008138 0.000000 0.032041
#
#
# Mechanical properties :
#
#
# Convention : Reuss Voigt Hill
#
# Bulk Modulus (GPa) = 11.18183 38.77811 24.97997
# Shear Modulus (GPa) = 12.19898 25.38685 18.79292
#
# Velocity S-wave (km/s) = 2.55295 3.68285 3.16867
# Velocity P-wave (km/s) = 3.82938 6.22917 5.17043
#
# Compressibility (1/GPa) = 0.08943076
#
# Stress axis : x y z
#
# Youngs Moduli (GPa) = 72.98180 8.54409 67.22051
#
# Poissons Ratio (x) = 0.14792 -0.03918
# Poissons Ratio (y) = 1.26347 0.76393
# Poissons Ratio (z) = -0.04253 0.09710
#
# Static dielectric constant tensor:
#      x y z
#    x 1.644830 0.000000 0.008830 
#    y 0.000000 1.636830 0.000000 
#    z 0.008830 0.000000 1.641230 
# 
# From -- ./inp_files/338859.got.cif
#   From: 2010.05.17/outbox.cif.g08.bks.cpg/sg12_170_cif.got.tgz:338859.got - 2010.06.03 13:09:07.
