data_PCOD9200309
_publ_section_title
;
Structure prediction by ZEFSAII (Michael W. Deem and Ramdas Pophale) SiO2 
 PCOD9200309
Probable space group: C 2/M
;
_chemical_formula_sum "Si O2"
_cell_formula_units_Z 42
_cell_length_a 9.760934
_cell_length_b 13.853329
_cell_length_c 12.289455
_cell_angle_alpha 90.000000
_cell_angle_beta 115.148697
_cell_angle_gamma 90.000000
_cell_volume 1504.272446
_symmetry_space_group_name_H-M "C 2/M"
_symmetry_group_IT_number 12
_symmetry_cell_setting 'monoclinic'
loop_
_space_group_symop_operation_xyz
x,y,z
-x,y,-z
-x,-y,-z
x,-y,z
1/2+x,1/2+y,z
1/2-x,1/2+y,-z
1/2-x,1/2-y,-z
1/2+x,1/2-y,z
loop_
_atom_site_type_symbol
_atom_site_label
_atom_site_fract_x
_atom_site_fract_y
_atom_site_fract_z
Si Si1 0.500000 0.000000 0.000000
Si Si2 0.563469 0.859324 0.409508
Si Si3 0.304767 0.395949 0.249218
Si Si4 0.373611 0.635346 0.568640
Si Si5 0.734487 0.635274 0.998110
Si Si6 0.242347 0.169360 0.231581
O O1 0.393294 0.083721 0.024578
O O2 0.500000 0.900602 0.500000
O O3 0.598687 0.747671 0.444003
O O4 0.731757 0.898611 0.447130
O O5 0.422220 0.857011 0.281822
O O6 0.214473 0.500000 0.222154
O O7 0.456639 0.402704 0.371308
O O8 0.231066 0.288211 0.237721
O O9 0.359237 0.391553 0.141039
O O10 0.313507 0.628911 0.672556
O O11 0.674901 0.622395 0.100445
O O12 0.750000 0.750000 0.000000
#
# Coordination Sequence:
#
# PCOD9200309 Si02
#       6
#     2   8   8   8   8   8
#     4  12  24  48  72  92 144 188 216 284 344 392
#     4   8  15  31  57  87 115 161 217 252 317 407
#     4  10  20  37  56  89 128 157 208 270 324 399
#     4   9  17  32  59  86 120 163 201 262 325 379
#     4  10  23  40  65  96 129 172 225 274 331 409
#     4   9  19  35  60  90 121 164 220 264 322 404
#
# _framework density 27.920473999999999
#
# number of rings (size 3 to 8) (size 9 to 14) (size 15 to 20)
#    0.000    2.667    0.952    0.000    0.000    9.905 
#    1.714    0.952    2.095   58.857    0.000    0.000 
#    0.000    0.000    0.000    0.000    0.000    0.000 
#
# Total GULP energy -116952.985840 kJ/mol
# GULP energy per Si atom -5569.189802 kJ/mol
# Density = 2.785693 g / cm^3
# Si number density = 27.920474 Si / 1000 Ang^3
#
#
#
# Elastic Constant Matrix: (Units=GPa)
#
#
# Indices 1 2 3 4 5 6 
#
# 1 164.9362 20.2553 22.9131 0.0000 -2.7480 0.0000
# 2 20.2553 186.5516 9.4854 0.0000 1.7080 0.0000
# 3 22.9131 9.4854 93.2510 0.0000 3.8120 0.0000
# 4 0.0000 0.0000 0.0000 -60.2825 0.0000 56.8506
# 5 -2.7480 1.7080 3.8120 0.0000 41.6453 0.0000
# 6 0.0000 0.0000 0.0000 56.8506 0.0000 -31.3755
#
#
#
# Elastic Compliance Matrix: (Units=1/GPa)
#
#
# Indices 1 2 3 4 5 6 
#
# 1 0.006360 -0.000618 -0.001524 0.000000 0.000585 0.000000
# 2 -0.000618 0.005450 -0.000393 0.000000 -0.000228 0.000000
# 3 -0.001524 -0.000393 0.011183 0.000000 -0.001108 0.000000
# 4 0.000000 0.000000 0.000000 0.023404 0.000000 0.042407
# 5 0.000585 -0.000228 -0.001108 0.000000 0.024162 0.000000
# 6 0.000000 0.000000 0.000000 0.042407 0.000000 0.044967
#
#
# Mechanical properties :
#
#
# Convention : Reuss Voigt Hill
#
# Bulk Modulus (GPa) = 55.79474 61.11627 58.45551
# Shear Modulus (GPa) = 39.50351 16.13646 27.81998
#
# Velocity S-wave (km/s) = 3.76554 2.40665 3.16001
# Velocity P-wave (km/s) = 6.23960 5.44606 5.85628
#
# Compressibility (1/GPa) = 0.01792284
#
# Stress axis : x y z
#
# Youngs Moduli (GPa) = 157.22453 183.49727 89.41784
#
# Poissons Ratio (x) = 0.11349 0.13626
# Poissons Ratio (y) = 0.09724 0.03514
# Poissons Ratio (z) = 0.23958 0.07212
#
# Static dielectric constant tensor:
#      x y z
#    x 2.246290 0.000000 0.081370 
#    y 0.000000 2.243170 0.000000 
#    z 0.081370 0.000000 2.527640 
# 
# From -- ./inp_files/204651.got.cif
#   From: 2010.05.17/outbox.cif.g08.bks.cpg/sg12_103_cif.got.tgz:204651.got - 2010.06.03 13:09:07.
