data_PCOD9200661
_publ_section_title
;
Structure prediction by ZEFSAII (Michael W. Deem and Ramdas Pophale) SiO2 
 PCOD9200661
Probable space group: C 2/M
;
_chemical_formula_sum "Si O2"
_cell_formula_units_Z 48
_cell_length_a 10.926481
_cell_length_b 23.849829
_cell_length_c 9.496044
_cell_angle_alpha 90.000000
_cell_angle_beta 105.969655
_cell_angle_gamma 90.000000
_cell_volume 2379.117154
_symmetry_space_group_name_H-M "C 2/M"
_symmetry_group_IT_number 12
_symmetry_cell_setting 'monoclinic'
loop_
_space_group_symop_operation_xyz
x,y,z
-x,y,-z
-x,-y,-z
x,-y,z
1/2+x,1/2+y,z
1/2-x,1/2+y,-z
1/2-x,1/2-y,-z
1/2+x,1/2-y,z
loop_
_atom_site_type_symbol
_atom_site_label
_atom_site_fract_x
_atom_site_fract_y
_atom_site_fract_z
Si Si1 0.346682 0.289136 0.709232
Si Si2 0.678149 0.500000 0.163194
Si Si3 0.207648 0.881734 0.792834
Si Si4 0.596532 0.500000 0.806828
Si Si5 0.262062 0.121201 0.143136
Si Si6 0.625182 0.286586 0.597577
Si Si7 0.473110 0.176288 0.824893
O O1 0.342670 0.342274 0.807334
O O2 0.322346 0.305821 0.538786
O O3 0.220409 0.253589 0.705946
O O4 0.450922 0.240532 0.767957
O O5 0.556964 0.500000 0.229931
O O6 0.754919 0.557854 0.197192
O O7 0.633223 0.500000 0.984796
O O8 0.158598 0.944801 0.757734
O O9 0.104860 0.839628 0.691111
O O10 0.342791 0.860675 0.768851
O O11 0.225996 0.875414 0.966402
O O12 0.404323 0.146112 0.202844
O O13 0.500000 0.257007 0.500000
O O14 0.500000 0.179312 0.000000
#
# Coordination Sequence:
#
# PCOD9200661 Si02
#       7
#     8   4   8   4   8   8   8
#     4  10  21  35  54  82 115 147 184 232 281 333
#     4   9  20  35  56  87 112 147 185 232 292 325
#     4   9  20  36  57  80 113 147 188 230 280 333
#     4   9  18  37  55  82 113 145 188 238 278 332
#     4  10  20  37  59  84 114 146 190 234 276 340
#     4  10  21  35  51  78 112 150 184 224 283 334
#     4   9  19  35  56  89 113 146 189 232 285 332
#
# _framework density 20.175550999999999
#
# number of rings (size 3 to 8) (size 9 to 14) (size 15 to 20)
#    0.000    2.500    0.000    1.000    2.333    8.000 
#    3.000    4.583    0.000    0.000    0.000   12.250 
#    0.000    0.000    0.000    0.000    0.000    0.000 
#
# Total GULP energy -133626.533452 kJ/mol
# GULP energy per Si atom -5567.772227 kJ/mol
# Density = 2.012963 g / cm^3
# Si number density = 20.175551 Si / 1000 Ang^3
#
#
#
# Elastic Constant Matrix: (Units=GPa)
#
#
# Indices 1 2 3 4 5 6 
#
# 1 76.7459 42.3988 14.1129 0.0000 -3.8498 0.0000
# 2 42.3988 141.7885 31.7292 0.0000 -13.6561 0.0000
# 3 14.1129 31.7292 22.3481 0.0000 -1.8578 0.0000
# 4 0.0000 0.0000 0.0000 6.6457 0.0000 -1.8122
# 5 -3.8498 -13.6561 -1.8578 0.0000 27.6473 0.0000
# 6 0.0000 0.0000 0.0000 -1.8122 0.0000 28.6591
#
#
#
# Elastic Compliance Matrix: (Units=1/GPa)
#
#
# Indices 1 2 3 4 5 6 
#
# 1 0.015958 -0.003680 -0.004847 0.000000 0.000079 0.000000
# 2 -0.003680 0.011680 -0.013900 0.000000 0.004323 0.000000
# 3 -0.004847 -0.013900 0.067291 0.000000 -0.003019 0.000000
# 4 0.000000 0.000000 0.000000 0.153114 0.000000 0.009682
# 5 0.000079 0.004323 -0.003019 0.000000 0.038113 0.000000
# 6 0.000000 0.000000 0.000000 0.009682 0.000000 0.035505
#
#
# Mechanical properties :
#
#
# Convention : Reuss Voigt Hill
#
# Bulk Modulus (GPa) = 19.96939 46.37382 33.17160
# Shear Modulus (GPa) = 13.04782 22.76652 17.90717
#
# Velocity S-wave (km/s) = 2.54582 3.36284 2.98244
# Velocity P-wave (km/s) = 4.30823 6.17360 5.32326
#
# Compressibility (1/GPa) = 0.05007664
#
# Stress axis : x y z
#
# Youngs Moduli (GPa) = 62.66399 85.61716 14.86088
#
# Poissons Ratio (x) = 0.31505 0.07203
# Poissons Ratio (y) = 0.23059 0.20656
# Poissons Ratio (z) = 0.30371 1.19005
#
# Static dielectric constant tensor:
#      x y z
#    x 1.852610 0.000000 -0.015570 
#    y 0.000000 1.716070 0.000000 
#    z -0.015570 0.000000 1.691100 
# 
# From -- ./inp_files/51477.got.cif
#   From: 2010.05.17/outbox.cif.g08.bks.cpg/sg12_26_cif.got.tgz:51477.got - 2010.06.03 13:09:07.
