data_PCOD9200373
_publ_section_title
;
Structure prediction by ZEFSAII (Michael W. Deem and Ramdas Pophale) SiO2 
 PCOD9200373
Probable space group: C 2/M
;
_chemical_formula_sum "Si O2"
_cell_formula_units_Z 44
_cell_length_a 13.122542
_cell_length_b 18.618486
_cell_length_c 16.034629
_cell_angle_alpha 90.000000
_cell_angle_beta 36.203450
_cell_angle_gamma 90.000000
_cell_volume 2313.953291
_symmetry_space_group_name_H-M "C 2/M"
_symmetry_group_IT_number 12
_symmetry_cell_setting 'monoclinic'
loop_
_space_group_symop_operation_xyz
x,y,z
-x,y,-z
-x,-y,-z
x,-y,z
1/2+x,1/2+y,z
1/2-x,1/2+y,-z
1/2-x,1/2-y,-z
1/2+x,1/2-y,z
loop_
_atom_site_type_symbol
_atom_site_label
_atom_site_fract_x
_atom_site_fract_y
_atom_site_fract_z
Si Si1 0.974629 0.000000 0.797820
Si Si2 0.238181 0.130573 0.619675
Si Si3 0.602983 0.869319 0.303439
Si Si4 0.376975 0.000000 0.002296
Si Si5 0.959318 0.240263 0.779997
Si Si6 0.402250 0.837678 0.975404
Si Si7 0.309957 0.500000 0.086117
O O1 0.820942 0.000000 0.832989
O O2 0.098819 0.067516 0.714323
O O3 0.853309 0.000000 0.960042
O O4 0.298973 0.144666 0.674286
O O5 0.408263 0.108605 0.456605
O O6 0.137800 0.198666 0.649210
O O7 0.587120 0.798459 0.258825
O O8 0.705628 0.930778 0.186440
O O9 0.414556 0.078973 0.938568
O O10 0.500000 0.000000 0.000000
O O11 0.799840 0.184191 0.885796
O O12 0.971323 0.282727 0.859979
O O13 0.500000 0.829492 0.000000
O O14 0.500000 0.500000 0.000000
#
# Coordination Sequence:
#
# PCOD9200373 Si02
#       7
#     4   8   8   4   8   8   4
#     4  12  21  40  65  91 120 155 210 242 318 352
#     4  11  23  40  61  87 125 169 197 252 300 377
#     4  11  24  40  59  91 127 158 208 245 313 360
#     4  10  20  37  57  85 115 150 192 253 291 350
#     4  11  22  37  59  88 123 163 198 249 306 364
#     4  10  21  36  59  90 119 152 205 254 302 349
#     4  12  23  37  65  94 119 158 200 268 301 363
#
# _framework density 19.015077000000002
#
# number of rings (size 3 to 8) (size 9 to 14) (size 15 to 20)
#    0.000    1.091    3.636    3.273    2.545    2.182 
#    0.000    0.000    0.000    0.000    0.000    3.818 
#    0.000    0.000    0.000    0.000    0.000    0.000 
#
# Total GULP energy -122784.421160 kJ/mol
# GULP energy per Si atom -5581.110053 kJ/mol
# Density = 1.897180 g / cm^3
# Si number density = 19.015077 Si / 1000 Ang^3
#
#
#
# Elastic Constant Matrix: (Units=GPa)
#
#
# Indices 1 2 3 4 5 6 
#
# 1 92.2577 49.2374 34.1847 0.0004 -23.5992 -0.0006
# 2 49.2374 126.0814 54.2933 0.0047 -12.0960 -0.0015
# 3 34.1847 54.2933 106.0506 0.0092 -19.7783 -0.0051
# 4 0.0004 0.0047 0.0092 28.2994 -0.0033 -12.7371
# 5 -23.5992 -12.0960 -19.7783 -0.0033 30.5939 0.0008
# 6 -0.0006 -0.0015 -0.0051 -12.7371 0.0008 29.2691
#
#
#
# Elastic Compliance Matrix: (Units=1/GPa)
#
#
# Indices 1 2 3 4 5 6 
#
# 1 0.016461 -0.005112 -0.000794 0.000002 0.010163 0.000001
# 2 -0.005112 0.011777 -0.004831 -0.000001 -0.002410 -0.000001
# 3 -0.000794 -0.004831 0.013291 -0.000002 0.006070 0.000001
# 4 0.000002 -0.000001 -0.000002 0.043943 0.000004 0.019123
# 5 0.010163 -0.002410 0.006070 0.000004 0.043497 0.000002
# 6 0.000001 -0.000001 0.000001 0.019123 0.000002 0.042488
#
#
# Mechanical properties :
#
#
# Convention : Reuss Voigt Hill
#
# Bulk Modulus (GPa) = 49.86067 66.64673 58.25370
# Shear Modulus (GPa) = 25.04834 30.07743 27.56289
#
# Velocity S-wave (km/s) = 3.63338 3.98146 3.81140
# Velocity P-wave (km/s) = 6.62424 7.50077 7.07609
#
# Compressibility (1/GPa) = 0.02005589
#
# Stress axis : x y z
#
# Youngs Moduli (GPa) = 60.74930 84.91398 75.24161
#
# Poissons Ratio (x) = 0.43404 0.05973
# Poissons Ratio (y) = 0.31052 0.36348
# Poissons Ratio (z) = 0.04822 0.41021
#
# Static dielectric constant tensor:
#      x y z
#    x 1.875490 0.000000 -0.039320 
#    y 0.000000 1.672150 0.000000 
#    z -0.039320 0.000000 1.653960 
# 
# From -- ./inp_files/61178.got.cif
#   From: 2010.05.17/outbox.cif.g08.bks.cpg/sg12_31_cif.got.tgz:61178.got - 2010.06.03 13:09:07.
