data_PCOD9200346
_publ_section_title
;
Structure prediction by ZEFSAII (Michael W. Deem and Ramdas Pophale) SiO2 
 PCOD9200346
Probable space group: C 2/M
;
_chemical_formula_sum "Si O2"
_cell_formula_units_Z 56
_cell_length_a 9.682417
_cell_length_b 26.930037
_cell_length_c 12.707945
_cell_angle_alpha 90.000000
_cell_angle_beta 49.791395
_cell_angle_gamma 90.000000
_cell_volume 2530.569840
_symmetry_space_group_name_H-M "C 2/M"
_symmetry_group_IT_number 12
_symmetry_cell_setting 'monoclinic'
loop_
_space_group_symop_operation_xyz
x,y,z
-x,y,-z
-x,-y,-z
x,-y,z
1/2+x,1/2+y,z
1/2-x,1/2+y,-z
1/2-x,1/2-y,-z
1/2+x,1/2-y,z
loop_
_atom_site_type_symbol
_atom_site_label
_atom_site_fract_x
_atom_site_fract_y
_atom_site_fract_z
Si Si1 0.867386 0.394772 0.710223
Si Si2 0.278197 0.367755 0.512834
Si Si3 0.567436 0.557478 0.704885
Si Si4 0.264110 0.807264 0.022710
Si Si5 0.793999 0.705165 0.633394
Si Si6 0.347489 0.593564 0.994591
Si Si7 0.821666 0.689112 0.233997
O O1 0.738374 0.425868 0.695160
O O2 0.807198 0.337445 0.716634
O O3 0.080764 0.392566 0.586983
O O4 0.829707 0.412925 0.847382
O O5 0.420627 0.408127 0.403617
O O6 0.291673 0.321202 0.426212
O O7 0.267745 0.346036 0.634829
O O8 0.580646 0.500000 0.673557
O O9 0.389499 0.568276 0.863245
O O10 0.134415 0.847362 0.033621
O O11 0.236561 0.812830 0.160684
O O12 0.250000 0.750000 0.000000
O O13 0.467520 0.822491 0.889195
O O14 0.693687 0.754305 0.718189
O O15 0.000000 0.718219 0.500000
O O16 0.500000 0.575873 0.000000
#
# Coordination Sequence:
#
# PCOD9200346 Si02
#       7
#     8   8   8   8   8   8   8
#     4   9  18  35  57  83 120 161 192 247 305 359
#     4  10  20  37  57  81 123 161 195 248 302 366
#     4  10  22  37  61  93 117 149 201 261 322 363
#     4  11  25  36  58  89 121 161 212 248 289 354
#     4   9  19  33  54  83 120 161 202 238 291 352
#     4  10  21  38  61  82 126 158 196 252 308 353
#     4  11  23  37  58  85 121 167 209 241 287 367
#
# _framework density 22.129404999999998
#
# number of rings (size 3 to 8) (size 9 to 14) (size 15 to 20)
#    0.000    2.000    1.429    2.571   10.000    4.857 
#    0.000    0.000    0.000    1.714    0.000    2.000 
#    0.000    0.000    0.000    0.000    0.000    0.000 
#
# Total GULP energy -156397.667931 kJ/mol
# GULP energy per Si atom -5585.630998 kJ/mol
# Density = 2.207904 g / cm^3
# Si number density = 22.129405 Si / 1000 Ang^3
#
#
#
# Elastic Constant Matrix: (Units=GPa)
#
#
# Indices 1 2 3 4 5 6 
#
# 1 26.5457 2.8418 27.4806 0.0000 4.3708 0.0000
# 2 2.8418 85.2061 55.2447 0.0000 10.9838 0.0000
# 3 27.4806 55.2447 185.0101 0.0000 19.0914 0.0000
# 4 0.0000 0.0000 0.0000 16.3093 0.0000 -7.1074
# 5 4.3708 10.9838 19.0914 0.0000 30.9384 0.0000
# 6 0.0000 0.0000 0.0000 -7.1074 0.0000 9.3105
#
#
#
# Elastic Compliance Matrix: (Units=1/GPa)
#
#
# Indices 1 2 3 4 5 6 
#
# 1 0.045636 0.003802 -0.007593 0.000000 -0.003112 0.000000
# 2 0.003802 0.015078 -0.004762 0.000000 -0.002951 0.000000
# 3 -0.007593 -0.004762 0.008191 0.000000 -0.002291 0.000000
# 4 0.000000 0.000000 0.000000 0.091880 0.000000 0.070139
# 5 -0.003112 -0.002951 -0.002291 0.000000 0.035224 0.000000
# 6 0.000000 0.000000 0.000000 0.070139 0.000000 0.160947
#
#
# Mechanical properties :
#
#
# Convention : Reuss Voigt Hill
#
# Bulk Modulus (GPa) = 19.30538 51.98846 35.64692
# Shear Modulus (GPa) = 12.77695 25.39130 19.08412
#
# Velocity S-wave (km/s) = 2.40547 3.39101 2.93983
# Velocity P-wave (km/s) = 4.05683 6.23505 5.25993
#
# Compressibility (1/GPa) = 0.05179904
#
# Stress axis : x y z
#
# Youngs Moduli (GPa) = 21.91230 66.32315 122.07857
#
# Poissons Ratio (x) = -0.25216 0.92692
# Poissons Ratio (y) = -0.08331 0.58139
# Poissons Ratio (z) = 0.16638 0.31586
#
# Static dielectric constant tensor:
#      x y z
#    x 1.869140 0.000000 0.000180 
#    y 0.000000 1.772630 0.000000 
#    z 0.000180 0.000000 1.860190 
# 
# From -- ./inp_files/136922.got.cif
#   From: 2010.05.17/outbox.cif.g08.bks.cpg/sg12_69_cif.got.tgz:136922.got - 2010.06.03 13:09:07.
