data_PCOD9200102
_publ_section_title
;
Structure prediction by ZEFSAII (Michael W. Deem and Ramdas Pophale) SiO2 
 PCOD9200102
Probable space group: C 2/M
;
_chemical_formula_sum "Si O2"
_cell_formula_units_Z 64
_cell_length_a 21.890691
_cell_length_b 14.992849
_cell_length_c 9.460929
_cell_angle_alpha 90.000000
_cell_angle_beta 90.809522
_cell_angle_gamma 90.000000
_cell_volume 3104.803161
_symmetry_space_group_name_H-M "C 2/M"
_symmetry_group_IT_number 12
_symmetry_cell_setting 'monoclinic'
loop_
_space_group_symop_operation_xyz
x,y,z
-x,y,-z
-x,-y,-z
x,-y,z
1/2+x,1/2+y,z
1/2-x,1/2+y,-z
1/2-x,1/2-y,-z
1/2+x,1/2-y,z
loop_
_atom_site_type_symbol
_atom_site_label
_atom_site_fract_x
_atom_site_fract_y
_atom_site_fract_z
Si Si1 0.944543 0.274165 0.603290
Si Si2 0.048660 0.603925 0.123038
Si Si3 0.357825 0.207270 0.356270
Si Si4 0.877770 0.097230 0.700759
Si Si5 0.334665 0.841905 0.045462
Si Si6 0.749007 0.099083 0.537218
Si Si7 0.304423 0.637511 0.973449
Si Si8 0.672258 0.402441 0.705382
O O1 0.958591 0.337113 0.736740
O O2 0.896890 0.320213 0.493135
O O3 0.918271 0.182013 0.664534
O O4 0.000000 0.255103 0.500000
O O5 0.038133 0.500000 0.154903
O O6 0.116726 0.615391 0.059286
O O7 0.000000 0.631095 0.000000
O O8 0.289966 0.177379 0.397908
O O9 0.364254 0.313805 0.338129
O O10 0.366313 0.165886 0.201094
O O11 0.816821 0.102350 0.603391
O O12 0.850294 0.102689 0.857045
O O13 0.907084 0.000000 0.680591
O O14 0.317885 0.743419 0.986429
O O15 0.266769 0.882960 0.062363
O O16 0.762190 0.106593 0.370985
O O17 0.723053 0.000000 0.567151
O O18 0.318434 0.600664 0.128067
O O19 0.647016 0.500000 0.664602
#
# Coordination Sequence:
#
# PCOD9200102 Si02
#       8
#     8   8   8   8   8   8   8   8
#     4  12  27  45  69  95 123 170 223 274 322 377
#     4  11  26  48  72  95 126 169 219 269 320 382
#     4  11  22  38  65  89 131 170 211 263 315 383
#     4  11  22  41  66  96 134 172 210 259 324 390
#     4  10  21  38  63  98 131 173 216 259 318 381
#     4  10  21  36  58  93 133 171 206 252 320 389
#     4  10  20  36  63  97 135 172 211 259 319 387
#     4  10  21  34  56  93 134 170 207 252 309 379
#
# _framework density 20.613223999999999
#
# number of rings (size 3 to 8) (size 9 to 14) (size 15 to 20)
#    0.000    1.375    3.750    1.500    1.750    2.500 
#    0.000    0.000    0.000    0.375    0.000    0.000 
#    0.000    0.000    0.000    0.000    0.000    0.000 
#
# Total GULP energy -178589.823080 kJ/mol
# GULP energy per Si atom -5580.931971 kJ/mol
# Density = 2.056631 g / cm^3
# Si number density = 20.613224 Si / 1000 Ang^3
#
#
#
# Elastic Constant Matrix: (Units=GPa)
#
#
# Indices 1 2 3 4 5 6 
#
# 1 56.8694 34.5720 42.3438 0.0000 -5.6683 0.0000
# 2 34.5720 87.6438 47.5729 0.0000 -0.6322 0.0000
# 3 42.3438 47.5729 152.7300 0.0000 -8.7718 0.0000
# 4 0.0000 0.0000 0.0000 3.7791 0.0000 -3.4699
# 5 -5.6683 -0.6322 -8.7718 0.0000 36.4071 0.0000
# 6 0.0000 0.0000 0.0000 -3.4699 0.0000 8.2979
#
#
#
# Elastic Compliance Matrix: (Units=1/GPa)
#
#
# Indices 1 2 3 4 5 6 
#
# 1 0.026016 -0.007719 -0.004648 0.000000 0.002797 0.000000
# 2 -0.007719 0.016045 -0.002951 0.000000 -0.001634 0.000000
# 3 -0.004648 -0.002951 0.008833 0.000000 0.001353 0.000000
# 4 0.000000 0.000000 0.000000 0.429534 0.000000 0.179613
# 5 0.002797 -0.001634 0.001353 0.000000 0.028200 0.000000
# 6 0.000000 0.000000 0.000000 0.179613 0.000000 0.195618
#
#
# Mechanical properties :
#
#
# Convention : Reuss Voigt Hill
#
# Bulk Modulus (GPa) = 49.36528 60.69118 55.02823
# Shear Modulus (GPa) = 6.74184 21.21379 13.97782
#
# Velocity S-wave (km/s) = 1.81045 3.21149 2.60686
# Velocity P-wave (km/s) = 5.32641 6.57711 5.98452
#
# Compressibility (1/GPa) = 0.02025715
#
# Stress axis : x y z
#
# Youngs Moduli (GPa) = 38.43733 62.32434 113.20982
#
# Poissons Ratio (x) = 0.48111 0.52618
# Poissons Ratio (y) = 0.29671 0.33413
# Poissons Ratio (z) = 0.17865 0.18395
#
# Static dielectric constant tensor:
#      x y z
#    x 1.764150 0.000000 0.002410 
#    y 0.000000 1.770500 0.000000 
#    z 0.002410 0.000000 1.767310 
# 
# From -- ./inp_files/96912.got.cif
#   From: 2010.05.17/outbox.cif.g08.bks.cpg/sg12_49_cif.got.tgz:96912.got - 2010.06.03 13:09:07.
