data_PCOD9200622
_publ_section_title
;
Structure prediction by ZEFSAII (Michael W. Deem and Ramdas Pophale) SiO2 
 PCOD9200622
Probable space group: C 2/M
;
_chemical_formula_sum "Si O2"
_cell_formula_units_Z 48
_cell_length_a 29.121085
_cell_length_b 8.459875
_cell_length_c 10.544446
_cell_angle_alpha 90.000000
_cell_angle_beta 90.284513
_cell_angle_gamma 90.000000
_cell_volume 2597.705481
_symmetry_space_group_name_H-M "C 2/M"
_symmetry_group_IT_number 12
_symmetry_cell_setting 'monoclinic'
loop_
_space_group_symop_operation_xyz
x,y,z
-x,y,-z
-x,-y,-z
x,-y,z
1/2+x,1/2+y,z
1/2-x,1/2+y,-z
1/2-x,1/2-y,-z
1/2+x,1/2-y,z
loop_
_atom_site_type_symbol
_atom_site_label
_atom_site_fract_x
_atom_site_fract_y
_atom_site_fract_z
Si Si1 0.050774 0.192267 0.853623
Si Si2 0.197957 0.810718 0.491288
Si Si3 0.644844 0.308933 0.741095
Si Si4 0.353887 0.811272 0.756921
Si Si5 0.447493 0.308997 0.851388
Si Si6 0.198246 0.310110 0.987819
O O1 0.092706 0.246359 0.766846
O O2 0.999240 0.241591 0.816358
O O3 0.050539 0.000000 0.852901
O O4 0.059262 0.238370 0.000702
O O5 0.250000 0.750000 0.500000
O O6 0.168463 0.753137 0.612024
O O7 0.173140 0.758051 0.362480
O O8 0.199279 0.000000 0.495521
O O9 0.644007 0.500000 0.737752
O O10 0.674789 0.256916 0.861660
O O11 0.406742 0.758992 0.766879
O O12 0.351146 0.000000 0.750830
O O13 0.329793 0.758435 0.887737
O O14 0.445520 0.500000 0.846500
O O15 0.197762 0.500000 0.982617
O O16 0.250000 0.250000 0.000000
#
# Coordination Sequence:
#
# PCOD9200622 Si02
#       6
#     8   8   8   8   8   8
#     4   8  15  30  56  87 113 139 178 227 277 329
#     4  11  24  40  59  81 109 150 190 228 279 332
#     4  10  20  37  59  83 110 141 182 231 279 327
#     4  11  23  38  55  81 115 149 186 227 272 328
#     4   9  16  31  58  86 111 144 181 223 277 328
#     4  11  23  36  54  81 109 141 183 230 279 327
#
# _framework density 18.477846
#
# number of rings (size 3 to 8) (size 9 to 14) (size 15 to 20)
#    0.000    2.000    1.667    3.500    0.000    7.333 
#    0.000    3.333    0.000    5.000    0.000    0.000 
#    0.000    0.000    0.000    0.000    0.000    0.000 
#
# Total GULP energy -133993.394209 kJ/mol
# GULP energy per Si atom -5583.058092 kJ/mol
# Density = 1.843579 g / cm^3
# Si number density = 18.477846 Si / 1000 Ang^3
#
#
#
# Elastic Constant Matrix: (Units=GPa)
#
#
# Indices 1 2 3 4 5 6 
#
# 1 158.8437 18.4451 55.6464 0.0000 6.8946 0.0000
# 2 18.4451 16.5445 18.4854 0.0000 -1.3491 0.0000
# 3 55.6464 18.4854 101.4567 0.0000 6.4912 0.0000
# 4 0.0000 0.0000 0.0000 24.4649 0.0000 4.5847
# 5 6.8946 -1.3491 6.4912 0.0000 33.2277 0.0000
# 6 0.0000 0.0000 0.0000 4.5847 0.0000 28.6343
#
#
#
# Elastic Compliance Matrix: (Units=1/GPa)
#
#
# Indices 1 2 3 4 5 6 
#
# 1 0.008174 -0.005393 -0.003421 0.000000 -0.001247 0.000000
# 2 -0.005393 0.080592 -0.012159 0.000000 0.006767 0.000000
# 3 -0.003421 -0.012159 0.014111 0.000000 -0.002540 0.000000
# 4 0.000000 0.000000 0.000000 0.042139 0.000000 -0.006747
# 5 -0.001247 0.006767 -0.002540 0.000000 0.031125 0.000000
# 6 0.000000 0.000000 0.000000 -0.006747 0.000000 0.036003
#
#
# Mechanical properties :
#
#
# Convention : Reuss Voigt Hill
#
# Bulk Modulus (GPa) = 16.41182 51.33319 33.87250
# Shear Modulus (GPa) = 18.22150 29.54992 23.88571
#
# Velocity S-wave (km/s) = 3.14367 4.00335 3.59927
# Velocity P-wave (km/s) = 4.69873 7.01501 5.97028
#
# Compressibility (1/GPa) = 0.06093169
#
# Stress axis : x y z
#
# Youngs Moduli (GPa) = 122.33487 12.40815 70.86808
#
# Poissons Ratio (x) = 0.06691 0.24245
# Poissons Ratio (y) = 0.65970 0.86169
# Poissons Ratio (z) = 0.41852 0.15087
#
# Static dielectric constant tensor:
#      x y z
#    x 1.640380 0.000000 -0.030010 
#    y 0.000000 1.600910 0.000000 
#    z -0.030010 0.000000 1.615200 
# 
# From -- ./inp_files/108703.got.cif
#   From: 2010.05.17/outbox.cif.g08.bks.cpg/sg12_55_cif.got.tgz:108703.got - 2010.06.03 13:09:07.
