data_PCOD9200380
_publ_section_title
;
Structure prediction by ZEFSAII (Michael W. Deem and Ramdas Pophale) SiO2 
 PCOD9200380
Probable space group: C 2/M
;
_chemical_formula_sum "Si O2"
_cell_formula_units_Z 56
_cell_length_a 11.503801
_cell_length_b 22.916596
_cell_length_c 12.553304
_cell_angle_alpha 90.000000
_cell_angle_beta 60.261277
_cell_angle_gamma 90.000000
_cell_volume 2873.541987
_symmetry_space_group_name_H-M "C 2/M"
_symmetry_group_IT_number 12
_symmetry_cell_setting 'monoclinic'
loop_
_space_group_symop_operation_xyz
x,y,z
-x,y,-z
-x,-y,-z
x,-y,z
1/2+x,1/2+y,z
1/2-x,1/2+y,-z
1/2-x,1/2-y,-z
1/2+x,1/2-y,z
loop_
_atom_site_type_symbol
_atom_site_label
_atom_site_fract_x
_atom_site_fract_y
_atom_site_fract_z
Si Si1 0.444015 0.388562 0.859614
Si Si2 0.060356 0.662472 0.253230
Si Si3 0.000469 0.241780 0.125844
Si Si4 0.700822 0.240498 0.357489
Si Si5 0.707176 0.569442 0.868887
Si Si6 0.547639 0.566839 0.600519
Si Si7 0.233462 0.656489 0.543508
O O1 0.431269 0.318641 0.869325
O O2 0.587098 0.406976 0.847753
O O3 0.447333 0.408822 0.736049
O O4 0.339157 0.418017 0.988070
O O5 0.066799 0.699924 0.142091
O O6 0.096728 0.711970 0.324297
O O7 0.164449 0.609730 0.211610
O O8 0.909360 0.641166 0.341020
O O9 0.848252 0.239637 0.238117
O O10 0.000000 0.241989 0.000000
O O11 0.681048 0.305968 0.409543
O O12 0.705156 0.199371 0.458245
O O13 0.724865 0.500000 0.845406
O O14 0.500000 0.569580 0.500000
O O15 0.572694 0.500000 0.617087
O O16 0.682898 0.603674 0.540371
#
# Coordination Sequence:
#
# PCOD9200380 Si02
#       7
#     8   8   8   8   8   8   8
#     4  11  20  40  63  92 119 158 210 260 309 351
#     4  11  23  38  61  92 123 160 199 247 311 370
#     4  11  21  37  60  91 123 151 199 262 306 359
#     4  10  20  37  57  87 121 155 198 241 307 364
#     4  11  22  39  65  92 124 163 205 254 306 367
#     4  11  24  40  60  88 121 162 209 251 299 363
#     4  10  22  37  60  87 120 162 195 248 300 363
#
# _framework density 19.488143999999998
#
# number of rings (size 3 to 8) (size 9 to 14) (size 15 to 20)
#    0.000    1.286    4.286    2.143    2.000    2.857 
#    2.571    0.000    0.000    3.857    0.000    0.000 
#    0.000    0.000    0.000    0.000    0.000    0.000 
#
# Total GULP energy -156422.380962 kJ/mol
# GULP energy per Si atom -5586.513606 kJ/mol
# Density = 1.944379 g / cm^3
# Si number density = 19.488144 Si / 1000 Ang^3
#
#
#
# Elastic Constant Matrix: (Units=GPa)
#
#
# Indices 1 2 3 4 5 6 
#
# 1 24.8728 5.3673 5.8445 0.0000 -10.5365 0.0000
# 2 5.3673 49.4925 19.1023 0.0000 -2.7066 0.0000
# 3 5.8445 19.1023 92.1945 0.0000 7.8245 0.0000
# 4 0.0000 0.0000 0.0000 14.0400 0.0000 -5.1526
# 5 -10.5365 -2.7066 7.8245 0.0000 25.3588 0.0000
# 6 0.0000 0.0000 0.0000 -5.1526 0.0000 6.6854
#
#
#
# Elastic Compliance Matrix: (Units=1/GPa)
#
#
# Indices 1 2 3 4 5 6 
#
# 1 0.051379 -0.002551 -0.004639 0.000000 0.022507 0.000000
# 2 -0.002551 0.022460 -0.004729 0.000000 0.002797 0.000000
# 3 -0.004639 -0.004729 0.012658 0.000000 -0.006338 0.000000
# 4 0.000000 0.000000 0.000000 0.099317 0.000000 0.076547
# 5 0.022507 0.002797 -0.006338 0.000000 0.051040 0.000000
# 6 0.000000 0.000000 0.000000 0.076547 0.000000 0.208578
#
#
# Mechanical properties :
#
#
# Convention : Reuss Voigt Hill
#
# Bulk Modulus (GPa) = 15.95906 25.24313 20.60109
# Shear Modulus (GPa) = 10.20082 18.29989 14.25035
#
# Velocity S-wave (km/s) = 2.29036 3.06768 2.70706
# Velocity P-wave (km/s) = 3.89887 5.05260 4.51276
#
# Compressibility (1/GPa) = 0.06266032
#
# Stress axis : x y z
#
# Youngs Moduli (GPa) = 19.46307 44.52372 78.99849
#
# Poissons Ratio (x) = 0.11357 0.36646
# Poissons Ratio (y) = 0.04964 0.37360
# Poissons Ratio (z) = 0.09028 0.21056
#
# Static dielectric constant tensor:
#      x y z
#    x 1.696770 0.000000 0.013760 
#    y 0.000000 1.665060 0.000000 
#    z 0.013760 0.000000 1.695380 
# 
# From -- ./inp_files/135262.got.cif
#   From: 2010.05.17/outbox.cif.g08.bks.cpg/sg12_68_cif.got.tgz:135262.got - 2010.06.03 13:09:07.
