data_PCOD9200040
_publ_section_title
;
Structure prediction by ZEFSAII (Michael W. Deem and Ramdas Pophale) SiO2 
 PCOD9200040
Probable space group: C 2/M
;
_chemical_formula_sum "Si O2"
_cell_formula_units_Z 64
_cell_length_a 16.427066
_cell_length_b 18.098664
_cell_length_c 19.791116
_cell_angle_alpha 90.000000
_cell_angle_beta 147.227871
_cell_angle_gamma 90.000000
_cell_volume 3185.035208
_symmetry_space_group_name_H-M "C 2/M"
_symmetry_group_IT_number 12
_symmetry_cell_setting 'monoclinic'
loop_
_space_group_symop_operation_xyz
x,y,z
-x,y,-z
-x,-y,-z
x,-y,z
1/2+x,1/2+y,z
1/2-x,1/2+y,-z
1/2-x,1/2-y,-z
1/2+x,1/2-y,z
loop_
_atom_site_type_symbol
_atom_site_label
_atom_site_fract_x
_atom_site_fract_y
_atom_site_fract_z
Si Si1 0.627493 0.580901 0.530511
Si Si2 0.903284 0.296886 0.110907
Si Si3 0.953046 0.079723 0.267820
Si Si4 0.849263 0.350543 0.936520
Si Si5 0.850530 0.913259 0.850334
Si Si6 0.139674 0.708359 0.767094
Si Si7 0.108345 0.166209 0.259573
Si Si8 0.109150 0.754869 0.511873
O O1 0.500000 0.581423 0.500000
O O2 0.707117 0.500000 0.593533
O O3 0.551802 0.580436 0.403929
O O4 0.691196 0.664763 0.575623
O O5 0.916720 0.317420 0.198525
O O6 0.033531 0.240937 0.179503
O O7 0.750000 0.250000 0.000000
O O8 0.887570 0.357810 0.042644
O O9 0.782829 0.092818 0.171817
O O10 0.004703 0.138840 0.248672
O O11 0.969700 0.000000 0.246241
O O12 0.768829 0.271171 0.866077
O O13 0.000000 0.357994 0.000000
O O14 0.717479 0.859779 0.783067
O O15 0.882488 0.891097 0.795096
O O16 0.813549 0.000000 0.830187
O O17 0.000000 0.899567 0.000000
O O18 0.001279 0.744245 0.629107
O O19 0.269396 0.189990 0.400597
O O20 0.000000 0.748767 0.500000
#
# Coordination Sequence:
#
# PCOD9200040 Si02
#       8
#     8   8   8   8   8   8   8   8
#     4   9  19  37  59  86 122 164 206 254 312 373
#     4  10  20  36  63  90 121 158 211 271 320 362
#     4  11  23  40  60  89 126 161 208 264 325 387
#     4  11  22  38  64  92 122 164 211 269 319 384
#     4  11  24  40  64  94 128 171 212 260 324 388
#     4  11  20  41  59  94 128 164 213 268 315 373
#     4  12  22  41  63  96 124 170 220 261 312 390
#     4  11  22  37  64  94 125 166 213 263 306 376
#
# _framework density 20.093969999999999
#
# number of rings (size 3 to 8) (size 9 to 14) (size 15 to 20)
#    0.000    1.250    5.000    3.000    0.000    2.250 
#    0.000    1.875    0.000    1.500    0.000    0.000 
#    0.000    0.500    0.000    0.000    0.000    0.000 
#
# Total GULP energy -178499.585848 kJ/mol
# GULP energy per Si atom -5578.112058 kJ/mol
# Density = 2.004824 g / cm^3
# Si number density = 20.093970 Si / 1000 Ang^3
#
#
#
# Elastic Constant Matrix: (Units=GPa)
#
#
# Indices 1 2 3 4 5 6 
#
# 1 75.3996 11.8212 23.7896 0.0026 -9.9785 0.0013
# 2 11.8212 78.4700 19.6123 0.0018 5.6870 0.0007
# 3 23.7896 19.6123 58.5208 0.0022 -2.8888 0.0012
# 4 0.0026 0.0018 0.0022 19.6067 0.0013 -6.2367
# 5 -9.9785 5.6870 -2.8888 0.0013 29.0317 0.0007
# 6 0.0013 0.0007 0.0012 -6.2367 0.0007 17.2127
#
#
#
# Elastic Compliance Matrix: (Units=1/GPa)
#
#
# Indices 1 2 3 4 5 6 
#
# 1 0.015986 -0.001335 -0.005795 -0.000002 0.005179 -0.000002
# 2 -0.001335 0.014323 -0.004440 0.000000 -0.003706 0.000000
# 3 -0.005795 -0.004440 0.020980 -0.000002 0.000965 -0.000002
# 4 -0.000002 0.000000 -0.000002 0.057647 -0.000004 0.020887
# 5 0.005179 -0.003706 0.000965 -0.000004 0.037047 -0.000003
# 6 -0.000002 0.000000 -0.000002 0.020887 -0.000003 0.065664
#
#
# Mechanical properties :
#
#
# Convention : Reuss Voigt Hill
#
# Bulk Modulus (GPa) = 35.52782 35.87075 35.69928
# Shear Modulus (GPa) = 20.47738 23.64806 22.06272
#
# Velocity S-wave (km/s) = 3.19577 3.43428 3.31717
# Velocity P-wave (km/s) = 5.59790 5.79793 5.69879
#
# Compressibility (1/GPa) = 0.02814696
#
# Stress axis : x y z
#
# Youngs Moduli (GPa) = 62.55485 69.81641 47.66524
#
# Poissons Ratio (x) = 0.09321 0.27624
# Poissons Ratio (y) = 0.08352 0.21165
# Poissons Ratio (z) = 0.36253 0.31001
#
# Static dielectric constant tensor:
#      x y z
#    x 1.699260 0.000000 -0.001900 
#    y 0.000000 1.758560 0.000000 
#    z -0.001900 0.000000 1.729780 
# 
# From -- ./inp_files/271764.got.cif
#   From: 2010.05.17/outbox.cif.g08.bks.cpg/sg12_136_cif.got.tgz:271764.got - 2010.06.03 13:09:07.
