data_PCOD9200848
_publ_section_title
;
Structure prediction by ZEFSAII (Michael W. Deem and Ramdas Pophale) SiO2 
 PCOD9200848
Probable space group: C 2/M
;
_chemical_formula_sum "Si O2"
_cell_formula_units_Z 40
_cell_length_a 9.854592
_cell_length_b 18.147297
_cell_length_c 25.847795
_cell_angle_alpha 90.000000
_cell_angle_beta 152.194982
_cell_angle_gamma 90.000000
_cell_volume 2156.216331
_symmetry_space_group_name_H-M "C 2/M"
_symmetry_group_IT_number 12
_symmetry_cell_setting 'monoclinic'
loop_
_space_group_symop_operation_xyz
x,y,z
-x,y,-z
-x,-y,-z
x,-y,z
1/2+x,1/2+y,z
1/2-x,1/2+y,-z
1/2-x,1/2-y,-z
1/2+x,1/2-y,z
loop_
_atom_site_type_symbol
_atom_site_label
_atom_site_fract_x
_atom_site_fract_y
_atom_site_fract_z
Si Si1 0.754766 0.412920 0.544293
Si Si2 0.325151 0.669654 0.776543
Si Si3 0.156958 0.914952 0.395926
Si Si4 0.707852 0.686290 0.803921
Si Si5 0.820232 0.582324 0.993099
O O1 0.500000 0.405473 0.500000
O O2 0.836574 0.500000 0.567840
O O3 0.630136 0.390665 0.446342
O O4 0.034573 0.366017 0.654804
O O5 0.535373 0.694011 0.800031
O O6 0.256731 0.737531 0.790943
O O7 0.502064 0.609389 0.869496
O O8 0.500000 0.912191 0.500000
O O9 0.985539 0.865130 0.298274
O O10 0.061436 0.000000 0.358698
O O11 0.009398 0.643112 0.916183
O O12 0.820530 0.500000 0.016043
O O13 0.000000 0.578461 0.000000
#
# Coordination Sequence:
#
# PCOD9200848 Si02
#       5
#     8   8   8   8   8
#     4  10  22  39  60  85 115 153 194 238 286 335
#     4  11  23  38  59  86 119 153 189 236 287 343
#     4  10  20  37  60  84 113 150 196 241 278 331
#     4  11  23  37  59  88 118 152 189 235 290 341
#     4   9  19  38  64  87 109 146 196 240 281 336
#
# _framework density 18.551015
#
# number of rings (size 3 to 8) (size 9 to 14) (size 15 to 20)
#    0.000    1.800    2.000    1.800    2.800    3.200 
#    0.000    0.000    0.000    1.200    0.000    0.000 
#    0.000    0.000    0.000    0.000    0.000    0.000 
#
# Total GULP energy -111672.027927 kJ/mol
# GULP energy per Si atom -5583.601396 kJ/mol
# Density = 1.850879 g / cm^3
# Si number density = 18.551015 Si / 1000 Ang^3
#
#
#
# Elastic Constant Matrix: (Units=GPa)
#
#
# Indices 1 2 3 4 5 6 
#
# 1 75.9085 17.7245 5.3615 -0.0012 -8.6108 0.0005
# 2 17.7245 69.9630 19.7700 0.0033 -0.2524 0.0014
# 3 5.3615 19.7700 55.0017 0.0147 -3.1552 0.0033
# 4 -0.0012 0.0033 0.0147 36.4700 -0.0049 -5.3773
# 5 -8.6108 -0.2524 -3.1552 -0.0049 17.9822 0.0019
# 6 0.0005 0.0014 0.0033 -5.3773 0.0019 19.6256
#
#
#
# Elastic Compliance Matrix: (Units=1/GPa)
#
#
# Indices 1 2 3 4 5 6 
#
# 1 0.014852 -0.003833 0.000338 0.000002 0.007118 0.000000
# 2 -0.003833 0.016909 -0.005855 0.000000 -0.002625 0.000000
# 3 0.000338 -0.005855 0.020463 -0.000008 0.003670 -0.000006
# 4 0.000002 0.000000 -0.000008 0.028574 0.000006 0.007829
# 5 0.007118 -0.002625 0.003670 0.000006 0.059626 -0.000005
# 6 0.000000 0.000000 -0.000006 0.007829 -0.000005 0.053099
#
#
# Mechanical properties :
#
#
# Convention : Reuss Voigt Hill
#
# Bulk Modulus (GPa) = 29.82754 31.84281 30.83517
# Shear Modulus (GPa) = 22.38158 25.35003 23.86581
#
# Velocity S-wave (km/s) = 3.47722 3.70064 3.59067
# Velocity P-wave (km/s) = 5.67759 5.95499 5.81794
#
# Compressibility (1/GPa) = 0.03352606
#
# Stress axis : x y z
#
# Youngs Moduli (GPa) = 67.33035 59.13938 48.86784
#
# Poissons Ratio (x) = 0.22665 -0.01652
# Poissons Ratio (y) = 0.25804 0.28612
# Poissons Ratio (z) = -0.02276 0.34626
#
# Static dielectric constant tensor:
#      x y z
#    x 1.646460 0.000000 -0.005720 
#    y 0.000000 1.638270 0.000000 
#    z -0.005720 0.000000 1.615900 
# 
# From -- ./inp_files/118908.got.cif
#   From: 2010.05.17/outbox.cif.g08.bks.cpg/sg12_60_cif.got.tgz:118908.got - 2010.06.03 13:09:07.
