data_PCOD9200474
_publ_section_title
;
Structure prediction by ZEFSAII (Michael W. Deem and Ramdas Pophale) SiO2 
 PCOD9200474
Probable space group: C 2/M
;
_chemical_formula_sum "Si O2"
_cell_formula_units_Z 44
_cell_length_a 19.221125
_cell_length_b 14.661336
_cell_length_c 8.306334
_cell_angle_alpha 90.000000
_cell_angle_beta 63.518471
_cell_angle_gamma 90.000000
_cell_volume 2095.186565
_symmetry_space_group_name_H-M "C 2/M"
_symmetry_group_IT_number 12
_symmetry_cell_setting 'monoclinic'
loop_
_space_group_symop_operation_xyz
x,y,z
-x,y,-z
-x,-y,-z
x,-y,z
1/2+x,1/2+y,z
1/2-x,1/2+y,-z
1/2-x,1/2-y,-z
1/2+x,1/2-y,z
loop_
_atom_site_type_symbol
_atom_site_label
_atom_site_fract_x
_atom_site_fract_y
_atom_site_fract_z
Si Si1 0.000000 0.754008 0.000000
Si Si2 0.744063 0.737110 0.817989
Si Si3 0.234365 0.403137 0.612357
Si Si4 0.630081 0.393512 0.769206
Si Si5 0.039412 0.396203 0.206972
Si Si6 0.620779 0.862436 0.442861
O O1 0.941736 0.823106 0.152761
O O2 0.046675 0.683962 0.068404
O O3 0.710941 0.821620 0.751763
O O4 0.691197 0.648970 0.834530
O O5 0.830430 0.726589 0.654212
O O6 0.750000 0.750000 0.000000
O O7 0.229198 0.500000 0.704086
O O8 0.319929 0.391902 0.446888
O O9 0.178160 0.405464 0.515485
O O10 0.610151 0.500000 0.822058
O O11 0.030797 0.500000 0.152297
O O12 0.103745 0.400418 0.281694
O O13 0.960759 0.366453 0.381877
#
# Coordination Sequence:
#
# PCOD9200474 Si02
#       6
#     4   8   8   8   8   8
#     4  12  22  38  58  86 118 150 194 246 290 340
#     4  11  22  38  59  89 118 148 190 241 291 341
#     4  10  20  38  62  86 114 151 191 234 284 344
#     4  10  22  39  60  82 113 156 196 234 282 339
#     4  11  22  36  57  86 118 153 189 236 294 349
#     4  10  20  37  58  82 117 156 193 230 281 347
#
# _framework density 21.000516999999999
#
# number of rings (size 3 to 8) (size 9 to 14) (size 15 to 20)
#    0.000    1.455    0.000    8.182    0.000    2.182 
#    0.000    4.545    0.000    0.000    0.000   17.818 
#    0.000    0.000    0.000    0.000    0.000    0.000 
#
# Total GULP energy -122547.145261 kJ/mol
# GULP energy per Si atom -5570.324785 kJ/mol
# Density = 2.095272 g / cm^3
# Si number density = 21.000517 Si / 1000 Ang^3
#
#
#
# Elastic Constant Matrix: (Units=GPa)
#
#
# Indices 1 2 3 4 5 6 
#
# 1 76.1424 55.3001 27.7307 0.0000 1.8800 0.0000
# 2 55.3001 177.7425 69.8338 0.0000 13.2356 0.0000
# 3 27.7307 69.8338 59.3693 0.0000 9.4634 0.0000
# 4 0.0000 0.0000 0.0000 3.7608 0.0000 0.2487
# 5 1.8800 13.2356 9.4634 0.0000 36.1562 0.0000
# 6 0.0000 0.0000 0.0000 0.2487 0.0000 -5.1454
#
#
#
# Elastic Compliance Matrix: (Units=1/GPa)
#
#
# Indices 1 2 3 4 5 6 
#
# 1 0.017379 -0.004157 -0.003471 0.000000 0.001527 0.000000
# 2 -0.004157 0.011469 -0.011389 0.000000 -0.001001 0.000000
# 3 -0.003471 -0.011389 0.032525 0.000000 -0.004163 0.000000
# 4 0.000000 0.000000 0.000000 0.265053 0.000000 0.012809
# 5 0.001527 -0.001001 -0.004163 0.000000 0.029035 0.000000
# 6 0.000000 0.000000 0.000000 0.012809 0.000000 -0.193730
#
#
# Mechanical properties :
#
#
# Convention : Reuss Voigt Hill
#
# Bulk Modulus (GPa) = 42.84754 68.77592 55.81173
# Shear Modulus (GPa) = 24.09137 17.64696 20.86916
#
# Velocity S-wave (km/s) = 3.39068 2.90196 3.15579
# Velocity P-wave (km/s) = 5.98133 6.63696 6.31765
#
# Compressibility (1/GPa) = 0.02333856
#
# Stress axis : x y z
#
# Youngs Moduli (GPa) = 57.54141 87.19487 30.74554
#
# Poissons Ratio (x) = 0.36245 0.10673
# Poissons Ratio (y) = 0.23919 0.35016
# Poissons Ratio (z) = 0.19974 0.99305
#
# Static dielectric constant tensor:
#      x y z
#    x 1.807300 0.000000 -0.036860 
#    y 0.000000 1.779820 0.000000 
#    z -0.036860 0.000000 1.752020 
# 
# From -- ./inp_files/72939.got.cif
#   From: 2010.05.17/outbox.cif.g08.bks.cpg/sg12_37_cif.got.tgz:72939.got - 2010.06.03 13:09:07.
