data_PCOD9200132
_publ_section_title
;
Structure prediction by ZEFSAII (Michael W. Deem and Ramdas Pophale) SiO2 
 PCOD9200132
Probable space group: C 2/M
;
_chemical_formula_sum "Si O2"
_cell_formula_units_Z 48
_cell_length_a 19.006718
_cell_length_b 14.060035
_cell_length_c 24.479699
_cell_angle_alpha 90.000000
_cell_angle_beta 21.841380
_cell_angle_gamma 90.000000
_cell_volume 2433.813333
_symmetry_space_group_name_H-M "C 2/M"
_symmetry_group_IT_number 12
_symmetry_cell_setting 'monoclinic'
loop_
_space_group_symop_operation_xyz
x,y,z
-x,y,-z
-x,-y,-z
x,-y,z
1/2+x,1/2+y,z
1/2-x,1/2+y,-z
1/2-x,1/2-y,-z
1/2+x,1/2-y,z
loop_
_atom_site_type_symbol
_atom_site_label
_atom_site_fract_x
_atom_site_fract_y
_atom_site_fract_z
Si Si1 0.476377 0.785129 0.154249
Si Si2 0.949643 0.109289 0.732391
Si Si3 0.192495 0.889329 0.283564
Si Si4 0.906949 0.720781 0.515623
Si Si5 0.658819 0.201943 0.132403
Si Si6 0.613904 0.888579 0.582587
O O1 0.381844 0.853331 0.177354
O O2 0.303216 0.742103 0.313249
O O3 0.600069 0.830390 0.114070
O O4 0.614147 0.707106 0.027790
O O5 0.167578 0.127546 0.556669
O O6 0.813773 0.118970 0.777681
O O7 0.898757 0.188299 0.813135
O O8 0.940048 0.000000 0.758657
O O9 0.026396 0.818300 0.422482
O O10 0.156352 0.000000 0.322801
O O11 0.913911 0.666637 0.453829
O O12 0.000000 0.667162 0.500000
O O13 0.538226 0.144705 0.263433
O O14 0.593232 0.000000 0.588220
#
# Coordination Sequence:
#
# PCOD9200132 Si02
#       6
#     8   8   8   8   8   8
#     4  10  23  36  59  88 128 167 190 244 310 371
#     4  10  20  36  64  93 118 158 205 252 302 366
#     4  10  21  38  63  96 126 157 200 250 309 373
#     4  10  20  39  62  89 121 159 205 256 309 359
#     4  11  21  40  60  88 127 164 203 246 306 362
#     4  11  22  39  65  88 115 164 220 257 297 364
#
# _framework density 19.722137
#
# number of rings (size 3 to 8) (size 9 to 14) (size 15 to 20)
#    0.000    1.667    3.333    1.500    0.000    5.333 
#    0.000    5.000    0.000    5.000    0.000    0.000 
#    0.000    0.000    0.000    0.000    0.000    0.000 
#
# Total GULP energy -133851.099257 kJ/mol
# GULP energy per Si atom -5577.129136 kJ/mol
# Density = 1.967725 g / cm^3
# Si number density = 19.722137 Si / 1000 Ang^3
#
#
#
# Elastic Constant Matrix: (Units=GPa)
#
#
# Indices 1 2 3 4 5 6 
#
# 1 135.5380 56.8424 25.2644 -0.0025 -13.1463 0.0025
# 2 56.8424 84.6129 35.3613 0.0053 -7.5779 0.0023
# 3 25.2644 35.3613 94.6896 0.0118 -7.1071 0.0023
# 4 -0.0025 0.0053 0.0118 15.0748 0.0111 -14.8473
# 5 -13.1463 -7.5779 -7.1071 0.0111 24.5472 -0.0025
# 6 0.0025 0.0023 0.0023 -14.8473 -0.0025 15.0301
#
#
#
# Elastic Compliance Matrix: (Units=1/GPa)
#
#
# Indices 1 2 3 4 5 6 
#
# 1 0.010567 -0.006770 -0.000024 0.000052 0.003562 0.000051
# 2 -0.006770 0.018542 -0.005071 -0.000181 0.000630 -0.000180
# 3 -0.000024 -0.005071 0.012617 -0.000385 0.002075 -0.000382
# 4 0.000052 -0.000181 -0.000385 2.450256 -0.000997 2.420445
# 5 0.003562 0.000630 0.002075 -0.000997 0.043441 -0.000979
# 6 0.000051 -0.000180 -0.000382 2.420445 -0.000979 2.457531
#
#
# Mechanical properties :
#
#
# Convention : Reuss Voigt Hill
#
# Bulk Modulus (GPa) = 55.56567 61.08628 58.32597
# Shear Modulus (GPa) = 0.99548 24.08859 12.54204
#
# Velocity S-wave (km/s) = 0.71123 3.49864 2.52451
# Velocity P-wave (km/s) = 5.37679 6.88196 6.17541
#
# Compressibility (1/GPa) = 0.01799672
#
# Stress axis : x y z
#
# Youngs Moduli (GPa) = 94.63255 53.93107 79.26031
#
# Poissons Ratio (x) = 0.36511 0.00189
# Poissons Ratio (y) = 0.64066 0.40192
# Poissons Ratio (z) = 0.00226 0.27348
#
# Static dielectric constant tensor:
#      x y z
#    x 1.746400 0.000000 -0.031430 
#    y 0.000000 1.676810 0.000010 
#    z -0.031430 0.000010 1.731840 
# 
# From -- ./inp_files/366368.got.cif
#   From: 2010.05.17/outbox.cif.g08.bks.cpg/sg12_184_cif.got.tgz:366368.got - 2010.06.03 13:09:07.
