data_PCOD9200226
_publ_section_title
;
Structure prediction by ZEFSAII (Michael W. Deem and Ramdas Pophale) SiO2 
 PCOD9200226
Probable space group: C 2/M
;
_chemical_formula_sum "Si O2"
_cell_formula_units_Z 48
_cell_length_a 28.811310
_cell_length_b 12.829111
_cell_length_c 14.893301
_cell_angle_alpha 90.000000
_cell_angle_beta 26.663857
_cell_angle_gamma 90.000000
_cell_volume 2470.359631
_symmetry_space_group_name_H-M "C 2/M"
_symmetry_group_IT_number 12
_symmetry_cell_setting 'monoclinic'
loop_
_space_group_symop_operation_xyz
x,y,z
-x,y,-z
-x,-y,-z
x,-y,z
1/2+x,1/2+y,z
1/2-x,1/2+y,-z
1/2-x,1/2-y,-z
1/2+x,1/2-y,z
loop_
_atom_site_type_symbol
_atom_site_label
_atom_site_fract_x
_atom_site_fract_y
_atom_site_fract_z
Si Si1 0.834871 0.119626 0.256234
Si Si2 0.391640 0.121205 0.003662
Si Si3 0.358352 0.121969 0.664653
Si Si4 0.479075 0.692416 0.170017
Si Si5 0.105146 0.379399 0.203713
Si Si6 0.193793 0.226988 0.406141
O O1 0.900526 0.161712 0.226793
O O2 0.737923 0.192813 0.404230
O O3 0.806260 0.000000 0.319188
O O4 0.915660 0.129198 0.032718
O O5 0.282045 0.141181 0.240020
O O6 0.419017 0.000000 0.953081
O O7 0.479004 0.189215 0.901352
O O8 0.379660 0.163920 0.922127
O O9 0.343625 0.160274 0.792823
O O10 0.481921 0.120641 0.433478
O O11 0.315064 0.201617 0.666855
O O12 0.324205 0.000000 0.713875
O O13 0.414282 0.680171 0.373341
O O14 0.139167 0.500000 0.139818
#
# Coordination Sequence:
#
# PCOD9200226 Si02
#       6
#     8   8   8   8   8   8
#     4  10  22  39  57  76 103 138 176 217 263 313
#     4  10  21  35  52  78 111 142 171 213 262 308
#     4   9  16  29  54  81 105 136 175 215 253 302
#     4  10  20  37  54  74 103 138 177 214 257 311
#     4   8  15  30  51  77 106 139 174 208 254 306
#     4  11  21  33  55  85 106 132 176 219 263 310
#
# _framework density 19.430368000000001
#
# number of rings (size 3 to 8) (size 9 to 14) (size 15 to 20)
#    0.000    2.333    1.667    3.000    0.000    2.667 
#    0.000    6.667    0.000    0.000    0.000    3.500 
#    0.000    0.000    0.000    0.000    0.000    0.000 
#
# Total GULP energy -133671.064593 kJ/mol
# GULP energy per Si atom -5569.627691 kJ/mol
# Density = 1.938614 g / cm^3
# Si number density = 19.430368 Si / 1000 Ang^3
#
#
#
# Elastic Constant Matrix: (Units=GPa)
#
#
# Indices 1 2 3 4 5 6 
#
# 1 32.6728 11.7181 -19.0417 0.0000 7.1001 0.0000
# 2 11.7181 32.0384 3.4694 0.0000 18.9778 0.0000
# 3 -19.0417 3.4694 59.3206 0.0000 8.5522 0.0000
# 4 0.0000 0.0000 0.0000 5.4292 0.0000 6.3965
# 5 7.1001 18.9778 8.5522 0.0000 15.7847 0.0000
# 6 0.0000 0.0000 0.0000 6.3965 0.0000 27.2673
#
#
#
# Elastic Compliance Matrix: (Units=1/GPa)
#
#
# Indices 1 2 3 4 5 6 
#
# 1 0.050286 -0.001984 0.020799 0.000000 -0.031503 0.000000
# 2 -0.001984 0.119511 0.014058 0.000000 -0.150412 0.000000
# 3 0.020799 0.014058 0.028742 0.000000 -0.041830 0.000000
# 4 0.000000 0.000000 0.000000 0.254536 0.000000 -0.059711
# 5 -0.031503 -0.150412 -0.041830 0.000000 0.281024 0.000000
# 6 0.000000 0.000000 0.000000 -0.059711 0.000000 0.050681
#
#
# Mechanical properties :
#
#
# Convention : Reuss Voigt Hill
#
# Bulk Modulus (GPa) = 3.78377 12.92482 8.35430
# Shear Modulus (GPa) = 6.19479 18.22198 12.20839
#
# Velocity S-wave (km/s) = 1.78749 3.06569 2.50934
# Velocity P-wave (km/s) = 2.49234 4.38150 3.56436
#
# Compressibility (1/GPa) = 0.26428684
#
# Stress axis : x y z
#
# Youngs Moduli (GPa) = 19.88643 8.36741 34.79175
#
# Poissons Ratio (x) = 0.01660 -0.72364
# Poissons Ratio (y) = 0.03945 -0.48911
# Poissons Ratio (z) = -0.41362 -0.11763
#
# Static dielectric constant tensor:
#      x y z
#    x 1.722210 0.000000 0.043310 
#    y 0.000000 1.659070 0.000000 
#    z 0.043310 0.000000 1.699480 
# 
# From -- ./inp_files/212901.got.cif
#   From: 2010.05.17/outbox.cif.g08.bks.cpg/sg12_107_cif.got.tgz:212901.got - 2010.06.03 13:09:07.
