data_PCOD9200756
_publ_section_title
;
Structure prediction by ZEFSAII (Michael W. Deem and Ramdas Pophale) SiO2 
 PCOD9200756
Probable space group: C 2/M
;
_chemical_formula_sum "Si O2"
_cell_formula_units_Z 60
_cell_length_a 20.164107
_cell_length_b 21.391957
_cell_length_c 14.709441
_cell_angle_alpha 90.000000
_cell_angle_beta 152.992458
_cell_angle_gamma 90.000000
_cell_volume 2881.274415
_symmetry_space_group_name_H-M "C 2/M"
_symmetry_group_IT_number 12
_symmetry_cell_setting 'monoclinic'
loop_
_space_group_symop_operation_xyz
x,y,z
-x,y,-z
-x,-y,-z
x,-y,z
1/2+x,1/2+y,z
1/2-x,1/2+y,-z
1/2-x,1/2-y,-z
1/2+x,1/2-y,z
loop_
_atom_site_type_symbol
_atom_site_label
_atom_site_fract_x
_atom_site_fract_y
_atom_site_fract_z
Si Si1 0.096199 0.925754 0.700914
Si Si2 0.147933 0.572008 0.738990
Si Si3 0.077460 0.573873 0.857535
Si Si4 0.133048 0.778220 0.287279
Si Si5 0.674218 0.612639 0.207185
Si Si6 0.304940 0.500000 0.637163
Si Si7 0.411424 0.614746 0.638604
Si Si8 0.410525 0.142777 0.805457
O O1 0.268926 0.917826 0.902606
O O2 0.000000 0.901322 0.500000
O O3 0.039647 0.897595 0.725408
O O4 0.069628 0.000000 0.674892
O O5 0.200381 0.500000 0.813665
O O6 0.264696 0.608168 0.819965
O O7 0.000000 0.572278 0.500000
O O8 0.107734 0.594271 0.791173
O O9 0.035878 0.500000 0.806243
O O10 0.959116 0.610691 0.770801
O O11 0.250000 0.750000 0.500000
O O12 0.196917 0.820442 0.283416
O O13 0.049787 0.828771 0.246513
O O14 0.053218 0.716315 0.156837
O O15 0.743360 0.555615 0.348720
O O16 0.500000 0.599689 0.000000
O O17 0.369004 0.554757 0.646538
O O18 0.263373 0.632370 0.401835
O O19 0.500000 0.115690 0.000000
#
# Coordination Sequence:
#
# PCOD9200756 Si02
#       8
#     8   8   8   8   8   4   8   8
#     4  10  20  37  59  89 126 160 197 255 321 376
#     4  10  23  37  57  92 135 165 193 244 321 389
#     4  10  24  38  61  93 132 162 199 255 323 376
#     4   9  22  40  63  84 117 162 213 261 307 358
#     4  11  22  36  65  93 123 159 214 257 311 369
#     4  10  21  32  59  96 123 152 201 256 311 367
#     4  10  21  36  65  88 120 160 210 253 315 373
#     4  11  23  42  64  87 123 164 217 263 303 361
#
# _framework density 20.824119
#
# number of rings (size 3 to 8) (size 9 to 14) (size 15 to 20)
#    0.000    1.867    1.333    1.400   10.267    0.267 
#    0.000    0.667    5.867    0.000    0.000    0.000 
#    0.000    0.000    0.000    0.000    0.000    0.000 
#
# Total GULP energy -167060.165916 kJ/mol
# GULP energy per Si atom -5568.672197 kJ/mol
# Density = 2.077672 g / cm^3
# Si number density = 20.824119 Si / 1000 Ang^3
#
#
#
# Elastic Constant Matrix: (Units=GPa)
#
#
# Indices 1 2 3 4 5 6 
#
# 1 102.3137 26.0677 13.5450 0.0000 -0.8090 0.0000
# 2 26.0677 75.4645 13.5759 0.0000 10.2568 0.0000
# 3 13.5450 13.5759 59.6050 0.0000 -8.7505 0.0000
# 4 0.0000 0.0000 0.0000 13.5333 0.0000 -3.1216
# 5 -0.8090 10.2568 -8.7505 0.0000 27.0223 0.0000
# 6 0.0000 0.0000 0.0000 -3.1216 0.0000 22.3343
#
#
#
# Elastic Compliance Matrix: (Units=1/GPa)
#
#
# Indices 1 2 3 4 5 6 
#
# 1 0.010914 -0.003677 -0.001459 0.000000 0.001250 0.000000
# 2 -0.003677 0.016267 -0.003981 0.000000 -0.007574 0.000000
# 3 -0.001459 -0.003981 0.019141 0.000000 0.007666 0.000000
# 4 0.000000 0.000000 0.000000 0.076354 0.000000 0.010672
# 5 0.001250 -0.007574 0.007666 0.000000 0.042401 0.000000
# 6 0.000000 0.000000 0.000000 0.010672 0.000000 0.046266
#
#
# Mechanical properties :
#
#
# Convention : Reuss Voigt Hill
#
# Bulk Modulus (GPa) = 35.60438 38.19559 36.89998
# Shear Modulus (GPa) = 20.92578 24.85761 22.89169
#
# Velocity S-wave (km/s) = 3.17343 3.45873 3.31915
# Velocity P-wave (km/s) = 5.52832 5.85937 5.69625
#
# Compressibility (1/GPa) = 0.02808643
#
# Stress axis : x y z
#
# Youngs Moduli (GPa) = 91.62676 61.47352 52.24429
#
# Poissons Ratio (x) = 0.22606 0.07623
# Poissons Ratio (y) = 0.33695 0.20800
# Poissons Ratio (z) = 0.13369 0.24474
#
# Static dielectric constant tensor:
#      x y z
#    x 1.726100 0.000000 -0.042220 
#    y 0.000000 1.738870 0.000000 
#    z -0.042220 0.000000 1.861470 
# 
# From -- ./inp_files/235215.got.cif
#   From: 2010.05.17/outbox.cif.g08.bks.cpg/sg12_118_cif.got.tgz:235215.got - 2010.06.03 13:09:07.
