data_PCOD9200640
_publ_section_title
;
Structure prediction by ZEFSAII (Michael W. Deem and Ramdas Pophale) SiO2 
 PCOD9200640
Probable space group: C 2/M
;
_chemical_formula_sum "Si O2"
_cell_formula_units_Z 56
_cell_length_a 30.887052
_cell_length_b 14.556366
_cell_length_c 8.892288
_cell_angle_alpha 90.000000
_cell_angle_beta 133.152452
_cell_angle_gamma 90.000000
_cell_volume 2916.687820
_symmetry_space_group_name_H-M "C 2/M"
_symmetry_group_IT_number 12
_symmetry_cell_setting 'monoclinic'
loop_
_space_group_symop_operation_xyz
x,y,z
-x,y,-z
-x,-y,-z
x,-y,z
1/2+x,1/2+y,z
1/2-x,1/2+y,-z
1/2-x,1/2-y,-z
1/2+x,1/2-y,z
loop_
_atom_site_type_symbol
_atom_site_label
_atom_site_fract_x
_atom_site_fract_y
_atom_site_fract_z
Si Si1 0.641899 0.766313 0.365068
Si Si2 0.986511 0.768844 0.295074
Si Si3 0.147408 0.232214 0.039061
Si Si4 0.239713 0.320691 0.839345
Si Si5 0.949475 0.606535 0.688943
Si Si6 0.644076 0.901743 0.802310
Si Si7 0.944544 0.106757 0.752897
O O1 0.662392 0.765898 0.242007
O O2 0.695680 0.779572 0.608827
O O3 0.593133 0.845200 0.289012
O O4 0.609126 0.669532 0.317223
O O5 0.000000 0.748466 0.500000
O O6 0.997147 0.676970 0.220129
O O7 0.032360 0.844460 0.343475
O O8 0.919692 0.804168 0.117405
O O9 0.197204 0.164424 0.090593
O O10 0.145290 0.319300 0.922063
O O11 0.202083 0.398590 0.833347
O O12 0.250000 0.250000 0.000000
O O13 0.964081 0.500000 0.755674
O O14 0.910482 0.608140 0.442916
O O15 0.639611 0.000000 0.869412
O O16 0.929552 0.000000 0.699412
O O17 0.000000 0.114135 0.000000
#
# Coordination Sequence:
#
# PCOD9200640 Si02
#       7
#     8   8   8   8   8   8   8
#     4  10  20  37  59  83 113 147 189 232 278 337
#     4  11  21  35  58  85 115 145 188 228 274 334
#     4  11  20  34  56  84 108 148 187 228 279 328
#     4   9  20  37  58  78 107 148 186 228 281 334
#     4   9  19  34  55  82 117 152 179 219 274 329
#     4   9  18  35  55  80 110 146 186 226 272 328
#     4  10  21  39  60  82 114 149 184 234 288 333
#
# _framework density 19.199860000000001
#
# number of rings (size 3 to 8) (size 9 to 14) (size 15 to 20)
#    0.000    2.143    2.857    0.429    2.000    1.714 
#    0.000    5.000    0.000    1.714    0.000    0.000 
#    0.000    0.000    0.000    0.000    0.000    0.000 
#
# Total GULP energy -156121.343792 kJ/mol
# GULP energy per Si atom -5575.762278 kJ/mol
# Density = 1.915616 g / cm^3
# Si number density = 19.199860 Si / 1000 Ang^3
#
#
#
# Elastic Constant Matrix: (Units=GPa)
#
#
# Indices 1 2 3 4 5 6 
#
# 1 90.8856 12.5575 15.7843 0.0000 -1.6000 0.0000
# 2 12.5575 91.7035 -3.6907 0.0000 1.4416 0.0000
# 3 15.7843 -3.6907 68.1350 0.0000 -5.5679 0.0000
# 4 0.0000 0.0000 0.0000 10.3328 0.0000 -3.1135
# 5 -1.6000 1.4416 -5.5679 0.0000 35.8816 0.0000
# 6 0.0000 0.0000 0.0000 -3.1135 0.0000 4.1876
#
#
#
# Elastic Compliance Matrix: (Units=1/GPa)
#
#
# Indices 1 2 3 4 5 6 
#
# 1 0.011729 -0.001721 -0.002798 0.000000 0.000158 0.000000
# 2 -0.001721 0.011186 0.000974 0.000000 -0.000375 0.000000
# 3 -0.002798 0.000974 0.015562 0.000000 0.002251 0.000000
# 4 0.000000 0.000000 0.000000 0.124722 0.000000 0.092732
# 5 0.000158 -0.000375 0.002251 0.000000 0.028241 0.000000
# 6 0.000000 0.000000 0.000000 0.092732 0.000000 0.307747
#
#
# Mechanical properties :
#
#
# Convention : Reuss Voigt Hill
#
# Bulk Modulus (GPa) = 31.86058 33.33625 32.59842
# Shear Modulus (GPa) = 9.67608 25.15193 17.41401
#
# Velocity S-wave (km/s) = 2.24735 3.62333 3.01489
# Velocity P-wave (km/s) = 4.83367 5.90806 5.39766
#
# Compressibility (1/GPa) = 0.03138675
#
# Stress axis : x y z
#
# Youngs Moduli (GPa) = 85.25657 89.40140 64.26100
#
# Poissons Ratio (x) = 0.15388 0.17977
# Poissons Ratio (y) = 0.14675 -0.06259
# Poissons Ratio (z) = 0.23851 -0.08708
#
# Static dielectric constant tensor:
#      x y z
#    x 1.699020 0.000000 0.012120 
#    y 0.000000 1.646310 0.000000 
#    z 0.012120 0.000000 1.677900 
# 
# From -- ./inp_files/111703.got.cif
#   From: 2010.05.17/outbox.cif.g08.bks.cpg/sg12_56_cif.got.tgz:111703.got - 2010.06.03 13:09:07.
