data_PCOD9200998
_publ_section_title
;
Structure prediction by ZEFSAII (Michael W. Deem and Ramdas Pophale) SiO2 
 PCOD9200998
Probable space group: C 2/M
;
_chemical_formula_sum "Si O2"
_cell_formula_units_Z 64
_cell_length_a 15.482192
_cell_length_b 16.227065
_cell_length_c 25.174808
_cell_angle_alpha 90.000000
_cell_angle_beta 27.719697
_cell_angle_gamma 90.000000
_cell_volume 2941.902347
_symmetry_space_group_name_H-M "C 2/M"
_symmetry_group_IT_number 12
_symmetry_cell_setting 'monoclinic'
loop_
_space_group_symop_operation_xyz
x,y,z
-x,y,-z
-x,-y,-z
x,-y,z
1/2+x,1/2+y,z
1/2-x,1/2+y,-z
1/2-x,1/2-y,-z
1/2+x,1/2-y,z
loop_
_atom_site_type_symbol
_atom_site_label
_atom_site_fract_x
_atom_site_fract_y
_atom_site_fract_z
Si Si1 0.496582 0.305658 0.290132
Si Si2 0.988687 0.093951 0.081032
Si Si3 0.484767 0.094107 0.945028
Si Si4 0.365904 0.678675 0.904579
Si Si5 0.597435 0.752544 0.498348
Si Si6 0.184273 0.155108 0.284949
Si Si7 0.782302 0.590861 0.346723
Si Si8 0.681833 0.862062 0.172162
O O1 0.533157 0.305237 0.206635
O O2 0.277551 0.300384 0.419785
O O3 0.580055 0.371364 0.286710
O O4 0.609066 0.221093 0.238869
O O5 0.982115 0.139049 0.140123
O O6 0.792518 0.091343 0.158134
O O7 0.057809 0.000000 0.046910
O O8 0.148729 0.144275 0.961961
O O9 0.609653 0.163695 0.849551
O O10 0.545572 0.000000 0.900007
O O11 0.500000 0.104916 0.000000
O O12 0.283333 0.109680 0.031272
O O13 0.250000 0.750000 0.000000
O O14 0.500000 0.791393 0.500000
O O15 0.439851 0.729547 0.625884
O O16 0.682249 0.664444 0.432507
O O17 0.224441 0.102047 0.316496
O O18 0.725809 0.500000 0.395502
O O19 0.002748 0.600918 0.239200
#
# Coordination Sequence:
#
# PCOD9200998 Si02
#       8
#     8   8   8   8   8   8   8   8
#     4  11  23  40  59  91 124 162 212 259 309 383
#     4  11  22  36  57  85 120 164 207 249 306 371
#     4  11  24  41  62  93 133 171 207 256 316 388
#     4  12  25  39  62  90 128 168 210 257 313 375
#     4   9  22  38  61  88 119 163 207 268 317 367
#     4  11  22  38  62  87 127 163 204 253 318 376
#     4  10  20  37  60  89 119 154 205 261 319 376
#     4  10  21  36  59  83 119 157 203 260 309 361
#
# _framework density 21.754632000000001
#
# number of rings (size 3 to 8) (size 9 to 14) (size 15 to 20)
#    0.000    1.375    2.500    3.375    5.250    2.750 
#    0.000    0.000    0.000    0.000    0.000    0.000 
#    0.000    9.000    0.000    0.000    0.000    0.000 
#
# Total GULP energy -178235.499547 kJ/mol
# GULP energy per Si atom -5569.859361 kJ/mol
# Density = 2.170512 g / cm^3
# Si number density = 21.754632 Si / 1000 Ang^3
#
#
#
# Elastic Constant Matrix: (Units=GPa)
#
#
# Indices 1 2 3 4 5 6 
#
# 1 134.3250 44.9049 30.3271 -0.0044 0.7639 -0.0232
# 2 44.9049 35.6098 16.1265 -0.0067 -5.9117 -0.0172
# 3 30.3271 16.1265 90.8855 -0.0050 -6.4797 -0.0558
# 4 -0.0044 -0.0067 -0.0050 12.6018 -0.0043 34.0471
# 5 0.7639 -5.9117 -6.4797 -0.0043 45.1254 -0.0030
# 6 -0.0232 -0.0172 -0.0558 34.0471 -0.0030 411.0893
#
#
#
# Elastic Compliance Matrix: (Units=1/GPa)
#
#
# Indices 1 2 3 4 5 6 
#
# 1 0.013370 -0.016520 -0.001718 -0.000007 -0.002637 0.000000
# 2 -0.016520 0.051428 -0.003145 0.000026 0.006565 -0.000001
# 3 -0.001718 -0.003145 0.012232 -0.000001 0.001374 0.000002
# 4 -0.000007 0.000026 -0.000001 0.102229 0.000013 -0.008467
# 5 -0.002637 0.006565 0.001374 0.000013 0.023262 -0.000001
# 6 0.000000 -0.000001 0.000002 -0.008467 -0.000001 0.003134
#
#
# Mechanical properties :
#
#
# Convention : Reuss Voigt Hill
#
# Bulk Modulus (GPa) = 29.18447 49.28191 39.23319
# Shear Modulus (GPa) = 19.24241 105.06076 62.15158
#
# Velocity S-wave (km/s) = 2.97731 6.95689 5.35083
# Velocity P-wave (km/s) = 5.02629 9.33991 7.49992
#
# Compressibility (1/GPa) = 0.03426480
#
# Stress axis : x y z
#
# Youngs Moduli (GPa) = 74.79379 19.44465 81.75195
#
# Poissons Ratio (x) = 0.32122 0.14047
# Poissons Ratio (y) = 1.23557 0.25710
# Poissons Ratio (z) = 0.12851 0.06115
#
# Static dielectric constant tensor:
#      x y z
#    x 1.854350 0.000000 0.032260 
#    y 0.000000 1.817300 0.000000 
#    z 0.032260 0.000000 1.811140 
# 
# From -- ./inp_files/340794.got.cif
#   From: 2010.05.17/outbox.cif.g08.bks.cpg/sg12_171_cif.got.tgz:340794.got - 2010.06.03 13:09:07.
