data_PCOD9200912
_publ_section_title
;
Structure prediction by ZEFSAII (Michael W. Deem and Ramdas Pophale) SiO2 
 PCOD9200912
Probable space group: C 2/M
;
_chemical_formula_sum "Si O2"
_cell_formula_units_Z 64
_cell_length_a 14.458190
_cell_length_b 8.806957
_cell_length_c 32.502938
_cell_angle_alpha 90.000000
_cell_angle_beta 49.045012
_cell_angle_gamma 90.000000
_cell_volume 3125.637713
_symmetry_space_group_name_H-M "C 2/M"
_symmetry_group_IT_number 12
_symmetry_cell_setting 'monoclinic'
loop_
_space_group_symop_operation_xyz
x,y,z
-x,y,-z
-x,-y,-z
x,-y,z
1/2+x,1/2+y,z
1/2-x,1/2+y,-z
1/2-x,1/2-y,-z
1/2+x,1/2-y,z
loop_
_atom_site_type_symbol
_atom_site_label
_atom_site_fract_x
_atom_site_fract_y
_atom_site_fract_z
Si Si1 0.632197 0.182475 0.056637
Si Si2 0.870470 0.818723 0.559185
Si Si3 0.365997 0.818468 0.849201
Si Si4 0.120291 0.818299 0.872136
Si Si5 0.385116 0.818390 0.645652
Si Si6 0.001444 0.173162 0.737892
Si Si7 0.378181 0.683275 0.378833
Si Si8 0.746974 0.174929 0.759480
O O1 0.630928 0.233495 0.104803
O O2 0.504890 0.244562 0.075878
O O3 0.635118 0.000000 0.054252
O O4 0.750000 0.250000 0.000000
O O5 0.873662 0.752723 0.604141
O O6 0.755844 0.739776 0.570186
O O7 0.000000 0.786462 0.500000
O O8 0.852487 0.000000 0.565162
O O9 0.236016 0.774492 0.866712
O O10 0.472453 0.761088 0.787921
O O11 0.371601 0.000000 0.847664
O O12 0.152162 0.757092 0.817230
O O13 0.110679 0.000000 0.874272
O O14 0.514398 0.760095 0.626434
O O15 0.280809 0.758407 0.707421
O O16 0.381312 0.000000 0.645106
O O17 0.874481 0.174166 0.748505
O O18 0.098028 0.229475 0.675978
O O19 0.031798 0.000000 0.739475
O O20 0.389223 0.500000 0.377878
O O21 0.711533 0.000000 0.762788
#
# Coordination Sequence:
#
# PCOD9200912 Si02
#       8
#     8   8   8   8   8   8   8   8
#     4  11  24  41  57  79 110 148 193 238 283 336
#     4  11  25  43  61  84 115 154 202 250 295 348
#     4   9  20  37  58  82 112 147 182 224 279 337
#     4  10  20  37  60  86 114 147 185 230 284 342
#     4  11  22  38  62  90 120 156 195 239 294 351
#     4   8  16  31  55  86 116 144 180 226 277 335
#     4  10  21  39  62  89 121 155 192 239 293 351
#     4   9  17  33  57  87 120 151 186 232 283 341
#
# _framework density 20.475821
#
# number of rings (size 3 to 8) (size 9 to 14) (size 15 to 20)
#    0.000    2.125    0.000    3.750    0.000    8.000 
#    0.000    5.000    0.000    0.000    0.000    0.000 
#    0.000    0.000    0.000    0.000    0.000    0.000 
#
# Total GULP energy -178858.820779 kJ/mol
# GULP energy per Si atom -5589.338149 kJ/mol
# Density = 2.042922 g / cm^3
# Si number density = 20.475821 Si / 1000 Ang^3
#
#
#
# Elastic Constant Matrix: (Units=GPa)
#
#
# Indices 1 2 3 4 5 6 
#
# 1 61.5012 11.6986 29.4441 0.0000 -14.0945 0.0000
# 2 11.6986 53.6006 26.6887 0.0000 -10.9098 0.0001
# 3 29.4441 26.6887 69.2521 0.0000 -20.6894 0.0000
# 4 0.0000 0.0000 0.0000 36.4342 0.0000 -1.8444
# 5 -14.0945 -10.9098 -20.6894 0.0000 38.3301 0.0000
# 6 0.0000 0.0001 0.0000 -1.8444 0.0000 23.8378
#
#
#
# Elastic Compliance Matrix: (Units=1/GPa)
#
#
# Indices 1 2 3 4 5 6 
#
# 1 0.020786 0.000064 -0.007837 0.000000 0.003431 0.000000
# 2 0.000064 0.023231 -0.008343 0.000000 0.002132 0.000000
# 3 -0.007837 -0.008343 0.023150 0.000000 0.007239 0.000000
# 4 0.000000 0.000000 0.000000 0.027555 0.000000 0.002132
# 5 0.003431 0.002132 0.007239 0.000000 0.031865 0.000000
# 6 0.000000 0.000000 0.000000 0.002132 0.000000 0.042115
#
#
# Mechanical properties :
#
#
# Convention : Reuss Voigt Hill
#
# Bulk Modulus (GPa) = 28.62485 35.55740 32.09112
# Shear Modulus (GPa) = 23.52063 27.48858 25.50461
#
# Velocity S-wave (km/s) = 3.39293 3.66798 3.53313
# Velocity P-wave (km/s) = 5.41844 5.94491 5.68777
#
# Compressibility (1/GPa) = 0.03493469
#
# Stress axis : x y z
#
# Youngs Moduli (GPa) = 48.10897 43.04662 43.19625
#
# Poissons Ratio (x) = -0.00276 0.33854
# Poissons Ratio (y) = -0.00308 0.36038
# Poissons Ratio (z) = 0.37704 0.35913
#
# Static dielectric constant tensor:
#      x y z
#    x 1.797210 0.000000 -0.007810 
#    y 0.000000 1.684080 0.000000 
#    z -0.007810 0.000000 1.710250 
# 
# From -- ./inp_files/375445.got.cif
#   From: 2010.05.17/outbox.cif.g08.bks.cpg/sg12_188_cif.got.tgz:375445.got - 2010.06.03 13:09:07.
