data_PCOD9200593
_publ_section_title
;
Structure prediction by ZEFSAII (Michael W. Deem and Ramdas Pophale) SiO2 
 PCOD9200593
Probable space group: C 2/M
;
_chemical_formula_sum "Si O2"
_cell_formula_units_Z 48
_cell_length_a 29.414643
_cell_length_b 12.688241
_cell_length_c 22.336113
_cell_angle_alpha 90.000000
_cell_angle_beta 17.133529
_cell_angle_gamma 90.000000
_cell_volume 2455.866454
_symmetry_space_group_name_H-M "C 2/M"
_symmetry_group_IT_number 12
_symmetry_cell_setting 'monoclinic'
loop_
_space_group_symop_operation_xyz
x,y,z
-x,y,-z
-x,-y,-z
x,-y,z
1/2+x,1/2+y,z
1/2-x,1/2+y,-z
1/2-x,1/2-y,-z
1/2+x,1/2-y,z
loop_
_atom_site_type_symbol
_atom_site_label
_atom_site_fract_x
_atom_site_fract_y
_atom_site_fract_z
Si Si1 0.051609 0.203040 0.789543
Si Si2 0.940376 0.610733 0.008648
Si Si3 0.398785 0.209500 0.774685
Si Si4 0.400653 0.316196 0.571695
Si Si5 0.281859 0.882594 0.797254
Si Si6 0.390520 0.123330 0.385228
O O1 0.205359 0.140162 0.613731
O O2 0.058978 0.281098 0.722681
O O3 0.017436 0.288172 0.883367
O O4 0.902580 0.130613 0.970327
O O5 0.980685 0.500000 0.926663
O O6 0.757123 0.623889 0.240082
O O7 0.000000 0.605503 0.000000
O O8 0.497262 0.299943 0.616028
O O9 0.338931 0.142754 0.792813
O O10 0.518567 0.149497 0.667568
O O11 0.250000 0.250000 0.000000
O O12 0.500000 0.366391 0.500000
O O13 0.347765 0.203376 0.667464
O O14 0.324332 0.000000 0.725869
O O15 0.423461 0.000000 0.329359
#
# Coordination Sequence:
#
# PCOD9200593 Si02
#       6
#     8   8   8   8   8   8
#     4  10  21  38  57  84 117 148 190 245 285 345
#     4  10  20  37  59  81 109 149 192 235 289 348
#     4  11  21  38  58  85 121 154 191 241 294 339
#     4   9  21  37  58  84 116 150 191 241 289 340
#     4  10  20  38  62  86 115 154 196 237 292 351
#     4  11  22  36  58  84 116 154 190 234 295 349
#
# _framework density 19.545037000000001
#
# number of rings (size 3 to 8) (size 9 to 14) (size 15 to 20)
#    0.000    1.833    1.667    2.500    0.000    4.000 
#    0.000    1.667    0.000    5.500    0.000    0.000 
#    0.000    0.000    0.000    0.000    0.000    0.000 
#
# Total GULP energy -133720.087956 kJ/mol
# GULP energy per Si atom -5571.670332 kJ/mol
# Density = 1.950055 g / cm^3
# Si number density = 19.545037 Si / 1000 Ang^3
#
#
#
# Elastic Constant Matrix: (Units=GPa)
#
#
# Indices 1 2 3 4 5 6 
#
# 1 112.4007 30.9999 34.2929 0.0001 -12.1762 -0.0001
# 2 30.9999 84.1131 5.7288 0.0004 -6.0708 -0.0003
# 3 34.2929 5.7288 62.3549 0.0006 0.9266 -0.0004
# 4 0.0001 0.0004 0.0006 8.8372 -0.0001 -9.6433
# 5 -12.1762 -6.0708 0.9266 -0.0001 34.3661 0.0001
# 6 -0.0001 -0.0003 -0.0004 -9.6433 0.0001 15.3676
#
#
#
# Elastic Compliance Matrix: (Units=1/GPa)
#
#
# Indices 1 2 3 4 5 6 
#
# 1 0.012357 -0.003832 -0.006501 0.000001 0.003877 0.000000
# 2 -0.003832 0.013312 0.000870 -0.000001 0.000970 0.000000
# 3 -0.006501 0.000870 0.019573 -0.000002 -0.002678 -0.000001
# 4 0.000001 -0.000001 -0.000002 0.358939 0.000000 0.225237
# 5 0.003877 0.000970 -0.002678 0.000000 0.030716 0.000000
# 6 0.000000 0.000000 -0.000001 0.225237 0.000000 0.206410
#
#
# Mechanical properties :
#
#
# Convention : Reuss Voigt Hill
#
# Bulk Modulus (GPa) = 38.00133 44.54577 41.27355
# Shear Modulus (GPa) = 7.47380 24.23733 15.85556
#
# Velocity S-wave (km/s) = 1.95760 3.52529 2.85130
# Velocity P-wave (km/s) = 4.95931 6.27782 5.65711
#
# Compressibility (1/GPa) = 0.02631487
#
# Stress axis : x y z
#
# Youngs Moduli (GPa) = 80.92575 75.12199 51.09159
#
# Poissons Ratio (x) = 0.28784 0.33217
# Poissons Ratio (y) = 0.31007 -0.04444
# Poissons Ratio (z) = 0.52614 -0.06534
#
# Static dielectric constant tensor:
#      x y z
#    x 1.659830 0.000000 0.003240 
#    y 0.000000 1.674020 0.000000 
#    z 0.003240 0.000000 1.698250 
# 
# From -- ./inp_files/327956.got.cif
#   From: 2010.05.17/outbox.cif.g08.bks.cpg/sg12_164_cif.got.tgz:327956.got - 2010.06.03 13:09:07.
