data_PCOD9200854
_publ_section_title
;
Structure prediction by ZEFSAII (Michael W. Deem and Ramdas Pophale) SiO2 
 PCOD9200854
Probable space group: C 2/M
;
_chemical_formula_sum "Si O2"
_cell_formula_units_Z 56
_cell_length_a 28.229777
_cell_length_b 8.062430
_cell_length_c 18.098472
_cell_angle_alpha 90.000000
_cell_angle_beta 38.352049
_cell_angle_gamma 90.000000
_cell_volume 2555.943695
_symmetry_space_group_name_H-M "C 2/M"
_symmetry_group_IT_number 12
_symmetry_cell_setting 'monoclinic'
loop_
_space_group_symop_operation_xyz
x,y,z
-x,y,-z
-x,-y,-z
x,-y,z
1/2+x,1/2+y,z
1/2-x,1/2+y,-z
1/2-x,1/2-y,-z
1/2+x,1/2-y,z
loop_
_atom_site_type_symbol
_atom_site_label
_atom_site_fract_x
_atom_site_fract_y
_atom_site_fract_z
Si Si1 0.494693 0.195954 0.094681
Si Si2 0.838263 0.699200 0.089255
Si Si3 0.240968 0.200980 0.666774
Si Si4 0.402959 0.804996 0.448845
Si Si5 0.215645 0.198105 0.121452
Si Si6 0.646818 0.310146 0.647992
Si Si7 0.041958 0.700490 0.371635
O O1 0.425282 0.301467 0.209162
O O2 0.482079 0.000000 0.128071
O O3 0.500000 0.206966 0.000000
O O4 0.575090 0.253359 0.030581
O O5 0.839799 0.500000 0.081966
O O6 0.814870 0.742934 0.200972
O O7 0.774489 0.765108 0.111448
O O8 0.326241 0.262007 0.581385
O O9 0.214144 0.258940 0.618255
O O10 0.240815 0.000000 0.663906
O O11 0.382526 0.783710 0.388241
O O12 0.483213 0.738816 0.379672
O O13 0.405755 0.000000 0.462095
O O14 0.128543 0.246275 0.248113
O O15 0.218198 0.000000 0.120580
O O16 0.250000 0.250000 0.000000
O O17 0.663212 0.500000 0.607923
O O18 0.045236 0.500000 0.369076
O O19 0.000000 0.751288 0.500000
#
# Coordination Sequence:
#
# PCOD9200854 Si02
#       7
#     8   8   8   8   8   8   8
#     4  10  20  37  60  84 114 156 197 235 288 355
#     4  10  22  39  61  87 116 155 200 242 292 358
#     4  10  21  38  60  88 120 156 197 242 293 353
#     4  10  22  39  61  86 117 159 199 239 295 361
#     4  11  25  43  64  93 128 163 206 260 316 371
#     4  11  23  36  55  88 124 154 193 244 295 347
#     4  10  22  43  69  93 120 160 213 263 312 373
#
# _framework density 21.909714999999998
#
# number of rings (size 3 to 8) (size 9 to 14) (size 15 to 20)
#    0.000    1.714    1.429    2.143    2.000    5.143 
#    0.000    0.000    0.000    0.000    0.000    0.000 
#    0.000    0.000    0.000    0.000    0.000    0.000 
#
# Total GULP energy -156327.654349 kJ/mol
# GULP energy per Si atom -5583.130512 kJ/mol
# Density = 2.185985 g / cm^3
# Si number density = 21.909715 Si / 1000 Ang^3
#
#
#
# Elastic Constant Matrix: (Units=GPa)
#
#
# Indices 1 2 3 4 5 6 
#
# 1 148.8782 9.3090 46.7718 -0.0048 -30.6531 0.0029
# 2 9.3090 24.4912 18.0332 0.0003 -12.0420 0.0080
# 3 46.7718 18.0332 93.8562 -0.0035 -17.9436 0.0048
# 4 -0.0048 0.0003 -0.0035 28.7180 0.0032 -1.8532
# 5 -30.6531 -12.0420 -17.9436 0.0032 42.1244 -0.0027
# 6 0.0029 0.0080 0.0048 -1.8532 -0.0027 16.6773
#
#
#
# Elastic Compliance Matrix: (Units=1/GPa)
#
#
# Indices 1 2 3 4 5 6 
#
# 1 0.008902 0.002095 -0.003795 0.000000 0.005461 -0.000001
# 2 0.002095 0.052801 -0.008722 -0.000004 0.012904 -0.000021
# 3 -0.003795 -0.008722 0.014389 0.000001 0.000874 0.000001
# 4 0.000000 -0.000004 0.000001 0.035073 -0.000003 0.003897
# 5 0.005461 0.012904 0.000874 -0.000003 0.031774 -0.000002
# 6 -0.000001 -0.000021 0.000001 0.003897 -0.000002 0.060395
#
#
# Mechanical properties :
#
#
# Convention : Reuss Voigt Hill
#
# Bulk Modulus (GPa) = 18.09998 46.16151 32.13075
# Shear Modulus (GPa) = 20.61053 30.37804 25.49429
#
# Velocity S-wave (km/s) = 3.07042 3.72763 3.41487
# Velocity P-wave (km/s) = 4.56607 6.29616 5.49958
#
# Compressibility (1/GPa) = 0.05524867
#
# Stress axis : x y z
#
# Youngs Moduli (GPa) = 112.32888 18.93886 69.49838
#
# Poissons Ratio (x) = -0.03969 0.26375
# Poissons Ratio (y) = -0.23538 0.60620
# Poissons Ratio (z) = 0.42629 0.16519
#
# Static dielectric constant tensor:
#      x y z
#    x 1.847380 -0.000010 -0.014090 
#    y -0.000010 1.783740 0.000000 
#    z -0.014090 0.000000 1.810260 
# 
# From -- ./inp_files/292425.got.cif
#   From: 2010.05.17/outbox.cif.g08.bks.cpg/sg12_147_cif.got.tgz:292425.got - 2010.06.03 13:09:07.
