data_PCOD9200852
_publ_section_title
;
Structure prediction by ZEFSAII (Michael W. Deem and Ramdas Pophale) SiO2 
 PCOD9200852
Probable space group: C 2/M
;
_chemical_formula_sum "Si O2"
_cell_formula_units_Z 64
_cell_length_a 31.409454
_cell_length_b 9.096436
_cell_length_c 16.211928
_cell_angle_alpha 90.000000
_cell_angle_beta 45.971461
_cell_angle_gamma 90.000000
_cell_volume 3330.361734
_symmetry_space_group_name_H-M "C 2/M"
_symmetry_group_IT_number 12
_symmetry_cell_setting 'monoclinic'
loop_
_space_group_symop_operation_xyz
x,y,z
-x,y,-z
-x,-y,-z
x,-y,z
1/2+x,1/2+y,z
1/2-x,1/2+y,-z
1/2-x,1/2-y,-z
1/2+x,1/2-y,z
loop_
_atom_site_type_symbol
_atom_site_label
_atom_site_fract_x
_atom_site_fract_y
_atom_site_fract_z
Si Si1 0.602567 0.676161 0.545040
Si Si2 0.001184 0.825939 0.187569
Si Si3 0.166031 0.326241 0.160027
Si Si4 0.707907 0.327512 0.938308
Si Si5 0.387844 0.825664 0.025943
Si Si6 0.418050 0.829062 0.173294
Si Si7 0.189478 0.327663 0.554848
Si Si8 0.431453 0.176467 0.578869
O O1 0.609431 0.500000 0.534791
O O2 0.542361 0.710996 0.677793
O O3 0.656632 0.749163 0.522504
O O4 0.594835 0.741374 0.464767
O O5 0.965232 0.772639 0.155332
O O6 0.010576 0.000000 0.173655
O O7 0.063509 0.743448 0.100693
O O8 0.165331 0.500000 0.138549
O O9 0.221988 0.304164 0.145748
O O10 0.106713 0.288700 0.288568
O O11 0.179133 0.231610 0.061856
O O12 0.696937 0.500000 0.943849
O O13 0.675922 0.240472 0.908959
O O14 0.406759 0.790920 0.093899
O O15 0.387006 0.000000 0.017579
O O16 0.357347 0.818172 0.306698
O O17 0.438270 0.000000 0.150870
O O18 0.199270 0.500000 0.523630
O O19 0.250000 0.250000 0.500000
O O20 0.500000 0.214575 0.500000
O O21 0.427161 0.000000 0.571362
#
# Coordination Sequence:
#
# PCOD9200852 Si02
#       8
#     8   8   8   8   8   8   8   8
#     4  10  22  39  57  83 117 152 192 235 287 346
#     4  10  21  36  55  81 114 148 184 230 281 333
#     4   9  20  40  60  82 114 149 187 233 286 342
#     4  10  21  37  58  83 112 148 189 233 284 337
#     4  11  22  35  55  81 110 145 188 230 277 336
#     4   9  20  37  54  78 111 149 188 227 275 333
#     4  10  20  37  60  84 114 151 192 236 285 340
#     4  10  22  39  61  89 118 152 195 240 292 348
#
# _framework density 19.217130999999998
#
# number of rings (size 3 to 8) (size 9 to 14) (size 15 to 20)
#    0.000    2.125    0.000    2.250    1.750    6.750 
#    0.000    2.500    0.000    0.000    0.000    0.000 
#    0.000    0.000    0.000    0.000    0.000    0.000 
#
# Total GULP energy -178777.584403 kJ/mol
# GULP energy per Si atom -5586.799513 kJ/mol
# Density = 1.917339 g / cm^3
# Si number density = 19.217131 Si / 1000 Ang^3
#
#
#
# Elastic Constant Matrix: (Units=GPa)
#
#
# Indices 1 2 3 4 5 6 
#
# 1 41.3290 13.6804 12.3850 0.0000 -12.6110 0.0000
# 2 13.6804 36.3151 15.0767 0.0001 -7.1324 -0.0002
# 3 12.3850 15.0767 50.7714 0.0000 -13.2787 0.0000
# 4 0.0000 0.0001 0.0000 21.1166 0.0000 2.9784
# 5 -12.6110 -7.1324 -13.2787 0.0000 25.0365 0.0000
# 6 0.0000 -0.0002 0.0000 2.9784 0.0000 34.8925
#
#
#
# Elastic Compliance Matrix: (Units=1/GPa)
#
#
# Indices 1 2 3 4 5 6 
#
# 1 0.031380 -0.008620 -0.001861 0.000000 0.012363 0.000000
# 2 -0.008620 0.034249 -0.007723 0.000000 0.001319 0.000000
# 3 -0.001861 -0.007723 0.025105 0.000000 0.010178 0.000000
# 4 0.000000 0.000000 0.000000 0.047933 0.000000 -0.004092
# 5 0.012363 0.001319 0.010178 0.000000 0.051943 0.000000
# 6 0.000000 0.000000 0.000000 -0.004092 0.000000 0.029009
#
#
# Mechanical properties :
#
#
# Convention : Reuss Voigt Hill
#
# Bulk Modulus (GPa) = 18.40748 23.41107 20.90927
# Shear Modulus (GPa) = 18.23912 22.02735 20.13323
#
# Velocity S-wave (km/s) = 3.08410 3.38928 3.24029
# Velocity P-wave (km/s) = 4.72035 5.24644 4.99033
#
# Compressibility (1/GPa) = 0.05432575
#
# Stress axis : x y z
#
# Youngs Moduli (GPa) = 31.86778 29.19761 39.83218
#
# Poissons Ratio (x) = 0.25169 0.07414
# Poissons Ratio (y) = 0.27471 0.30761
# Poissons Ratio (z) = 0.05932 0.22548
#
# Static dielectric constant tensor:
#      x y z
#    x 1.658810 0.000000 -0.011840 
#    y 0.000000 1.642650 0.000000 
#    z -0.011840 0.000000 1.667170 
# 
# From -- ./inp_files/249738.got.cif
#   From: 2010.05.17/outbox.cif.g08.bks.cpg/sg12_125_cif.got.tgz:249738.got - 2010.06.03 13:09:07.
