data_PCOD9200172
_publ_section_title
;
Structure prediction by ZEFSAII (Michael W. Deem and Ramdas Pophale) SiO2 
 PCOD9200172
Probable space group: C 2/M
;
_chemical_formula_sum "Si O2"
_cell_formula_units_Z 56
_cell_length_a 16.716674
_cell_length_b 32.960271
_cell_length_c 5.101629
_cell_angle_alpha 90.000000
_cell_angle_beta 100.088061
_cell_angle_gamma 90.000000
_cell_volume 2767.468925
_symmetry_space_group_name_H-M "C 2/M"
_symmetry_group_IT_number 12
_symmetry_cell_setting 'monoclinic'
loop_
_space_group_symop_operation_xyz
x,y,z
-x,y,-z
-x,-y,-z
x,-y,z
1/2+x,1/2+y,z
1/2-x,1/2+y,-z
1/2-x,1/2-y,-z
1/2+x,1/2-y,z
loop_
_atom_site_type_symbol
_atom_site_label
_atom_site_fract_x
_atom_site_fract_y
_atom_site_fract_z
Si Si1 0.735084 0.045319 0.228619
Si Si2 0.052709 0.369235 0.768365
Si Si3 0.874872 0.454204 0.336594
Si Si4 0.316535 0.736096 0.749476
Si Si5 0.802513 0.316484 0.950553
Si Si6 0.586301 0.658223 0.191241
Si Si7 0.829815 0.873851 0.276234
O O1 0.662473 0.052106 0.396240
O O2 0.799774 0.080617 0.290367
O O3 0.766758 0.000000 0.298405
O O4 0.697908 0.046617 0.916777
O O5 0.070504 0.416385 0.713550
O O6 0.000000 0.351906 0.500000
O O7 0.137942 0.345968 0.857703
O O8 0.000000 0.366488 0.000000
O O9 0.910095 0.500000 0.341576
O O10 0.250000 0.750000 0.500000
O O11 0.353070 0.779204 0.858901
O O12 0.385848 0.704031 0.722055
O O13 0.263491 0.709678 0.924911
O O14 0.748757 0.344267 0.724264
O O15 0.600846 0.635463 0.472976
O O16 0.500000 0.658689 0.000000
O O17 0.642882 0.636607 0.003478
#
# Coordination Sequence:
#
# PCOD9200172 Si02
#       7
#     8   8   8   8   8   8   8
#     4  10  20  36  65  97 118 153 210 265 301 350
#     4  12  27  40  59  89 129 172 206 256 314 362
#     4  10  21  38  60  89 125 161 210 260 302 361
#     4  10  21  40  66  88 117 163 203 257 311 361
#     4  10  23  40  60  91 116 159 219 247 304 369
#     4  11  24  40  62  96 126 159 202 250 310 371
#     4  11  21  39  69  87 123 164 198 259 298 371
#
# _framework density 20.235095999999999
#
# number of rings (size 3 to 8) (size 9 to 14) (size 15 to 20)
#    0.000    1.429    2.857    2.143    4.000    1.143 
#    0.000    0.000    0.000    2.571    0.000    0.000 
#    0.000    0.000    0.000    0.000    0.000    0.000 
#
# Total GULP energy -156203.455108 kJ/mol
# GULP energy per Si atom -5578.694825 kJ/mol
# Density = 2.018904 g / cm^3
# Si number density = 20.235096 Si / 1000 Ang^3
#
#
#
# Elastic Constant Matrix: (Units=GPa)
#
#
# Indices 1 2 3 4 5 6 
#
# 1 38.7427 35.1224 9.9311 0.0000 16.9306 0.0000
# 2 35.1224 123.4501 29.5580 0.0000 11.8546 0.0000
# 3 9.9311 29.5580 73.6669 0.0000 19.2319 0.0000
# 4 0.0000 0.0000 0.0000 17.2334 0.0000 2.5770
# 5 16.9306 11.8546 19.2319 0.0000 39.0838 0.0000
# 6 0.0000 0.0000 0.0000 2.5770 0.0000 10.5962
#
#
#
# Elastic Compliance Matrix: (Units=1/GPa)
#
#
# Indices 1 2 3 4 5 6 
#
# 1 0.042391 -0.011217 0.003089 0.000000 -0.016481 0.000000
# 2 -0.011217 0.011970 -0.004144 0.000000 0.003268 0.000000
# 3 0.003089 -0.004144 0.017030 0.000000 -0.008461 0.000000
# 4 0.000000 0.000000 0.000000 0.060217 0.000000 -0.014645
# 5 -0.016481 0.003268 -0.008461 0.000000 0.035897 0.000000
# 6 0.000000 0.000000 0.000000 -0.014645 0.000000 0.097935
#
#
# Mechanical properties :
#
#
# Convention : Reuss Voigt Hill
#
# Bulk Modulus (GPa) = 21.34665 42.78698 32.06681
# Shear Modulus (GPa) = 16.36123 24.13256 20.24690
#
# Velocity S-wave (km/s) = 2.84660 3.45716 3.16663
# Velocity P-wave (km/s) = 4.62346 6.09318 5.40847
#
# Compressibility (1/GPa) = 0.04684577
#
# Stress axis : x y z
#
# Youngs Moduli (GPa) = 23.58996 83.54048 58.72094
#
# Poissons Ratio (x) = 0.93711 -0.18137
# Poissons Ratio (y) = 0.26462 0.24332
# Poissons Ratio (z) = -0.07286 0.34617
#
# Static dielectric constant tensor:
#      x y z
#    x 1.752800 0.000000 -0.030240 
#    y 0.000000 1.747840 0.000000 
#    z -0.030240 0.000000 1.762090 
# 
# From -- ./inp_files/18151.got.cif
#   From: 2010.05.17/outbox.cif.g08.bks.cpg/sg12_10_cif.got.tgz:18151.got - 2010.06.03 13:09:07.
