data_PCOD9200320
_publ_section_title
;
Structure prediction by ZEFSAII (Michael W. Deem and Ramdas Pophale) SiO2 
 PCOD9200320
Probable space group: C 2/M
;
_chemical_formula_sum "Si O2"
_cell_formula_units_Z 48
_cell_length_a 26.358526
_cell_length_b 9.030778
_cell_length_c 17.811074
_cell_angle_alpha 90.000000
_cell_angle_beta 147.122444
_cell_angle_gamma 90.000000
_cell_volume 2301.508830
_symmetry_space_group_name_H-M "C 2/M"
_symmetry_group_IT_number 12
_symmetry_cell_setting 'monoclinic'
loop_
_space_group_symop_operation_xyz
x,y,z
-x,y,-z
-x,-y,-z
x,-y,z
1/2+x,1/2+y,z
1/2-x,1/2+y,-z
1/2-x,1/2-y,-z
1/2+x,1/2-y,z
loop_
_atom_site_type_symbol
_atom_site_label
_atom_site_fract_x
_atom_site_fract_y
_atom_site_fract_z
Si Si1 0.927700 0.673409 0.845744
Si Si2 0.777071 0.327314 0.781408
Si Si3 0.191048 0.175171 0.034942
Si Si4 0.381293 0.322170 0.215474
Si Si5 0.912692 0.819737 0.518055
Si Si6 0.649159 0.677565 0.390633
O O1 0.947281 0.500000 0.853203
O O2 0.828212 0.681462 0.765063
O O3 0.919807 0.766485 0.760543
O O4 0.000000 0.721861 0.000000
O O5 0.773501 0.500000 0.798002
O O6 0.833800 0.244570 0.916270
O O7 0.671809 0.268890 0.639839
O O8 0.292131 0.243301 0.139943
O O9 0.197650 0.000000 0.049722
O O10 0.124669 0.207369 0.881609
O O11 0.371982 0.500000 0.214480
O O12 0.482246 0.273525 0.370489
O O13 0.887812 0.779701 0.572877
O O14 0.911758 0.000000 0.513787
O O15 0.657502 0.500000 0.398763
O O16 0.750000 0.750000 0.500000
#
# Coordination Sequence:
#
# PCOD9200320 Si02
#       6
#     8   8   8   8   8   8
#     4  10  22  39  57  83 118 153 191 234 281 334
#     4  10  20  37  57  78 111 149 184 222 274 334
#     4  10  21  36  56  83 113 138 176 231 279 327
#     4   9  19  38  60  79 104 143 185 223 273 332
#     4   9  19  36  58  81 106 144 190 228 266 328
#     4  11  21  37  60  84 116 152 191 234 279 333
#
# _framework density 20.855885000000001
#
# number of rings (size 3 to 8) (size 9 to 14) (size 15 to 20)
#    0.000    2.167    1.667    1.000    2.333    2.333 
#    0.000    5.833    0.000    0.000    0.000    0.000 
#    0.000    0.000    0.000    0.000    0.000    0.000 
#
# Total GULP energy -134035.585151 kJ/mol
# GULP energy per Si atom -5584.816048 kJ/mol
# Density = 2.080842 g / cm^3
# Si number density = 20.855885 Si / 1000 Ang^3
#
#
#
# Elastic Constant Matrix: (Units=GPa)
#
#
# Indices 1 2 3 4 5 6 
#
# 1 21.5434 4.5477 -4.3821 0.0000 -9.5146 0.0000
# 2 4.5477 28.8320 17.4552 0.0000 -12.2002 0.0000
# 3 -4.3821 17.4552 88.3340 0.0000 1.3997 0.0000
# 4 0.0000 0.0000 0.0000 27.3817 0.0000 -7.7829
# 5 -9.5146 -12.2002 1.3997 0.0000 39.4173 0.0000
# 6 0.0000 0.0000 0.0000 -7.7829 0.0000 21.8325
#
#
#
# Elastic Compliance Matrix: (Units=1/GPa)
#
#
# Indices 1 2 3 4 5 6 
#
# 1 0.053226 -0.006016 0.003657 0.000000 0.010856 0.000000
# 2 -0.006016 0.047341 -0.009868 0.000000 0.013551 0.000000
# 3 0.003657 -0.009868 0.013494 0.000000 -0.002651 0.000000
# 4 0.000000 0.000000 0.000000 0.040638 0.000000 0.014487
# 5 0.010856 0.013551 -0.002651 0.000000 0.032278 0.000000
# 6 0.000000 0.000000 0.000000 0.014487 0.000000 0.050968
#
#
# Mechanical properties :
#
#
# Convention : Reuss Voigt Hill
#
# Bulk Modulus (GPa) = 11.15972 19.32789 15.24381
# Shear Modulus (GPa) = 17.10758 25.79887 21.45323
#
# Velocity S-wave (km/s) = 2.86715 3.52093 3.21072
# Velocity P-wave (km/s) = 4.04020 5.08101 4.59020
#
# Compressibility (1/GPa) = 0.08960798
#
# Stress axis : x y z
#
# Youngs Moduli (GPa) = 18.78769 21.12345 74.10677
#
# Poissons Ratio (x) = 0.12708 -0.27102
# Poissons Ratio (y) = 0.11302 0.73128
# Poissons Ratio (z) = -0.06871 0.20844
#
# Static dielectric constant tensor:
#      x y z
#    x 1.771280 0.000000 0.013720 
#    y 0.000000 1.700430 0.000000 
#    z 0.013720 0.000000 1.776660 
# 
# From -- ./inp_files/244614.got.cif
#   From: 2010.05.17/outbox.cif.g08.bks.cpg/sg12_123_cif.got.tgz:244614.got - 2010.06.03 13:09:07.
