data_PCOD9200359
_publ_section_title
;
Structure prediction by ZEFSAII (Michael W. Deem and Ramdas Pophale) SiO2 
 PCOD9200359
Probable space group: C 2/M
;
_chemical_formula_sum "Si O2"
_cell_formula_units_Z 52
_cell_length_a 8.910435
_cell_length_b 28.281512
_cell_length_c 12.850367
_cell_angle_alpha 90.000000
_cell_angle_beta 125.980254
_cell_angle_gamma 90.000000
_cell_volume 2620.495451
_symmetry_space_group_name_H-M "C 2/M"
_symmetry_group_IT_number 12
_symmetry_cell_setting 'monoclinic'
loop_
_space_group_symop_operation_xyz
x,y,z
-x,y,-z
-x,-y,-z
x,-y,z
1/2+x,1/2+y,z
1/2-x,1/2+y,-z
1/2-x,1/2-y,-z
1/2+x,1/2-y,z
loop_
_atom_site_type_symbol
_atom_site_label
_atom_site_fract_x
_atom_site_fract_y
_atom_site_fract_z
Si Si1 0.741524 0.052959 0.798488
Si Si2 0.231957 0.710634 0.902358
Si Si3 0.124891 0.706121 0.152605
Si Si4 0.700556 0.907361 0.563715
Si Si5 0.000000 0.871883 0.000000
Si Si6 0.174992 0.555004 0.321274
Si Si7 0.436705 0.362244 0.355406
O O1 0.707233 0.056224 0.661447
O O2 0.891950 0.092845 0.881064
O O3 0.547131 0.063314 0.778846
O O4 0.799508 0.000000 0.850629
O O5 0.320091 0.738950 0.842202
O O6 0.344701 0.664216 0.977754
O O7 0.015231 0.699827 0.808124
O O8 0.250000 0.750000 0.000000
O O9 0.308198 0.676458 0.247941
O O10 0.000000 0.691222 0.000000
O O11 0.500000 0.882918 0.500000
O O12 0.710217 0.933852 0.457291
O O13 0.877114 0.873153 0.632664
O O14 0.212969 0.500000 0.313989
O O15 0.307305 0.590755 0.313270
O O16 0.500000 0.349784 0.500000
#
# Coordination Sequence:
#
# PCOD9200359 Si02
#       7
#     8   8   8   8   4   8   8
#     4  10  21  34  54  86 120 151 192 237 289 343
#     4  10  20  37  57  83 104 146 201 240 282 346
#     4  10  21  38  61  83 114 142 199 245 286 353
#     4   9  19  34  56  83 114 154 197 236 280 345
#     4  12  21  34  60  82 116 156 191 242 294 342
#     4   9  18  36  56  79 116 157 192 233 283 349
#     4  10  21  36  58  88 117 151 194 243 298 341
#
# _framework density 19.843575000000001
#
# number of rings (size 3 to 8) (size 9 to 14) (size 15 to 20)
#    0.000    2.154    2.308    1.615    4.308    5.231 
#    0.000    0.769    0.000    3.231    0.000    0.000 
#    0.000    0.000    0.000    0.000    0.000    0.000 
#
# Total GULP energy -144836.663558 kJ/mol
# GULP energy per Si atom -5570.640906 kJ/mol
# Density = 1.979841 g / cm^3
# Si number density = 19.843575 Si / 1000 Ang^3
#
#
#
# Elastic Constant Matrix: (Units=GPa)
#
#
# Indices 1 2 3 4 5 6 
#
# 1 106.0675 37.7730 27.1068 0.0000 35.8818 0.0000
# 2 37.7730 103.8324 44.4011 0.0000 26.5702 0.0000
# 3 27.1068 44.4011 64.4315 0.0000 23.6832 0.0000
# 4 0.0000 0.0000 0.0000 14.0755 0.0000 3.3486
# 5 35.8818 26.5702 23.6832 0.0000 26.8599 0.0000
# 6 0.0000 0.0000 0.0000 3.3486 0.0000 -17.8597
#
#
#
# Elastic Compliance Matrix: (Units=1/GPa)
#
#
# Indices 1 2 3 4 5 6 
#
# 1 0.017432 -0.001153 0.002369 0.000000 -0.024235 0.000000
# 2 -0.001153 0.014902 -0.007297 0.000000 -0.006768 0.000000
# 3 0.002369 -0.007297 0.026723 0.000000 -0.019509 0.000000
# 4 0.000000 0.000000 0.000000 0.068012 0.000000 0.012752
# 5 -0.024235 -0.006768 -0.019509 0.000000 0.093503 0.000000
# 6 0.000000 0.000000 0.000000 0.012752 0.000000 -0.053601
#
#
# Mechanical properties :
#
#
# Convention : Reuss Voigt Hill
#
# Bulk Modulus (GPa) = 21.32384 54.76591 38.04487
# Shear Modulus (GPa) = 25.67206 15.61850 20.64528
#
# Velocity S-wave (km/s) = 3.60074 2.80854 3.22902
# Velocity P-wave (km/s) = 5.29683 6.17867 5.75466
#
# Compressibility (1/GPa) = 0.04689588
#
# Stress axis : x y z
#
# Youngs Moduli (GPa) = 57.36676 67.10300 37.42056
#
# Poissons Ratio (x) = 0.07736 -0.08865
# Poissons Ratio (y) = 0.06613 0.27306
# Poissons Ratio (z) = -0.13590 0.48965
#
# Static dielectric constant tensor:
#      x y z
#    x 1.796850 0.000000 0.023510 
#    y 0.000000 1.689480 0.000000 
#    z 0.023510 0.000000 1.739210 
# 
# From -- ./inp_files/200699.got.cif
#   From: 2010.05.17/outbox.cif.g08.bks.cpg/sg12_101_cif.got.tgz:200699.got - 2010.06.03 13:09:07.
