data_PCOD9200315
_publ_section_title
;
Structure prediction by ZEFSAII (Michael W. Deem and Ramdas Pophale) SiO2 
 PCOD9200315
Probable space group: C 2/M
;
_chemical_formula_sum "Si O2"
_cell_formula_units_Z 56
_cell_length_a 16.076284
_cell_length_b 17.495566
_cell_length_c 17.994776
_cell_angle_alpha 90.000000
_cell_angle_beta 34.491554
_cell_angle_gamma 90.000000
_cell_volume 2866.123993
_symmetry_space_group_name_H-M "C 2/M"
_symmetry_group_IT_number 12
_symmetry_cell_setting 'monoclinic'
loop_
_space_group_symop_operation_xyz
x,y,z
-x,y,-z
-x,-y,-z
x,-y,z
1/2+x,1/2+y,z
1/2-x,1/2+y,-z
1/2-x,1/2-y,-z
1/2+x,1/2-y,z
loop_
_atom_site_type_symbol
_atom_site_label
_atom_site_fract_x
_atom_site_fract_y
_atom_site_fract_z
Si Si1 0.337098 0.412045 0.936802
Si Si2 0.659958 0.251997 0.409831
Si Si3 0.908337 0.911618 0.466512
Si Si4 0.096044 0.174644 0.681692
Si Si5 0.086804 0.719376 0.873497
Si Si6 0.891480 0.298961 0.871483
Si Si7 0.258144 0.416060 0.819351
O O1 0.360407 0.500000 0.939005
O O2 0.492609 0.366137 0.820846
O O3 0.291869 0.408004 0.882214
O O4 0.196075 0.376300 0.083379
O O5 0.500000 0.229963 0.500000
O O6 0.654790 0.341799 0.438346
O O7 0.745793 0.205550 0.410076
O O8 0.769094 0.239922 0.261244
O O9 0.881441 0.884344 0.401638
O O10 0.086102 0.910380 0.338064
O O11 0.862070 0.000000 0.515097
O O12 0.991827 0.249364 0.740934
O O13 0.149036 0.646823 0.871325
O O14 0.994225 0.695424 0.869033
O O15 0.000000 0.765332 0.000000
O O16 0.750000 0.250000 0.000000
O O17 0.197405 0.500000 0.850891
#
# Coordination Sequence:
#
# PCOD9200315 Si02
#       7
#     8   8   8   8   8   8   8
#     4   9  16  30  51  77 110 149 187 221 270 337
#     4  11  22  35  55  83 115 148 194 236 281 337
#     4  10  20  37  57  76 107 152 192 230 277 340
#     4   9  19  34  53  78 107 151 194 235 277 331
#     4  11  20  32  48  75 112 145 179 223 271 336
#     4   9  18  30  48  73 107 143 185 229 266 325
#     4   9  17  28  47  72 103 142 175 210 262 327
#
# _framework density 19.538582000000002
#
# number of rings (size 3 to 8) (size 9 to 14) (size 15 to 20)
#    0.000    2.286    2.857    1.714    0.000    1.714 
#    0.000    2.143    0.000    1.714    0.000    0.000 
#    0.000  118.286    0.000    0.000    0.000    0.000 
#
# Total GULP energy -155875.340083 kJ/mol
# GULP energy per Si atom -5566.976432 kJ/mol
# Density = 1.949411 g / cm^3
# Si number density = 19.538582 Si / 1000 Ang^3
#
#
#
# Elastic Constant Matrix: (Units=GPa)
#
#
# Indices 1 2 3 4 5 6 
#
# 1 45.3133 23.2136 21.4830 -0.0001 -27.2261 0.0002
# 2 23.2136 82.3020 16.2076 0.0007 -16.3743 0.0000
# 3 21.4830 16.2076 83.0000 0.0011 -21.4120 0.0002
# 4 -0.0001 0.0007 0.0011 7.3302 -0.0002 0.9640
# 5 -27.2261 -16.3743 -21.4120 -0.0002 31.1983 -0.0002
# 6 0.0002 0.0000 0.0002 0.9640 -0.0002 20.6583
#
#
#
# Elastic Compliance Matrix: (Units=1/GPa)
#
#
# Indices 1 2 3 4 5 6 
#
# 1 0.049014 -0.005828 -0.001583 0.000003 0.038628 0.000000
# 2 -0.005828 0.014327 -0.000804 -0.000001 0.001882 0.000000
# 3 -0.001583 -0.000804 0.014764 -0.000002 0.008329 0.000000
# 4 0.000003 -0.000001 -0.000002 0.137264 0.000001 -0.006405
# 5 0.038628 0.001882 0.008329 0.000001 0.072467 0.000000
# 6 0.000000 0.000000 0.000000 -0.006405 0.000000 0.048706
#
#
# Mechanical properties :
#
#
# Convention : Reuss Voigt Hill
#
# Bulk Modulus (GPa) = 16.21387 36.93595 26.57491
# Shear Modulus (GPa) = 13.38584 21.81811 17.60198
#
# Velocity S-wave (km/s) = 2.62028 3.34528 3.00473
# Velocity P-wave (km/s) = 4.17982 5.81948 5.06642
#
# Compressibility (1/GPa) = 0.06167560
#
# Stress axis : x y z
#
# Youngs Moduli (GPa) = 20.40224 69.79922 67.73397
#
# Poissons Ratio (x) = 0.40676 0.10724
# Poissons Ratio (y) = 0.11890 0.05444
# Poissons Ratio (z) = 0.03230 0.05610
#
# Static dielectric constant tensor:
#      x y z
#    x 1.736550 0.000000 0.048340 
#    y 0.000000 1.750750 0.000000 
#    z 0.048340 0.000000 1.766720 
# 
# From -- ./inp_files/317145.got.cif
#   From: 2010.05.17/outbox.cif.g08.bks.cpg/sg12_159_cif.got.tgz:317145.got - 2010.06.03 13:09:07.
