data_PCOD9200194
_publ_section_title
;
Structure prediction by ZEFSAII (Michael W. Deem and Ramdas Pophale) SiO2 
 PCOD9200194
Probable space group: C 2/M
;
_chemical_formula_sum "Si O2"
_cell_formula_units_Z 32
_cell_length_a 17.057881
_cell_length_b 17.713985
_cell_length_c 13.042884
_cell_angle_alpha 90.000000
_cell_angle_beta 156.612263
_cell_angle_gamma 90.000000
_cell_volume 1564.416481
_symmetry_space_group_name_H-M "C 2/M"
_symmetry_group_IT_number 12
_symmetry_cell_setting 'monoclinic'
loop_
_space_group_symop_operation_xyz
x,y,z
-x,y,-z
-x,-y,-z
x,-y,z
1/2+x,1/2+y,z
1/2-x,1/2+y,-z
1/2-x,1/2-y,-z
1/2+x,1/2-y,z
loop_
_atom_site_type_symbol
_atom_site_label
_atom_site_fract_x
_atom_site_fract_y
_atom_site_fract_z
Si Si1 0.145009 0.260917 0.482211
Si Si2 0.617433 0.373442 0.798533
Si Si3 0.016174 0.582882 0.641395
Si Si4 0.785544 0.371028 0.773794
O O1 0.250000 0.250000 0.500000
O O2 0.268657 0.217009 0.718362
O O3 0.944517 0.211473 0.244634
O O4 0.101122 0.347420 0.451117
O O5 0.737983 0.376113 0.836530
O O6 0.400303 0.406868 0.510816
O O7 0.756516 0.409311 0.049959
O O8 0.943853 0.500000 0.586707
O O9 0.000000 0.588996 0.500000
O O10 0.000000 0.399734 0.000000
#
# Coordination Sequence:
#
# PCOD9200194 Si02
#       4
#     8   8   8   8
#     4  10  20  36  67  94 124 163 218 272 314 377
#     4   9  20  38  62  91 122 159 218 265 312 376
#     4  11  23  40  62  92 135 178 208 257 330 394
#     4   9  18  35  65  96 117 149 218 276 321 355
#
# _framework density 20.454912
#
# number of rings (size 3 to 8) (size 9 to 14) (size 15 to 20)
#    1.500    0.750    0.000    3.750    0.000    2.000 
#    0.000    3.750    0.000    6.750    0.000    0.000 
#    0.000    0.000    0.000    0.000    0.000    0.000 
#
# Total GULP energy -89126.306798 kJ/mol
# GULP energy per Si atom -5570.394175 kJ/mol
# Density = 2.040836 g / cm^3
# Si number density = 20.454912 Si / 1000 Ang^3
#
#
#
# Elastic Constant Matrix: (Units=GPa)
#
#
# Indices 1 2 3 4 5 6 
#
# 1 97.0729 32.2318 74.9156 0.0000 9.4948 0.0000
# 2 32.2318 117.7365 23.4062 0.0000 -5.3007 0.0000
# 3 74.9156 23.4062 149.8551 0.0000 -6.2705 0.0000
# 4 0.0000 0.0000 0.0000 -41.7883 0.0000 -13.1510
# 5 9.4948 -5.3007 -6.2705 0.0000 37.4930 0.0000
# 6 0.0000 0.0000 0.0000 -13.1510 0.0000 8.1448
#
#
#
# Elastic Compliance Matrix: (Units=1/GPa)
#
#
# Indices 1 2 3 4 5 6 
#
# 1 0.019578 -0.003792 -0.009492 0.000000 -0.007082 0.000000
# 2 -0.003792 0.009539 0.000506 0.000000 0.002393 0.000000
# 3 -0.009492 0.000506 0.011523 0.000000 0.004402 0.000000
# 4 0.000000 0.000000 0.000000 -0.015867 0.000000 -0.025620
# 5 -0.007082 0.002393 0.004402 0.000000 0.029540 0.000000
# 6 0.000000 0.000000 0.000000 -0.025620 0.000000 0.081410
#
#
# Mechanical properties :
#
#
# Convention : Reuss Voigt Hill
#
# Bulk Modulus (GPa) = 66.28935 69.53020 67.90977
# Shear Modulus (GPa) = 30.06497 16.37729 23.22113
#
# Velocity S-wave (km/s) = 3.83798 2.83265 3.37298
# Velocity P-wave (km/s) = 7.21928 6.69061 6.95997
#
# Compressibility (1/GPa) = 0.01508538
#
# Stress axis : x y z
#
# Youngs Moduli (GPa) = 51.07684 104.83542 86.77977
#
# Poissons Ratio (x) = 0.39750 0.82369
# Poissons Ratio (y) = 0.19367 -0.04389
# Poissons Ratio (z) = 0.48481 -0.05303
#
# Static dielectric constant tensor:
#      x y z
#    x 1.663290 0.000000 -0.009380 
#    y 0.000000 1.746380 0.000000 
#    z -0.009380 0.000000 1.769320 
# 
# From -- ./inp_files/104276.got.cif
#   From: 2010.05.17/outbox.cif.g08.bks.cpg/sg12_53_cif.got.tgz:104276.got - 2010.06.03 13:09:07.
