data_PCOD9200924
_publ_section_title
;
Structure prediction by ZEFSAII (Michael W. Deem and Ramdas Pophale) SiO2 
 PCOD9200924
Probable space group: C 2/M
;
_chemical_formula_sum "Si O2"
_cell_formula_units_Z 56
_cell_length_a 29.177596
_cell_length_b 8.560050
_cell_length_c 19.759009
_cell_angle_alpha 90.000000
_cell_angle_beta 143.532393
_cell_angle_gamma 90.000000
_cell_volume 2933.232897
_symmetry_space_group_name_H-M "C 2/M"
_symmetry_group_IT_number 12
_symmetry_cell_setting 'monoclinic'
loop_
_space_group_symop_operation_xyz
x,y,z
-x,y,-z
-x,-y,-z
x,-y,z
1/2+x,1/2+y,z
1/2-x,1/2+y,-z
1/2-x,1/2-y,-z
1/2+x,1/2-y,z
loop_
_atom_site_type_symbol
_atom_site_label
_atom_site_fract_x
_atom_site_fract_y
_atom_site_fract_z
Si Si1 0.545290 0.812088 0.773947
Si Si2 0.073223 0.815818 0.956585
Si Si3 0.259486 0.313717 0.669474
Si Si4 0.625953 0.188852 0.412375
Si Si5 0.303485 0.813111 0.124194
Si Si6 0.237844 0.683877 0.185843
Si Si7 0.408770 0.813139 0.782383
O O1 0.566757 0.727037 0.869293
O O2 0.456771 0.771413 0.652923
O O3 0.608624 0.776584 0.792748
O O4 0.548339 0.000000 0.790649
O O5 0.992423 0.761729 0.892879
O O6 0.084280 0.000000 0.978555
O O7 0.147522 0.726427 0.072042
O O8 0.266539 0.500000 0.671822
O O9 0.198664 0.253589 0.541160
O O10 0.231765 0.270037 0.711355
O O11 0.342671 0.238602 0.754851
O O12 0.620180 0.238439 0.327204
O O13 0.631267 0.000000 0.418035
O O14 0.277909 0.740260 0.164526
O O15 0.294615 0.000000 0.117292
O O16 0.250000 0.750000 0.000000
O O17 0.247117 0.500000 0.204595
O O18 0.417369 0.000000 0.792207
#
# Coordination Sequence:
#
# PCOD9200924 Si02
#       7
#     8   8   8   8   8   8   8
#     4   9  18  35  59  87 116 147 183 230 286 338
#     4  11  21  35  57  86 115 145 188 237 285 335
#     4  11  22  38  58  83 114 150 194 239 281 331
#     4   8  17  35  60  86 114 148 189 233 277 333
#     4  11  21  35  60  89 117 148 188 232 283 340
#     4  12  25  40  56  79 116 156 192 233 287 344
#     4  10  20  37  60  86 116 150 188 229 284 343
#
# _framework density 19.091564000000002
#
# number of rings (size 3 to 8) (size 9 to 14) (size 15 to 20)
#    0.000    1.714    1.429    5.143    0.000    1.143 
#    0.000   10.000    0.000    4.286    0.000    0.000 
#    0.000    0.000    0.000    0.000    0.000    0.000 
#
# Total GULP energy -156431.563101 kJ/mol
# GULP energy per Si atom -5586.841539 kJ/mol
# Density = 1.904811 g / cm^3
# Si number density = 19.091564 Si / 1000 Ang^3
#
#
#
# Elastic Constant Matrix: (Units=GPa)
#
#
# Indices 1 2 3 4 5 6 
#
# 1 95.9714 4.0053 11.7652 0.0000 7.3599 0.0000
# 2 4.0053 32.0280 -6.5037 0.0000 7.4722 0.0000
# 3 11.7652 -6.5037 13.0615 0.0000 5.1415 0.0000
# 4 0.0000 0.0000 0.0000 20.7708 0.0000 -1.0953
# 5 7.3599 7.4722 5.1415 0.0000 21.7536 0.0000
# 6 0.0000 0.0000 0.0000 -1.0953 0.0000 30.6206
#
#
#
# Elastic Compliance Matrix: (Units=1/GPa)
#
#
# Indices 1 2 3 4 5 6 
#
# 1 0.012201 -0.004366 -0.013373 0.000000 0.000532 0.000000
# 2 -0.004366 0.043777 0.034255 0.000000 -0.021656 0.000000
# 3 -0.013373 0.034255 0.119645 0.000000 -0.035520 0.000000
# 4 0.000000 0.000000 0.000000 0.048236 0.000000 0.001725
# 5 0.000532 -0.021656 -0.035520 0.000000 0.061623 0.000000
# 6 0.000000 0.000000 0.000000 0.001725 0.000000 0.032719
#
#
# Mechanical properties :
#
#
# Convention : Reuss Voigt Hill
#
# Bulk Modulus (GPa) = 4.79262 17.73275 11.26268
# Shear Modulus (GPa) = 14.09562 23.41524 18.75543
#
# Velocity S-wave (km/s) = 2.72015 3.50590 3.13772
# Velocity P-wave (km/s) = 3.51872 5.06921 4.36338
#
# Compressibility (1/GPa) = 0.20865424
#
# Stress axis : x y z
#
# Youngs Moduli (GPa) = 81.96352 22.84311 8.35807
#
# Poissons Ratio (x) = 0.09972 0.11177
# Poissons Ratio (y) = 0.35782 -0.28630
# Poissons Ratio (z) = 1.09610 -0.78248
#
# Static dielectric constant tensor:
#      x y z
#    x 1.664290 0.000000 0.001370 
#    y 0.000000 1.643900 0.000000 
#    z 0.001370 0.000000 1.665800 
# 
# From -- ./inp_files/292519.got.cif
#   From: 2010.05.17/outbox.cif.g08.bks.cpg/sg12_147_cif.got.tgz:292519.got - 2010.06.03 13:09:07.
