data_PCOD9200001
_publ_section_title
;
Structure prediction by ZEFSAII (Michael W. Deem and Ramdas Pophale) SiO2 
 PCOD9200001
Probable space group: C 2/M
;
_chemical_formula_sum "Si O2"
_cell_formula_units_Z 64
_cell_length_a 9.175826
_cell_length_b 18.009021
_cell_length_c 31.095540
_cell_angle_alpha 90.000000
_cell_angle_beta 141.832829
_cell_angle_gamma 90.000000
_cell_volume 3175.355461
_symmetry_space_group_name_H-M "C 2/M"
_symmetry_group_IT_number 12
_symmetry_cell_setting 'monoclinic'
loop_
_space_group_symop_operation_xyz
x,y,z
-x,y,-z
-x,-y,-z
x,-y,z
1/2+x,1/2+y,z
1/2-x,1/2+y,-z
1/2-x,1/2-y,-z
1/2+x,1/2-y,z
loop_
_atom_site_type_symbol
_atom_site_label
_atom_site_fract_x
_atom_site_fract_y
_atom_site_fract_z
Si Si1 0.481399 0.410538 0.173693
Si Si2 0.913211 0.803750 0.432672
Si Si3 0.741221 0.697024 0.806268
Si Si4 0.751461 0.350927 0.433313
Si Si5 0.248989 0.917786 0.965611
Si Si6 0.682797 0.416699 0.715691
Si Si7 0.520024 0.146647 0.724234
Si Si8 0.242562 0.692032 0.959881
O O1 0.423753 0.500000 0.165263
O O2 0.350100 0.352536 0.174627
O O3 0.422076 0.386095 0.110743
O O4 0.757368 0.395897 0.243525
O O5 0.834509 0.718526 0.422949
O O6 0.678397 0.839672 0.358024
O O7 0.000000 0.830739 0.500000
O O8 0.117574 0.817335 0.444437
O O9 0.699823 0.644817 0.756033
O O10 0.608334 0.774853 0.765799
O O11 0.021622 0.707143 0.878252
O O12 0.560265 0.401665 0.365840
O O13 0.000000 0.390378 0.500000
O O14 0.159900 0.000000 0.951778
O O15 0.500000 0.917425 0.000000
O O16 0.283872 0.883708 0.020135
O O17 0.692135 0.500000 0.735112
O O18 0.895481 0.401497 0.732169
O O19 0.500000 0.694635 0.000000
O O20 0.250000 0.750000 0.000000
#
# Coordination Sequence:
#
# PCOD9200001 Si02
#       8
#     8   8   8   8   8   8   8   8
#     4  11  24  42  67  93 128 172 213 263 323 382
#     4  10  20  36  62  96 125 162 215 265 306 375
#     4  12  25  42  68  95 128 168 219 262 319 386
#     4  10  20  37  62  92 128 169 210 258 319 370
#     4  10  21  43  65  89 125 169 213 258 317 390
#     4  11  25  43  63  97 136 169 210 267 322 381
#     4  11  24  41  67  94 128 171 213 263 322 379
#     4  12  28  43  67  96 128 164 214 276 327 375
#
# _framework density 20.155224
#
# number of rings (size 3 to 8) (size 9 to 14) (size 15 to 20)
#    0.000    1.125    2.500    4.125    7.000    2.000 
#    0.000    0.000    0.000    9.375    0.000    0.000 
#    0.000    0.500    0.000    0.000    0.000    0.000 
#
# Total GULP energy -178573.001499 kJ/mol
# GULP energy per Si atom -5580.406297 kJ/mol
# Density = 2.010935 g / cm^3
# Si number density = 20.155224 Si / 1000 Ang^3
#
#
#
# Elastic Constant Matrix: (Units=GPa)
#
#
# Indices 1 2 3 4 5 6 
#
# 1 65.9519 11.3916 25.4890 0.0004 20.1926 -0.0001
# 2 11.3916 64.9583 17.0226 0.0004 -0.5094 -0.0001
# 3 25.4890 17.0226 117.9150 -0.0019 18.8561 0.0004
# 4 0.0004 0.0004 -0.0019 -28.7961 0.0002 10.9400
# 5 20.1926 -0.5094 18.8561 0.0002 34.0645 -0.0001
# 6 -0.0001 -0.0001 0.0004 10.9400 -0.0001 15.7785
#
#
#
# Elastic Compliance Matrix: (Units=1/GPa)
#
#
# Indices 1 2 3 4 5 6 
#
# 1 0.019740 -0.002982 -0.002149 0.000000 -0.010557 0.000000
# 2 -0.002982 0.016537 -0.002265 0.000000 0.003269 0.000000
# 3 -0.002149 -0.002265 0.009955 -0.000001 -0.004271 0.000000
# 4 0.000000 0.000000 -0.000001 -0.027487 0.000000 0.019058
# 5 -0.010557 0.003269 -0.004271 0.000000 0.038027 0.000000
# 6 0.000000 0.000000 0.000000 0.019058 0.000000 0.050164
#
#
# Mechanical properties :
#
#
# Convention : Reuss Voigt Hill
#
# Bulk Modulus (GPa) = 31.80580 39.62573 35.71577
# Shear Modulus (GPa) = 37.81943 17.20418 27.51181
#
# Velocity S-wave (km/s) = 4.33645 2.92479 3.69859
# Velocity P-wave (km/s) = 6.39436 5.57753 5.99986
#
# Compressibility (1/GPa) = 0.03144080
#
# Stress axis : x y z
#
# Youngs Moduli (GPa) = 50.65827 60.47165 100.45070
#
# Poissons Ratio (x) = 0.18030 0.21582
# Poissons Ratio (y) = 0.15104 0.22757
# Poissons Ratio (z) = 0.10884 0.13700
#
# Static dielectric constant tensor:
#      x y z
#    x 1.683470 0.000000 0.024460 
#    y 0.000000 1.542180 0.000000 
#    z 0.024460 0.000000 1.740200 
# 
# From -- ./inp_files/372976.got.cif
#   From: 2010.05.17/outbox.cif.g08.bks.cpg/sg12_187_cif.got.tgz:372976.got - 2010.06.03 13:09:07.
