data_PCOD9200738
_publ_section_title
;
Structure prediction by ZEFSAII (Michael W. Deem and Ramdas Pophale) SiO2 
 PCOD9200738
Probable space group: C 2/M
;
_chemical_formula_sum "Si O2"
_cell_formula_units_Z 64
_cell_length_a 23.708487
_cell_length_b 7.657239
_cell_length_c 15.766697
_cell_angle_alpha 90.000000
_cell_angle_beta 92.202333
_cell_angle_gamma 90.000000
_cell_volume 2860.196393
_symmetry_space_group_name_H-M "C 2/M"
_symmetry_group_IT_number 12
_symmetry_cell_setting 'monoclinic'
loop_
_space_group_symop_operation_xyz
x,y,z
-x,y,-z
-x,-y,-z
x,-y,z
1/2+x,1/2+y,z
1/2-x,1/2+y,-z
1/2-x,1/2-y,-z
1/2+x,1/2-y,z
loop_
_atom_site_type_symbol
_atom_site_label
_atom_site_fract_x
_atom_site_fract_y
_atom_site_fract_z
Si Si1 0.957813 0.204418 0.924284
Si Si2 0.577359 0.200023 0.428803
Si Si3 0.008819 0.289026 0.264674
Si Si4 0.204860 0.791986 0.424321
Si Si5 0.171181 0.294616 0.053709
Si Si6 0.913327 0.712996 0.387209
Si Si7 0.788560 0.297476 0.123583
Si Si8 0.797676 0.714056 0.307783
O O1 0.981632 0.225743 0.830281
O O2 0.893827 0.275204 0.925059
O O3 0.951983 0.000000 0.941692
O O4 0.000000 0.277198 0.000000
O O5 0.553877 0.273167 0.338856
O O6 0.645006 0.202173 0.430615
O O7 0.563511 0.276914 0.520873
O O8 0.556081 0.000000 0.428996
O O9 0.011648 0.500000 0.258543
O O10 0.950336 0.240471 0.307612
O O11 0.250000 0.750000 0.500000
O O12 0.237411 0.735351 0.341316
O O13 0.195174 0.000000 0.422410
O O14 0.184708 0.500000 0.054436
O O15 0.220538 0.211259 0.113045
O O16 0.183591 0.222785 0.959687
O O17 0.913235 0.500000 0.391535
O O18 0.849314 0.771203 0.369415
O O19 0.805907 0.500000 0.126465
O O20 0.806656 0.220114 0.213674
O O21 0.798220 0.500000 0.307848
#
# Coordination Sequence:
#
# PCOD9200738 Si02
#       8
#     8   8   8   8   8   8   8   8
#     4  11  26  45  62  82 117 160 197 242 304 359
#     4  10  20  37  59  88 122 154 191 238 291 353
#     4  10  22  38  64  93 114 147 199 248 292 343
#     4  11  21  35  55  82 116 157 196 234 284 340
#     4  10  21  38  62  89 116 148 192 243 296 352
#     4   9  17  34  60  87 118 153 192 240 289 341
#     4   9  19  36  60  89 118 151 190 238 296 356
#     4   9  18  32  55  84 112 151 193 231 285 346
#
# _framework density 22.376086000000001
#
# number of rings (size 3 to 8) (size 9 to 14) (size 15 to 20)
#    0.000    2.125    1.250    1.500    3.500    3.500 
#    0.000    1.250    0.000    1.500    0.000    0.000 
#    0.000    0.000    0.000    0.000    0.000    0.000 
#
# Total GULP energy -178601.407687 kJ/mol
# GULP energy per Si atom -5581.293990 kJ/mol
# Density = 2.232516 g / cm^3
# Si number density = 22.376086 Si / 1000 Ang^3
#
#
#
# Elastic Constant Matrix: (Units=GPa)
#
#
# Indices 1 2 3 4 5 6 
#
# 1 88.1832 -15.8758 32.5471 0.0000 -14.7999 0.0000
# 2 -15.8758 46.1977 -10.7287 0.0000 -1.6998 0.0000
# 3 32.5471 -10.7287 140.4631 0.0000 1.9139 0.0000
# 4 0.0000 0.0000 0.0000 9.4189 0.0000 0.5951
# 5 -14.7999 -1.6998 1.9139 0.0000 27.2708 0.0000
# 6 0.0000 0.0000 0.0000 0.5951 0.0000 11.7917
#
#
#
# Elastic Compliance Matrix: (Units=1/GPa)
#
#
# Indices 1 2 3 4 5 6 
#
# 1 0.014788 0.004656 -0.003187 0.000000 0.008539 0.000000
# 2 0.004656 0.023546 0.000666 0.000000 0.003948 0.000000
# 3 -0.003187 0.000666 0.007939 0.000000 -0.002245 0.000000
# 4 0.000000 0.000000 0.000000 0.106509 0.000000 -0.005375
# 5 0.008539 0.003948 -0.002245 0.000000 0.041707 0.000000
# 6 0.000000 0.000000 0.000000 -0.005375 0.000000 0.085077
#
#
# Mechanical properties :
#
#
# Convention : Reuss Voigt Hill
#
# Bulk Modulus (GPa) = 19.78561 31.85880 25.82221
# Shear Modulus (GPa) = 17.11484 27.62304 22.36894
#
# Velocity S-wave (km/s) = 2.76863 3.51734 3.16520
# Velocity P-wave (km/s) = 4.36829 5.54656 4.99231
#
# Compressibility (1/GPa) = 0.05054177
#
# Stress axis : x y z
#
# Youngs Moduli (GPa) = 67.62368 42.47016 125.95588
#
# Poissons Ratio (x) = -0.19773 0.40145
# Poissons Ratio (y) = -0.31484 -0.08387
# Poissons Ratio (z) = 0.21553 -0.02828
#
# Static dielectric constant tensor:
#      x y z
#    x 1.803290 0.000000 0.007000 
#    y 0.000000 1.837530 0.000000 
#    z 0.007000 0.000000 1.850580 
# 
# From -- ./inp_files/238768.got.cif
#   From: 2010.05.17/outbox.cif.g08.bks.cpg/sg12_120_cif.got.tgz:238768.got - 2010.06.03 13:09:07.
