data_PCOD9200193
_publ_section_title
;
Structure prediction by ZEFSAII (Michael W. Deem and Ramdas Pophale) SiO2 
 PCOD9200193
Probable space group: C 2/M
;
_chemical_formula_sum "Si O2"
_cell_formula_units_Z 40
_cell_length_a 9.763558
_cell_length_b 26.837993
_cell_length_c 7.274982
_cell_angle_alpha 90.000000
_cell_angle_beta 59.116823
_cell_angle_gamma 90.000000
_cell_volume 1636.012058
_symmetry_space_group_name_H-M "C 2/M"
_symmetry_group_IT_number 12
_symmetry_cell_setting 'monoclinic'
loop_
_space_group_symop_operation_xyz
x,y,z
-x,y,-z
-x,-y,-z
x,-y,z
1/2+x,1/2+y,z
1/2-x,1/2+y,-z
1/2-x,1/2-y,-z
1/2+x,1/2-y,z
loop_
_atom_site_type_symbol
_atom_site_label
_atom_site_fract_x
_atom_site_fract_y
_atom_site_fract_z
Si Si1 0.460709 0.500000 0.755041
Si Si2 0.390375 0.099894 0.341546
Si Si3 0.230778 0.405294 0.989970
Si Si4 0.304231 0.305842 0.473984
Si Si5 0.852027 0.199603 0.879331
Si Si6 0.309726 0.000000 0.572157
O O1 0.500000 0.500000 0.500000
O O2 0.354929 0.450503 0.877198
O O3 0.623055 0.500000 0.765871
O O4 0.343396 0.102656 0.160575
O O5 0.325600 0.151068 0.474405
O O6 0.299413 0.052052 0.473965
O O7 0.577519 0.086052 0.224602
O O8 0.291269 0.351351 0.010022
O O9 0.250000 0.250000 0.500000
O O10 0.457059 0.303083 0.235417
O O11 0.338495 0.309876 0.668523
O O12 0.750000 0.250000 0.000000
O O13 0.500000 0.000000 0.500000
#
# Coordination Sequence:
#
# PCOD9200193 Si02
#       6
#     4   8   8   8   8   4
#     4  12  21  37  69  97 124 168 233 277 332 405
#     4  10  20  39  62  92 123 167 219 272 336 397
#     4  10  20  36  67  93 119 161 225 280 320 401
#     4  10  21  38  63  88 125 173 220 269 335 410
#     4  10  21  37  60  94 128 163 218 285 337 389
#     4  12  25  41  59  91 138 171 211 276 346 407
#
# _framework density 24.449695999999999
#
# number of rings (size 3 to 8) (size 9 to 14) (size 15 to 20)
#    0.000    1.600    2.000    3.000    2.800    4.000 
#    7.200    2.000    4.400    0.000    0.000    0.000 
#    0.000    0.000    0.000    0.000    0.000    0.000 
#
# Total GULP energy -111351.187104 kJ/mol
# GULP energy per Si atom -5567.559355 kJ/mol
# Density = 2.439405 g / cm^3
# Si number density = 24.449696 Si / 1000 Ang^3
#
#
#
# Elastic Constant Matrix: (Units=GPa)
#
#
# Indices 1 2 3 4 5 6 
#
# 1 76.9516 21.1782 39.2237 0.0000 -13.9064 0.0000
# 2 21.1782 217.7373 106.8196 0.0000 -26.5286 0.0000
# 3 39.2237 106.8196 192.6581 0.0000 -39.7242 0.0000
# 4 0.0000 0.0000 0.0000 60.1462 0.0000 -8.2284
# 5 -13.9064 -26.5286 -39.7242 0.0000 47.6283 0.0000
# 6 0.0000 0.0000 0.0000 -8.2284 0.0000 23.7020
#
#
#
# Elastic Compliance Matrix: (Units=1/GPa)
#
#
# Indices 1 2 3 4 5 6 
#
# 1 0.014685 0.000115 -0.002604 0.000000 0.002180 0.000000
# 2 0.000115 0.006330 -0.003381 0.000000 0.000740 0.000000
# 3 -0.002604 -0.003381 0.008514 0.000000 0.004458 0.000000
# 4 0.000000 0.000000 0.000000 0.017455 0.000000 0.006060
# 5 0.002180 0.000740 0.004458 0.000000 0.025763 0.000000
# 6 0.000000 0.000000 0.000000 0.006060 0.000000 0.044294
#
#
# Mechanical properties :
#
#
# Convention : Reuss Voigt Hill
#
# Bulk Modulus (GPa) = 56.21238 91.31002 73.76120
# Shear Modulus (GPa) = 37.11665 47.63700 42.37683
#
# Velocity S-wave (km/s) = 3.90048 4.41882 4.16772
# Velocity P-wave (km/s) = 6.58225 7.96629 7.30711
#
# Compressibility (1/GPa) = 0.01778967
#
# Stress axis : x y z
#
# Youngs Moduli (GPa) = 68.09778 157.97433 117.45040
#
# Poissons Ratio (x) = -0.01812 0.30582
# Poissons Ratio (y) = -0.00781 0.39705
# Poissons Ratio (z) = 0.17732 0.53404
#
# Static dielectric constant tensor:
#      x y z
#    x 1.901930 0.000000 -0.163660 
#    y 0.000000 1.671420 0.000000 
#    z -0.163660 0.000000 2.272040 
# 
# From -- ./inp_files/65115.got.cif
#   From: 2010.05.17/outbox.cif.g08.bks.cpg/sg12_33_cif.got.tgz:65115.got - 2010.06.03 13:09:07.
