data_PCOD9200937
_publ_section_title
;
Structure prediction by ZEFSAII (Michael W. Deem and Ramdas Pophale) SiO2 
 PCOD9200937
Probable space group: C 2/M
;
_chemical_formula_sum "Si O2"
_cell_formula_units_Z 48
_cell_length_a 21.221195
_cell_length_b 13.618961
_cell_length_c 10.158854
_cell_angle_alpha 90.000000
_cell_angle_beta 130.942751
_cell_angle_gamma 90.000000
_cell_volume 2217.763501
_symmetry_space_group_name_H-M "C 2/M"
_symmetry_group_IT_number 12
_symmetry_cell_setting 'monoclinic'
loop_
_space_group_symop_operation_xyz
x,y,z
-x,y,-z
-x,-y,-z
x,-y,z
1/2+x,1/2+y,z
1/2-x,1/2+y,-z
1/2-x,1/2-y,-z
1/2+x,1/2-y,z
loop_
_atom_site_type_symbol
_atom_site_label
_atom_site_fract_x
_atom_site_fract_y
_atom_site_fract_z
Si Si1 0.615450 0.240474 0.887007
Si Si2 0.777750 0.682073 0.343438
Si Si3 0.033248 0.392698 0.396828
Si Si4 0.988075 0.894226 0.136607
Si Si5 0.265388 0.615831 0.016882
Si Si6 0.319950 0.615107 0.530197
O O1 0.530270 0.185630 0.744172
O O2 0.583874 0.313632 0.954750
O O3 0.686452 0.158003 0.988679
O O4 0.653397 0.319556 0.834769
O O5 0.871945 0.641192 0.483157
O O6 0.751459 0.648121 0.159660
O O7 0.721030 0.634745 0.381479
O O8 0.782999 0.798980 0.385389
O O9 0.024867 0.500000 0.322100
O O10 0.000000 0.401372 0.500000
O O11 0.079287 0.872034 0.322389
O O12 0.959730 0.000000 0.154268
O O13 0.000000 0.905650 0.000000
O O14 0.272984 0.500000 0.038807
O O15 0.304397 0.500000 0.472449
#
# Coordination Sequence:
#
# PCOD9200937 Si02
#       6
#     8   8   8   8   8   8
#     4  11  22  37  60  92 118 150 197 252 297 346
#     4  11  21  38  63  89 121 160 203 248 295 355
#     4  11  21  37  63  91 120 156 199 245 294 353
#     4  10  20  37  60  86 119 157 199 242 292 356
#     4  11  23  40  63  88 118 158 202 247 297 359
#     4  10  21  36  57  89 123 158 200 248 299 349
#
# _framework density 21.643426999999999
#
# number of rings (size 3 to 8) (size 9 to 14) (size 15 to 20)
#    0.000    1.333    3.333    3.500    0.000    1.333 
#    0.000    5.000    0.000    6.500    0.000    0.000 
#    0.000    0.000    0.000    0.000    0.000    0.000 
#
# Total GULP energy -133707.859366 kJ/mol
# GULP energy per Si atom -5571.160807 kJ/mol
# Density = 2.159417 g / cm^3
# Si number density = 21.643427 Si / 1000 Ang^3
#
#
#
# Elastic Constant Matrix: (Units=GPa)
#
#
# Indices 1 2 3 4 5 6 
#
# 1 104.1319 42.5978 18.0860 0.0000 23.1219 0.0000
# 2 42.5978 184.0682 27.3950 0.0000 19.5525 0.0000
# 3 18.0860 27.3950 48.2061 0.0000 18.4397 0.0000
# 4 0.0000 0.0000 0.0000 11.7453 0.0000 -5.2959
# 5 23.1219 19.5525 18.4397 0.0000 32.8416 0.0000
# 6 0.0000 0.0000 0.0000 -5.2959 0.0000 33.9036
#
#
#
# Elastic Compliance Matrix: (Units=1/GPa)
#
#
# Indices 1 2 3 4 5 6 
#
# 1 0.012066 -0.001943 -0.000784 0.000000 -0.006898 0.000000
# 2 -0.001943 0.006362 -0.002497 0.000000 -0.001018 0.000000
# 3 -0.000784 -0.002497 0.027607 0.000000 -0.013462 0.000000
# 4 0.000000 0.000000 0.000000 0.091591 0.000000 0.014307
# 5 -0.006898 -0.001018 -0.013462 0.000000 0.043470 0.000000
# 6 0.000000 0.000000 0.000000 0.014307 0.000000 0.031730
#
#
# Mechanical properties :
#
#
# Convention : Reuss Voigt Hill
#
# Bulk Modulus (GPa) = 28.10082 56.95155 42.52618
# Shear Modulus (GPa) = 21.26417 32.25326 26.75871
#
# Velocity S-wave (km/s) = 3.13785 3.86451 3.51998
# Velocity P-wave (km/s) = 5.11271 6.80318 6.01760
#
# Compressibility (1/GPa) = 0.03558615
#
# Stress axis : x y z
#
# Youngs Moduli (GPa) = 82.87879 157.17868 36.22270
#
# Poissons Ratio (x) = 0.30538 0.02841
# Poissons Ratio (y) = 0.16102 0.09046
# Poissons Ratio (z) = 0.06499 0.39253
#
# Static dielectric constant tensor:
#      x y z
#    x 1.780530 0.000000 0.030360 
#    y 0.000000 1.905460 0.000000 
#    z 0.030360 0.000000 1.821750 
# 
# From -- ./inp_files/165456.got.cif
#   From: 2010.05.17/outbox.cif.g08.bks.cpg/sg12_83_cif.got.tgz:165456.got - 2010.06.03 13:09:07.
