data_PCOD9200769
_publ_section_title
;
Structure prediction by ZEFSAII (Michael W. Deem and Ramdas Pophale) SiO2 
 PCOD9200769
Probable space group: C 2/M
;
_chemical_formula_sum "Si O2"
_cell_formula_units_Z 40
_cell_length_a 13.148595
_cell_length_b 22.460383
_cell_length_c 10.985962
_cell_angle_alpha 90.000000
_cell_angle_beta 142.565799
_cell_angle_gamma 90.000000
_cell_volume 1972.109260
_symmetry_space_group_name_H-M "C 2/M"
_symmetry_group_IT_number 12
_symmetry_cell_setting 'monoclinic'
loop_
_space_group_symop_operation_xyz
x,y,z
-x,y,-z
-x,-y,-z
x,-y,z
1/2+x,1/2+y,z
1/2-x,1/2+y,-z
1/2-x,1/2-y,-z
1/2+x,1/2-y,z
loop_
_atom_site_type_symbol
_atom_site_label
_atom_site_fract_x
_atom_site_fract_y
_atom_site_fract_z
Si Si1 0.934442 0.611757 0.307785
Si Si2 0.803534 0.174696 0.291308
Si Si3 0.402759 0.209954 0.679798
Si Si4 0.867034 0.435273 0.985192
Si Si5 0.152726 0.792886 0.053853
O O1 0.754929 0.646118 0.137010
O O2 0.000000 0.587427 0.500000
O O3 0.057180 0.665805 0.390239
O O4 0.937038 0.570790 0.189582
O O5 0.668811 0.171952 0.274410
O O6 0.743895 0.123554 0.142332
O O7 0.774900 0.242432 0.223166
O O8 0.000000 0.165826 0.500000
O O9 0.250000 0.250000 0.500000
O O10 0.556860 0.253854 0.858517
O O11 0.779418 0.500000 0.894157
O O12 0.000000 0.435661 0.000000
O O13 0.000000 0.804721 0.000000
#
# Coordination Sequence:
#
# PCOD9200769 Si02
#       5
#     8   8   8   8   8
#     4  12  23  39  63  94 127 163 202 255 317 375
#     4  11  21  38  64  93 126 165 205 257 309 371
#     4  11  21  34  59  95 130 165 200 241 311 384
#     4  11  24  46  68  86 118 166 220 264 302 361
#     4  10  20  37  59  92 134 165 196 245 315 392
#
# _framework density 20.282851000000001
#
# number of rings (size 3 to 8) (size 9 to 14) (size 15 to 20)
#    0.000    1.000    4.000    5.400    2.800    0.800 
#    0.000    0.000    0.000    0.600    0.000    0.000 
#    0.000    0.000    0.000    0.000    0.000    0.000 
#
# Total GULP energy -111443.266592 kJ/mol
# GULP energy per Si atom -5572.163330 kJ/mol
# Density = 2.023669 g / cm^3
# Si number density = 20.282851 Si / 1000 Ang^3
#
#
#
# Elastic Constant Matrix: (Units=GPa)
#
#
# Indices 1 2 3 4 5 6 
#
# 1 113.0167 19.9121 34.7879 0.0000 -12.5958 0.0000
# 2 19.9121 73.4293 21.1870 0.0000 -2.1280 0.0000
# 3 34.7879 21.1870 99.2098 0.0000 -9.6638 0.0000
# 4 0.0000 0.0000 0.0000 11.7991 0.0000 0.5863
# 5 -12.5958 -2.1280 -9.6638 0.0000 36.4579 0.0000
# 6 0.0000 0.0000 0.0000 0.5863 0.0000 -5.1034
#
#
#
# Elastic Compliance Matrix: (Units=1/GPa)
#
#
# Indices 1 2 3 4 5 6 
#
# 1 0.010398 -0.001881 -0.002982 0.000000 0.002692 0.000000
# 2 -0.001881 0.014853 -0.002557 0.000000 -0.000461 0.000000
# 3 -0.002982 -0.002557 0.011863 0.000000 0.001965 0.000000
# 4 0.000000 0.000000 0.000000 0.084271 0.000000 0.009682
# 5 0.002692 -0.000461 0.001965 0.000000 0.028853 0.000000
# 6 0.000000 0.000000 0.000000 0.009682 0.000000 -0.194837
#
#
# Mechanical properties :
#
#
# Convention : Reuss Voigt Hill
#
# Bulk Modulus (GPa) = 44.89775 48.60329 46.75052
# Shear Modulus (GPa) = -223.87097 22.61531 -100.62783
#
# Velocity S-wave (km/s) = -10.51732 3.34278 -7.05124
# Velocity P-wave (km/s) = 11.19382 6.23808 6.57221
#
# Compressibility (1/GPa) = 0.02227283
#
# Stress axis : x y z
#
# Youngs Moduli (GPa) = 96.17608 67.32574 84.29710
#
# Poissons Ratio (x) = 0.12665 0.25137
# Poissons Ratio (y) = 0.18092 0.21557
# Poissons Ratio (z) = 0.28679 0.17217
#
# Static dielectric constant tensor:
#      x y z
#    x 1.839680 0.000000 -0.058960 
#    y 0.000000 1.712340 0.000000 
#    z -0.058960 0.000000 1.776630 
# 
# From -- ./inp_files/148247.got.cif
#   From: 2010.05.17/outbox.cif.g08.bks.cpg/sg12_75_cif.got.tgz:148247.got - 2010.06.03 13:09:07.
