data_PCOD9200631
_publ_section_title
;
Structure prediction by ZEFSAII (Michael W. Deem and Ramdas Pophale) SiO2 
 PCOD9200631
Probable space group: C 2/M
;
_chemical_formula_sum "Si O2"
_cell_formula_units_Z 48
_cell_length_a 8.857985
_cell_length_b 10.772324
_cell_length_c 25.488484
_cell_angle_alpha 90.000000
_cell_angle_beta 75.444128
_cell_angle_gamma 90.000000
_cell_volume 2354.074478
_symmetry_space_group_name_H-M "C 2/M"
_symmetry_group_IT_number 12
_symmetry_cell_setting 'monoclinic'
loop_
_space_group_symop_operation_xyz
x,y,z
-x,y,-z
-x,-y,-z
x,-y,z
1/2+x,1/2+y,z
1/2-x,1/2+y,-z
1/2-x,1/2-y,-z
1/2+x,1/2-y,z
loop_
_atom_site_type_symbol
_atom_site_label
_atom_site_fract_x
_atom_site_fract_y
_atom_site_fract_z
Si Si1 0.683678 0.136531 0.973236
Si Si2 0.420227 0.857708 0.798416
Si Si3 0.278093 0.361100 0.456870
Si Si4 0.698736 0.139984 0.847411
Si Si5 0.054407 0.279213 0.384982
Si Si6 0.334997 0.861635 0.315483
O O1 0.709525 0.153048 0.908897
O O2 0.748370 0.000000 0.982589
O O3 0.500000 0.133472 0.000000
O O4 0.750000 0.250000 0.000000
O O5 0.520958 0.853548 0.843088
O O6 0.292913 0.750736 0.812145
O O7 0.545193 0.832731 0.741496
O O8 0.361487 0.000000 0.796613
O O9 0.273028 0.500000 0.479738
O O10 0.250000 0.250000 0.500000
O O11 0.144292 0.347661 0.424143
O O12 0.447967 0.332135 0.417257
O O13 0.754422 0.000000 0.828253
O O14 0.190775 0.229590 0.335319
O O15 0.933559 0.356700 0.360854
O O16 0.274932 0.000000 0.311549
#
# Coordination Sequence:
#
# PCOD9200631 Si02
#       6
#     8   8   8   8   8   8
#     4  10  21  37  57  81 111 147 188 234 281 331
#     4  10  21  37  59  85 113 148 187 228 277 333
#     4  11  24  40  60  86 115 149 188 230 278 331
#     4  10  21  37  56  82 115 148 185 231 281 332
#     4  10  22  38  59  84 114 147 185 230 277 327
#     4  10  20  37  59  83 112 146 185 228 275 328
#
# _framework density 20.390177999999999
#
# number of rings (size 3 to 8) (size 9 to 14) (size 15 to 20)
#    0.000    1.833    0.000    3.500    0.000    8.333 
#    0.000    4.167    0.000    0.000    0.000    0.000 
#    0.000    0.000    0.000    0.000    0.000    0.000 
#
# Total GULP energy -134013.534304 kJ/mol
# GULP energy per Si atom -5583.897263 kJ/mol
# Density = 2.034377 g / cm^3
# Si number density = 20.390178 Si / 1000 Ang^3
#
#
#
# Elastic Constant Matrix: (Units=GPa)
#
#
# Indices 1 2 3 4 5 6 
#
# 1 50.2887 30.2511 -3.0418 0.0000 0.8430 0.0000
# 2 30.2511 127.6542 34.8402 0.0000 -7.0386 0.0000
# 3 -3.0418 34.8402 50.0544 0.0000 1.7907 0.0000
# 4 0.0000 0.0000 0.0000 24.7770 0.0000 -3.7778
# 5 0.8430 -7.0386 1.7907 0.0000 30.2485 0.0000
# 6 0.0000 0.0000 0.0000 -3.7778 0.0000 13.3177
#
#
#
# Elastic Compliance Matrix: (Units=1/GPa)
#
#
# Indices 1 2 3 4 5 6 
#
# 1 0.025287 -0.008159 0.007324 0.000000 -0.003037 0.000000
# 2 -0.008159 0.012521 -0.009343 0.000000 0.003694 0.000000
# 3 0.007324 -0.009343 0.027069 0.000000 -0.003981 0.000000
# 4 0.000000 0.000000 0.000000 0.042185 0.000000 0.011966
# 5 -0.003037 0.003694 -0.003981 0.000000 0.034239 0.000000
# 6 0.000000 0.000000 0.000000 0.011966 0.000000 0.078482
#
#
# Mechanical properties :
#
#
# Convention : Reuss Voigt Hill
#
# Bulk Modulus (GPa) = 22.46102 39.12182 30.79142
# Shear Modulus (GPa) = 19.60949 24.73184 22.17066
#
# Velocity S-wave (km/s) = 3.10451 3.48649 3.30103
# Velocity P-wave (km/s) = 4.88776 5.95279 5.44637
#
# Compressibility (1/GPa) = 0.04452157
#
# Stress axis : x y z
#
# Youngs Moduli (GPa) = 39.54590 79.86741 36.94277
#
# Poissons Ratio (x) = 0.65163 -0.27058
# Poissons Ratio (y) = 0.32265 0.34516
# Poissons Ratio (z) = -0.28965 0.74620
#
# Static dielectric constant tensor:
#      x y z
#    x 1.696000 0.000000 0.012000 
#    y 0.000000 1.741080 0.000000 
#    z 0.012000 0.000000 1.742220 
# 
# From -- ./inp_files/331978.got.cif
#   From: 2010.05.17/outbox.cif.g08.bks.cpg/sg12_166_cif.got.tgz:331978.got - 2010.06.03 13:09:07.
