data_PCOD9200325
_publ_section_title
;
Structure prediction by ZEFSAII (Michael W. Deem and Ramdas Pophale) SiO2 
 PCOD9200325
Probable space group: C 2/M
;
_chemical_formula_sum "Si O2"
_cell_formula_units_Z 32
_cell_length_a 8.042902
_cell_length_b 25.895558
_cell_length_c 7.273660
_cell_angle_alpha 90.000000
_cell_angle_beta 106.707360
_cell_angle_gamma 90.000000
_cell_volume 1450.973025
_symmetry_space_group_name_H-M "C 2/M"
_symmetry_group_IT_number 12
_symmetry_cell_setting 'monoclinic'
loop_
_space_group_symop_operation_xyz
x,y,z
-x,y,-z
-x,-y,-z
x,-y,z
1/2+x,1/2+y,z
1/2-x,1/2+y,-z
1/2-x,1/2-y,-z
1/2+x,1/2-y,z
loop_
_atom_site_type_symbol
_atom_site_label
_atom_site_fract_x
_atom_site_fract_y
_atom_site_fract_z
Si Si1 0.951410 0.500000 0.701512
Si Si2 0.302294 0.308950 0.502809
Si Si3 0.824779 0.000000 0.829751
Si Si4 0.332377 0.891777 0.819715
Si Si5 0.549807 0.398341 0.298149
O O1 0.857664 0.446904 0.726043
O O2 0.000000 0.500000 0.500000
O O3 0.138454 0.500000 0.865714
O O4 0.500000 0.304766 0.500000
O O5 0.250000 0.250000 0.500000
O O6 0.187133 0.343211 0.326289
O O7 0.331253 0.347367 0.685038
O O8 0.842541 0.947935 0.720842
O O9 0.000000 0.000000 0.000000
O O10 0.140932 0.894587 0.854718
O O11 0.500000 0.884489 0.000000
O O12 0.500000 0.404333 0.500000
#
# Coordination Sequence:
#
# PCOD9200325 Si02
#       5
#     4   8   4   8   8
#     4  12  22  32  54  88 112 138 176 222 266 308
#     4   9  20  37  57  76 101 139 182 218 262 316
#     4  12  22  32  50  84 114 134 170 224 264 296
#     4  10  20  37  57  79 108 145 179 213 263 326
#     4   9  19  37  55  72 105 150 176 200 261 334
#
# _framework density 22.054167
#
# number of rings (size 3 to 8) (size 9 to 14) (size 15 to 20)
#    0.000    2.500    0.000    6.000    0.000    3.000 
#    0.000    6.875    0.000    0.000    0.000    0.000 
#    0.000    0.000    0.000    0.000    0.000    0.000 
#
# Total GULP energy -89223.056271 kJ/mol
# GULP energy per Si atom -5576.441017 kJ/mol
# Density = 2.200397 g / cm^3
# Si number density = 22.054167 Si / 1000 Ang^3
#
#
#
# Elastic Constant Matrix: (Units=GPa)
#
#
# Indices 1 2 3 4 5 6 
#
# 1 84.4969 73.8144 38.4934 0.0000 39.2663 0.0000
# 2 73.8144 279.9623 58.2395 0.0000 15.9145 0.0000
# 3 38.4934 58.2395 89.8070 0.0000 38.9171 0.0000
# 4 0.0000 0.0000 0.0000 88.8635 0.0000 165.3216
# 5 39.2663 15.9145 38.9171 0.0000 42.0271 0.0000
# 6 0.0000 0.0000 0.0000 165.3216 0.0000 392.9167
#
#
#
# Elastic Compliance Matrix: (Units=1/GPa)
#
#
# Indices 1 2 3 4 5 6 
#
# 1 0.029402 -0.007047 0.004535 0.000000 -0.029002 0.000000
# 2 -0.007047 0.005878 -0.004476 0.000000 0.008503 0.000000
# 3 0.004535 -0.004476 0.022039 0.000000 -0.022950 0.000000
# 4 0.000000 0.000000 0.000000 0.051804 0.000000 -0.021797
# 5 -0.029002 0.008503 -0.022950 0.000000 0.068923 0.000000
# 6 0.000000 0.000000 0.000000 -0.021797 0.000000 0.011716
#
#
# Mechanical properties :
#
#
# Convention : Reuss Voigt Hill
#
# Bulk Modulus (GPa) = 23.07154 88.37345 55.72249
# Shear Modulus (GPa) = 22.91639 123.67606 73.29622
#
# Velocity S-wave (km/s) = 3.22700 7.49667 5.77120
# Velocity P-wave (km/s) = 4.93647 10.72807 8.35045
#
# Compressibility (1/GPa) = 0.04334345
#
# Stress axis : x y z
#
# Youngs Moduli (GPa) = 34.01132 170.13692 45.37397
#
# Poissons Ratio (x) = 1.19894 -0.20577
# Poissons Ratio (y) = 0.23967 0.20308
# Poissons Ratio (z) = -0.15424 0.76150
#
# Static dielectric constant tensor:
#      x y z
#    x 1.848190 0.000000 0.015690 
#    y 0.000000 1.897540 0.000000 
#    z 0.015690 0.000000 1.987120 
# 
# From -- ./inp_files/39931.got.cif
#   From: 2010.05.17/outbox.cif.g08.bks.cpg/sg12_20_cif.got.tgz:39931.got - 2010.06.03 13:09:07.
