data_PCOD9200862
_publ_section_title
;
Structure prediction by ZEFSAII (Michael W. Deem and Ramdas Pophale) SiO2 
 PCOD9200862
Probable space group: C 2/M
;
_chemical_formula_sum "Si O2"
_cell_formula_units_Z 64
_cell_length_a 23.714546
_cell_length_b 14.186659
_cell_length_c 9.874207
_cell_angle_alpha 90.000000
_cell_angle_beta 87.049592
_cell_angle_gamma 90.000000
_cell_volume 3317.577793
_symmetry_space_group_name_H-M "C 2/M"
_symmetry_group_IT_number 12
_symmetry_cell_setting 'monoclinic'
loop_
_space_group_symop_operation_xyz
x,y,z
-x,y,-z
-x,-y,-z
x,-y,z
1/2+x,1/2+y,z
1/2-x,1/2+y,-z
1/2-x,1/2-y,-z
1/2+x,1/2-y,z
loop_
_atom_site_type_symbol
_atom_site_label
_atom_site_fract_x
_atom_site_fract_y
_atom_site_fract_z
Si Si1 0.669628 0.277308 0.729376
Si Si2 0.280515 0.109973 0.098213
Si Si3 0.727855 0.890154 0.213222
Si Si4 0.951099 0.219529 0.922045
Si Si5 0.435341 0.104117 0.462936
Si Si6 0.349712 0.610694 0.800419
Si Si7 0.555592 0.207492 0.802166
Si Si8 0.841651 0.741806 0.575408
O O1 0.687843 0.184002 0.810502
O O2 0.706355 0.362279 0.782679
O O3 0.602218 0.285297 0.754745
O O4 0.683139 0.261374 0.570006
O O5 0.213360 0.122011 0.132283
O O6 0.294245 0.000000 0.125306
O O7 0.291413 0.129024 0.938390
O O8 0.695926 0.823710 0.322794
O O9 0.719252 0.000000 0.242996
O O10 0.897025 0.163593 0.882992
O O11 0.989937 0.262163 0.798470
O O12 0.936451 0.299823 0.036166
O O13 0.000000 0.162535 0.000000
O O14 0.500000 0.108794 0.500000
O O15 0.433127 0.123262 0.301740
O O16 0.398573 0.183626 0.539410
O O17 0.412863 0.000000 0.496898
O O18 0.361761 0.500000 0.790723
O O19 0.350543 0.661670 0.654995
#
# Coordination Sequence:
#
# PCOD9200862 Si02
#       8
#     8   8   8   8   8   8   8   8
#     4  11  21  39  59  85 119 165 192 244 303 359
#     4  10  23  38  60  89 120 159 202 246 301 360
#     4  11  23  37  56  86 119 154 199 248 294 355
#     4   8  19  37  60  89 114 157 197 252 300 357
#     4  10  20  37  60  84 116 159 201 243 298 359
#     4  11  22  39  63  90 120 158 203 251 304 366
#     4   8  19  35  59  84 116 155 200 241 300 352
#     4  11  24  38  61  86 121 160 200 247 304 355
#
# _framework density 19.291183
#
# number of rings (size 3 to 8) (size 9 to 14) (size 15 to 20)
#    0.750    1.125    1.250    2.625    1.750    3.250 
#    0.000    1.875    0.000    7.875    0.000    0.000 
#    0.000    0.000    0.000    0.000    0.000    0.000 
#
# Total GULP energy -178295.290264 kJ/mol
# GULP energy per Si atom -5571.727821 kJ/mol
# Density = 1.924728 g / cm^3
# Si number density = 19.291183 Si / 1000 Ang^3
#
#
#
# Elastic Constant Matrix: (Units=GPa)
#
#
# Indices 1 2 3 4 5 6 
#
# 1 45.7736 -3.8365 13.9003 0.0000 -2.4860 0.0000
# 2 -3.8365 29.9477 16.2486 0.0000 6.0785 0.0000
# 3 13.9003 16.2486 95.8861 0.0000 4.6423 0.0000
# 4 0.0000 0.0000 0.0000 15.6204 0.0000 -6.0382
# 5 -2.4860 6.0785 4.6423 0.0000 32.8514 0.0000
# 6 0.0000 0.0000 0.0000 -6.0382 0.0000 9.1032
#
#
#
# Elastic Compliance Matrix: (Units=1/GPa)
#
#
# Indices 1 2 3 4 5 6 
#
# 1 0.023681 0.005107 -0.004369 0.000000 0.001465 0.000000
# 2 0.005107 0.039072 -0.007079 0.000000 -0.005843 0.000000
# 3 -0.004369 -0.007079 0.012299 0.000000 -0.000759 0.000000
# 4 0.000000 0.000000 0.000000 0.086094 0.000000 0.057106
# 5 0.001465 -0.005843 -0.000759 0.000000 0.031739 0.000000
# 6 0.000000 0.000000 0.000000 0.057106 0.000000 0.147730
#
#
# Mechanical properties :
#
#
# Convention : Reuss Voigt Hill
#
# Bulk Modulus (GPa) = 16.03323 24.91468 20.47396
# Shear Modulus (GPa) = 13.36588 21.20133 17.28361
#
# Velocity S-wave (km/s) = 2.63506 3.31874 2.99646
# Velocity P-wave (km/s) = 4.19372 5.25628 4.75477
#
# Compressibility (1/GPa) = 0.06237046
#
# Stress axis : x y z
#
# Youngs Moduli (GPa) = 42.22777 25.59362 81.30946
#
# Poissons Ratio (x) = -0.13071 0.35527
# Poissons Ratio (y) = -0.21566 0.57555
# Poissons Ratio (z) = 0.18451 0.18117
#
# Static dielectric constant tensor:
#      x y z
#    x 1.718100 0.000000 -0.009590 
#    y 0.000000 1.641310 0.000000 
#    z -0.009590 0.000000 1.696540 
# 
# From -- ./inp_files/96874.got.cif
#   From: 2010.05.17/outbox.cif.g08.bks.cpg/sg12_49_cif.got.tgz:96874.got - 2010.06.03 13:09:07.
