data_PCOD9200175
_publ_section_title
;
Structure prediction by ZEFSAII (Michael W. Deem and Ramdas Pophale) SiO2 
 PCOD9200175
Probable space group: C 2/M
;
_chemical_formula_sum "Si O2"
_cell_formula_units_Z 64
_cell_length_a 16.721925
_cell_length_b 15.396246
_cell_length_c 18.729441
_cell_angle_alpha 90.000000
_cell_angle_beta 37.726964
_cell_angle_gamma 90.000000
_cell_volume 2950.569892
_symmetry_space_group_name_H-M "C 2/M"
_symmetry_group_IT_number 12
_symmetry_cell_setting 'monoclinic'
loop_
_space_group_symop_operation_xyz
x,y,z
-x,y,-z
-x,-y,-z
x,-y,z
1/2+x,1/2+y,z
1/2-x,1/2+y,-z
1/2-x,1/2-y,-z
1/2+x,1/2-y,z
loop_
_atom_site_type_symbol
_atom_site_label
_atom_site_fract_x
_atom_site_fract_y
_atom_site_fract_z
Si Si1 0.668961 0.903620 0.525989
Si Si2 0.186032 0.733903 0.885322
Si Si3 0.986459 0.763954 0.652264
Si Si4 0.377363 0.401896 0.989471
Si Si5 0.630644 0.840736 0.777631
Si Si6 0.652420 0.902455 0.034289
Si Si7 0.409278 0.338799 0.272877
Si Si8 0.146861 0.096328 0.464448
O O1 0.567053 0.825497 0.593148
O O2 0.781864 0.891615 0.386819
O O3 0.747765 0.896209 0.545028
O O4 0.610751 0.000000 0.562754
O O5 0.333302 0.750814 0.755049
O O6 0.124883 0.825246 0.951773
O O7 0.116414 0.683728 0.870186
O O8 0.189261 0.671640 0.951963
O O9 0.016480 0.810926 0.706933
O O10 0.042941 0.828982 0.552777
O O11 0.385264 0.500000 0.012041
O O12 0.241651 0.392435 0.041012
O O13 0.492663 0.385916 0.850538
O O14 0.636449 0.750034 0.731637
O O15 0.763678 0.891123 0.667899
O O16 0.501413 0.890346 0.842650
O O17 0.676040 0.000000 0.989459
O O18 0.088881 0.000000 0.508658
#
# Coordination Sequence:
#
# PCOD9200175 Si02
#       8
#     8   8   8   8   8   8   8   8
#     4  10  20  36  65  98 122 157 213 271 314 367
#     4  12  26  40  62  94 134 170 209 262 323 386
#     4  11  21  40  64  92 127 163 215 264 310 377
#     4  11  24  43  69  97 125 166 218 271 319 372
#     4  12  23  40  63  90 130 172 208 255 324 383
#     4  11  24  42  67  94 124 166 218 269 318 374
#     4  11  19  40  67  90 122 167 211 263 314 372
#     4  10  21  38  63  94 123 161 211 264 320 377
#
# _framework density 21.690723999999999
#
# number of rings (size 3 to 8) (size 9 to 14) (size 15 to 20)
#    0.000    1.000    5.000    3.000    0.000    3.500 
#    0.000    2.500    0.000    0.750    0.000    0.000 
#    0.000    0.000    0.000    0.000    0.000    0.000 
#
# Total GULP energy -179085.112306 kJ/mol
# GULP energy per Si atom -5596.409760 kJ/mol
# Density = 2.164135 g / cm^3
# Si number density = 21.690724 Si / 1000 Ang^3
#
#
#
# Elastic Constant Matrix: (Units=GPa)
#
#
# Indices 1 2 3 4 5 6 
#
# 1 51.8972 22.1990 18.0126 0.0001 -12.2894 0.0000
# 2 22.1990 153.6334 43.8996 0.0000 -7.1494 0.0000
# 3 18.0126 43.8996 116.0636 0.0001 -13.2403 -0.0001
# 4 0.0001 0.0000 0.0001 1.6756 -0.0001 -4.4582
# 5 -12.2894 -7.1494 -13.2403 -0.0001 29.2324 0.0000
# 6 0.0000 0.0000 -0.0001 -4.4582 0.0000 0.8604
#
#
#
# Elastic Compliance Matrix: (Units=1/GPa)
#
#
# Indices 1 2 3 4 5 6 
#
# 1 0.022848 -0.002437 -0.001684 0.000000 0.008247 0.000000
# 2 -0.002437 0.007566 -0.002520 0.000000 -0.000315 0.000000
# 3 -0.001684 -0.002520 0.010207 0.000000 0.003299 0.000000
# 4 0.000000 0.000000 0.000000 -0.046674 0.000000 -0.241848
# 5 0.008247 -0.000315 0.003299 0.000000 0.039093 0.000000
# 6 0.000000 0.000000 0.000000 -0.241848 0.000000 -0.090898
#
#
# Mechanical properties :
#
#
# Convention : Reuss Voigt Hill
#
# Bulk Modulus (GPa) = 36.57411 54.42405 45.49908
# Shear Modulus (GPa) = -140.98733 22.18588 -59.40073
#
# Velocity S-wave (km/s) = -8.07094 3.20164 -5.23878
# Velocity P-wave (km/s) = 8.36392 6.22999 3.94604
#
# Compressibility (1/GPa) = 0.02734174
#
# Stress axis : x y z
#
# Youngs Moduli (GPa) = 43.76676 132.16341 97.97564
#
# Poissons Ratio (x) = 0.32203 0.16495
# Poissons Ratio (y) = 0.10664 0.24687
# Poissons Ratio (z) = 0.07368 0.33301
#
# Static dielectric constant tensor:
#      x y z
#    x 1.790450 0.000000 0.003590 
#    y 0.000000 1.767340 0.000000 
#    z 0.003590 0.000000 1.795190 
# 
# From -- ./inp_files/278130.got.cif
#   From: 2010.05.17/outbox.cif.g08.bks.cpg/sg12_140_cif.got.tgz:278130.got - 2010.06.03 13:09:07.
