data_PCOD9200336
_publ_section_title
;
Structure prediction by ZEFSAII (Michael W. Deem and Ramdas Pophale) SiO2 
 PCOD9200336
Probable space group: C 2/M
;
_chemical_formula_sum "Si O2"
_cell_formula_units_Z 56
_cell_length_a 18.441096
_cell_length_b 17.768192
_cell_length_c 8.568988
_cell_angle_alpha 90.000000
_cell_angle_beta 67.112877
_cell_angle_gamma 90.000000
_cell_volume 2586.710155
_symmetry_space_group_name_H-M "C 2/M"
_symmetry_group_IT_number 12
_symmetry_cell_setting 'monoclinic'
loop_
_space_group_symop_operation_xyz
x,y,z
-x,y,-z
-x,-y,-z
x,-y,z
1/2+x,1/2+y,z
1/2-x,1/2+y,-z
1/2-x,1/2-y,-z
1/2+x,1/2-y,z
loop_
_atom_site_type_symbol
_atom_site_label
_atom_site_fract_x
_atom_site_fract_y
_atom_site_fract_z
Si Si1 0.069611 0.584833 0.273860
Si Si2 0.750032 0.086897 0.570343
Si Si3 0.411870 0.410881 0.565775
Si Si4 0.659234 0.704589 0.171668
Si Si5 0.997579 0.716241 0.820055
Si Si6 0.134577 0.305459 0.480246
Si Si7 0.734006 0.085144 0.955594
O O1 0.047023 0.500000 0.325890
O O2 0.086173 0.635161 0.413299
O O3 0.009505 0.627758 0.211503
O O4 0.151000 0.583165 0.111247
O O5 0.844621 0.102428 0.491304
O O6 0.699888 0.147090 0.517430
O O7 0.725373 0.090029 0.774236
O O8 0.737442 0.000000 0.527898
O O9 0.500000 0.378671 0.500000
O O10 0.417870 0.500000 0.566893
O O11 0.374232 0.377951 0.752837
O O12 0.585808 0.747552 0.160132
O O13 0.672636 0.747218 0.324701
O O14 0.732920 0.668782 0.019646
O O15 0.072912 0.736282 0.648718
O O16 0.000000 0.731616 0.000000
O O17 0.768310 0.000000 0.959234
#
# Coordination Sequence:
#
# PCOD9200336 Si02
#       7
#     8   8   8   8   8   8   8
#     4  10  21  38  60  85 115 152 194 240 288 341
#     4   9  18  33  54  82 114 147 188 238 285 338
#     4   9  17  32  56  82 109 146 191 237 286 337
#     4  10  20  37  57  80 116 153 192 239 288 340
#     4  11  24  39  56  82 117 157 196 236 288 346
#     4  11  22  35  56  86 120 154 192 236 285 341
#     4   9  19  37  60  84 111 148 194 240 291 347
#
# _framework density 21.64912
#
# number of rings (size 3 to 8) (size 9 to 14) (size 15 to 20)
#    0.000    2.143    0.000    5.143    0.000    6.571 
#    0.000    5.714    0.000    3.429    0.000    0.000 
#    0.000    0.000    0.000    0.000    0.000    0.000 
#
# Total GULP energy -155872.158374 kJ/mol
# GULP energy per Si atom -5566.862799 kJ/mol
# Density = 2.159985 g / cm^3
# Si number density = 21.649120 Si / 1000 Ang^3
#
#
#
# Elastic Constant Matrix: (Units=GPa)
#
#
# Indices 1 2 3 4 5 6 
#
# 1 77.1409 36.7321 33.8028 0.0000 8.3091 0.0000
# 2 36.7321 112.1176 25.7882 0.0000 1.4733 0.0000
# 3 33.8028 25.7882 89.5357 0.0000 -3.9624 0.0000
# 4 0.0000 0.0000 0.0000 7.5756 0.0000 -4.1893
# 5 8.3091 1.4733 -3.9624 0.0000 26.5191 0.0000
# 6 0.0000 0.0000 0.0000 -4.1893 0.0000 26.5856
#
#
#
# Elastic Compliance Matrix: (Units=1/GPa)
#
#
# Indices 1 2 3 4 5 6 
#
# 1 0.018435 -0.004594 -0.005920 0.000000 -0.006405 0.000000
# 2 -0.004594 0.010720 -0.001325 0.000000 0.000646 0.000000
# 3 -0.005920 -0.001325 0.013963 0.000000 0.004015 0.000000
# 4 0.000000 0.000000 0.000000 0.144604 0.000000 0.022786
# 5 -0.006405 0.000646 0.004015 0.000000 0.040280 0.000000
# 6 0.000000 0.000000 0.000000 0.022786 0.000000 0.041205
#
#
# Mechanical properties :
#
#
# Convention : Reuss Voigt Hill
#
# Bulk Modulus (GPa) = 51.43816 52.38227 51.91021
# Shear Modulus (GPa) = 16.70203 24.30080 20.50141
#
# Velocity S-wave (km/s) = 2.78058 3.35398 3.08065
# Velocity P-wave (km/s) = 5.84126 6.26478 6.05673
#
# Compressibility (1/GPa) = 0.01944082
#
# Stress axis : x y z
#
# Youngs Moduli (GPa) = 54.24511 93.27957 71.61761
#
# Poissons Ratio (x) = 0.42851 0.42399
# Poissons Ratio (y) = 0.24919 0.09488
# Poissons Ratio (z) = 0.32114 0.12358
#
# Static dielectric constant tensor:
#      x y z
#    x 2.036650 0.000000 -0.197320 
#    y 0.000000 1.886760 0.000000 
#    z -0.197320 0.000000 1.917930 
# 
# From -- ./inp_files/75910.got.cif
#   From: 2010.05.17/outbox.cif.g08.bks.cpg/sg12_38_cif.got.tgz:75910.got - 2010.06.03 13:09:07.
