data_PCOD9200273
_publ_section_title
;
Structure prediction by ZEFSAII (Michael W. Deem and Ramdas Pophale) SiO2 
 PCOD9200273
Probable space group: C 2/M
;
_chemical_formula_sum "Si O2"
_cell_formula_units_Z 56
_cell_length_a 14.294688
_cell_length_b 18.785087
_cell_length_c 14.587675
_cell_angle_alpha 90.000000
_cell_angle_beta 54.036051
_cell_angle_gamma 90.000000
_cell_volume 3170.516519
_symmetry_space_group_name_H-M "C 2/M"
_symmetry_group_IT_number 12
_symmetry_cell_setting 'monoclinic'
loop_
_space_group_symop_operation_xyz
x,y,z
-x,y,-z
-x,-y,-z
x,-y,z
1/2+x,1/2+y,z
1/2-x,1/2+y,-z
1/2-x,1/2-y,-z
1/2+x,1/2-y,z
loop_
_atom_site_type_symbol
_atom_site_label
_atom_site_fract_x
_atom_site_fract_y
_atom_site_fract_z
Si Si1 0.867321 0.626617 0.081494
Si Si2 0.483509 0.921954 0.693589
Si Si3 0.344308 0.284812 0.512526
Si Si4 0.214702 0.773642 0.919079
Si Si5 0.777533 0.418101 0.332441
Si Si6 0.079879 0.275681 0.342561
Si Si7 0.257576 0.920327 0.953350
O O1 0.868202 0.712681 0.071977
O O2 0.807089 0.604844 0.211272
O O3 0.794916 0.597360 0.036296
O O4 0.000000 0.600407 0.000000
O O5 0.601368 0.914419 0.682507
O O6 0.469556 0.855348 0.635215
O O7 0.377179 0.919583 0.826557
O O8 0.481951 0.000000 0.649967
O O9 0.250000 0.250000 0.500000
O O10 0.307033 0.362719 0.568519
O O11 0.357473 0.239110 0.597919
O O12 0.471969 0.278195 0.395484
O O13 0.327896 0.768477 0.790731
O O14 0.182701 0.856618 0.951284
O O15 0.250000 0.750000 0.000000
O O16 0.737271 0.500000 0.356895
O O17 0.208564 0.000000 0.976231
#
# Coordination Sequence:
#
# PCOD9200273 Si02
#       7
#     8   8   8   8   8   8   8
#     4  11  19  30  51  82 113 140 177 227 281 336
#     4   9  17  31  53  82 111 138 175 230 284 329
#     4  11  22  37  57  77 106 150 191 228 269 328
#     4   9  19  33  53  79 110 141 181 221 268 336
#     4  11  21  34  53  81 112 143 183 232 283 332
#     4  10  20  37  56  79 110 149 189 222 278 329
#     4   9  17  29  48  76 111 145 172 216 277 328
#
# _framework density 17.662735999999999
#
# number of rings (size 3 to 8) (size 9 to 14) (size 15 to 20)
#    0.000    2.000    4.286    0.429    0.000    0.571 
#    0.000    3.571    0.000    0.429    0.000    0.000 
#    0.000    0.000    0.000    0.000    0.000    0.000 
#
# Total GULP energy -155991.338288 kJ/mol
# GULP energy per Si atom -5571.119225 kJ/mol
# Density = 1.762253 g / cm^3
# Si number density = 17.662736 Si / 1000 Ang^3
#
#
#
# Elastic Constant Matrix: (Units=GPa)
#
#
# Indices 1 2 3 4 5 6 
#
# 1 57.4012 34.1401 22.5233 0.0000 12.9533 0.0000
# 2 34.1401 153.6661 30.7746 0.0000 13.4045 0.0000
# 3 22.5233 30.7746 60.8674 0.0000 8.3010 0.0000
# 4 0.0000 0.0000 0.0000 24.8003 0.0000 0.9215
# 5 12.9533 13.4045 8.3010 0.0000 13.6356 0.0000
# 6 0.0000 0.0000 0.0000 0.9215 0.0000 26.9023
#
#
#
# Elastic Compliance Matrix: (Units=1/GPa)
#
#
# Indices 1 2 3 4 5 6 
#
# 1 0.025359 -0.002988 -0.005440 0.000000 -0.017841 0.000000
# 2 -0.002988 0.007967 -0.002444 0.000000 -0.003505 0.000000
# 3 -0.005440 -0.002444 0.020334 0.000000 -0.004808 0.000000
# 4 0.000000 0.000000 0.000000 0.040373 0.000000 -0.001383
# 5 -0.017841 -0.003505 -0.004808 0.000000 0.096658 0.000000
# 6 0.000000 0.000000 0.000000 -0.001383 0.000000 0.037219
#
#
# Mechanical properties :
#
#
# Convention : Reuss Voigt Hill
#
# Bulk Modulus (GPa) = 31.33342 49.64562 40.48952
# Shear Modulus (GPa) = 19.20910 25.36742 22.28826
#
# Velocity S-wave (km/s) = 3.30138 3.79385 3.55615
# Velocity P-wave (km/s) = 5.68423 6.88183 6.31150
#
# Compressibility (1/GPa) = 0.03191481
#
# Stress axis : x y z
#
# Youngs Moduli (GPa) = 39.43353 125.52121 49.17958
#
# Poissons Ratio (x) = 0.37510 0.26753
# Poissons Ratio (y) = 0.11784 0.12020
# Poissons Ratio (z) = 0.21451 0.30680
#
# Static dielectric constant tensor:
#      x y z
#    x 1.570830 0.000000 -0.008390 
#    y 0.000000 1.662180 0.000000 
#    z -0.008390 0.000000 1.587550 
# 
# From -- ./inp_files/215862.got.cif
#   From: 2010.05.17/outbox.cif.g08.bks.cpg/sg12_108_cif.got.tgz:215862.got - 2010.06.03 13:09:07.
