data_PCOD9200740
_publ_section_title
;
Structure prediction by ZEFSAII (Michael W. Deem and Ramdas Pophale) SiO2 
 PCOD9200740
Probable space group: C 2/M
;
_chemical_formula_sum "Si O2"
_cell_formula_units_Z 48
_cell_length_a 14.749082
_cell_length_b 11.289566
_cell_length_c 25.321132
_cell_angle_alpha 90.000000
_cell_angle_beta 146.339995
_cell_angle_gamma 90.000000
_cell_volume 2336.908318
_symmetry_space_group_name_H-M "C 2/M"
_symmetry_group_IT_number 12
_symmetry_cell_setting 'monoclinic'
loop_
_space_group_symop_operation_xyz
x,y,z
-x,y,-z
-x,-y,-z
x,-y,z
1/2+x,1/2+y,z
1/2-x,1/2+y,-z
1/2-x,1/2-y,-z
1/2+x,1/2-y,z
loop_
_atom_site_type_symbol
_atom_site_label
_atom_site_fract_x
_atom_site_fract_y
_atom_site_fract_z
Si Si1 0.747727 0.377550 0.475149
Si Si2 0.093186 0.368461 0.594279
Si Si3 0.406292 0.132920 0.167750
Si Si4 0.955228 0.862755 0.038757
Si Si5 0.179507 0.709138 0.224031
Si Si6 0.070701 0.866424 0.746228
O O1 0.698360 0.500000 0.480398
O O2 0.750000 0.250000 0.500000
O O3 0.617645 0.369180 0.364411
O O4 0.938123 0.388317 0.555745
O O5 0.153774 0.500000 0.607193
O O6 0.224728 0.294569 0.689219
O O7 0.000000 0.307545 0.500000
O O8 0.562880 0.133150 0.205451
O O9 0.410291 0.248845 0.208015
O O10 0.394494 0.000000 0.187784
O O11 0.240414 0.146789 0.053247
O O12 0.056645 0.783158 0.127524
O O13 0.001084 0.000000 0.069293
O O14 0.000000 0.831583 0.000000
O O15 0.311283 0.650054 0.248038
O O16 0.105571 0.000000 0.785684
#
# Coordination Sequence:
#
# PCOD9200740 Si02
#       6
#     8   8   8   8   8   8
#     4  10  20  37  59  88 122 164 210 262 314 378
#     4  10  21  37  61  93 129 168 217 265 318 393
#     4  11  25  44  66  96 135 171 220 274 327 394
#     4  10  21  40  66  98 132 172 221 272 325 399
#     4  12  22  40  69  95 131 172 221 270 340 377
#     4  11  24  42  66  97 136 173 219 271 328 394
#
# _framework density 20.539959
#
# number of rings (size 3 to 8) (size 9 to 14) (size 15 to 20)
#    0.000    1.333    3.333    2.500    0.000    4.000 
#    0.000    2.500    0.000    2.500    0.000    0.000 
#    0.000    0.000    0.000    0.000    0.000    0.000 
#
# Total GULP energy -133613.087943 kJ/mol
# GULP energy per Si atom -5567.211998 kJ/mol
# Density = 2.049321 g / cm^3
# Si number density = 20.539959 Si / 1000 Ang^3
#
#
#
# Elastic Constant Matrix: (Units=GPa)
#
#
# Indices 1 2 3 4 5 6 
#
# 1 64.2346 41.0414 12.7054 0.0005 15.1749 0.0000
# 2 41.0414 174.7550 61.8254 0.0002 -18.6359 0.0000
# 3 12.7054 61.8254 106.7426 0.0008 12.8807 0.0000
# 4 0.0005 0.0002 0.0008 -360.4457 0.0003 10.0844
# 5 15.1749 -18.6359 12.8807 0.0003 31.8873 0.0000
# 6 0.0000 0.0000 0.0000 10.0844 0.0000 29.5786
#
#
#
# Elastic Compliance Matrix: (Units=1/GPa)
#
#
# Indices 1 2 3 4 5 6 
#
# 1 0.025721 -0.010028 0.005184 0.000000 -0.020195 0.000000
# 2 -0.010028 0.012494 -0.007884 0.000000 0.015259 0.000000
# 3 0.005184 -0.007884 0.014898 0.000000 -0.013092 0.000000
# 4 0.000000 0.000000 0.000000 -0.002748 0.000000 0.000937
# 5 -0.020195 0.015259 -0.013092 0.000000 0.055177 0.000000
# 6 0.000000 0.000000 0.000000 0.000937 0.000000 0.033489
#
#
# Mechanical properties :
#
#
# Convention : Reuss Voigt Hill
#
# Bulk Modulus (GPa) = 36.15948 64.09740 50.12844
# Shear Modulus (GPa) = 28.78440 -44.45195 -7.83378
#
# Velocity S-wave (km/s) = 3.74757 -4.65711 -1.95504
# Velocity P-wave (km/s) = 6.03062 1.53483 4.40023
#
# Compressibility (1/GPa) = 0.02765527
#
# Stress axis : x y z
#
# Youngs Moduli (GPa) = 38.87928 80.03954 67.12462
#
# Poissons Ratio (x) = 0.80263 -0.34795
# Poissons Ratio (y) = 0.38988 0.52922
# Poissons Ratio (z) = -0.20154 0.63104
#
# Static dielectric constant tensor:
#      x y z
#    x 1.723820 0.000000 -0.010890 
#    y 0.000000 1.316830 0.000000 
#    z -0.010890 0.000000 1.686610 
# 
# From -- ./inp_files/212563.got.cif
#   From: 2010.05.17/outbox.cif.g08.bks.cpg/sg12_107_cif.got.tgz:212563.got - 2010.06.03 13:09:07.
