data_PCOD9200550
_publ_section_title
;
Structure prediction by ZEFSAII (Michael W. Deem and Ramdas Pophale) SiO2 
 PCOD9200550
Probable space group: C 2/M
;
_chemical_formula_sum "Si O2"
_cell_formula_units_Z 64
_cell_length_a 13.400858
_cell_length_b 27.011478
_cell_length_c 9.820835
_cell_angle_alpha 90.000000
_cell_angle_beta 66.651808
_cell_angle_gamma 90.000000
_cell_volume 3263.816060
_symmetry_space_group_name_H-M "C 2/M"
_symmetry_group_IT_number 12
_symmetry_cell_setting 'monoclinic'
loop_
_space_group_symop_operation_xyz
x,y,z
-x,y,-z
-x,-y,-z
x,-y,z
1/2+x,1/2+y,z
1/2-x,1/2+y,-z
1/2-x,1/2-y,-z
1/2+x,1/2-y,z
loop_
_atom_site_type_symbol
_atom_site_label
_atom_site_fract_x
_atom_site_fract_y
_atom_site_fract_z
Si Si1 0.800546 0.303003 0.947104
Si Si2 0.993472 0.711726 0.350263
Si Si3 0.269370 0.944471 0.339666
Si Si4 0.164375 0.899014 0.644024
Si Si5 0.623917 0.384339 0.963273
Si Si6 0.326731 0.838921 0.231558
Si Si7 0.562639 0.556572 0.259292
Si Si8 0.832211 0.795038 0.483622
O O1 0.706361 0.340705 0.953563
O O2 0.891132 0.294948 0.783359
O O3 0.750000 0.250000 0.000000
O O4 0.846473 0.321888 0.067366
O O5 0.910353 0.684171 0.294270
O O6 0.947338 0.767914 0.396101
O O7 0.000000 0.690883 0.500000
O O8 0.247262 0.929999 0.508140
O O9 0.331787 0.898161 0.241198
O O10 0.152415 0.943356 0.327688
O O11 0.313608 0.000000 0.300850
O O12 0.163839 0.910249 0.803490
O O13 0.183054 0.840655 0.610731
O O14 0.043264 0.910875 0.655687
O O15 0.500000 0.366584 0.000000
O O16 0.615798 0.421559 0.093923
O O17 0.207871 0.819024 0.350702
O O18 0.526172 0.500000 0.258346
O O19 0.750000 0.750000 0.500000
#
# Coordination Sequence:
#
# PCOD9200550 Si02
#       8
#     8   8   8   8   8   8   8   8
#     4  12  26  39  64  90 128 169 218 257 310 374
#     4  11  25  40  64  91 124 168 210 259 316 367
#     4  10  20  37  64  89 120 158 207 258 317 380
#     4  10  21  33  59  85 125 158 208 250 306 371
#     4  10  24  39  58  88 128 165 202 254 312 378
#     4  10  22  43  63  93 128 164 212 260 313 376
#     4  10  20  37  58  88 123 159 200 255 318 382
#     4   9  21  38  59  85 127 164 205 248 308 367
#
# _framework density 19.608948999999999
#
# number of rings (size 3 to 8) (size 9 to 14) (size 15 to 20)
#    0.000    1.750    1.250    1.875   12.250    5.750 
#    0.000    0.000    0.000    2.625    0.000    0.000 
#    0.000    0.000    0.000    0.000    0.000    0.000 
#
# Total GULP energy -178566.790876 kJ/mol
# GULP energy per Si atom -5580.212215 kJ/mol
# Density = 1.956432 g / cm^3
# Si number density = 19.608949 Si / 1000 Ang^3
#
#
#
# Elastic Constant Matrix: (Units=GPa)
#
#
# Indices 1 2 3 4 5 6 
#
# 1 55.3812 26.7127 31.1195 0.0000 9.1244 0.0000
# 2 26.7127 118.5417 32.6022 0.0000 -3.9726 0.0000
# 3 31.1195 32.6022 146.0690 0.0000 2.2213 0.0000
# 4 0.0000 0.0000 0.0000 12.7630 0.0000 -5.3221
# 5 9.1244 -3.9726 2.2213 0.0000 25.5866 0.0000
# 6 0.0000 0.0000 0.0000 -5.3221 0.0000 23.3717
#
#
#
# Elastic Compliance Matrix: (Units=1/GPa)
#
#
# Indices 1 2 3 4 5 6 
#
# 1 0.023967 -0.004616 -0.003940 0.000000 -0.008922 0.000000
# 2 -0.004616 0.009940 -0.001285 0.000000 0.003301 0.000000
# 3 -0.003940 -0.001285 0.007965 0.000000 0.000514 0.000000
# 4 0.000000 0.000000 0.000000 0.086572 0.000000 0.019714
# 5 -0.008922 0.003301 0.000514 0.000000 0.042732 0.000000
# 6 0.000000 0.000000 0.000000 0.019714 0.000000 0.047276
#
#
# Mechanical properties :
#
#
# Convention : Reuss Voigt Hill
#
# Bulk Modulus (GPa) = 45.06824 55.65121 50.35972
# Shear Modulus (GPa) = 20.36396 27.64809 24.00603
#
# Velocity S-wave (km/s) = 3.22608 3.75903 3.50271
# Velocity P-wave (km/s) = 6.07537 6.87623 6.48817
#
# Compressibility (1/GPa) = 0.02218857
#
# Stress axis : x y z
#
# Youngs Moduli (GPa) = 41.72376 100.60140 125.55588
#
# Poissons Ratio (x) = 0.46440 0.49471
# Poissons Ratio (y) = 0.19261 0.16139
# Poissons Ratio (z) = 0.16440 0.12931
#
# Static dielectric constant tensor:
#      x y z
#    x 1.726150 0.000000 -0.013830 
#    y 0.000000 1.686240 0.000000 
#    z -0.013830 0.000000 1.711710 
# 
# From -- ./inp_files/66916.got.cif
#   From: 2010.05.17/outbox.cif.g08.bks.cpg/sg12_34_cif.got.tgz:66916.got - 2010.06.03 13:09:07.
