data_PCOD9200747
_publ_section_title
;
Structure prediction by ZEFSAII (Michael W. Deem and Ramdas Pophale) SiO2 
 PCOD9200747
Probable space group: C 2/M
;
_chemical_formula_sum "Si O2"
_cell_formula_units_Z 64
_cell_length_a 21.387715
_cell_length_b 24.455345
_cell_length_c 16.127177
_cell_angle_alpha 90.000000
_cell_angle_beta 22.906231
_cell_angle_gamma 90.000000
_cell_volume 3283.192063
_symmetry_space_group_name_H-M "C 2/M"
_symmetry_group_IT_number 12
_symmetry_cell_setting 'monoclinic'
loop_
_space_group_symop_operation_xyz
x,y,z
-x,y,-z
-x,-y,-z
x,-y,z
1/2+x,1/2+y,z
1/2-x,1/2+y,-z
1/2-x,1/2-y,-z
1/2+x,1/2-y,z
loop_
_atom_site_type_symbol
_atom_site_label
_atom_site_fract_x
_atom_site_fract_y
_atom_site_fract_z
Si Si1 0.090812 0.060425 0.474853
Si Si2 0.833529 0.564927 0.405202
Si Si3 0.031912 0.125974 0.692890
Si Si4 0.560067 0.733750 0.566369
Si Si5 0.248398 0.221218 0.163202
Si Si6 0.087585 0.381544 0.975942
Si Si7 0.399317 0.336489 0.007193
Si Si8 0.266654 0.152063 0.622354
O O1 0.988035 0.098705 0.660134
O O2 0.262061 0.086340 0.245777
O O3 0.000000 0.057129 0.500000
O O4 0.109677 0.000000 0.487798
O O5 0.824602 0.500000 0.431389
O O6 0.674927 0.588718 0.553558
O O7 0.840782 0.601718 0.480322
O O8 0.975789 0.579410 0.167457
O O9 0.089119 0.187280 0.599693
O O10 0.894362 0.129306 0.928982
O O11 0.654304 0.718942 0.366383
O O12 0.375541 0.729973 0.760810
O O13 0.623830 0.793310 0.515970
O O14 0.352318 0.166620 0.037442
O O15 0.356824 0.274527 0.038166
O O16 0.000000 0.358740 0.000000
O O17 0.277748 0.356979 0.226535
O O18 0.586215 0.337984 0.806683
#
# Coordination Sequence:
#
# PCOD9200747 Si02
#       8
#     8   8   8   8   8   8   8   8
#     4  11  23  40  59  83 121 163 202 247 298 356
#     4  11  24  40  61  89 118 158 212 253 293 353
#     4  11  21  36  59  88 121 156 197 249 297 355
#     4  10  20  37  59  88 126 160 190 239 305 369
#     4  10  21  36  57  91 126 159 191 234 303 372
#     4  12  23  36  61  90 120 161 196 245 297 362
#     4   9  21  36  60  87 122 153 199 248 298 356
#     4   9  21  41  61  85 121 161 200 252 301 350
#
# _framework density 19.493224000000001
#
# number of rings (size 3 to 8) (size 9 to 14) (size 15 to 20)
#    0.000    1.625    2.500    1.500    7.000    2.000 
#    2.250    5.625    0.000    0.000    0.000    7.000 
#    0.000    0.000    0.000    0.000    0.000    0.000 
#
# Total GULP energy -178553.728242 kJ/mol
# GULP energy per Si atom -5579.804008 kJ/mol
# Density = 1.944886 g / cm^3
# Si number density = 19.493224 Si / 1000 Ang^3
#
#
#
# Elastic Constant Matrix: (Units=GPa)
#
#
# Indices 1 2 3 4 5 6 
#
# 1 66.3197 61.0196 33.5767 -0.0081 17.1811 0.0149
# 2 61.0196 124.6985 47.3551 -0.0131 21.7748 0.0057
# 3 33.5767 47.3551 53.5118 -0.0221 11.9418 0.0306
# 4 -0.0081 -0.0131 -0.0221 13.9942 0.0088 6.4191
# 5 17.1811 21.7748 11.9418 0.0088 27.1223 -0.0092
# 6 0.0149 0.0057 0.0306 6.4191 -0.0092 33.8333
#
#
#
# Elastic Compliance Matrix: (Units=1/GPa)
#
#
# Indices 1 2 3 4 5 6 
#
# 1 0.031134 -0.010771 -0.008353 0.000003 -0.007397 -0.000007
# 2 -0.010771 0.016604 -0.007189 -0.000004 -0.003341 0.000008
# 3 -0.008353 -0.007189 0.030853 0.000054 -0.002522 -0.000034
# 4 0.000003 -0.000004 0.000054 0.078270 -0.000053 -0.014850
# 5 -0.007397 -0.003341 -0.002522 -0.000053 0.045349 0.000028
# 6 -0.000007 0.000008 -0.000034 -0.014850 0.000028 0.032374
#
#
# Mechanical properties :
#
#
# Convention : Reuss Voigt Hill
#
# Bulk Modulus (GPa) = 38.51361 58.71476 48.61418
# Shear Modulus (GPa) = 16.89956 21.82854 19.36405
#
# Velocity S-wave (km/s) = 2.94759 3.34997 3.15520
# Velocity P-wave (km/s) = 5.60220 6.71931 6.18602
#
# Compressibility (1/GPa) = 0.02596485
#
# Stress axis : x y z
#
# Youngs Moduli (GPa) = 32.11896 60.22699 32.41152
#
# Poissons Ratio (x) = 0.64873 0.27072
# Poissons Ratio (y) = 0.34597 0.23301
# Poissons Ratio (z) = 0.26828 0.43298
#
# Static dielectric constant tensor:
#      x y z
#    x 1.760750 -0.000010 0.007700 
#    y -0.000010 1.677980 0.000010 
#    z 0.007700 0.000010 1.685510 
# 
# From -- ./inp_files/290884.got.cif
#   From: 2010.05.17/outbox.cif.g08.bks.cpg/sg12_146_cif.got.tgz:290884.got - 2010.06.03 13:09:07.
