data_PCOD9200398
_publ_section_title
;
Structure prediction by ZEFSAII (Michael W. Deem and Ramdas Pophale) SiO2 
 PCOD9200398
Probable space group: C 2/M
;
_chemical_formula_sum "Si O2"
_cell_formula_units_Z 64
_cell_length_a 9.836219
_cell_length_b 19.476726
_cell_length_c 26.053521
_cell_angle_alpha 90.000000
_cell_angle_beta 48.252291
_cell_angle_gamma 90.000000
_cell_volume 3723.902443
_symmetry_space_group_name_H-M "C 2/M"
_symmetry_group_IT_number 12
_symmetry_cell_setting 'monoclinic'
loop_
_space_group_symop_operation_xyz
x,y,z
-x,y,-z
-x,-y,-z
x,-y,z
1/2+x,1/2+y,z
1/2-x,1/2+y,-z
1/2-x,1/2-y,-z
1/2+x,1/2-y,z
loop_
_atom_site_type_symbol
_atom_site_label
_atom_site_fract_x
_atom_site_fract_y
_atom_site_fract_z
Si Si1 0.794665 0.311050 0.029848
Si Si2 0.207429 0.663376 0.191870
Si Si3 0.696913 0.579331 0.475622
Si Si4 0.999520 0.232367 0.183038
Si Si5 0.714854 0.080780 0.433812
Si Si6 0.972639 0.081629 0.946192
Si Si7 0.467829 0.824955 0.345725
Si Si8 0.698380 0.304558 0.669134
O O1 0.669520 0.297923 0.110604
O O2 0.711530 0.379845 0.025424
O O3 0.750000 0.250000 0.000000
O O4 0.000000 0.312098 0.000000
O O5 0.065704 0.693616 0.186194
O O6 0.329592 0.725020 0.186606
O O7 0.355459 0.613583 0.128570
O O8 0.086375 0.638823 0.270645
O O9 0.500000 0.583679 0.500000
O O10 0.758959 0.500000 0.460053
O O11 0.687686 0.599997 0.537434
O O12 0.836984 0.623825 0.408179
O O13 0.943586 0.190602 0.248055
O O14 0.500000 0.090707 0.500000
O O15 0.782745 0.129330 0.371421
O O16 0.742772 0.000000 0.415452
O O17 0.963545 0.000000 0.940557
O O18 0.000000 0.095331 0.000000
O O19 0.358237 0.762307 0.348313
O O20 0.609326 0.794682 0.351130
#
# Coordination Sequence:
#
# PCOD9200398 Si02
#       8
#     8   8   8   8   8   8   8   8
#     4  11  20  33  59  86 110 148 190 229 274 328
#     4   9  18  34  54  77 106 140 175 221 275 321
#     4  10  22  38  55  76 103 136 179 225 268 322
#     4   9  18  33  51  80 110 133 177 222 266 322
#     4  10  20  37  58  77 102 140 185 225 266 326
#     4  10  21  36  54  80 113 147 187 229 272 324
#     4  10  21  35  54  80 108 140 176 220 276 324
#     4  10  21  35  53  80 110 140 174 224 274 321
#
# _framework density 17.186271000000001
#
# number of rings (size 3 to 8) (size 9 to 14) (size 15 to 20)
#    0.000    2.125    1.250    2.625    1.750    1.750 
#    0.000    5.000    0.000    0.000    0.000    0.000 
#    0.000    0.000    0.000    0.000    0.000    0.000 
#
# Total GULP energy -178308.362509 kJ/mol
# GULP energy per Si atom -5572.136328 kJ/mol
# Density = 1.714715 g / cm^3
# Si number density = 17.186271 Si / 1000 Ang^3
#
#
#
# Elastic Constant Matrix: (Units=GPa)
#
#
# Indices 1 2 3 4 5 6 
#
# 1 97.0198 50.2079 47.0772 0.0001 13.2029 -0.0003
# 2 50.2079 76.7093 60.2542 -0.0001 7.7117 0.0001
# 3 47.0772 60.2542 106.4788 0.0000 1.5270 -0.0002
# 4 0.0001 -0.0001 0.0000 25.0247 -0.0001 2.7571
# 5 13.2029 7.7117 1.5270 -0.0001 23.8507 0.0001
# 6 -0.0003 0.0001 -0.0002 2.7571 0.0001 14.5515
#
#
#
# Elastic Compliance Matrix: (Units=1/GPa)
#
#
# Indices 1 2 3 4 5 6 
#
# 1 0.016720 -0.008214 -0.002652 0.000000 -0.006430 0.000000
# 2 -0.008214 0.028639 -0.012518 0.000000 -0.003911 -0.000001
# 3 -0.002652 -0.012518 0.017585 0.000000 0.004390 0.000000
# 4 0.000000 0.000000 0.000000 0.040813 0.000000 -0.007733
# 5 -0.006430 -0.003911 0.004390 0.000000 0.046470 0.000000
# 6 0.000000 -0.000001 0.000000 -0.007733 0.000000 0.070187
#
#
# Mechanical properties :
#
#
# Convention : Reuss Voigt Hill
#
# Bulk Modulus (GPa) = 61.82420 66.14293 63.98357
# Shear Modulus (GPa) = 18.34372 20.86329 19.60350
#
# Velocity S-wave (km/s) = 3.27057 3.48796 3.38101
# Velocity P-wave (km/s) = 7.09319 7.40207 7.24927
#
# Compressibility (1/GPa) = 0.01617490
#
# Stress axis : x y z
#
# Youngs Moduli (GPa) = 59.80968 34.91786 56.86688
#
# Poissons Ratio (x) = 0.28681 0.15081
# Poissons Ratio (y) = 0.49127 0.71188
# Poissons Ratio (z) = 0.15861 0.43711
#
# Static dielectric constant tensor:
#      x y z
#    x 1.616280 0.000000 0.007550 
#    y 0.000000 1.567390 0.000000 
#    z 0.007550 0.000000 1.590770 
# 
# From -- ./inp_files/333708.got.cif
#   From: 2010.05.17/outbox.cif.g08.bks.cpg/sg12_167_cif.got.tgz:333708.got - 2010.06.03 13:09:07.
