data_PCOD9200232
_publ_section_title
;
Structure prediction by ZEFSAII (Michael W. Deem and Ramdas Pophale) SiO2 
 PCOD9200232
Probable space group: C 2/M
;
_chemical_formula_sum "Si O2"
_cell_formula_units_Z 56
_cell_length_a 11.368571
_cell_length_b 16.223035
_cell_length_c 14.238302
_cell_angle_alpha 90.000000
_cell_angle_beta 121.924515
_cell_angle_gamma 90.000000
_cell_volume 2228.813208
_symmetry_space_group_name_H-M "C 2/M"
_symmetry_group_IT_number 12
_symmetry_cell_setting 'monoclinic'
loop_
_space_group_symop_operation_xyz
x,y,z
-x,y,-z
-x,-y,-z
x,-y,z
1/2+x,1/2+y,z
1/2-x,1/2+y,-z
1/2-x,1/2-y,-z
1/2+x,1/2-y,z
loop_
_atom_site_type_symbol
_atom_site_label
_atom_site_fract_x
_atom_site_fract_y
_atom_site_fract_z
Si Si1 0.757061 0.900164 0.289443
Si Si2 0.652085 0.095193 0.547480
Si Si3 0.442192 0.594336 0.606903
Si Si4 0.232782 0.410841 0.799308
Si Si5 0.513488 0.372275 0.850837
Si Si6 0.315169 0.096124 0.952735
Si Si7 0.514459 0.819944 0.818279
O O1 0.721917 0.873294 0.167261
O O2 0.623171 0.861831 0.282890
O O3 0.914289 0.872374 0.378881
O O4 0.754278 0.000000 0.293298
O O5 0.500000 0.134555 0.500000
O O6 0.785088 0.130211 0.545184
O O7 0.705099 0.089497 0.676425
O O8 0.629682 0.000000 0.503159
O O9 0.425240 0.500000 0.566696
O O10 0.488286 0.590190 0.736300
O O11 0.185399 0.500000 0.818130
O O12 0.396838 0.402040 0.872219
O O13 0.142730 0.338336 0.804282
O O14 0.669722 0.391827 0.945262
O O15 0.493536 0.275267 0.827730
O O16 0.345884 0.000000 0.958019
O O17 0.433167 0.138878 0.062820
#
# Coordination Sequence:
#
# PCOD9200232 Si02
#       7
#     8   8   8   8   8   8   8
#     4   9  18  33  52  70  98 139 180 215 256 314
#     4   8  14  29  57  87 106 129 173 220 256 309
#     4   8  15  31  55  76  98 133 175 210 254 315
#     4  10  21  37  55  79 109 139 173 217 275 325
#     4  10  21  34  51  74 105 139 176 223 264 312
#     4  10  20  37  55  70  98 141 188 224 260 310
#     4  12  23  32  51  77 108 138 178 228 269 306
#
# _framework density 25.125482000000002
#
# number of rings (size 3 to 8) (size 9 to 14) (size 15 to 20)
#    0.000    2.429    0.000    5.143    4.000    1.714 
#    2.571    1.429    0.000    4.286    0.000    5.000 
#    0.000    0.000    0.000    0.000    0.000    0.000 
#
# Total GULP energy -156372.564761 kJ/mol
# GULP energy per Si atom -5584.734456 kJ/mol
# Density = 2.506830 g / cm^3
# Si number density = 25.125482 Si / 1000 Ang^3
#
#
#
# Elastic Constant Matrix: (Units=GPa)
#
#
# Indices 1 2 3 4 5 6 
#
# 1 153.8437 4.2392 32.7472 0.0000 64.3890 0.0000
# 2 4.2392 70.9373 10.0986 0.0000 7.3899 0.0000
# 3 32.7472 10.0986 104.3887 0.0000 32.5549 0.0000
# 4 0.0000 0.0000 0.0000 -4.1527 0.0000 -0.8137
# 5 64.3890 7.3899 32.5549 0.0000 53.0750 0.0000
# 6 0.0000 0.0000 0.0000 -0.8137 0.0000 27.7775
#
#
#
# Elastic Compliance Matrix: (Units=1/GPa)
#
#
# Indices 1 2 3 4 5 6 
#
# 1 0.013346 0.000822 0.001013 0.000000 -0.016927 0.000000
# 2 0.000822 0.014431 -0.000886 0.000000 -0.002463 0.000000
# 3 0.001013 -0.000886 0.011985 0.000000 -0.008456 0.000000
# 4 0.000000 0.000000 0.000000 -0.239432 0.000000 -0.007014
# 5 -0.016927 -0.002463 -0.008456 0.000000 0.044906 0.000000
# 6 0.000000 0.000000 0.000000 -0.007014 0.000000 0.035795
#
#
# Mechanical properties :
#
#
# Convention : Reuss Voigt Hill
#
# Bulk Modulus (GPa) = 24.00455 47.03775 35.52115
# Shear Modulus (GPa) = -46.73809 34.14559 -6.29625
#
# Velocity S-wave (km/s) = -4.31767 3.69046 -1.58473
# Velocity P-wave (km/s) = 3.90919 6.07628 3.28933
#
# Compressibility (1/GPa) = 0.04165876
#
# Stress axis : x y z
#
# Youngs Moduli (GPa) = 74.92606 69.29766 83.43894
#
# Poissons Ratio (x) = -0.05694 -0.08449
# Poissons Ratio (y) = -0.06156 0.07390
# Poissons Ratio (z) = -0.07587 0.06138
#
# Static dielectric constant tensor:
#      x y z
#    x 2.163980 0.000000 -0.040750 
#    y 0.000000 1.860760 0.000000 
#    z -0.040750 0.000000 1.994660 
# 
# From -- ./inp_files/263415.got.cif
#   From: 2010.05.17/outbox.cif.g08.bks.cpg/sg12_132_cif.got.tgz:263415.got - 2010.06.03 13:09:07.
