data_PCOD9200807
_publ_section_title
;
Structure prediction by ZEFSAII (Michael W. Deem and Ramdas Pophale) SiO2 
 PCOD9200807
Probable space group: C 2/M
;
_chemical_formula_sum "Si O2"
_cell_formula_units_Z 48
_cell_length_a 19.757988
_cell_length_b 7.873757
_cell_length_c 14.561566
_cell_angle_alpha 90.000000
_cell_angle_beta 105.231125
_cell_angle_gamma 90.000000
_cell_volume 2185.764542
_symmetry_space_group_name_H-M "C 2/M"
_symmetry_group_IT_number 12
_symmetry_cell_setting 'monoclinic'
loop_
_space_group_symop_operation_xyz
x,y,z
-x,y,-z
-x,-y,-z
x,-y,z
1/2+x,1/2+y,z
1/2-x,1/2+y,-z
1/2-x,1/2-y,-z
1/2+x,1/2-y,z
loop_
_atom_site_type_symbol
_atom_site_label
_atom_site_fract_x
_atom_site_fract_y
_atom_site_fract_z
Si Si1 0.359270 0.691843 0.108892
Si Si2 0.645059 0.804190 0.087814
Si Si3 0.962775 0.706642 0.624363
Si Si4 0.979292 0.293613 0.834528
Si Si5 0.609263 0.207517 0.583020
Si Si6 0.772323 0.693784 0.243929
O O1 0.347870 0.500000 0.136069
O O2 0.441469 0.731952 0.129614
O O3 0.323482 0.805342 0.173347
O O4 0.330564 0.712747 0.995721
O O5 0.572749 0.735436 0.104104
O O6 0.703527 0.791469 0.187240
O O7 0.634285 0.000000 0.057793
O O8 0.962390 0.500000 0.623361
O O9 0.951317 0.760954 0.724384
O O10 0.907789 0.761753 0.526928
O O11 0.040787 0.757668 0.618285
O O12 0.979720 0.500000 0.837382
O O13 0.680664 0.265355 0.656336
O O14 0.611000 0.000000 0.585718
O O15 0.752182 0.500000 0.257605
#
# Coordination Sequence:
#
# PCOD9200807 Si02
#       6
#     8   8   8   8   8   8
#     4  12  24  38  58  82 109 143 186 234 277 325
#     4  11  24  39  55  79 113 150 185 226 275 327
#     4   8  13  27  53  85 109 134 178 224 266 317
#     4  10  20  37  60  83 111 146 185 225 270 326
#     4   8  14  26  53  85 109 135 177 226 265 317
#     4  11  21  37  59  83 112 146 185 227 272 325
#
# _framework density 21.960280000000001
#
# number of rings (size 3 to 8) (size 9 to 14) (size 15 to 20)
#    0.000    2.000    1.667    4.500    0.000    3.333 
#    0.000    0.833    0.000    3.000    0.000    0.000 
#    0.000    0.000    0.000    0.000    0.000    0.000 
#
# Total GULP energy -134087.320864 kJ/mol
# GULP energy per Si atom -5586.971703 kJ/mol
# Density = 2.191030 g / cm^3
# Si number density = 21.960280 Si / 1000 Ang^3
#
#
#
# Elastic Constant Matrix: (Units=GPa)
#
#
# Indices 1 2 3 4 5 6 
#
# 1 47.9893 -6.4102 -2.1736 0.0000 9.6344 0.0000
# 2 -6.4102 37.3729 -2.4755 0.0000 -4.4233 0.0000
# 3 -2.1736 -2.4755 94.0857 0.0000 15.6434 0.0000
# 4 0.0000 0.0000 0.0000 14.9301 0.0000 8.5132
# 5 9.6344 -4.4233 15.6434 0.0000 30.3471 0.0000
# 6 0.0000 0.0000 0.0000 8.5132 0.0000 11.6376
#
#
#
# Elastic Compliance Matrix: (Units=1/GPa)
#
#
# Indices 1 2 3 4 5 6 
#
# 1 0.022909 0.003133 0.001909 0.000000 -0.007800 0.000000
# 2 0.003133 0.027656 0.000323 0.000000 0.002870 0.000000
# 3 0.001909 0.000323 0.011784 0.000000 -0.006633 0.000000
# 4 0.000000 0.000000 0.000000 0.114911 0.000000 -0.084061
# 5 -0.007800 0.002870 -0.006633 0.000000 0.039266 0.000000
# 6 0.000000 0.000000 0.000000 -0.084061 0.000000 0.147422
#
#
# Mechanical properties :
#
#
# Convention : Reuss Voigt Hill
#
# Bulk Modulus (GPa) = 13.68425 17.48103 15.58264
# Shear Modulus (GPa) = 13.24229 24.08342 18.66285
#
# Velocity S-wave (km/s) = 2.45829 3.31521 2.91837
# Velocity P-wave (km/s) = 3.78186 4.75728 4.29734
#
# Compressibility (1/GPa) = 0.07307669
#
# Stress axis : x y z
#
# Youngs Moduli (GPa) = 43.65121 36.15885 84.85994
#
# Poissons Ratio (x) = -0.11327 -0.16196
# Poissons Ratio (y) = -0.13674 -0.02739
# Poissons Ratio (z) = -0.08331 -0.01167
#
# Static dielectric constant tensor:
#      x y z
#    x 1.774010 0.000000 0.026990 
#    y 0.000000 1.785950 0.000000 
#    z 0.026990 0.000000 1.823070 
# 
# From -- ./inp_files/230335.got.cif
#   From: 2010.05.17/outbox.cif.g08.bks.cpg/sg12_116_cif.got.tgz:230335.got - 2010.06.03 13:09:07.
