data_PCOD9200163
_publ_section_title
;
Structure prediction by ZEFSAII (Michael W. Deem and Ramdas Pophale) SiO2 
 PCOD9200163
Probable space group: C 2/M
;
_chemical_formula_sum "Si O2"
_cell_formula_units_Z 40
_cell_length_a 16.334441
_cell_length_b 19.962305
_cell_length_c 19.228063
_cell_angle_alpha 90.000000
_cell_angle_beta 163.532614
_cell_angle_gamma 90.000000
_cell_volume 1777.284137
_symmetry_space_group_name_H-M "C 2/M"
_symmetry_group_IT_number 12
_symmetry_cell_setting 'monoclinic'
loop_
_space_group_symop_operation_xyz
x,y,z
-x,y,-z
-x,-y,-z
x,-y,z
1/2+x,1/2+y,z
1/2-x,1/2+y,-z
1/2-x,1/2-y,-z
1/2+x,1/2-y,z
loop_
_atom_site_type_symbol
_atom_site_label
_atom_site_fract_x
_atom_site_fract_y
_atom_site_fract_z
Si Si1 0.663149 0.094649 0.705945
Si Si2 0.666459 0.750602 0.733461
Si Si3 0.705195 0.624715 0.608852
Si Si4 0.304507 0.694622 0.101776
Si Si5 0.794470 0.074283 0.550290
O O1 0.500000 0.072577 0.500000
O O2 0.646684 0.175323 0.689121
O O3 0.490656 0.072876 0.634563
O O4 0.000000 0.078477 0.000000
O O5 0.459864 0.694760 0.535731
O O6 0.596245 0.744054 0.756672
O O7 0.000000 0.730204 0.000000
O O8 0.500000 0.589187 0.500000
O O9 0.730415 0.590041 0.553061
O O10 0.023154 0.648966 0.890004
O O11 0.535719 0.636688 0.277695
O O12 0.250000 0.750000 0.000000
O O13 0.931346 0.000000 0.668201
#
# Coordination Sequence:
#
# PCOD9200163 Si02
#       5
#     8   8   8   8   8
#     4  11  26  45  74 109 145 194 247 305 377 448
#     4  10  20  36  65 104 140 173 231 302 365 428
#     4  11  22  41  69 100 138 189 238 299 371 435
#     4  11  23  40  71 103 140 185 240 304 363 437
#     4  11  28  47  66 101 145 192 246 307 369 443
#
# _framework density 22.506247999999999
#
# number of rings (size 3 to 8) (size 9 to 14) (size 15 to 20)
#    0.000    1.200    2.000    3.000   11.200    5.200 
#    0.000    1.000    0.000    0.000    0.000    0.000 
#    0.000    0.000    0.000    0.000    0.000    0.000 
#
# Total GULP energy -111396.591692 kJ/mol
# GULP energy per Si atom -5569.829585 kJ/mol
# Density = 2.245502 g / cm^3
# Si number density = 22.506248 Si / 1000 Ang^3
#
#
#
# Elastic Constant Matrix: (Units=GPa)
#
#
# Indices 1 2 3 4 5 6 
#
# 1 169.7500 31.9241 55.1977 0.4018 -2.4165 0.1450
# 2 31.9241 117.9237 40.6113 0.8144 -0.5991 0.8667
# 3 55.1977 40.6113 109.5916 0.6793 19.5551 0.9675
# 4 0.4018 0.8144 0.6793 -4.0148 0.1393 -8.7225
# 5 -2.4165 -0.5991 19.5551 0.1393 44.6976 0.0131
# 6 0.1450 0.8667 0.9675 -8.7225 0.0131 -36.1982
#
#
#
# Elastic Compliance Matrix: (Units=1/GPa)
#
#
# Indices 1 2 3 4 5 6 
#
# 1 0.007273 -0.000657 -0.003785 0.000449 0.002039 -0.000195
# 2 -0.000657 0.009912 -0.003654 0.002280 0.001689 -0.000412
# 3 -0.003785 -0.003654 0.013477 0.000823 -0.006153 0.000057
# 4 0.000449 0.002280 0.000823 -0.521638 0.001283 0.125775
# 5 0.002039 0.001689 -0.006153 0.001283 0.025193 -0.000416
# 6 -0.000195 -0.000412 0.000057 0.125775 -0.000416 -0.057942
#
#
# Mechanical properties :
#
#
# Convention : Reuss Voigt Hill
#
# Bulk Modulus (GPa) = 69.10269 72.52572 70.81421
# Shear Modulus (GPa) = -9.94613 18.86572 4.45980
#
# Velocity S-wave (km/s) = -2.10449 2.89838 1.40921
# Velocity P-wave (km/s) = 4.98651 6.59511 5.84640
#
# Compressibility (1/GPa) = 0.01447122
#
# Stress axis : x y z
#
# Youngs Moduli (GPa) = 137.48722 100.88567 74.19803
#
# Poissons Ratio (x) = 0.06627 0.28083
# Poissons Ratio (y) = 0.09032 0.27113
# Poissons Ratio (z) = 0.52037 0.36865
#
# Static dielectric constant tensor:
#      x y z
#    x 2.099960 -0.000320 -0.028700 
#    y -0.000320 1.795010 -0.000300 
#    z -0.028700 -0.000300 1.837010 
# 
# From -- ./inp_files/15751.got.cif
#   From: 2010.05.17/outbox.cif.g08.bks.cpg/sg12_8_cif.got.tgz:15751.got - 2010.06.03 13:09:07.
