data_PCOD9200177
_publ_section_title
;
Structure prediction by ZEFSAII (Michael W. Deem and Ramdas Pophale) SiO2 
 PCOD9200177
Probable space group: C 2/M
;
_chemical_formula_sum "Si O2"
_cell_formula_units_Z 48
_cell_length_a 30.951379
_cell_length_b 13.785370
_cell_length_c 5.028408
_cell_angle_alpha 90.000000
_cell_angle_beta 63.203165
_cell_angle_gamma 90.000000
_cell_volume 1915.098160
_symmetry_space_group_name_H-M "C 2/M"
_symmetry_group_IT_number 12
_symmetry_cell_setting 'monoclinic'
loop_
_space_group_symop_operation_xyz
x,y,z
-x,y,-z
-x,-y,-z
x,-y,z
1/2+x,1/2+y,z
1/2-x,1/2+y,-z
1/2-x,1/2-y,-z
1/2+x,1/2-y,z
loop_
_atom_site_type_symbol
_atom_site_label
_atom_site_fract_x
_atom_site_fract_y
_atom_site_fract_z
Si Si1 0.735035 0.389414 0.305657
Si Si2 0.368419 0.390061 0.706909
Si Si3 0.924014 0.391064 0.711183
Si Si4 0.531490 0.697517 0.648593
Si Si5 0.309879 0.743545 0.186480
Si Si6 0.860207 0.607554 0.393174
O O1 0.751087 0.500000 0.251741
O O2 0.682218 0.385898 0.314084
O O3 0.722618 0.347377 0.632215
O O4 0.777503 0.316330 0.100405
O O5 0.372784 0.500000 0.798122
O O6 0.418485 0.359505 0.431001
O O7 0.358378 0.306439 0.947940
O O8 0.944497 0.500000 0.618368
O O9 0.954538 0.302793 0.510708
O O10 0.906637 0.382537 0.064591
O O11 0.876981 0.388519 0.649193
O O12 0.500000 0.648620 0.500000
O O13 0.500000 0.706224 0.000000
O O14 0.325529 0.808253 0.393729
O O15 0.839980 0.500000 0.398259
#
# Coordination Sequence:
#
# PCOD9200177 Si02
#       6
#     8   8   8   8   8   8
#     4  10  23  41  66 101 138 178 227 279 341 416
#     4  11  25  45  68  95 134 180 229 288 350 405
#     4  10  21  40  65  97 135 177 219 275 344 407
#     4  12  27  45  71 101 134 183 237 293 347 407
#     4  11  21  39  69  98 138 179 226 275 343 413
#     4  10  20  36  65  99 136 178 223 271 332 406
#
# _framework density 25.063987999999998
#
# number of rings (size 3 to 8) (size 9 to 14) (size 15 to 20)
#    0.000    1.333    1.667    3.500    2.333    1.333 
#    0.000    0.000    0.000    0.000    0.000    0.000 
#    0.000    0.000    0.000    0.000    0.000    0.000 
#
# Total GULP energy -134186.550005 kJ/mol
# GULP energy per Si atom -5591.106250 kJ/mol
# Density = 2.500694 g / cm^3
# Si number density = 25.063988 Si / 1000 Ang^3
#
#
#
# Elastic Constant Matrix: (Units=GPa)
#
#
# Indices 1 2 3 4 5 6 
#
# 1 98.6596 18.3373 13.3935 0.0000 -15.8014 0.0000
# 2 18.3373 157.8228 24.4892 0.0000 -11.4342 0.0000
# 3 13.3935 24.4892 101.7000 0.0000 -22.7507 0.0000
# 4 0.0000 0.0000 0.0000 16.5090 0.0000 5.3333
# 5 -15.8014 -11.4342 -22.7507 0.0000 35.3726 0.0000
# 6 0.0000 0.0000 0.0000 5.3333 0.0000 26.0945
#
#
#
# Elastic Compliance Matrix: (Units=1/GPa)
#
#
# Indices 1 2 3 4 5 6 
#
# 1 0.011058 -0.000924 -0.000228 0.000000 0.004494 0.000000
# 2 -0.000924 0.006710 -0.001286 0.000000 0.000929 0.000000
# 3 -0.000228 -0.001286 0.011747 0.000000 0.007037 0.000000
# 4 0.000000 0.000000 0.000000 0.064855 0.000000 -0.013255
# 5 0.004494 0.000929 0.007037 0.000000 0.035105 0.000000
# 6 0.000000 0.000000 0.000000 -0.013255 0.000000 0.041031
#
#
# Mechanical properties :
#
#
# Convention : Reuss Voigt Hill
#
# Bulk Modulus (GPa) = 40.58680 52.29138 46.43909
# Shear Modulus (GPa) = 27.23349 35.72605 31.47977
#
# Velocity S-wave (km/s) = 3.29987 3.77953 3.54782
# Velocity P-wave (km/s) = 5.54503 6.32099 5.94568
#
# Compressibility (1/GPa) = 0.02463855
#
# Stress axis : x y z
#
# Youngs Moduli (GPa) = 90.42904 149.02077 85.12809
#
# Poissons Ratio (x) = 0.13767 0.01945
# Poissons Ratio (y) = 0.08354 0.10951
# Poissons Ratio (z) = 0.02066 0.19170
#
# Static dielectric constant tensor:
#      x y z
#    x 2.034600 0.000000 -0.008810 
#    y 0.000000 1.969210 0.000000 
#    z -0.008810 0.000000 2.035030 
# 
# From -- ./inp_files/31396.got.cif
#   From: 2010.05.17/outbox.cif.g08.bks.cpg/sg12_16_cif.got.tgz:31396.got - 2010.06.03 13:09:07.
