data_PCOD9200305
_publ_section_title
;
Structure prediction by ZEFSAII (Michael W. Deem and Ramdas Pophale) SiO2 
 PCOD9200305
Probable space group: C 2/M
;
_chemical_formula_sum "Si O2"
_cell_formula_units_Z 56
_cell_length_a 23.128427
_cell_length_b 20.528582
_cell_length_c 19.403823
_cell_angle_alpha 90.000000
_cell_angle_beta 162.577120
_cell_angle_gamma 90.000000
_cell_volume 2758.517911
_symmetry_space_group_name_H-M "C 2/M"
_symmetry_group_IT_number 12
_symmetry_cell_setting 'monoclinic'
loop_
_space_group_symop_operation_xyz
x,y,z
-x,y,-z
-x,-y,-z
x,-y,z
1/2+x,1/2+y,z
1/2-x,1/2+y,-z
1/2-x,1/2-y,-z
1/2+x,1/2-y,z
loop_
_atom_site_type_symbol
_atom_site_label
_atom_site_fract_x
_atom_site_fract_y
_atom_site_fract_z
Si Si1 0.142266 0.872316 0.221767
Si Si2 0.501300 0.422272 0.341096
Si Si3 0.617203 0.742521 0.024991
Si Si4 0.029983 0.694737 0.645417
Si Si5 0.847358 0.173856 0.386861
Si Si6 0.388166 0.160187 0.106225
Si Si7 0.769510 0.925966 0.534651
O O1 0.358934 0.857549 0.442572
O O2 0.146720 0.917281 0.293664
O O3 0.000000 0.894788 0.000000
O O4 0.057732 0.802864 0.152191
O O5 0.483545 0.500000 0.331939
O O6 0.657575 0.388417 0.569594
O O7 0.574619 0.410363 0.346720
O O8 0.298733 0.384643 0.120985
O O9 0.803299 0.696195 0.222617
O O10 0.669293 0.795375 0.142639
O O11 0.596701 0.780904 0.930391
O O12 0.114906 0.683920 0.818193
O O13 0.935241 0.766326 0.530861
O O14 0.000000 0.158224 0.500000
O O15 0.583824 0.119579 0.319155
O O16 0.707719 0.000000 0.453083
#
# Coordination Sequence:
#
# PCOD9200305 Si02
#       7
#     8   8   8   8   8   8   8
#     4  11  23  36  62  89 113 156 185 232 305 346
#     4  11  23  41  61  80 115 163 198 233 281 337
#     4  11  22  36  58  91 123 146 185 241 293 345
#     4  10  21  36  56  88 121 144 186 239 289 342
#     4  10  20  37  56  88 121 149 185 239 283 341
#     4  11  22  36  64  86 112 157 190 240 291 341
#     4  10  25  43  57  84 117 148 203 245 272 342
#
# _framework density 20.300756
#
# number of rings (size 3 to 8) (size 9 to 14) (size 15 to 20)
#    0.000    1.429    4.286    1.714    4.000    1.714 
#    0.000    0.000    0.000    1.714    0.000    8.000 
#    0.000    0.000    0.000    0.000    0.000    0.000 
#
# Total GULP energy -156410.359358 kJ/mol
# GULP energy per Si atom -5586.084263 kJ/mol
# Density = 2.025455 g / cm^3
# Si number density = 20.300756 Si / 1000 Ang^3
#
#
#
# Elastic Constant Matrix: (Units=GPa)
#
#
# Indices 1 2 3 4 5 6 
#
# 1 64.0280 6.7898 12.7442 -0.0023 -0.3896 0.0004
# 2 6.7898 19.0236 -4.8621 -0.0038 -2.8216 -0.0013
# 3 12.7442 -4.8621 52.5380 -0.0015 -3.9201 -0.0029
# 4 -0.0023 -0.0038 -0.0015 19.7439 -0.0001 -1.5105
# 5 -0.3896 -2.8216 -3.9201 -0.0001 32.5343 -0.0025
# 6 0.0004 -0.0013 -0.0029 -1.5105 -0.0025 26.0833
#
#
#
# Elastic Compliance Matrix: (Units=1/GPa)
#
#
# Indices 1 2 3 4 5 6 
#
# 1 0.017422 -0.007656 -0.005014 0.000000 -0.001060 -0.000001
# 2 -0.007656 0.058132 0.007675 0.000011 0.005875 0.000005
# 3 -0.005014 0.007675 0.021196 0.000003 0.003160 0.000003
# 4 0.000000 0.000011 0.000003 0.050874 0.000002 0.002946
# 5 -0.001060 0.005875 0.003160 0.000002 0.031614 0.000004
# 6 -0.000001 0.000005 0.000003 0.002946 0.000004 0.038509
#
#
# Mechanical properties :
#
#
# Convention : Reuss Voigt Hill
#
# Bulk Modulus (GPa) = 11.52604 18.32592 14.92598
# Shear Modulus (GPa) = 19.48130 23.73350 21.60740
#
# Velocity S-wave (km/s) = 3.10116 3.42291 3.26600
# Velocity P-wave (km/s) = 4.30266 4.96675 4.64658
#
# Compressibility (1/GPa) = 0.08676009
#
# Stress axis : x y z
#
# Youngs Moduli (GPa) = 57.40014 17.20226 47.17859
#
# Poissons Ratio (x) = 0.13171 0.23653
# Poissons Ratio (y) = 0.43948 -0.36211
# Poissons Ratio (z) = 0.28778 -0.13203
#
# Static dielectric constant tensor:
#      x y z
#    x 1.725330 0.000000 -0.007230 
#    y 0.000000 1.693290 0.000000 
#    z -0.007230 0.000000 1.768260 
# 
# From -- ./inp_files/286072.got.cif
#   From: 2010.05.17/outbox.cif.g08.bks.cpg/sg12_144_cif.got.tgz:286072.got - 2010.06.03 13:09:07.
