data_PCOD9200439
_publ_section_title
;
Structure prediction by ZEFSAII (Michael W. Deem and Ramdas Pophale) SiO2 
 PCOD9200439
Probable space group: C 2/M
;
_chemical_formula_sum "Si O2"
_cell_formula_units_Z 48
_cell_length_a 16.845862
_cell_length_b 33.688201
_cell_length_c 6.972843
_cell_angle_alpha 90.000000
_cell_angle_beta 45.955870
_cell_angle_gamma 90.000000
_cell_volume 2844.407162
_symmetry_space_group_name_H-M "C 2/M"
_symmetry_group_IT_number 12
_symmetry_cell_setting 'monoclinic'
loop_
_space_group_symop_operation_xyz
x,y,z
-x,y,-z
-x,-y,-z
x,-y,z
1/2+x,1/2+y,z
1/2-x,1/2+y,-z
1/2-x,1/2-y,-z
1/2+x,1/2-y,z
loop_
_atom_site_type_symbol
_atom_site_label
_atom_site_fract_x
_atom_site_fract_y
_atom_site_fract_z
Si Si1 0.000000 0.267542 0.500000
Si Si2 0.692276 0.172617 0.292700
Si Si3 0.623515 0.046959 0.374955
Si Si4 0.244316 0.104675 0.111819
Si Si5 0.500000 0.632679 0.500000
Si Si6 0.939272 0.799965 0.900759
Si Si7 0.375208 0.892563 0.285352
O O1 0.900033 0.295348 0.601400
O O2 0.961733 0.238710 0.735212
O O3 0.654676 0.144932 0.531586
O O4 0.711599 0.143338 0.078675
O O5 0.808872 0.193012 0.142426
O O6 0.500000 0.054301 0.500000
O O7 0.633305 0.069322 0.561235
O O8 0.639765 0.000000 0.364307
O O9 0.708713 0.067376 0.085315
O O10 0.294309 0.104690 0.240152
O O11 0.112015 0.107800 0.332974
O O12 0.514352 0.662057 0.294392
O O13 0.000000 0.796745 0.000000
O O14 0.500000 0.889319 0.000000
#
# Coordination Sequence:
#
# PCOD9200439 Si02
#       7
#     4   8   8   8   4   8   8
#     4  11  22  34  52  76 108 140 174 220 278 324
#     4  10  22  36  53  77 109 138 175 231 266 311
#     4  10  21  36  54  83 119 142 168 218 268 315
#     4  10  20  37  58  81 108 142 183 218 266 315
#     4   9  20  38  59  78 105 144 183 226 259 312
#     4  10  21  37  54  76 104 141 183 219 270 319
#     4  11  20  33  58  84 105 139 183 217 267 323
#
# _framework density 16.875222000000001
#
# number of rings (size 3 to 8) (size 9 to 14) (size 15 to 20)
#    0.000    1.833    1.667    2.500    2.333    3.667 
#    0.000    0.417    0.000    1.000    0.000    0.000 
#    0.000    0.000    0.000    0.000    0.000    0.000 
#
# Total GULP energy -134043.607716 kJ/mol
# GULP energy per Si atom -5585.150321 kJ/mol
# Density = 1.683681 g / cm^3
# Si number density = 16.875222 Si / 1000 Ang^3
#
#
#
# Elastic Constant Matrix: (Units=GPa)
#
#
# Indices 1 2 3 4 5 6 
#
# 1 167.5286 97.3674 106.4536 0.0000 4.4958 0.0000
# 2 97.3674 116.2544 78.9405 0.0000 -8.6804 0.0000
# 3 106.4536 78.9405 127.0512 0.0000 -3.7868 0.0000
# 4 0.0000 0.0000 0.0000 4.2364 0.0000 -2.8480
# 5 4.4958 -8.6804 -3.7868 0.0000 41.8345 0.0000
# 6 0.0000 0.0000 0.0000 -2.8480 0.0000 23.8293
#
#
#
# Elastic Compliance Matrix: (Units=1/GPa)
#
#
# Indices 1 2 3 4 5 6 
#
# 1 0.016369 -0.008003 -0.008869 0.000000 -0.004223 0.000000
# 2 -0.008003 0.019008 -0.004975 0.000000 0.004354 0.000000
# 3 -0.008869 -0.004975 0.018440 0.000000 0.001590 0.000000
# 4 0.000000 0.000000 0.000000 0.256671 0.000000 0.030676
# 5 -0.004223 0.004354 0.001590 0.000000 0.025405 0.000000
# 6 0.000000 0.000000 0.000000 0.030676 0.000000 0.045632
#
#
# Mechanical properties :
#
#
# Convention : Reuss Voigt Hill
#
# Bulk Modulus (GPa) = 98.77459 108.48414 103.62936
# Shear Modulus (GPa) = 11.66608 22.51823 17.09216
#
# Velocity S-wave (km/s) = 2.63214 3.65690 3.18599
# Velocity P-wave (km/s) = 8.23996 9.06952 8.66467
#
# Compressibility (1/GPa) = 0.01012406
#
# Stress axis : x y z
#
# Youngs Moduli (GPa) = 61.08951 52.61034 54.22892
#
# Poissons Ratio (x) = 0.42104 0.48096
# Poissons Ratio (y) = 0.48890 0.26977
# Poissons Ratio (z) = 0.54180 0.26172
#
# Static dielectric constant tensor:
#      x y z
#    x 1.539180 0.000000 -0.003250 
#    y 0.000000 1.545230 0.000000 
#    z -0.003250 0.000000 1.564280 
# 
# From -- ./inp_files/13069.got.cif
#   From: 2010.05.17/outbox.cif.g08.bks.cpg/sg12_7_cif.got.tgz:13069.got - 2010.06.03 13:09:07.
