data_PCOD9200645
_publ_section_title
;
Structure prediction by ZEFSAII (Michael W. Deem and Ramdas Pophale) SiO2 
 PCOD9200645
Probable space group: C 2/M
;
_chemical_formula_sum "Si O2"
_cell_formula_units_Z 48
_cell_length_a 25.581500
_cell_length_b 8.637243
_cell_length_c 12.866759
_cell_angle_alpha 90.000000
_cell_angle_beta 109.175640
_cell_angle_gamma 90.000000
_cell_volume 2685.218800
_symmetry_space_group_name_H-M "C 2/M"
_symmetry_group_IT_number 12
_symmetry_cell_setting 'monoclinic'
loop_
_space_group_symop_operation_xyz
x,y,z
-x,y,-z
-x,-y,-z
x,-y,z
1/2+x,1/2+y,z
1/2-x,1/2+y,-z
1/2-x,1/2-y,-z
1/2+x,1/2-y,z
loop_
_atom_site_type_symbol
_atom_site_label
_atom_site_fract_x
_atom_site_fract_y
_atom_site_fract_z
Si Si1 0.689972 0.186385 0.224244
Si Si2 0.309502 0.683875 0.003621
Si Si3 0.314942 0.314600 0.373337
Si Si4 0.112598 0.314164 0.768231
Si Si5 0.994045 0.311497 0.616065
Si Si6 0.373230 0.812569 0.611879
O O1 0.679551 0.263465 0.106800
O O2 0.751882 0.225964 0.303414
O O3 0.647540 0.231484 0.287363
O O4 0.687759 0.000000 0.209881
O O5 0.307038 0.500000 0.009128
O O6 0.250000 0.750000 0.000000
O O7 0.355867 0.746262 0.112357
O O8 0.320107 0.500000 0.372571
O O9 0.354981 0.240138 0.313548
O O10 0.332934 0.254510 0.497616
O O11 0.114466 0.500000 0.774211
O O12 0.048761 0.264204 0.714344
O O13 0.993535 0.500000 0.614435
O O14 0.000000 0.260862 0.500000
O O15 0.935685 0.261808 0.625996
O O16 0.371043 0.000000 0.603731
#
# Coordination Sequence:
#
# PCOD9200645 Si02
#       6
#     8   8   8   8   8   8
#     4  10  22  38  57  83 116 153 193 233 282 339
#     4  12  24  39  60  84 114 149 189 234 282 338
#     4  11  21  33  53  85 121 150 185 235 287 344
#     4  11  21  36  60  86 113 147 189 238 284 330
#     4   9  17  33  58  86 112 144 193 237 276 330
#     4  10  20  37  59  83 115 154 193 236 280 334
#
# _framework density 17.875637999999999
#
# number of rings (size 3 to 8) (size 9 to 14) (size 15 to 20)
#    0.000    1.500    3.333    3.000    0.000    1.333 
#    0.000    3.333    0.000    5.000    0.000    0.000 
#    0.000    0.000    0.000    0.000    0.000    0.000 
#
# Total GULP energy -134091.656100 kJ/mol
# GULP energy per Si atom -5587.152338 kJ/mol
# Density = 1.783495 g / cm^3
# Si number density = 17.875638 Si / 1000 Ang^3
#
#
#
# Elastic Constant Matrix: (Units=GPa)
#
#
# Indices 1 2 3 4 5 6 
#
# 1 64.9945 27.5913 53.4482 0.0000 -2.6939 0.0000
# 2 27.5913 43.0438 42.3659 0.0000 -2.6747 0.0000
# 3 53.4482 42.3659 157.0188 0.0000 -1.8280 0.0000
# 4 0.0000 0.0000 0.0000 33.9832 0.0000 0.6526
# 5 -2.6939 -2.6747 -1.8280 0.0000 34.1793 0.0000
# 6 0.0000 0.0000 0.0000 0.6526 0.0000 17.1169
#
#
#
# Elastic Compliance Matrix: (Units=1/GPa)
#
#
# Indices 1 2 3 4 5 6 
#
# 1 0.024228 -0.010036 -0.005529 0.000000 0.000828 0.000000
# 2 -0.010036 0.035930 -0.006259 0.000000 0.001686 0.000000
# 3 -0.005529 -0.006259 0.009935 0.000000 -0.000394 0.000000
# 4 0.000000 0.000000 0.000000 0.029448 0.000000 -0.001123
# 5 0.000828 0.001686 -0.000394 0.000000 0.029434 0.000000
# 6 0.000000 0.000000 0.000000 -0.001123 0.000000 0.058465
#
#
# Mechanical properties :
#
#
# Convention : Reuss Voigt Hill
#
# Bulk Modulus (GPa) = 37.81524 56.87420 47.34472
# Shear Modulus (GPa) = 20.84176 26.49933 23.67055
#
# Velocity S-wave (km/s) = 3.41828 3.85441 3.64288
# Velocity P-wave (km/s) = 6.06466 7.18987 6.65110
#
# Compressibility (1/GPa) = 0.02644437
#
# Stress axis : x y z
#
# Youngs Moduli (GPa) = 41.27447 27.83170 100.65532
#
# Poissons Ratio (x) = 0.27933 0.55657
# Poissons Ratio (y) = 0.41425 0.62995
# Poissons Ratio (z) = 0.22823 0.17418
#
# Static dielectric constant tensor:
#      x y z
#    x 1.607090 0.000000 0.004140 
#    y 0.000000 1.629630 0.000000 
#    z 0.004140 0.000000 1.581700 
# 
# From -- ./inp_files/172885.got.cif
#   From: 2010.05.17/outbox.cif.g08.bks.cpg/sg12_87_cif.got.tgz:172885.got - 2010.06.03 13:09:07.
