data_PCOD9200204
_publ_section_title
;
Structure prediction by ZEFSAII (Michael W. Deem and Ramdas Pophale) SiO2 
 PCOD9200204
Probable space group: C 2/M
;
_chemical_formula_sum "Si O2"
_cell_formula_units_Z 56
_cell_length_a 14.077149
_cell_length_b 18.396736
_cell_length_c 12.570219
_cell_angle_alpha 90.000000
_cell_angle_beta 114.889447
_cell_angle_gamma 90.000000
_cell_volume 2953.002473
_symmetry_space_group_name_H-M "C 2/M"
_symmetry_group_IT_number 12
_symmetry_cell_setting 'monoclinic'
loop_
_space_group_symop_operation_xyz
x,y,z
-x,y,-z
-x,-y,-z
x,-y,z
1/2+x,1/2+y,z
1/2-x,1/2+y,-z
1/2-x,1/2-y,-z
1/2+x,1/2-y,z
loop_
_atom_site_type_symbol
_atom_site_label
_atom_site_fract_x
_atom_site_fract_y
_atom_site_fract_z
Si Si1 0.610028 0.171771 0.755971
Si Si2 0.215896 0.086368 0.037198
Si Si3 0.125826 0.916914 0.574245
Si Si4 0.430438 0.232387 0.807939
Si Si5 0.274506 0.327598 0.182750
Si Si6 0.500000 0.654663 0.000000
Si Si7 0.000000 0.292638 0.500000
Si Si8 0.846055 0.199498 0.569695
O O1 0.689323 0.113648 0.842982
O O2 0.503373 0.178335 0.774881
O O3 0.667796 0.249790 0.795557
O O4 0.575927 0.163682 0.615993
O O5 0.220222 0.000000 0.021604
O O6 0.222703 0.129316 0.927363
O O7 0.105438 0.108066 0.040284
O O8 0.166737 0.872258 0.695651
O O9 0.169330 0.878837 0.488271
O O10 0.000000 0.915588 0.500000
O O11 0.158897 0.000000 0.600750
O O12 0.344662 0.190057 0.837197
O O13 0.369047 0.288592 0.702754
O O14 0.502290 0.287852 0.905418
O O15 0.061200 0.238322 0.451253
O O16 0.750000 0.250000 0.500000
#
# Coordination Sequence:
#
# PCOD9200204 Si02
#       8
#     8   8   8   8   8   4   4   8
#     4  11  21  41  68  96 124 166 218 262 316 383
#     4  12  27  44  63  93 133 170 207 264 329 385
#     4  11  22  37  60  95 134 167 208 263 326 380
#     4  11  22  36  69  96 117 156 225 267 305 369
#     4  12  21  42  65  94 127 169 216 267 318 377
#     4  12  23  42  64  96 123 162 212 266 313 388
#     4  10  20  36  68  96 120 158 216 262 308 354
#     4  11  19  36  61  93 125 162 206 254 308 370
#
# _framework density 18.963749
#
# number of rings (size 3 to 8) (size 9 to 14) (size 15 to 20)
#    0.000    0.714    6.429    2.786    0.000    0.000 
#    0.000    3.214    0.000    0.000    0.000    0.000 
#    0.000    0.000    0.000    0.000    0.000    0.000 
#
# Total GULP energy -156248.968295 kJ/mol
# GULP energy per Si atom -5580.320296 kJ/mol
# Density = 1.892059 g / cm^3
# Si number density = 18.963749 Si / 1000 Ang^3
#
#
#
# Elastic Constant Matrix: (Units=GPa)
#
#
# Indices 1 2 3 4 5 6 
#
# 1 85.3960 30.7258 -2.1930 0.0000 1.6103 0.0000
# 2 30.7258 84.1167 30.8324 0.0000 0.0989 0.0000
# 3 -2.1930 30.8324 96.8505 0.0000 6.4958 0.0000
# 4 0.0000 0.0000 0.0000 23.9217 0.0000 0.7206
# 5 1.6103 0.0989 6.4958 0.0000 25.2651 0.0000
# 6 0.0000 0.0000 0.0000 0.7206 0.0000 20.7525
#
#
#
# Elastic Compliance Matrix: (Units=1/GPa)
#
#
# Indices 1 2 3 4 5 6 
#
# 1 0.013930 -0.005930 0.002301 0.000000 -0.001456 0.000000
# 2 -0.005930 0.016012 -0.005345 0.000000 0.001690 0.000000
# 3 0.002301 -0.005345 0.012299 0.000000 -0.003288 0.000000
# 4 0.000000 0.000000 0.000000 0.041847 0.000000 -0.001453
# 5 -0.001456 0.001690 -0.003288 0.000000 0.040512 0.000000
# 6 0.000000 0.000000 0.000000 -0.001453 0.000000 0.048238
#
#
# Mechanical properties :
#
#
# Convention : Reuss Voigt Hill
#
# Bulk Modulus (GPa) = 41.16380 42.78819 41.97600
# Shear Modulus (GPa) = 25.14036 27.78770 26.46403
#
# Velocity S-wave (km/s) = 3.64497 3.83208 3.73970
# Velocity P-wave (km/s) = 6.28237 6.49553 6.38984
#
# Compressibility (1/GPa) = 0.02429319
#
# Stress axis : x y z
#
# Youngs Moduli (GPa) = 71.78554 62.45498 81.30504
#
# Poissons Ratio (x) = 0.37037 -0.18708
# Poissons Ratio (y) = 0.42570 0.43457
# Poissons Ratio (z) = -0.16518 0.33381
#
# Static dielectric constant tensor:
#      x y z
#    x 1.694220 0.000000 0.008260 
#    y 0.000000 1.615690 0.000000 
#    z 0.008260 0.000000 1.681360 
# 
# From -- ./inp_files/146276.got.cif
#   From: 2010.05.17/outbox.cif.g08.bks.cpg/sg12_74_cif.got.tgz:146276.got - 2010.06.03 13:09:07.
