data_PCOD9200585
_publ_section_title
;
Structure prediction by ZEFSAII (Michael W. Deem and Ramdas Pophale) SiO2 
 PCOD9200585
Probable space group: C 2/M
;
_chemical_formula_sum "Si O2"
_cell_formula_units_Z 44
_cell_length_a 8.972803
_cell_length_b 28.240372
_cell_length_c 12.932631
_cell_angle_alpha 90.000000
_cell_angle_beta 40.778353
_cell_angle_gamma 90.000000
_cell_volume 2140.366250
_symmetry_space_group_name_H-M "C 2/M"
_symmetry_group_IT_number 12
_symmetry_cell_setting 'monoclinic'
loop_
_space_group_symop_operation_xyz
x,y,z
-x,y,-z
-x,-y,-z
x,-y,z
1/2+x,1/2+y,z
1/2-x,1/2+y,-z
1/2-x,1/2-y,-z
1/2+x,1/2-y,z
loop_
_atom_site_type_symbol
_atom_site_label
_atom_site_fract_x
_atom_site_fract_y
_atom_site_fract_z
Si Si1 0.500000 0.365155 0.000000
Si Si2 0.451470 0.295244 0.208986
Si Si3 0.885092 0.848382 0.457067
Si Si4 0.478270 0.780025 0.343590
Si Si5 0.713151 0.053245 0.243953
Si Si6 0.175763 0.948155 0.576187
O O1 0.452446 0.329197 0.930521
O O2 0.699832 0.402355 0.867110
O O3 0.460347 0.326282 0.308810
O O4 0.549468 0.245197 0.198975
O O5 0.194311 0.282346 0.305401
O O6 0.622052 0.832787 0.608278
O O7 0.934314 0.903558 0.420356
O O8 0.000000 0.828687 0.500000
O O9 0.250000 0.750000 0.500000
O O10 0.827088 0.057345 0.298002
O O11 0.442594 0.053972 0.405341
O O12 0.764956 0.000000 0.176194
O O13 0.084437 0.000000 0.597242
#
# Coordination Sequence:
#
# PCOD9200585 Si02
#       6
#     4   8   8   8   8   8
#     4  12  21  34  58  88 128 152 185 236 296 362
#     4  11  23  37  57  86 114 155 194 234 297 349
#     4  11  20  34  58  85 116 150 195 241 289 336
#     4  10  20  37  59  80 112 147 195 243 279 336
#     4   9  18  33  57  87 118 154 194 237 288 341
#     4   9  18  34  57  86 116 149 199 246 279 334
#
# _framework density 20.557230000000001
#
# number of rings (size 3 to 8) (size 9 to 14) (size 15 to 20)
#    0.000    1.818    1.818    6.818    2.545    1.091 
#    0.000    0.000    0.000    3.273    0.000    2.545 
#    0.000    0.000    0.000    0.000    0.000    0.000 
#
# Total GULP energy -122518.583752 kJ/mol
# GULP energy per Si atom -5569.026534 kJ/mol
# Density = 2.051044 g / cm^3
# Si number density = 20.557230 Si / 1000 Ang^3
#
#
#
# Elastic Constant Matrix: (Units=GPa)
#
#
# Indices 1 2 3 4 5 6 
#
# 1 79.5137 -1.7031 14.5507 0.0000 21.8136 0.0000
# 2 -1.7031 108.1552 44.4177 0.0000 14.7038 0.0000
# 3 14.5507 44.4177 81.2719 0.0000 25.0132 0.0000
# 4 0.0000 0.0000 0.0000 45.2479 0.0000 1.2801
# 5 21.8136 14.7038 25.0132 0.0000 30.5377 0.0000
# 6 0.0000 0.0000 0.0000 1.2801 0.0000 20.0305
#
#
#
# Elastic Compliance Matrix: (Units=1/GPa)
#
#
# Indices 1 2 3 4 5 6 
#
# 1 0.016013 0.001994 -0.000188 0.000000 -0.012244 0.000000
# 2 0.001994 0.012177 -0.006377 0.000000 -0.002064 0.000000
# 3 -0.000188 -0.006377 0.019838 0.000000 -0.013044 0.000000
# 4 0.000000 0.000000 0.000000 0.022140 0.000000 -0.001415
# 5 -0.012244 -0.002064 -0.013044 0.000000 0.053171 0.000000
# 6 0.000000 0.000000 0.000000 -0.001415 0.000000 0.050014
#
#
# Mechanical properties :
#
#
# Convention : Reuss Voigt Hill
#
# Bulk Modulus (GPa) = 25.71667 42.60793 34.16230
# Shear Modulus (GPa) = 25.58117 33.27493 29.42805
#
# Velocity S-wave (km/s) = 3.53142 4.02761 3.78765
# Velocity P-wave (km/s) = 5.40045 6.51155 5.98185
#
# Compressibility (1/GPa) = 0.03888529
#
# Stress axis : x y z
#
# Youngs Moduli (GPa) = 62.45088 82.12323 50.40893
#
# Poissons Ratio (x) = -0.16376 0.00949
# Poissons Ratio (y) = -0.12453 0.32144
# Poissons Ratio (z) = 0.01176 0.52367
#
# Static dielectric constant tensor:
#      x y z
#    x 1.697190 0.000000 -0.006550 
#    y 0.000000 1.834330 0.000000 
#    z -0.006550 0.000000 1.799890 
# 
# From -- ./inp_files/125071.got.cif
#   From: 2010.05.17/outbox.cif.g08.bks.cpg/sg12_63_cif.got.tgz:125071.got - 2010.06.03 13:09:07.
