data_PCOD9200567
_publ_section_title
;
Structure prediction by ZEFSAII (Michael W. Deem and Ramdas Pophale) SiO2 
 PCOD9200567
Probable space group: C 2/M
;
_chemical_formula_sum "Si O2"
_cell_formula_units_Z 64
_cell_length_a 19.734752
_cell_length_b 8.949442
_cell_length_c 20.696466
_cell_angle_alpha 90.000000
_cell_angle_beta 112.795678
_cell_angle_gamma 90.000000
_cell_volume 3369.799417
_symmetry_space_group_name_H-M "C 2/M"
_symmetry_group_IT_number 12
_symmetry_cell_setting 'monoclinic'
loop_
_space_group_symop_operation_xyz
x,y,z
-x,y,-z
-x,-y,-z
x,-y,z
1/2+x,1/2+y,z
1/2-x,1/2+y,-z
1/2-x,1/2-y,-z
1/2+x,1/2-y,z
loop_
_atom_site_type_symbol
_atom_site_label
_atom_site_fract_x
_atom_site_fract_y
_atom_site_fract_z
Si Si1 0.844283 0.670853 0.594505
Si Si2 0.060237 0.676079 0.124085
Si Si3 0.308982 0.681702 0.310996
Si Si4 0.184473 0.676958 0.061126
Si Si5 0.160314 0.181089 0.819088
Si Si6 0.334540 0.327857 0.460874
Si Si7 0.590639 0.678486 0.922313
Si Si8 0.851946 0.822411 0.729351
O O1 0.754766 0.674014 0.565962
O O2 0.864177 0.731834 0.531182
O O3 0.870999 0.771135 0.663715
O O4 0.632750 0.000000 0.388151
O O5 0.054197 0.500000 0.134713
O O6 0.119853 0.695912 0.089729
O O7 0.090103 0.760912 0.197986
O O8 0.981484 0.742495 0.077183
O O9 0.302359 0.500000 0.309630
O O10 0.346456 0.729129 0.257711
O O11 0.348612 0.724568 0.392716
O O12 0.226906 0.748516 0.282583
O O13 0.190009 0.500000 0.047410
O O14 0.259939 0.724505 0.123225
O O15 0.160509 0.769435 0.989809
O O16 0.102130 0.226308 0.851921
O O17 0.159509 0.000000 0.817493
O O18 0.358094 0.500000 0.476608
O O19 0.583637 0.500000 0.922867
O O20 0.846298 0.000000 0.730649
#
# Coordination Sequence:
#
# PCOD9200567 Si02
#       8
#     8   8   8   8   8   8   8   8
#     4   9  16  26  41  63  98 138 169 200 250 309
#     4  11  22  38  57  74 100 139 178 210 255 317
#     4   9  16  31  51  71  99 138 176 206 250 310
#     4  10  20  37  59  76  97 136 179 211 254 315
#     4   9  18  35  56  77 103 139 175 210 255 311
#     4   8  14  23  40  66  96 129 168 211 247 288
#     4  11  23  36  53  79 109 133 167 219 265 302
#     4  11  20  30  48  75 103 129 168 218 261 298
#
# _framework density 18.992228999999998
#
# number of rings (size 3 to 8) (size 9 to 14) (size 15 to 20)
#    0.000    2.250    1.250    3.750    0.000    5.500 
#    0.000    1.875    0.000    0.000    0.000    0.875 
#    0.000    7.000    0.000    0.000    0.000    0.000 
#
# Total GULP energy -178523.398938 kJ/mol
# GULP energy per Si atom -5578.856217 kJ/mol
# Density = 1.894900 g / cm^3
# Si number density = 18.992229 Si / 1000 Ang^3
#
#
#
# Elastic Constant Matrix: (Units=GPa)
#
#
# Indices 1 2 3 4 5 6 
#
# 1 26.0312 9.5414 -4.9674 0.0000 -10.5833 0.0000
# 2 9.5414 52.9902 31.2362 0.0000 -8.0528 0.0000
# 3 -4.9674 31.2362 97.3420 0.0000 -20.4191 0.0000
# 4 0.0000 0.0000 0.0000 31.9370 0.0000 0.8867
# 5 -10.5833 -8.0528 -20.4191 0.0000 18.4485 0.0000
# 6 0.0000 0.0000 0.0000 0.8867 0.0000 8.9962
#
#
#
# Elastic Compliance Matrix: (Units=1/GPa)
#
#
# Indices 1 2 3 4 5 6 
#
# 1 0.071707 -0.016590 0.020959 0.000000 0.057092 0.000000
# 2 -0.016590 0.027198 -0.011826 0.000000 -0.010734 0.000000
# 3 0.020959 -0.011826 0.021589 0.000000 0.030756 0.000000
# 4 0.000000 0.000000 0.000000 0.031398 0.000000 -0.003095
# 5 0.057092 -0.010734 0.030756 0.000000 0.116312 0.000000
# 6 0.000000 0.000000 0.000000 -0.003095 0.000000 0.111463
#
#
# Mechanical properties :
#
#
# Convention : Reuss Voigt Hill
#
# Bulk Modulus (GPa) = 9.47146 27.55373 18.51260
# Shear Modulus (GPa) = 11.63398 21.24656 16.44027
#
# Velocity S-wave (km/s) = 2.47769 3.34832 2.94535
# Velocity P-wave (km/s) = 3.63086 5.43026 4.61903
#
# Compressibility (1/GPa) = 0.10558029
#
# Stress axis : x y z
#
# Youngs Moduli (GPa) = 13.94563 36.76687 46.31963
#
# Poissons Ratio (x) = 0.60996 -0.97080
# Poissons Ratio (y) = 0.23136 0.54777
# Poissons Ratio (z) = -0.29228 0.43480
#
# Static dielectric constant tensor:
#      x y z
#    x 1.650680 0.000000 -0.023730 
#    y 0.000000 1.636140 0.000000 
#    z -0.023730 0.000000 1.691160 
# 
# From -- ./inp_files/319266.got.cif
#   From: 2010.05.17/outbox.cif.g08.bks.cpg/sg12_160_cif.got.tgz:319266.got - 2010.06.03 13:09:07.
