data_PCOD9200700
_publ_section_title
;
Structure prediction by ZEFSAII (Michael W. Deem and Ramdas Pophale) SiO2 
 PCOD9200700
Probable space group: C 2/M
;
_chemical_formula_sum "Si O2"
_cell_formula_units_Z 56
_cell_length_a 23.074787
_cell_length_b 9.328702
_cell_length_c 18.609029
_cell_angle_alpha 90.000000
_cell_angle_beta 135.576978
_cell_angle_gamma 90.000000
_cell_volume 2803.818381
_symmetry_space_group_name_H-M "C 2/M"
_symmetry_group_IT_number 12
_symmetry_cell_setting 'monoclinic'
loop_
_space_group_symop_operation_xyz
x,y,z
-x,y,-z
-x,-y,-z
x,-y,z
1/2+x,1/2+y,z
1/2-x,1/2+y,-z
1/2-x,1/2-y,-z
1/2+x,1/2-y,z
loop_
_atom_site_type_symbol
_atom_site_label
_atom_site_fract_x
_atom_site_fract_y
_atom_site_fract_z
Si Si1 0.378434 0.663537 0.265766
Si Si2 0.311657 0.663787 0.743949
Si Si3 0.618138 0.160722 0.591120
Si Si4 0.472622 0.165458 0.639333
Si Si5 0.091141 0.672795 0.050263
Si Si6 0.210166 0.332914 0.032723
Si Si7 0.332595 0.670600 0.599701
O O1 0.406484 0.500000 0.281992
O O2 0.388342 0.716760 0.355810
O O3 0.436271 0.770345 0.272214
O O4 0.284120 0.672780 0.156923
O O5 0.333359 0.500000 0.783327
O O6 0.212491 0.668085 0.647424
O O7 0.345421 0.768076 0.834249
O O8 0.346537 0.696870 0.696454
O O9 0.556579 0.172971 0.469891
O O10 0.607319 0.000000 0.613935
O O11 0.408870 0.263738 0.624935
O O12 0.467390 0.000000 0.656906
O O13 0.092300 0.500000 0.049660
O O14 0.127836 0.718518 0.003893
O O15 0.000000 0.716718 0.000000
O O16 0.197589 0.500000 0.001294
O O17 0.250000 0.250000 0.000000
O O18 0.323647 0.500000 0.581089
O O19 0.250000 0.750000 0.500000
#
# Coordination Sequence:
#
# PCOD9200700 Si02
#       7
#     8   8   8   8   8   8   8
#     4  11  23  39  59  89 122 155 200 252 304 361
#     4  10  21  38  61  88 119 155 198 243 296 358
#     4  10  20  37  59  85 118 158 201 244 291 353
#     4  11  23  39  58  87 124 164 207 249 296 355
#     4  10  22  42  66  93 122 153 201 260 313 372
#     4  10  23  42  64  91 122 158 202 255 314 374
#     4  11  22  38  58  86 123 162 204 250 298 355
#
# _framework density 19.972763
#
# number of rings (size 3 to 8) (size 9 to 14) (size 15 to 20)
#    0.000    1.571    2.857    1.714    0.000    7.143 
#    0.000    2.857    0.000    0.000    0.000    0.000 
#    0.000    0.000    0.000    0.000    0.000    0.000 
#
# Total GULP energy -156262.990892 kJ/mol
# GULP energy per Si atom -5580.821103 kJ/mol
# Density = 1.992730 g / cm^3
# Si number density = 19.972763 Si / 1000 Ang^3
#
#
#
# Elastic Constant Matrix: (Units=GPa)
#
#
# Indices 1 2 3 4 5 6 
#
# 1 114.3157 37.7946 23.8205 0.0000 -11.1815 0.0000
# 2 37.7946 59.5332 25.4925 0.0000 -18.6068 0.0000
# 3 23.8205 25.4925 26.5906 0.0000 0.8096 0.0000
# 4 0.0000 0.0000 0.0000 26.7833 0.0000 -2.8066
# 5 -11.1815 -18.6068 0.8096 0.0000 23.2906 0.0000
# 6 0.0000 0.0000 0.0000 -2.8066 0.0000 35.9804
#
#
#
# Elastic Compliance Matrix: (Units=1/GPa)
#
#
# Indices 1 2 3 4 5 6 
#
# 1 0.011690 -0.003109 -0.007595 0.000000 0.003393 0.000000
# 2 -0.003109 0.053610 -0.049923 0.000000 0.043072 0.000000
# 3 -0.007595 -0.049923 0.093697 0.000000 -0.046786 0.000000
# 4 0.000000 0.000000 0.000000 0.037644 0.000000 0.002936
# 5 0.003393 0.043072 -0.046786 0.000000 0.080601 0.000000
# 6 0.000000 0.000000 0.000000 0.002936 0.000000 0.028022
#
#
# Mechanical properties :
#
#
# Convention : Reuss Voigt Hill
#
# Bulk Modulus (GPa) = 26.49446 41.62832 34.06139
# Shear Modulus (GPa) = 11.38696 24.76631 18.07664
#
# Velocity S-wave (km/s) = 2.39032 3.52519 3.01169
# Velocity P-wave (km/s) = 4.57299 6.12022 5.40228
#
# Compressibility (1/GPa) = 0.03774374
#
# Stress axis : x y z
#
# Youngs Moduli (GPa) = 85.54342 18.65320 10.67270
#
# Poissons Ratio (x) = 0.05799 0.08106
# Poissons Ratio (y) = 0.26593 0.53281
# Poissons Ratio (z) = 0.64971 0.93122
#
# Static dielectric constant tensor:
#      x y z
#    x 1.762520 0.000000 -0.001680 
#    y 0.000000 1.685330 0.000000 
#    z -0.001680 0.000000 1.674340 
# 
# From -- ./inp_files/288462.got.cif
#   From: 2010.05.17/outbox.cif.g08.bks.cpg/sg12_145_cif.got.tgz:288462.got - 2010.06.03 13:09:07.
