data_PCOD9200160
_publ_section_title
;
Structure prediction by ZEFSAII (Michael W. Deem and Ramdas Pophale) SiO2 
 PCOD9200160
Probable space group: C 2/M
;
_chemical_formula_sum "Si O2"
_cell_formula_units_Z 60
_cell_length_a 14.069286
_cell_length_b 20.647343
_cell_length_c 25.702546
_cell_angle_alpha 90.000000
_cell_angle_beta 159.522556
_cell_angle_gamma 90.000000
_cell_volume 2612.041738
_symmetry_space_group_name_H-M "C 2/M"
_symmetry_group_IT_number 12
_symmetry_cell_setting 'monoclinic'
loop_
_space_group_symop_operation_xyz
x,y,z
-x,y,-z
-x,-y,-z
x,-y,z
1/2+x,1/2+y,z
1/2-x,1/2+y,-z
1/2-x,1/2-y,-z
1/2+x,1/2-y,z
loop_
_atom_site_type_symbol
_atom_site_label
_atom_site_fract_x
_atom_site_fract_y
_atom_site_fract_z
Si Si1 0.473463 0.194501 0.044072
Si Si2 0.597548 0.358998 0.265481
Si Si3 0.500000 0.229134 0.500000
Si Si4 0.797151 0.075913 0.944981
Si Si5 0.173421 0.674088 0.259703
Si Si6 0.860557 0.927334 0.526251
Si Si7 0.838187 0.931718 0.214443
Si Si8 0.191826 0.575409 0.721272
O O1 0.583988 0.208499 0.159068
O O2 0.636637 0.127519 0.118669
O O3 0.500000 0.229392 0.000000
O O4 0.154978 0.181557 0.885238
O O5 0.473840 0.422436 0.228383
O O6 0.799333 0.379222 0.323874
O O7 0.753582 0.318429 0.389710
O O8 0.665307 0.272994 0.624485
O O9 0.575539 0.132722 0.841929
O O10 0.692162 0.000000 0.887596
O O11 0.000000 0.086015 0.000000
O O12 0.008347 0.078298 0.101046
O O13 0.406615 0.619520 0.373619
O O14 0.548422 0.905269 0.362002
O O15 0.929288 0.930119 0.622883
O O16 0.886798 0.000000 0.517905
O O17 0.692887 0.000000 0.146468
O O18 0.135980 0.500000 0.680313
#
# Coordination Sequence:
#
# PCOD9200160 Si02
#       8
#     8   8   4   8   8   8   8   8
#     4   9  20  39  67  97 131 165 219 282 345 406
#     4  11  21  41  59  93 134 179 223 285 324 393
#     4  12  30  42  64  86 132 192 256 272 314 384
#     4  10  22  41  69 104 135 166 220 284 349 419
#     4  11  23  46  66  95 135 185 231 279 333 393
#     4   9  19  36  62  97 134 164 208 272 347 422
#     4   9  18  34  64 101 134 165 206 270 354 429
#     4  10  20  36  65 101 133 167 210 281 361 417
#
# _framework density 22.970535999999999
#
# number of rings (size 3 to 8) (size 9 to 14) (size 15 to 20)
#    0.000    2.000    1.333    1.600    1.867    4.000 
#    0.000   16.000    0.000    0.000    0.000    0.000 
#    0.000    0.000    0.000    0.000    0.000    0.000 
#
# Total GULP energy -167110.096415 kJ/mol
# GULP energy per Si atom -5570.336547 kJ/mol
# Density = 2.291825 g / cm^3
# Si number density = 22.970536 Si / 1000 Ang^3
#
#
#
# Elastic Constant Matrix: (Units=GPa)
#
#
# Indices 1 2 3 4 5 6 
#
# 1 75.9569 37.6488 28.3342 0.1467 2.1842 0.1301
# 2 37.6488 42.3967 45.1683 -0.6678 -4.1148 -0.5336
# 3 28.3342 45.1683 136.5391 0.1905 2.6862 0.0660
# 4 0.1467 -0.6678 0.1905 161.0991 -0.0241 92.5861
# 5 2.1842 -4.1148 2.6862 -0.0241 38.4716 -0.0227
# 6 0.1301 -0.5336 0.0660 92.5861 -0.0227 83.6976
#
#
#
# Elastic Compliance Matrix: (Units=1/GPa)
#
#
# Indices 1 2 3 4 5 6 
#
# 1 0.025174 -0.026760 0.003718 -0.000044 -0.004551 -0.000165
# 2 -0.026760 0.065762 -0.016392 0.000121 0.009698 0.000343
# 3 0.003718 -0.016392 0.012030 -0.000046 -0.002804 -0.000070
# 4 -0.000044 0.000121 -0.000046 0.017042 0.000018 -0.018851
# 5 -0.004551 0.009698 -0.002804 0.000018 0.027485 0.000058
# 6 -0.000165 0.000343 -0.000070 -0.018851 0.000058 0.032803
#
#
# Mechanical properties :
#
#
# Convention : Reuss Voigt Hill
#
# Bulk Modulus (GPa) = 41.49945 53.02170 47.26057
# Shear Modulus (GPa) = 18.71289 66.23641 42.47465
#
# Velocity S-wave (km/s) = 2.85730 5.37568 4.30477
# Velocity P-wave (km/s) = 5.38434 7.85259 6.73255
#
# Compressibility (1/GPa) = 0.02409671
#
# Stress axis : x y z
#
# Youngs Moduli (GPa) = 39.72426 15.20644 83.12316
#
# Poissons Ratio (x) = 0.40693 -0.30907
# Poissons Ratio (y) = 1.06303 1.36259
# Poissons Ratio (z) = -0.14770 0.24927
#
# Static dielectric constant tensor:
#      x y z
#    x 1.919560 0.000020 -0.038950 
#    y 0.000020 1.910740 -0.000030 
#    z -0.038950 -0.000030 1.891830 
# 
# From -- ./inp_files/362111.got.cif
#   From: 2010.05.17/outbox.cif.g08.bks.cpg/sg12_182_cif.got.tgz:362111.got - 2010.06.03 13:09:07.
