data_PCOD9200392
_publ_section_title
;
Structure prediction by ZEFSAII (Michael W. Deem and Ramdas Pophale) SiO2 
 PCOD9200392
Probable space group: C 2/M
;
_chemical_formula_sum "Si O2"
_cell_formula_units_Z 52
_cell_length_a 10.773298
_cell_length_b 21.479035
_cell_length_c 14.985930
_cell_angle_alpha 90.000000
_cell_angle_beta 41.798891
_cell_angle_gamma 90.000000
_cell_volume 2311.314519
_symmetry_space_group_name_H-M "C 2/M"
_symmetry_group_IT_number 12
_symmetry_cell_setting 'monoclinic'
loop_
_space_group_symop_operation_xyz
x,y,z
-x,y,-z
-x,-y,-z
x,-y,z
1/2+x,1/2+y,z
1/2-x,1/2+y,-z
1/2-x,1/2-y,-z
1/2+x,1/2-y,z
loop_
_atom_site_type_symbol
_atom_site_label
_atom_site_fract_x
_atom_site_fract_y
_atom_site_fract_z
Si Si1 0.822825 0.123042 0.304513
Si Si2 0.123629 0.600447 0.045984
Si Si3 0.820896 0.201435 0.833104
Si Si4 0.070138 0.000000 0.162300
Si Si5 0.724324 0.656531 0.863978
Si Si6 0.785681 0.893145 0.705857
Si Si7 0.799105 0.928102 0.496516
O O1 0.727041 0.142153 0.264258
O O2 0.725147 0.110944 0.452352
O O3 0.982702 0.175374 0.235467
O O4 0.913559 0.055519 0.238268
O O5 0.180057 0.609026 0.119074
O O6 0.910155 0.581231 0.154837
O O7 0.166014 0.666391 0.975808
O O8 0.266874 0.553354 0.927185
O O9 0.791675 0.274289 0.851166
O O10 0.805160 0.174178 0.741084
O O11 0.500000 0.652451 0.000000
O O12 0.773683 0.895834 0.605572
O O13 0.972519 0.929553 0.635147
O O14 0.736194 0.000000 0.532251
#
# Coordination Sequence:
#
# PCOD9200392 Si02
#       7
#     8   8   8   4   8   8   8
#     4  10  22  40  61  90 119 163 206 244 302 356
#     4  11  23  36  59  95 126 155 194 253 307 355
#     4  10  22  38  60  90 125 155 199 251 300 358
#     4  10  20  37  57  90 126 150 194 251 295 353
#     4  12  22  37  62  87 124 170 198 238 301 371
#     4  10  21  37  61  91 114 153 203 247 303 351
#     4  10  21  41  65  84 116 162 202 247 301 365
#
# _framework density 22.498017999999998
#
# number of rings (size 3 to 8) (size 9 to 14) (size 15 to 20)
#    0.000    1.538    3.846    2.769    4.308    1.231 
#    1.385    3.846    6.769    0.923    0.000    0.000 
#    0.000    0.000    0.000    0.000    0.000    0.000 
#
# Total GULP energy -144783.172097 kJ/mol
# GULP energy per Si atom -5568.583542 kJ/mol
# Density = 2.244681 g / cm^3
# Si number density = 22.498018 Si / 1000 Ang^3
#
#
#
# Elastic Constant Matrix: (Units=GPa)
#
#
# Indices 1 2 3 4 5 6 
#
# 1 80.4317 32.3711 31.4041 -0.0626 39.6186 -0.0564
# 2 32.3711 63.8739 6.2337 -0.0575 4.7945 -0.0519
# 3 31.4041 6.2337 79.0998 -0.1482 27.0514 -0.1334
# 4 -0.0626 -0.0575 -0.1482-3775.6864 0.0612-3412.5529
# 5 39.6186 4.7945 27.0514 0.0612 53.3764 0.0550
# 6 -0.0564 -0.0519 -0.1334-3412.5529 0.0550-3078.6228
#
#
#
# Elastic Compliance Matrix: (Units=1/GPa)
#
#
# Indices 1 2 3 4 5 6 
#
# 1 0.027378 -0.012192 -0.004032 0.000001 -0.017182 -0.000001
# 2 -0.012192 0.021246 0.000876 0.000000 0.006697 0.000000
# 3 -0.004032 0.000876 0.015940 0.000001 -0.005164 -0.000002
# 4 0.000001 0.000000 0.000001 0.142506 -0.000002 -0.157964
# 5 -0.017182 0.006697 -0.005164 -0.000002 0.033504 0.000003
# 6 -0.000001 0.000000 -0.000002 -0.157964 0.000003 0.174773
#
#
# Mechanical properties :
#
#
# Convention : Reuss Voigt Hill
#
# Bulk Modulus (GPa) = 29.52700 40.38038 34.95369
# Shear Modulus (GPa) = 10.93293 -1349.96013 -669.51360
#
# Velocity S-wave (km/s) = 2.20682 -24.52219 -17.26945
# Velocity P-wave (km/s) = 4.43240 27.99636 19.54674
#
# Compressibility (1/GPa) = 0.03386731
#
# Stress axis : x y z
#
# Youngs Moduli (GPa) = 36.52618 47.06686 62.73401
#
# Poissons Ratio (x) = 0.57382 0.25297
# Poissons Ratio (y) = 0.44531 -0.05493
# Poissons Ratio (z) = 0.14729 -0.04121
#
# Static dielectric constant tensor:
#      x y z
#    x 1.880060 0.000000 0.041040 
#    y 0.000000 1.838130 0.000000 
#    z 0.041040 0.000000 1.916070 
# 
# From -- ./inp_files/207586.got.cif
#   From: 2010.05.17/outbox.cif.g08.bks.cpg/sg12_104_cif.got.tgz:207586.got - 2010.06.03 13:09:07.
