data_PCOD9200213
_publ_section_title
;
Structure prediction by ZEFSAII (Michael W. Deem and Ramdas Pophale) SiO2 
 PCOD9200213
Probable space group: C 2/M
;
_chemical_formula_sum "Si O2"
_cell_formula_units_Z 56
_cell_length_a 13.368103
_cell_length_b 24.000115
_cell_length_c 23.423207
_cell_angle_alpha 90.000000
_cell_angle_beta 156.672258
_cell_angle_gamma 90.000000
_cell_volume 2975.869308
_symmetry_space_group_name_H-M "C 2/M"
_symmetry_group_IT_number 12
_symmetry_cell_setting 'monoclinic'
loop_
_space_group_symop_operation_xyz
x,y,z
-x,y,-z
-x,-y,-z
x,-y,z
1/2+x,1/2+y,z
1/2-x,1/2+y,-z
1/2-x,1/2-y,-z
1/2+x,1/2-y,z
loop_
_atom_site_type_symbol
_atom_site_label
_atom_site_fract_x
_atom_site_fract_y
_atom_site_fract_z
Si Si1 0.854281 0.647089 0.366844
Si Si2 0.838862 0.688647 0.570179
Si Si3 0.368247 0.934088 0.847392
Si Si4 0.290420 0.666672 0.297015
Si Si5 0.027230 0.237922 0.838576
Si Si6 0.736162 0.259987 0.833117
Si Si7 0.421781 0.433313 0.188370
O O1 0.673492 0.693721 0.244574
O O2 0.666115 0.597980 0.289873
O O3 0.000000 0.667301 0.500000
O O4 0.071127 0.645409 0.431750
O O5 0.750000 0.750000 0.500000
O O6 0.584183 0.667481 0.465561
O O7 0.072345 0.706326 0.731346
O O8 0.303763 0.895305 0.760879
O O9 0.165062 0.921496 0.791637
O O10 0.357407 0.000000 0.831892
O O11 0.656642 0.920597 0.017169
O O12 0.250614 0.698577 0.213981
O O13 0.121230 0.704745 0.248556
O O14 0.105679 0.211636 0.819353
O O15 0.250000 0.250000 0.000000
O O16 0.000000 0.243750 0.000000
O O17 0.464268 0.500000 0.206875
#
# Coordination Sequence:
#
# PCOD9200213 Si02
#       7
#     8   8   8   8   8   8   8
#     4  12  21  33  53  76 110 150 181 221 274 329
#     4  10  20  37  47  72 111 146 179 221 270 323
#     4   9  18  34  53  76 109 144 181 233 279 323
#     4  11  21  35  53  79 111 143 185 222 271 336
#     4  12  22  33  53  79 104 144 185 222 279 334
#     4  11  21  34  50  75 114 144 176 224 266 332
#     4   9  19  33  52  79 109 146 188 222 273 336
#
# _framework density 18.818031000000001
#
# number of rings (size 3 to 8) (size 9 to 14) (size 15 to 20)
#    0.000    1.429    4.286    5.143    2.000    0.286 
#    0.000    0.714    0.000    0.000    0.000    3.000 
#    0.000    6.286    0.000    0.000    0.000    0.000 
#
# Total GULP energy -155924.766789 kJ/mol
# GULP energy per Si atom -5568.741671 kJ/mol
# Density = 1.877520 g / cm^3
# Si number density = 18.818031 Si / 1000 Ang^3
#
#
#
# Elastic Constant Matrix: (Units=GPa)
#
#
# Indices 1 2 3 4 5 6 
#
# 1 63.0592 5.2304 10.6798 -0.0007 11.1919 -0.0023
# 2 5.2304 61.1569 21.8954 -0.0006 9.0435 0.0017
# 3 10.6798 21.8954 106.5943 0.0897 9.7076 0.0222
# 4 -0.0007 -0.0006 0.0897 24.8145 0.0280 9.8667
# 5 11.1919 9.0435 9.7076 0.0280 23.6776 0.0047
# 6 -0.0023 0.0017 0.0222 9.8667 0.0047 31.7742
#
#
#
# Elastic Compliance Matrix: (Units=1/GPa)
#
#
# Indices 1 2 3 4 5 6 
#
# 1 0.017419 0.000040 -0.001041 0.000014 -0.007822 -0.000001
# 2 0.000040 0.018356 -0.003256 0.000020 -0.005695 -0.000004
# 3 -0.001041 -0.003256 0.010384 -0.000037 -0.002522 0.000005
# 4 0.000014 0.000020 -0.000037 0.045976 -0.000051 -0.014277
# 5 -0.007822 -0.005695 -0.002522 -0.000051 0.049140 0.000010
# 6 -0.000001 -0.000004 0.000005 -0.014277 0.000010 0.035905
#
#
# Mechanical properties :
#
#
# Convention : Reuss Voigt Hill
#
# Bulk Modulus (GPa) = 26.56404 34.04682 30.30543
# Shear Modulus (GPa) = 25.22148 28.92024 27.07086
#
# Velocity S-wave (km/s) = 3.66496 3.92450 3.79695
# Velocity P-wave (km/s) = 5.66181 6.21833 5.94658
#
# Compressibility (1/GPa) = 0.03764488
#
# Stress axis : x y z
#
# Youngs Moduli (GPa) = 57.40713 54.47884 96.30086
#
# Poissons Ratio (x) = -0.00216 0.10025
# Poissons Ratio (y) = -0.00228 0.31354
# Poissons Ratio (z) = 0.05976 0.17737
#
# Static dielectric constant tensor:
#      x y z
#    x 1.777980 0.000000 0.061690 
#    y 0.000000 1.646980 -0.000040 
#    z 0.061690 -0.000040 1.719930 
# 
# From -- ./inp_files/362208.got.cif
#   From: 2010.05.17/outbox.cif.g08.bks.cpg/sg12_182_cif.got.tgz:362208.got - 2010.06.03 13:09:07.
