data_PCOD9200558
_publ_section_title
;
Structure prediction by ZEFSAII (Michael W. Deem and Ramdas Pophale) SiO2 
 PCOD9200558
Probable space group: C 2/M
;
_chemical_formula_sum "Si O2"
_cell_formula_units_Z 64
_cell_length_a 10.737705
_cell_length_b 25.612224
_cell_length_c 11.055657
_cell_angle_alpha 90.000000
_cell_angle_beta 108.151503
_cell_angle_gamma 90.000000
_cell_volume 2889.181552
_symmetry_space_group_name_H-M "C 2/M"
_symmetry_group_IT_number 12
_symmetry_cell_setting 'monoclinic'
loop_
_space_group_symop_operation_xyz
x,y,z
-x,y,-z
-x,-y,-z
x,-y,z
1/2+x,1/2+y,z
1/2-x,1/2+y,-z
1/2-x,1/2-y,-z
1/2+x,1/2-y,z
loop_
_atom_site_type_symbol
_atom_site_label
_atom_site_fract_x
_atom_site_fract_y
_atom_site_fract_z
Si Si1 0.360303 0.198966 0.302394
Si Si2 0.428277 0.326951 0.864579
Si Si3 0.854901 0.591885 0.439131
Si Si4 0.153262 0.442030 0.298530
Si Si5 0.366111 0.557872 0.799445
Si Si6 0.565657 0.574728 0.640551
Si Si7 0.362449 0.686189 0.287701
Si Si8 0.556672 0.159737 0.153190
O O1 0.211782 0.197285 0.207598
O O2 0.364012 0.152686 0.402633
O O3 0.381498 0.257646 0.353931
O O4 0.463330 0.187346 0.225038
O O5 0.393357 0.388397 0.879231
O O6 0.535042 0.318992 0.792108
O O7 0.500000 0.302585 0.000000
O O8 0.802569 0.580785 0.556965
O O9 0.773746 0.564638 0.309197
O O10 0.000000 0.570925 0.500000
O O11 0.097050 0.500000 0.293009
O O12 0.293177 0.445624 0.276040
O O13 0.063964 0.400315 0.203103
O O14 0.376313 0.500000 0.858322
O O15 0.467224 0.563383 0.719221
O O16 0.500000 0.553602 0.500000
O O17 0.595605 0.635687 0.625862
O O18 0.208547 0.679158 0.205237
O O19 0.500000 0.163514 0.000000
#
# Coordination Sequence:
#
# PCOD9200558 Si02
#       8
#     8   8   8   8   8   8   8   8
#     4  11  23  41  62  93 122 158 201 251 306 361
#     4  10  22  40  60  88 122 155 203 253 294 357
#     4  11  22  39  58  87 125 154 196 248 296 365
#     4  11  23  40  64  90 121 163 202 247 308 362
#     4  10  21  36  59  88 119 156 197 245 301 359
#     4  10  20  37  58  90 120 151 197 247 291 361
#     4  10  23  40  63  89 118 161 201 242 307 356
#     4  11  24  43  63  91 124 158 209 256 295 360
#
# _framework density 22.151602
#
# number of rings (size 3 to 8) (size 9 to 14) (size 15 to 20)
#    0.000    1.500    2.500    2.250    0.000    5.500 
#    0.000    1.250    0.000    4.500    0.000    0.000 
#    0.000    0.000    0.000    0.000    0.000    0.000 
#
# Total GULP energy -178516.880147 kJ/mol
# GULP energy per Si atom -5578.652505 kJ/mol
# Density = 2.210118 g / cm^3
# Si number density = 22.151602 Si / 1000 Ang^3
#
#
#
# Elastic Constant Matrix: (Units=GPa)
#
#
# Indices 1 2 3 4 5 6 
#
# 1 129.2779 14.5548 13.0191 0.0000 23.3415 0.0000
# 2 14.5548 182.2471 11.3557 0.0000 -0.7903 0.0000
# 3 13.0191 11.3557 47.3934 0.0000 25.6109 0.0000
# 4 0.0000 0.0000 0.0000 -2.7544 0.0000 7.4290
# 5 23.3415 -0.7903 25.6109 0.0000 25.0000 0.0000
# 6 0.0000 0.0000 0.0000 7.4290 0.0000 -13.8178
#
#
#
# Elastic Compliance Matrix: (Units=1/GPa)
#
#
# Indices 1 2 3 4 5 6 
#
# 1 0.010078 -0.001240 0.005902 0.000000 -0.015495 0.000000
# 2 -0.001240 0.005859 -0.004008 0.000000 0.005448 0.000000
# 3 0.005902 -0.004008 0.052609 0.000000 -0.059532 0.000000
# 4 0.000000 0.000000 0.000000 0.806674 0.000000 0.433697
# 5 -0.015495 0.005448 -0.059532 0.000000 0.115625 0.000000
# 6 0.000000 0.000000 0.000000 0.433697 0.000000 0.160801
#
#
# Mechanical properties :
#
#
# Convention : Reuss Voigt Hill
#
# Bulk Modulus (GPa) = 14.31527 48.53084 31.42306
# Shear Modulus (GPa) = 4.26031 23.01813 13.63922
#
# Velocity S-wave (km/s) = 1.38832 3.22703 2.48407
# Velocity P-wave (km/s) = 3.00771 5.98674 4.73748
#
# Compressibility (1/GPa) = 0.06985546
#
# Stress axis : x y z
#
# Youngs Moduli (GPa) = 99.22487 170.66581 19.00809
#
# Poissons Ratio (x) = 0.21159 -0.11218
# Poissons Ratio (y) = 0.12302 0.07618
# Poissons Ratio (z) = -0.58560 0.68395
#
# Static dielectric constant tensor:
#      x y z
#    x 1.955940 0.000000 -0.068850 
#    y 0.000000 1.844910 0.000000 
#    z -0.068850 0.000000 1.787240 
# 
# From -- ./inp_files/136001.got.cif
#   From: 2010.05.17/outbox.cif.g08.bks.cpg/sg12_69_cif.got.tgz:136001.got - 2010.06.03 13:09:07.
