data_PCOD9200676
_publ_section_title
;
Structure prediction by ZEFSAII (Michael W. Deem and Ramdas Pophale) SiO2 
 PCOD9200676
Probable space group: C 2/M
;
_chemical_formula_sum "Si O2"
_cell_formula_units_Z 56
_cell_length_a 28.681140
_cell_length_b 16.249720
_cell_length_c 18.750934
_cell_angle_alpha 90.000000
_cell_angle_beta 161.865017
_cell_angle_gamma 90.000000
_cell_volume 2720.094188
_symmetry_space_group_name_H-M "C 2/M"
_symmetry_group_IT_number 12
_symmetry_cell_setting 'monoclinic'
loop_
_space_group_symop_operation_xyz
x,y,z
-x,y,-z
-x,-y,-z
x,-y,z
1/2+x,1/2+y,z
1/2-x,1/2+y,-z
1/2-x,1/2-y,-z
1/2+x,1/2-y,z
loop_
_atom_site_type_symbol
_atom_site_label
_atom_site_fract_x
_atom_site_fract_y
_atom_site_fract_z
Si Si1 0.069555 0.669952 0.773022
Si Si2 0.233464 0.652558 0.488986
Si Si3 0.092388 0.907083 0.566702
Si Si4 0.449024 0.364479 0.087689
Si Si5 0.734751 0.094965 0.652588
Si Si6 0.906381 0.666795 0.026606
Si Si7 0.140855 0.864482 0.887441
O O1 0.094161 0.767997 0.811152
O O2 0.901849 0.644624 0.510122
O O3 0.094009 0.642633 0.890316
O O4 0.192410 0.629979 0.900798
O O5 0.250000 0.750000 0.500000
O O6 0.258573 0.633965 0.609276
O O7 0.374555 0.614753 0.653181
O O8 0.061470 0.629868 0.220760
O O9 0.243419 0.860220 0.763736
O O10 0.000000 0.869766 0.500000
O O11 0.976355 0.909112 0.333540
O O12 0.136005 0.000000 0.651086
O O13 0.375028 0.399986 0.909126
O O14 0.425595 0.265315 0.049035
O O15 0.372635 0.390148 0.050367
O O16 0.691861 0.000000 0.580217
#
# Coordination Sequence:
#
# PCOD9200676 Si02
#       7
#     8   8   8   8   8   8   8
#     4   9  19  36  58  86 116 156 207 252 292 355
#     4   9  20  39  62  85 114 152 202 250 291 348
#     4  11  22  35  56  86 119 155 197 246 304 362
#     4  10  21  37  59  86 116 158 201 245 296 357
#     4  11  23  38  60  90 123 157 196 243 303 367
#     4   9  18  36  59  85 112 150 201 255 298 344
#     4  10  20  37  59  84 120 160 205 252 297 346
#
# _framework density 20.587522
#
# number of rings (size 3 to 8) (size 9 to 14) (size 15 to 20)
#    0.000    2.143    1.429    2.143    0.000    5.143 
#    0.000    2.857    0.000    0.857    0.000    0.000 
#    0.000    0.000    0.000    0.000    0.000    0.000 
#
# Total GULP energy -156211.958365 kJ/mol
# GULP energy per Si atom -5578.998513 kJ/mol
# Density = 2.054066 g / cm^3
# Si number density = 20.587522 Si / 1000 Ang^3
#
#
#
# Elastic Constant Matrix: (Units=GPa)
#
#
# Indices 1 2 3 4 5 6 
#
# 1 64.6050 18.0644 13.3486 -0.0001 18.4933 0.0000
# 2 18.0644 33.3959 16.8707 0.0000 9.1571 0.0000
# 3 13.3486 16.8707 68.8346 -0.0001 26.1471 -0.0001
# 4 -0.0001 0.0000 -0.0001 0.3156 0.0000 -6.8289
# 5 18.4933 9.1571 26.1471 0.0000 42.8296 0.0000
# 6 0.0000 0.0000 -0.0001 -6.8289 0.0000 5.8088
#
#
#
# Elastic Compliance Matrix: (Units=1/GPa)
#
#
# Indices 1 2 3 4 5 6 
#
# 1 0.019959 -0.009399 0.001228 0.000000 -0.007358 0.000000
# 2 -0.009399 0.038872 -0.007927 0.000000 0.000587 0.000000
# 3 0.001228 -0.007927 0.020557 0.000000 -0.011385 0.000000
# 4 0.000000 0.000000 0.000000 -0.129662 0.000000 -0.152430
# 5 -0.007358 0.000587 -0.011385 0.000000 0.033351 0.000000
# 6 0.000000 0.000000 0.000000 -0.152430 0.000000 -0.007045
#
#
# Mechanical properties :
#
#
# Convention : Reuss Voigt Hill
#
# Bulk Modulus (GPa) = 21.19026 29.26699 25.22863
# Shear Modulus (GPa) = 208.68879 17.69427 113.19153
#
# Velocity S-wave (km/s) = 10.07902 2.93484 7.42294
# Velocity P-wave (km/s) = 12.07328 5.07259 9.26000
#
# Compressibility (1/GPa) = 0.04719150
#
# Stress axis : x y z
#
# Youngs Moduli (GPa) = 50.10166 25.72562 48.64504
#
# Poissons Ratio (x) = 0.24180 -0.05975
# Poissons Ratio (y) = 0.47091 0.38563
# Poissons Ratio (z) = -0.06154 0.20394
#
# Static dielectric constant tensor:
#      x y z
#    x 1.722410 0.000000 0.027660 
#    y 0.000000 1.769930 0.000000 
#    z 0.027660 0.000000 1.751390 
# 
# From -- ./inp_files/293902.got.cif
#   From: 2010.05.17/outbox.cif.g08.bks.cpg/sg12_147_cif.got.tgz:293902.got - 2010.06.03 13:09:07.
