data_PCOD9200496
_publ_section_title
;
Structure prediction by ZEFSAII (Michael W. Deem and Ramdas Pophale) SiO2 
 PCOD9200496
Probable space group: C 2/M
;
_chemical_formula_sum "Si O2"
_cell_formula_units_Z 52
_cell_length_a 11.916036
_cell_length_b 27.531693
_cell_length_c 8.955334
_cell_angle_alpha 90.000000
_cell_angle_beta 79.796793
_cell_angle_gamma 90.000000
_cell_volume 2891.502425
_symmetry_space_group_name_H-M "C 2/M"
_symmetry_group_IT_number 12
_symmetry_cell_setting 'monoclinic'
loop_
_space_group_symop_operation_xyz
x,y,z
-x,y,-z
-x,-y,-z
x,-y,z
1/2+x,1/2+y,z
1/2-x,1/2+y,-z
1/2-x,1/2-y,-z
1/2+x,1/2-y,z
loop_
_atom_site_type_symbol
_atom_site_label
_atom_site_fract_x
_atom_site_fract_y
_atom_site_fract_z
Si Si1 0.632985 0.193461 0.003278
Si Si2 0.696977 0.500000 0.638458
Si Si3 0.634971 0.685276 0.496516
Si Si4 0.368842 0.087195 0.083156
Si Si5 0.225677 0.000000 0.981171
Si Si6 0.926322 0.000000 0.716654
Si Si7 0.766802 0.920787 0.599162
Si Si8 0.752283 0.734503 0.744610
O O1 0.677805 0.140346 0.948699
O O2 0.681949 0.234131 0.881148
O O3 0.500000 0.192311 0.000000
O O4 0.662844 0.204302 0.168422
O O5 0.714699 0.500000 0.808644
O O6 0.559408 0.500000 0.651086
O O7 0.748816 0.452645 0.545743
O O8 0.500000 0.681476 0.500000
O O9 0.691814 0.633389 0.445816
O O10 0.673355 0.702161 0.653926
O O11 0.681831 0.727216 0.375452
O O12 0.342379 0.080261 0.265408
O O13 0.500000 0.083614 0.000000
O O14 0.296964 0.046465 0.016916
O O15 0.107556 0.000000 0.101198
O O16 0.863798 0.047558 0.662980
#
# Coordination Sequence:
#
# PCOD9200496 Si02
#       8
#     8   4   8   8   4   4   8   8
#     4  10  20  39  61  80 112 155 193 234 285 333
#     4  11  21  35  59  86 121 142 181 235 282 341
#     4  11  21  36  57  86 120 149 185 238 290 336
#     4  10  21  40  61  77 110 153 191 231 288 339
#     4  10  22  35  60  87 114 139 194 234 270 340
#     4   9  19  38  58  83 113 161 174 219 285 353
#     4  10  20  37  58  84 112 151 188 225 289 347
#     4  10  22  36  58  85 116 146 200 232 281 342
#
# _framework density 17.983730000000001
#
# number of rings (size 3 to 8) (size 9 to 14) (size 15 to 20)
#    0.000    1.846    1.538    3.692    2.154    0.000 
#    0.000    1.538    0.000    0.000    0.000    0.000 
#    0.000    0.000    0.000    0.000    0.000    0.000 
#
# Total GULP energy -144979.832846 kJ/mol
# GULP energy per Si atom -5576.147417 kJ/mol
# Density = 1.794280 g / cm^3
# Si number density = 17.983730 Si / 1000 Ang^3
#
#
#
# Elastic Constant Matrix: (Units=GPa)
#
#
# Indices 1 2 3 4 5 6 
#
# 1 65.7964 30.9854 42.5116 0.0000 -1.5630 0.0000
# 2 30.9854 106.6597 53.6839 0.0000 2.5894 0.0000
# 3 42.5116 53.6839 154.5389 0.0000 8.8306 0.0000
# 4 0.0000 0.0000 0.0000 18.6866 0.0000 -16.2232
# 5 -1.5630 2.5894 8.8306 0.0000 32.2162 0.0000
# 6 0.0000 0.0000 0.0000 -16.2232 0.0000 3.8075
#
#
#
# Elastic Compliance Matrix: (Units=1/GPa)
#
#
# Indices 1 2 3 4 5 6 
#
# 1 0.019750 -0.003626 -0.004312 0.000000 0.002432 0.000000
# 2 -0.003626 0.012029 -0.003165 0.000000 -0.000275 0.000000
# 3 -0.004312 -0.003165 0.008893 0.000000 -0.002393 0.000000
# 4 0.000000 0.000000 0.000000 -0.019826 0.000000 -0.084476
# 5 0.002432 -0.000275 -0.002393 0.000000 0.031836 0.000000
# 6 0.000000 0.000000 0.000000 -0.084476 0.000000 -0.097303
#
#
# Mechanical properties :
#
#
# Convention : Reuss Voigt Hill
#
# Bulk Modulus (GPa) = 54.15714 64.59520 59.37617
# Shear Modulus (GPa) = -307.53628 24.26299 -141.63665
#
# Velocity S-wave (km/s) = -13.09119 3.67708 -8.88421
# Velocity P-wave (km/s) = 14.08282 7.35014 8.49415
#
# Compressibility (1/GPa) = 0.01846479
#
# Stress axis : x y z
#
# Youngs Moduli (GPa) = 50.63289 83.13311 112.44261
#
# Poissons Ratio (x) = 0.30145 0.48488
# Poissons Ratio (y) = 0.18360 0.35593
# Poissons Ratio (z) = 0.21834 0.26315
#
# Static dielectric constant tensor:
#      x y z
#    x 1.603530 0.000000 -0.004080 
#    y 0.000000 1.614840 0.000000 
#    z -0.004080 0.000000 1.629340 
# 
# From -- ./inp_files/52601.got.cif
#   From: 2010.05.17/outbox.cif.g08.bks.cpg/sg12_27_cif.got.tgz:52601.got - 2010.06.03 13:09:07.
