data_PCOD9200002
_publ_section_title
;
Structure prediction by ZEFSAII (Michael W. Deem and Ramdas Pophale) SiO2 
 PCOD9200002
Probable space group: C 2/M
;
_chemical_formula_sum "Si O2"
_cell_formula_units_Z 40
_cell_length_a 16.800525
_cell_length_b 14.609544
_cell_length_c 19.319541
_cell_angle_alpha 90.000000
_cell_angle_beta 158.304165
_cell_angle_gamma 90.000000
_cell_volume 1752.997720
_symmetry_space_group_name_H-M "C 2/M"
_symmetry_group_IT_number 12
_symmetry_cell_setting 'monoclinic'
loop_
_space_group_symop_operation_xyz
x,y,z
-x,y,-z
-x,-y,-z
x,-y,z
1/2+x,1/2+y,z
1/2-x,1/2+y,-z
1/2-x,1/2-y,-z
1/2+x,1/2-y,z
loop_
_atom_site_type_symbol
_atom_site_label
_atom_site_fract_x
_atom_site_fract_y
_atom_site_fract_z
Si Si1 0.254329 0.210542 0.904003
Si Si2 0.886088 0.600872 0.482317
Si Si3 0.108096 0.719818 0.288260
Si Si4 0.826245 0.904195 0.920578
Si Si5 0.013651 0.890904 0.593603
O O1 0.367376 0.309012 0.988724
O O2 0.035005 0.236718 0.766230
O O3 0.199595 0.161108 0.787817
O O4 0.432382 0.166735 0.097890
O O5 0.780069 0.500000 0.404877
O O6 0.744508 0.691210 0.373909
O O7 0.000000 0.601640 0.500000
O O8 0.085268 0.603816 0.696303
O O9 0.292269 0.644406 0.449313
O O10 0.840812 0.000000 0.972150
O O11 0.000000 0.909194 0.000000
O O12 0.000000 0.867675 0.500000
O O13 0.039985 0.000000 0.620804
#
# Coordination Sequence:
#
# PCOD9200002 Si02
#       5
#     8   8   8   8   8
#     4  11  25  42  68  98 132 176 222 275 343 403
#     4  10  20  36  62  96 132 168 209 263 331 404
#     4  11  24  43  66  99 134 174 219 277 345 399
#     4  10  21  36  61  97 129 163 207 262 330 402
#     4  11  26  46  68  95 130 181 238 282 326 386
#
# _framework density 22.818055000000001
#
# number of rings (size 3 to 8) (size 9 to 14) (size 15 to 20)
#    0.000    1.400    2.000    2.400    2.800    4.800 
#    0.000    6.000    0.000    0.000    0.000    0.000 
#    0.000    0.000    0.000    0.000    0.000    0.000 
#
# Total GULP energy -111545.085976 kJ/mol
# GULP energy per Si atom -5577.254299 kJ/mol
# Density = 2.276612 g / cm^3
# Si number density = 22.818055 Si / 1000 Ang^3
#
#
#
# Elastic Constant Matrix: (Units=GPa)
#
#
# Indices 1 2 3 4 5 6 
#
# 1 37.5969 19.4749 25.4061 -0.0176 -2.5244 -0.0078
# 2 19.4749 106.0637 25.5617 0.0018 4.7235 -0.0013
# 3 25.4061 25.5617 125.0602 0.0194 -19.6767 0.0143
# 4 -0.0176 0.0018 0.0194 133.6950 -0.0123 -31.9818
# 5 -2.5244 4.7235 -19.6767 -0.0123 38.2019 0.0035
# 6 -0.0078 -0.0013 0.0143 -31.9818 0.0035 18.6227
#
#
#
# Elastic Compliance Matrix: (Units=1/GPa)
#
#
# Indices 1 2 3 4 5 6 
#
# 1 0.032883 -0.004638 -0.005768 0.000016 -0.000224 0.000045
# 2 -0.004638 0.010790 -0.001656 -0.000001 -0.002493 -0.000001
# 3 -0.005768 -0.001656 0.010314 -0.000008 0.005136 -0.000025
# 4 0.000016 -0.000001 -0.000008 0.012695 -0.000001 0.021802
# 5 -0.000224 -0.002493 0.005136 -0.000001 0.029116 -0.000011
# 6 0.000045 -0.000001 -0.000025 0.021802 -0.000011 0.091140
#
#
# Mechanical properties :
#
#
# Convention : Reuss Voigt Hill
#
# Bulk Modulus (GPa) = 33.48378 45.51181 39.49779
# Shear Modulus (GPa) = 22.62303 51.32245 36.97274
#
# Velocity S-wave (km/s) = 3.15215 4.74772 4.02970
# Velocity P-wave (km/s) = 5.28717 7.07413 6.24490
#
# Compressibility (1/GPa) = 0.02986521
#
# Stress axis : x y z
#
# Youngs Moduli (GPa) = 30.41125 92.67942 96.95250
#
# Poissons Ratio (x) = 0.42983 0.55917
# Poissons Ratio (y) = 0.14104 0.16051
# Poissons Ratio (z) = 0.17540 0.15343
#
# Static dielectric constant tensor:
#      x y z
#    x 1.907500 -0.000020 -0.070520 
#    y -0.000020 1.967030 0.000020 
#    z -0.070520 0.000020 1.885450 
# 
# From -- ./inp_files/316831.got.cif
#   From: 2010.05.17/outbox.cif.g08.bks.cpg/sg12_159_cif.got.tgz:316831.got - 2010.06.03 13:09:07.
