data_PCOD9200026
_publ_section_title
;
Structure prediction by ZEFSAII (Michael W. Deem and Ramdas Pophale) SiO2 
 PCOD9200026
Probable space group: C 2/M
;
_chemical_formula_sum "Si O2"
_cell_formula_units_Z 44
_cell_length_a 20.311728
_cell_length_b 13.882725
_cell_length_c 14.931800
_cell_angle_alpha 90.000000
_cell_angle_beta 153.081505
_cell_angle_gamma 90.000000
_cell_volume 1906.188701
_symmetry_space_group_name_H-M "C 2/M"
_symmetry_group_IT_number 12
_symmetry_cell_setting 'monoclinic'
loop_
_space_group_symop_operation_xyz
x,y,z
-x,y,-z
-x,-y,-z
x,-y,z
1/2+x,1/2+y,z
1/2-x,1/2+y,-z
1/2-x,1/2-y,-z
1/2+x,1/2-y,z
loop_
_atom_site_type_symbol
_atom_site_label
_atom_site_fract_x
_atom_site_fract_y
_atom_site_fract_z
Si Si1 0.670405 0.101724 0.070658
Si Si2 0.279818 0.814457 0.251245
Si Si3 0.205271 0.109559 0.972861
Si Si4 0.000000 0.165578 0.000000
Si Si5 0.628827 0.826960 0.283384
Si Si6 0.420896 0.736720 0.589255
O O1 0.501683 0.100815 0.892509
O O2 0.740294 0.000000 0.183893
O O3 0.731728 0.202562 0.179588
O O4 0.692563 0.108377 0.990447
O O5 0.403259 0.796654 0.475720
O O6 0.289671 0.857914 0.164317
O O7 0.145209 0.875550 0.131200
O O8 0.072349 0.182606 0.790277
O O9 0.150756 0.000000 0.918606
O O10 0.071668 0.230407 0.164860
O O11 0.621504 0.806519 0.380012
O O12 0.789545 0.842191 0.440520
#
# Coordination Sequence:
#
# PCOD9200026 Si02
#       6
#     8   8   8   4   8   8
#     4  10  21  38  60  85 120 160 200 245 302 366
#     4  10  20  37  61  86 122 160 195 249 311 355
#     4  11  23  40  61  90 125 161 204 250 299 363
#     4   8  14  32  60  80 110 152 194 238 292 362
#     4   9  18  35  59  86 116 154 200 245 300 359
#     4  10  20  36  63  88 116 155 205 250 296 357
#
# _framework density 23.082709999999999
#
# number of rings (size 3 to 8) (size 9 to 14) (size 15 to 20)
#    0.000    2.182    3.636    0.545    0.000    2.182 
#    0.000   18.636    0.000    2.182    0.000    0.000 
#    0.000    0.000    0.000    0.000    0.000    0.000 
#
# Total GULP energy -122538.056819 kJ/mol
# GULP energy per Si atom -5569.911674 kJ/mol
# Density = 2.303017 g / cm^3
# Si number density = 23.082710 Si / 1000 Ang^3
#
#
#
# Elastic Constant Matrix: (Units=GPa)
#
#
# Indices 1 2 3 4 5 6 
#
# 1 101.6212 2.9500 56.1385 0.0000 -11.0498 0.0000
# 2 2.9500 59.0539 8.5040 0.0000 -2.4124 0.0000
# 3 56.1385 8.5040 111.6231 0.0000 -10.0783 0.0000
# 4 0.0000 0.0000 0.0000 5.5973 0.0000 5.5462
# 5 -11.0498 -2.4124 -10.0783 0.0000 50.7944 0.0000
# 6 0.0000 0.0000 0.0000 5.5462 0.0000 6.6076
#
#
#
# Elastic Compliance Matrix: (Units=1/GPa)
#
#
# Indices 1 2 3 4 5 6 
#
# 1 0.013768 0.000360 -0.006802 0.000000 0.001663 0.000000
# 2 0.000360 0.017147 -0.001432 0.000000 0.000608 0.000000
# 3 -0.006802 -0.001432 0.012574 0.000000 0.000947 0.000000
# 4 0.000000 0.000000 0.000000 1.061669 0.000000 -0.891135
# 5 0.001663 0.000608 0.000947 0.000000 0.020266 0.000000
# 6 0.000000 0.000000 0.000000 -0.891135 0.000000 0.899333
#
#
# Mechanical properties :
#
#
# Convention : Reuss Voigt Hill
#
# Bulk Modulus (GPa) = 36.04839 45.27592 40.66215
# Shear Modulus (GPa) = 2.43932 26.24691 14.34312
#
# Velocity S-wave (km/s) = 1.02911 3.37572 2.49545
# Velocity P-wave (km/s) = 4.13074 5.90349 5.09481
#
# Compressibility (1/GPa) = 0.02774049
#
# Stress axis : x y z
#
# Youngs Moduli (GPa) = 72.63059 58.31985 79.52817
#
# Poissons Ratio (x) = -0.02097 0.54093
# Poissons Ratio (y) = -0.02612 0.11390
# Poissons Ratio (z) = 0.49402 0.08353
#
# Static dielectric constant tensor:
#      x y z
#    x 1.932590 0.000000 0.035060 
#    y 0.000000 1.860360 0.000000 
#    z 0.035060 0.000000 1.957010 
# 
# From -- ./inp_files/167059.got.cif
#   From: 2010.05.17/outbox.cif.g08.bks.cpg/sg12_84_cif.got.tgz:167059.got - 2010.06.03 13:09:07.
