data_PCOD9200328
_publ_section_title
;
Structure prediction by ZEFSAII (Michael W. Deem and Ramdas Pophale) SiO2 
 PCOD9200328
Probable space group: C 2/M
;
_chemical_formula_sum "Si O2"
_cell_formula_units_Z 64
_cell_length_a 25.421915
_cell_length_b 14.472985
_cell_length_c 10.064286
_cell_angle_alpha 90.000000
_cell_angle_beta 74.779908
_cell_angle_gamma 90.000000
_cell_volume 3573.079460
_symmetry_space_group_name_H-M "C 2/M"
_symmetry_group_IT_number 12
_symmetry_cell_setting 'monoclinic'
loop_
_space_group_symop_operation_xyz
x,y,z
-x,y,-z
-x,-y,-z
x,-y,z
1/2+x,1/2+y,z
1/2-x,1/2+y,-z
1/2-x,1/2-y,-z
1/2+x,1/2-y,z
loop_
_atom_site_type_symbol
_atom_site_label
_atom_site_fract_x
_atom_site_fract_y
_atom_site_fract_z
Si Si1 0.335154 0.604419 0.205637
Si Si2 0.534457 0.105505 0.358229
Si Si3 0.948727 0.696399 0.932813
Si Si4 0.832919 0.387235 0.110258
Si Si5 0.655374 0.106602 0.393718
Si Si6 0.234313 0.611373 0.104258
Si Si7 0.692480 0.224815 0.607505
Si Si8 0.441780 0.401210 0.967543
O O1 0.318855 0.500000 0.256260
O O2 0.295653 0.633279 0.108916
O O3 0.329963 0.677831 0.325105
O O4 0.395764 0.602005 0.110642
O O5 0.500000 0.150700 0.500000
O O6 0.533389 0.147284 0.213688
O O7 0.596548 0.105157 0.365826
O O8 0.514456 0.000000 0.358108
O O9 0.936985 0.802921 0.900742
O O10 0.893671 0.651301 0.032507
O O11 0.000000 0.693111 0.000000
O O12 0.835228 0.500000 0.117442
O O13 0.810195 0.341580 0.260743
O O14 0.792111 0.358622 0.016766
O O15 0.697434 0.140595 0.253599
O O16 0.658073 0.171967 0.518539
O O17 0.669408 0.000000 0.420702
O O18 0.230784 0.500000 0.100855
O O19 0.750000 0.250000 0.500000
O O20 0.434769 0.500000 0.899218
O O21 0.500000 0.402635 0.000000
#
# Coordination Sequence:
#
# PCOD9200328 Si02
#       8
#     8   8   8   8   8   8   8   8
#     4  10  20  37  60  85 113 150 202 249 296 356
#     4  10  22  38  57  85 122 165 198 232 294 364
#     4  11  22  37  61  93 121 152 202 252 290 344
#     4  11  23  39  59  89 124 156 197 248 302 355
#     4  10  20  37  57  79 117 160 196 234 291 365
#     4   9  18  36  59  81 113 156 193 237 294 356
#     4  12  24  37  55  88 115 157 199 244 299 351
#     4   9  19  37  60  86 114 147 193 248 296 343
#
# _framework density 17.911719999999999
#
# number of rings (size 3 to 8) (size 9 to 14) (size 15 to 20)
#    0.000    1.750    3.750    0.750    1.750    2.000 
#    2.250    0.000    0.000    1.125    0.000    0.000 
#    0.000    0.000    0.000    0.000    0.000    0.000 
#
# Total GULP energy -178297.415691 kJ/mol
# GULP energy per Si atom -5571.794240 kJ/mol
# Density = 1.787095 g / cm^3
# Si number density = 17.911720 Si / 1000 Ang^3
#
#
#
# Elastic Constant Matrix: (Units=GPa)
#
#
# Indices 1 2 3 4 5 6 
#
# 1 87.1013 16.1665 42.9497 0.0000 -11.1597 0.0000
# 2 16.1665 115.1865 52.5338 0.0000 5.7670 0.0000
# 3 42.9497 52.5338 124.7066 0.0000 6.4155 0.0000
# 4 0.0000 0.0000 0.0000 9.2434 0.0000 -20.8857
# 5 -11.1597 5.7670 6.4155 0.0000 30.4443 0.0000
# 6 0.0000 0.0000 0.0000 -20.8857 0.0000 -4.9901
#
#
#
# Elastic Compliance Matrix: (Units=1/GPa)
#
#
# Indices 1 2 3 4 5 6 
#
# 1 0.015067 0.000092 -0.005572 0.000000 0.006680 0.000000
# 2 0.000092 0.010783 -0.004520 0.000000 -0.001056 0.000000
# 3 -0.005572 -0.004520 0.012033 0.000000 -0.003722 0.000000
# 4 0.000000 0.000000 0.000000 0.010346 0.000000 -0.043301
# 5 0.006680 -0.001056 -0.003722 0.000000 0.036280 0.000000
# 6 0.000000 0.000000 0.000000 -0.043301 0.000000 -0.019164
#
#
# Mechanical properties :
#
#
# Convention : Reuss Voigt Hill
#
# Bulk Modulus (GPa) = 55.91460 61.14382 58.52921
# Shear Modulus (GPa) = 54.76173 21.29582 38.02877
#
# Velocity S-wave (km/s) = 5.53530 3.45183 4.61273
# Velocity P-wave (km/s) = 8.49336 7.07793 7.81775
#
# Compressibility (1/GPa) = 0.01788442
#
# Stress axis : x y z
#
# Youngs Moduli (GPa) = 66.37049 92.73945 83.10392
#
# Poissons Ratio (x) = -0.00853 0.46301
# Poissons Ratio (y) = -0.00610 0.37561
# Poissons Ratio (z) = 0.36978 0.41916
#
# Static dielectric constant tensor:
#      x y z
#    x 0.609280 0.000000 -0.005780 
#    y 0.000000 1.675180 0.000000 
#    z -0.005780 0.000000 1.588840 
# 
# From -- ./inp_files/104553.got.cif
#   From: 2010.05.17/outbox.cif.g08.bks.cpg/sg12_53_cif.got.tgz:104553.got - 2010.06.03 13:09:07.
