data_PCOD9200480
_publ_section_title
;
Structure prediction by ZEFSAII (Michael W. Deem and Ramdas Pophale) SiO2 
 PCOD9200480
Probable space group: C 2/M
;
_chemical_formula_sum "Si O2"
_cell_formula_units_Z 64
_cell_length_a 9.604284
_cell_length_b 19.358993
_cell_length_c 24.100386
_cell_angle_alpha 90.000000
_cell_angle_beta 48.788818
_cell_angle_gamma 90.000000
_cell_volume 3370.970350
_symmetry_space_group_name_H-M "C 2/M"
_symmetry_group_IT_number 12
_symmetry_cell_setting 'monoclinic'
loop_
_space_group_symop_operation_xyz
x,y,z
-x,y,-z
-x,-y,-z
x,-y,z
1/2+x,1/2+y,z
1/2-x,1/2+y,-z
1/2-x,1/2-y,-z
1/2+x,1/2-y,z
loop_
_atom_site_type_symbol
_atom_site_label
_atom_site_fract_x
_atom_site_fract_y
_atom_site_fract_z
Si Si1 0.697972 0.921429 0.708054
Si Si2 0.758099 0.078111 0.820775
Si Si3 0.780191 0.582304 0.799469
Si Si4 0.300299 0.825194 0.573753
Si Si5 0.666011 0.582160 0.710041
Si Si6 0.036702 0.819618 0.427287
Si Si7 0.537317 0.331829 0.055771
Si Si8 0.447014 0.825596 0.950274
O O1 0.774100 0.922764 0.750253
O O2 0.482898 0.901034 0.769397
O O3 0.820851 0.870406 0.640009
O O4 0.703104 0.000000 0.684313
O O5 0.597811 0.128616 0.880619
O O6 0.961234 0.100006 0.786573
O O7 0.719607 0.000000 0.850158
O O8 0.743883 0.500000 0.816295
O O9 0.792800 0.595704 0.730115
O O10 0.620088 0.625916 0.871176
O O11 0.500000 0.852979 0.500000
O O12 0.217269 0.875163 0.642335
O O13 0.361784 0.753779 0.587868
O O14 0.148642 0.814681 0.563539
O O15 0.666621 0.500000 0.697787
O O16 0.000000 0.844963 0.500000
O O17 0.552316 0.252567 0.073670
O O18 0.500000 0.330494 0.000000
O O19 0.745501 0.359957 0.004039
O O20 0.500000 0.818712 0.000000
#
# Coordination Sequence:
#
# PCOD9200480 Si02
#       8
#     8   8   8   8   8   8   8   8
#     4  10  22  40  61  87 119 157 200 246 298 351
#     4  10  20  37  58  83 114 150 196 243 294 353
#     4  10  22  37  58  87 118 154 198 249 298 353
#     4  11  24  41  64  91 124 159 197 244 292 351
#     4  10  22  40  61  87 121 157 198 248 297 353
#     4  11  24  41  64  91 124 158 198 245 290 352
#     4  10  21  37  55  80 116 151 197 245 294 355
#     4  10  21  35  55  82 112 151 193 243 296 350
#
# _framework density 18.985631000000001
#
# number of rings (size 3 to 8) (size 9 to 14) (size 15 to 20)
#    0.000    1.750    1.250    3.000    3.500    3.500 
#    0.000    0.000    0.000    0.000    0.000    0.000 
#    0.000    0.000    0.000    0.000    0.000    0.000 
#
# Total GULP energy -178448.501531 kJ/mol
# GULP energy per Si atom -5576.515673 kJ/mol
# Density = 1.894242 g / cm^3
# Si number density = 18.985631 Si / 1000 Ang^3
#
#
#
# Elastic Constant Matrix: (Units=GPa)
#
#
# Indices 1 2 3 4 5 6 
#
# 1 88.4821 10.0504 10.4674 0.0015 -3.3281 -0.0003
# 2 10.0504 54.0347 60.3169 0.0034 -11.6459 -0.0008
# 3 10.4674 60.3169 98.1123 0.0037 -8.1647 -0.0010
# 4 0.0015 0.0034 0.0037 56.3062 -0.0020 -1.7453
# 5 -3.3281 -11.6459 -8.1647 -0.0020 29.2055 0.0006
# 6 -0.0003 -0.0008 -0.0010 -1.7453 0.0006 24.3652
#
#
#
# Elastic Compliance Matrix: (Units=1/GPa)
#
#
# Indices 1 2 3 4 5 6 
#
# 1 0.011554 -0.002282 0.000209 0.000000 0.000465 0.000000
# 2 -0.002282 0.065326 -0.038671 -0.000001 0.014978 0.000000
# 3 0.000209 -0.038671 0.033441 0.000000 -0.006048 0.000000
# 4 0.000000 -0.000001 0.000000 0.017800 0.000001 0.001275
# 5 0.000465 0.014978 -0.006048 0.000001 0.038575 -0.000001
# 6 0.000000 0.000000 0.000000 0.001275 -0.000001 0.041133
#
#
# Mechanical properties :
#
#
# Convention : Reuss Voigt Hill
#
# Bulk Modulus (GPa) = 34.68285 44.69983 39.69134
# Shear Modulus (GPa) = 16.72648 32.62836 24.67742
#
# Velocity S-wave (km/s) = 2.97140 4.15008 3.60918
# Velocity P-wave (km/s) = 5.48451 6.82344 6.19028
#
# Compressibility (1/GPa) = 0.02883269
#
# Stress axis : x y z
#
# Youngs Moduli (GPa) = 86.55242 15.30782 29.90375
#
# Poissons Ratio (x) = 0.03493 -0.00625
# Poissons Ratio (y) = 0.19751 1.15640
# Poissons Ratio (z) = -0.01809 0.59197
#
# Static dielectric constant tensor:
#      x y z
#    x 1.674660 0.000000 -0.001460 
#    y 0.000000 1.665890 0.000000 
#    z -0.001460 0.000000 1.629390 
# 
# From -- ./inp_files/333722.got.cif
#   From: 2010.05.17/outbox.cif.g08.bks.cpg/sg12_167_cif.got.tgz:333722.got - 2010.06.03 13:09:07.
