data_PCOD9200997
_publ_section_title
;
Structure prediction by ZEFSAII (Michael W. Deem and Ramdas Pophale) SiO2 
 PCOD9200997
Probable space group: C 2/M
;
_chemical_formula_sum "Si O2"
_cell_formula_units_Z 48
_cell_length_a 12.378021
_cell_length_b 13.349660
_cell_length_c 12.265939
_cell_angle_alpha 90.000000
_cell_angle_beta 88.867059
_cell_angle_gamma 90.000000
_cell_volume 2026.456623
_symmetry_space_group_name_H-M "C 2/M"
_symmetry_group_IT_number 12
_symmetry_cell_setting 'monoclinic'
loop_
_space_group_symop_operation_xyz
x,y,z
-x,y,-z
-x,-y,-z
x,-y,z
1/2+x,1/2+y,z
1/2-x,1/2+y,-z
1/2-x,1/2-y,-z
1/2+x,1/2-y,z
loop_
_atom_site_type_symbol
_atom_site_label
_atom_site_fract_x
_atom_site_fract_y
_atom_site_fract_z
Si Si1 0.102537 0.325693 0.250680
Si Si2 0.886730 0.895967 0.065196
Si Si3 0.641284 0.109523 0.763488
Si Si4 0.289982 0.294820 0.386565
Si Si5 0.008638 0.114748 0.701288
Si Si6 0.633359 0.182403 0.003095
O O1 0.192170 0.357375 0.335700
O O2 0.149955 0.343938 0.129153
O O3 0.987392 0.380334 0.255805
O O4 0.073277 0.207283 0.275545
O O5 0.918622 0.885170 0.189936
O O6 0.826721 0.000000 0.048379
O O7 0.834911 0.798177 0.018226
O O8 0.000000 0.902725 0.000000
O O9 0.690069 0.202040 0.696503
O O10 0.679973 0.000000 0.728020
O O11 0.661544 0.122735 0.892402
O O12 0.250000 0.250000 0.500000
O O13 0.403468 0.353825 0.391495
O O14 0.967740 0.000000 0.689037
O O15 0.500000 0.182973 0.000000
#
# Coordination Sequence:
#
# PCOD9200997 Si02
#       6
#     8   8   8   8   8   8
#     4  10  21  38  64  88 119 158 196 237 304 363
#     4   9  13  25  53  86 118 148 179 228 290 351
#     4  10  22  41  62  89 124 159 196 244 300 363
#     4  11  25  43  60  84 120 160 206 256 294 340
#     4  10  20  37  60  89 118 149 195 247 293 347
#     4   9  15  32  57  87 121 153 188 236 296 363
#
# _framework density 23.686665999999999
#
# number of rings (size 3 to 8) (size 9 to 14) (size 15 to 20)
#    0.000    2.167    6.667    0.000    0.000    8.333 
#    0.000    1.667    0.000    0.000    0.000    0.000 
#    0.000    0.000    0.000    0.000    0.000    0.000 
#
# Total GULP energy -134081.580481 kJ/mol
# GULP energy per Si atom -5586.732520 kJ/mol
# Density = 2.363275 g / cm^3
# Si number density = 23.686666 Si / 1000 Ang^3
#
#
#
# Elastic Constant Matrix: (Units=GPa)
#
#
# Indices 1 2 3 4 5 6 
#
# 1 80.9556 6.1184 22.1750 0.0000 -0.4744 0.0000
# 2 6.1184 107.9705 -19.3336 0.0000 -8.0649 0.0000
# 3 22.1750 -19.3336 90.6185 0.0000 -19.1963 0.0000
# 4 0.0000 0.0000 0.0000 25.4911 0.0000 -0.7850
# 5 -0.4744 -8.0649 -19.1963 0.0000 30.8025 0.0000
# 6 0.0000 0.0000 0.0000 -0.7850 0.0000 16.4390
#
#
#
# Elastic Compliance Matrix: (Units=1/GPa)
#
#
# Indices 1 2 3 4 5 6 
#
# 1 0.013661 -0.001774 -0.004349 0.000000 -0.002965 0.000000
# 2 -0.001774 0.010402 0.003715 0.000000 0.005011 0.000000
# 3 -0.004349 0.003715 0.015074 0.000000 0.010300 0.000000
# 4 0.000000 0.000000 0.000000 0.039287 0.000000 0.001876
# 5 -0.002965 0.005011 0.010300 0.000000 0.040150 0.000000
# 6 0.000000 0.000000 0.000000 0.001876 0.000000 0.060921
#
#
# Mechanical properties :
#
#
# Convention : Reuss Voigt Hill
#
# Bulk Modulus (GPa) = 29.13835 33.05159 31.09497
# Shear Modulus (GPa) = 25.54252 32.58550 29.06401
#
# Velocity S-wave (km/s) = 3.28739 3.71305 3.50668
# Velocity P-wave (km/s) = 5.17083 5.68914 5.43617
#
# Compressibility (1/GPa) = 0.03431903
#
# Stress axis : x y z
#
# Youngs Moduli (GPa) = 73.20340 96.13629 66.33881
#
# Poissons Ratio (x) = 0.17058 0.28854
# Poissons Ratio (y) = 0.12989 -0.24645
# Poissons Ratio (z) = 0.31839 -0.35715
#
# Static dielectric constant tensor:
#      x y z
#    x 2.041730 0.000000 -0.011310 
#    y 0.000000 1.915250 0.000000 
#    z -0.011310 0.000000 1.905840 
# 
# From -- ./inp_files/142900.got.cif
#   From: 2010.05.17/outbox.cif.g08.bks.cpg/sg12_72_cif.got.tgz:142900.got - 2010.06.03 13:09:07.
