data_PCOD9200969
_publ_section_title
;
Structure prediction by ZEFSAII (Michael W. Deem and Ramdas Pophale) SiO2 
 PCOD9200969
Probable space group: C 2/M
;
_chemical_formula_sum "Si O2"
_cell_formula_units_Z 40
_cell_length_a 14.910907
_cell_length_b 19.550353
_cell_length_c 9.351980
_cell_angle_alpha 90.000000
_cell_angle_beta 130.377166
_cell_angle_gamma 90.000000
_cell_volume 2076.831350
_symmetry_space_group_name_H-M "C 2/M"
_symmetry_group_IT_number 12
_symmetry_cell_setting 'monoclinic'
loop_
_space_group_symop_operation_xyz
x,y,z
-x,y,-z
-x,-y,-z
x,-y,z
1/2+x,1/2+y,z
1/2-x,1/2+y,-z
1/2-x,1/2-y,-z
1/2+x,1/2-y,z
loop_
_atom_site_type_symbol
_atom_site_label
_atom_site_fract_x
_atom_site_fract_y
_atom_site_fract_z
Si Si1 0.295539 0.692033 0.875147
Si Si2 0.877856 0.419874 0.296710
Si Si3 0.929231 0.787202 0.286873
Si Si4 0.966496 0.423449 0.800947
Si Si5 0.368704 0.221837 0.690602
O O1 0.231257 0.623115 0.758413
O O2 0.180850 0.739998 0.782567
O O3 0.371536 0.737760 0.844607
O O4 0.368368 0.671455 0.093114
O O5 0.857403 0.500000 0.294991
O O6 0.000000 0.400547 0.500000
O O7 0.915833 0.407977 0.170639
O O8 0.000000 0.815425 0.500000
O O9 0.025977 0.743363 0.303614
O O10 0.925902 0.500000 0.711865
O O11 0.876219 0.360329 0.701820
O O12 0.000000 0.427480 0.000000
O O13 0.250000 0.250000 0.500000
#
# Coordination Sequence:
#
# PCOD9200969 Si02
#       5
#     8   8   8   8   8
#     4  11  22  36  60  86 122 156 191 254 297 355
#     4  10  20  37  60  87 121 153 194 250 304 354
#     4  11  22  37  55  88 118 151 201 245 298 352
#     4  10  21  36  56  85 121 150 190 248 302 352
#     4  12  22  36  60  87 123 158 198 248 295 357
#
# _framework density 19.260110000000001
#
# number of rings (size 3 to 8) (size 9 to 14) (size 15 to 20)
#    0.000    1.200    4.000    3.600    2.800    0.000 
#    0.000    0.000    0.000    4.200    0.000    0.000 
#    0.000    0.000    0.000    0.000    0.000    0.000 
#
# Total GULP energy -111353.989637 kJ/mol
# GULP energy per Si atom -5567.699482 kJ/mol
# Density = 1.921627 g / cm^3
# Si number density = 19.260110 Si / 1000 Ang^3
#
#
#
# Elastic Constant Matrix: (Units=GPa)
#
#
# Indices 1 2 3 4 5 6 
#
# 1 87.1957 32.1710 11.2611 0.0000 -7.2119 0.0000
# 2 32.1710 120.9607 29.7981 0.0000 12.3538 0.0000
# 3 11.2611 29.7981 99.0282 0.0000 2.1163 0.0000
# 4 0.0000 0.0000 0.0000 20.2827 0.0000 2.6697
# 5 -7.2119 12.3538 2.1163 0.0000 35.1750 0.0000
# 6 0.0000 0.0000 0.0000 2.6697 0.0000 18.2131
#
#
#
# Elastic Compliance Matrix: (Units=1/GPa)
#
#
# Indices 1 2 3 4 5 6 
#
# 1 0.013282 -0.003842 -0.000442 0.000000 0.004099 0.000000
# 2 -0.003842 0.010363 -0.002590 0.000000 -0.004272 0.000000
# 3 -0.000442 -0.002590 0.010924 0.000000 0.000162 0.000000
# 4 0.000000 0.000000 0.000000 0.050273 0.000000 -0.007369
# 5 0.004099 -0.004272 0.000162 0.000000 0.030760 0.000000
# 6 0.000000 0.000000 0.000000 -0.007369 0.000000 0.055986
#
#
# Mechanical properties :
#
#
# Convention : Reuss Voigt Hill
#
# Bulk Modulus (GPa) = 48.02799 50.40501 49.21650
# Shear Modulus (GPa) = 26.00400 30.33113 28.16756
#
# Velocity S-wave (km/s) = 3.67842 3.97270 3.82839
# Velocity P-wave (km/s) = 6.55986 6.87536 6.71946
#
# Compressibility (1/GPa) = 0.02082119
#
# Stress axis : x y z
#
# Youngs Moduli (GPa) = 75.28850 96.49316 91.53896
#
# Poissons Ratio (x) = 0.37077 0.04044
# Poissons Ratio (y) = 0.28929 0.23710
# Poissons Ratio (z) = 0.03326 0.24993
#
# Static dielectric constant tensor:
#      x y z
#    x 1.697790 0.000000 -0.070950 
#    y 0.000000 1.703410 0.000000 
#    z -0.070950 0.000000 1.804590 
# 
# From -- ./inp_files/63788.got.cif
#   From: 2010.05.17/outbox.cif.g08.bks.cpg/sg12_32_cif.got.tgz:63788.got - 2010.06.03 13:09:07.
