data_PCOD9200324
_publ_section_title
;
Structure prediction by ZEFSAII (Michael W. Deem and Ramdas Pophale) SiO2 
 PCOD9200324
Probable space group: C 2/M
;
_chemical_formula_sum "Si O2"
_cell_formula_units_Z 56
_cell_length_a 19.456209
_cell_length_b 8.466644
_cell_length_c 21.651230
_cell_angle_alpha 90.000000
_cell_angle_beta 121.186557
_cell_angle_gamma 90.000000
_cell_volume 3051.159351
_symmetry_space_group_name_H-M "C 2/M"
_symmetry_group_IT_number 12
_symmetry_cell_setting 'monoclinic'
loop_
_space_group_symop_operation_xyz
x,y,z
-x,y,-z
-x,-y,-z
x,-y,z
1/2+x,1/2+y,z
1/2-x,1/2+y,-z
1/2-x,1/2-y,-z
1/2+x,1/2-y,z
loop_
_atom_site_type_symbol
_atom_site_label
_atom_site_fract_x
_atom_site_fract_y
_atom_site_fract_z
Si Si1 0.028119 0.821132 0.324908
Si Si2 0.034673 0.690277 0.581477
Si Si3 0.341815 0.678897 0.201750
Si Si4 0.288531 0.814417 0.298474
Si Si5 0.891384 0.192511 0.765100
Si Si6 0.836843 0.190088 0.058791
Si Si7 0.996543 0.311556 0.070144
O O1 0.070306 0.754909 0.282770
O O2 0.023868 0.735102 0.388876
O O3 0.934313 0.828651 0.264210
O O4 0.058639 0.000000 0.348382
O O5 0.039130 0.500000 0.582632
O O6 0.126767 0.749982 0.635040
O O7 0.000000 0.745872 0.500000
O O8 0.308358 0.500000 0.188404
O O9 0.295796 0.786526 0.228616
O O10 0.343586 0.736656 0.133279
O O11 0.201360 0.752050 0.277217
O O12 0.287635 0.000000 0.312130
O O13 0.940482 0.245587 0.849168
O O14 0.894463 0.000000 0.766923
O O15 0.908505 0.266292 0.053787
O O16 0.843362 0.000000 0.057490
O O17 0.750000 0.250000 0.000000
O O18 0.007165 0.500000 0.074268
O O19 0.000000 0.255188 0.000000
#
# Coordination Sequence:
#
# PCOD9200324 Si02
#       7
#     8   8   8   8   8   8   8
#     4   9  17  33  55  77 102 137 178 220 268 322
#     4   9  18  34  55  81 113 144 177 220 268 323
#     4   9  18  34  53  73 102 136 174 223 271 316
#     4   9  19  33  54  81 106 140 184 220 264 326
#     4  10  20  37  57  79 108 143 185 231 278 331
#     4  11  23  39  57  79 109 143 185 233 282 333
#     4  11  25  41  56  79 111 148 189 235 287 337
#
# _framework density 18.353680000000001
#
# number of rings (size 3 to 8) (size 9 to 14) (size 15 to 20)
#    0.000    2.286    1.429    0.857    2.000    3.714 
#    0.000    0.714    0.000    0.000    0.000    0.000 
#    0.000    0.000    0.000    0.000    0.000    0.000 
#
# Total GULP energy -155924.854487 kJ/mol
# GULP energy per Si atom -5568.744803 kJ/mol
# Density = 1.831191 g / cm^3
# Si number density = 18.353680 Si / 1000 Ang^3
#
#
#
# Elastic Constant Matrix: (Units=GPa)
#
#
# Indices 1 2 3 4 5 6 
#
# 1 135.3208 16.1165 73.8799 0.0000 -8.1224 0.0000
# 2 16.1165 8.4254 20.2201 0.0000 -2.7601 0.0000
# 3 73.8799 20.2201 132.7573 0.0000 -25.4600 0.0000
# 4 0.0000 0.0000 0.0000 22.4301 0.0000 -6.0444
# 5 -8.1224 -2.7601 -25.4600 0.0000 25.3849 0.0000
# 6 0.0000 0.0000 0.0000 -6.0444 0.0000 22.6401
#
#
#
# Elastic Compliance Matrix: (Units=1/GPa)
#
#
# Indices 1 2 3 4 5 6 
#
# 1 0.011295 -0.009691 -0.005347 0.000000 -0.002803 0.000000
# 2 -0.009691 0.197539 -0.026211 0.000000 -0.007911 0.000000
# 3 -0.005347 -0.026211 0.016871 0.000000 0.012360 0.000000
# 4 0.000000 0.000000 0.000000 0.048039 0.000000 0.012825
# 5 -0.002803 -0.007911 0.012360 0.000000 0.050033 0.000000
# 6 0.000000 0.000000 0.000000 0.012825 0.000000 0.047594
#
#
# Mechanical properties :
#
#
# Convention : Reuss Voigt Hill
#
# Bulk Modulus (GPa) = 6.98293 55.21517 31.09905
# Shear Modulus (GPa) = 9.96799 25.17681 17.57240
#
# Velocity S-wave (km/s) = 2.33299 3.70774 3.09760
# Velocity P-wave (km/s) = 3.32717 6.96269 5.45661
#
# Compressibility (1/GPa) = 0.14320633
#
# Stress axis : x y z
#
# Youngs Moduli (GPa) = 88.53302 5.06228 59.27374
#
# Poissons Ratio (x) = 0.04906 0.31695
# Poissons Ratio (y) = 0.85799 1.55363
# Poissons Ratio (z) = 0.47341 0.13269
#
# Static dielectric constant tensor:
#      x y z
#    x 1.620990 0.000000 -0.019560 
#    y 0.000000 1.669580 0.000000 
#    z -0.019560 0.000000 1.606290 
# 
# From -- ./inp_files/275615.got.cif
#   From: 2010.05.17/outbox.cif.g08.bks.cpg/sg12_138_cif.got.tgz:275615.got - 2010.06.03 13:09:07.
