data_PCOD9200767
_publ_section_title
;
Structure prediction by ZEFSAII (Michael W. Deem and Ramdas Pophale) SiO2 
 PCOD9200767
Probable space group: C 2/M
;
_chemical_formula_sum "Si O2"
_cell_formula_units_Z 48
_cell_length_a 19.836251
_cell_length_b 18.049483
_cell_length_c 16.605291
_cell_angle_alpha 90.000000
_cell_angle_beta 158.514899
_cell_angle_gamma 90.000000
_cell_volume 2177.506600
_symmetry_space_group_name_H-M "C 2/M"
_symmetry_group_IT_number 12
_symmetry_cell_setting 'monoclinic'
loop_
_space_group_symop_operation_xyz
x,y,z
-x,y,-z
-x,-y,-z
x,-y,z
1/2+x,1/2+y,z
1/2-x,1/2+y,-z
1/2-x,1/2-y,-z
1/2+x,1/2-y,z
loop_
_atom_site_type_symbol
_atom_site_label
_atom_site_fract_x
_atom_site_fract_y
_atom_site_fract_z
Si Si1 0.533676 0.583911 0.366557
Si Si2 0.669866 0.420929 0.030193
Si Si3 0.328023 0.697760 0.853106
Si Si4 0.390636 0.912385 0.507103
Si Si5 0.746526 0.292696 0.907283
Si Si6 0.164708 0.668336 0.386745
O O1 0.553911 0.500000 0.420899
O O2 0.398875 0.641304 0.259678
O O3 0.721681 0.626596 0.555983
O O4 0.431245 0.577630 0.166588
O O5 0.652927 0.500000 0.052331
O O6 0.575018 0.360583 0.979283
O O7 0.887111 0.407764 0.256967
O O8 0.202744 0.645825 0.657682
O O9 0.214502 0.744291 0.791792
O O10 0.500000 0.736391 0.000000
O O11 0.339044 0.883592 0.538387
O O12 0.343639 0.000000 0.444278
O O13 0.750000 0.250000 0.000000
O O14 0.953810 0.320615 0.129647
O O15 0.250000 0.750000 0.500000
#
# Coordination Sequence:
#
# PCOD9200767 Si02
#       6
#     8   8   8   8   8   8
#     4  11  23  40  67  99 132 177 233 290 346 399
#     4  10  20  37  59  91 137 180 219 264 332 415
#     4  12  24  39  58  94 137 181 227 273 347 417
#     4  11  23  39  63  99 143 184 221 277 355 429
#     4  12  23  44  66  97 140 186 234 287 340 412
#     4  12  22  38  68 100 138 184 240 285 333 414
#
# _framework density 22.043561
#
# number of rings (size 3 to 8) (size 9 to 14) (size 15 to 20)
#    0.000    0.667    5.000    3.500    0.000    4.667 
#    3.000    0.000    0.000    0.500    0.000    7.000 
#    0.000    0.000    0.000    0.000    0.000    0.000 
#
# Total GULP energy -134064.849465 kJ/mol
# GULP energy per Si atom -5586.035394 kJ/mol
# Density = 2.199339 g / cm^3
# Si number density = 22.043561 Si / 1000 Ang^3
#
#
#
# Elastic Constant Matrix: (Units=GPa)
#
#
# Indices 1 2 3 4 5 6 
#
# 1 66.0311 51.5645 25.7697 0.0001 22.7088 0.0002
# 2 51.5645 144.1859 38.4999 0.0002 30.9126 0.0002
# 3 25.7697 38.4999 92.7227 0.0007 28.8087 0.0007
# 4 0.0001 0.0002 0.0007 26.4045 0.0004 -3.2100
# 5 22.7088 30.9126 28.8087 0.0004 35.8919 0.0004
# 6 0.0002 0.0002 0.0007 -3.2100 0.0004 17.0264
#
#
#
# Elastic Compliance Matrix: (Units=1/GPa)
#
#
# Indices 1 2 3 4 5 6 
#
# 1 0.023400 -0.006218 -0.001313 0.000000 -0.008396 0.000000
# 2 -0.006218 0.010358 -0.001363 0.000000 -0.003893 0.000000
# 3 -0.001313 -0.001363 0.014778 0.000000 -0.009857 0.000000
# 4 0.000000 0.000000 0.000000 0.038761 0.000000 0.007308
# 5 -0.008396 -0.003893 -0.009857 0.000000 0.044438 -0.000001
# 6 0.000000 0.000000 0.000000 0.007308 -0.000001 0.060110
#
#
# Mechanical properties :
#
#
# Convention : Reuss Voigt Hill
#
# Bulk Modulus (GPa) = 32.52246 59.40087 45.96166
# Shear Modulus (GPa) = 22.73951 28.33826 25.53889
#
# Velocity S-wave (km/s) = 3.21529 3.58936 3.40746
# Velocity P-wave (km/s) = 5.34508 6.64707 6.03131
#
# Compressibility (1/GPa) = 0.03074798
#
# Stress axis : x y z
#
# Youngs Moduli (GPa) = 42.73550 96.54704 67.66656
#
# Poissons Ratio (x) = 0.60030 0.08885
# Poissons Ratio (y) = 0.26572 0.09224
# Poissons Ratio (z) = 0.05611 0.13161
#
# Static dielectric constant tensor:
#      x y z
#    x 1.868820 0.000000 0.003110 
#    y 0.000000 1.902980 0.000000 
#    z 0.003110 0.000000 1.847140 
# 
# From -- ./inp_files/285450.got.cif
#   From: 2010.05.17/outbox.cif.g08.bks.cpg/sg12_143_cif.got.tgz:285450.got - 2010.06.03 13:09:07.
