data_PCOD9200191
_publ_section_title
;
Structure prediction by ZEFSAII (Michael W. Deem and Ramdas Pophale) SiO2 
 PCOD9200191
Probable space group: C 2/M
;
_chemical_formula_sum "Si O2"
_cell_formula_units_Z 50
_cell_length_a 9.294788
_cell_length_b 17.071051
_cell_length_c 17.126276
_cell_angle_alpha 90.000000
_cell_angle_beta 114.385423
_cell_angle_gamma 90.000000
_cell_volume 2475.029252
_symmetry_space_group_name_H-M "C 2/M"
_symmetry_group_IT_number 12
_symmetry_cell_setting 'monoclinic'
loop_
_space_group_symop_operation_xyz
x,y,z
-x,y,-z
-x,-y,-z
x,-y,z
1/2+x,1/2+y,z
1/2-x,1/2+y,-z
1/2-x,1/2-y,-z
1/2+x,1/2-y,z
loop_
_atom_site_type_symbol
_atom_site_label
_atom_site_fract_x
_atom_site_fract_y
_atom_site_fract_z
Si Si1 0.082386 0.787407 0.442800
Si Si2 0.500000 0.000000 0.500000
Si Si3 0.046309 0.371496 0.648169
Si Si4 0.656029 0.656764 0.825268
Si Si5 0.662236 0.832546 0.989591
Si Si6 0.620785 0.413765 0.318577
Si Si7 0.520214 0.174876 0.197335
O O1 0.250000 0.750000 0.500000
O O2 0.109990 0.852148 0.384907
O O3 0.000000 0.822648 0.500000
O O4 0.973983 0.716365 0.388710
O O5 0.488726 0.930965 0.567538
O O6 0.230472 0.391111 0.700905
O O7 0.969504 0.368287 0.716996
O O8 0.542387 0.592858 0.762767
O O9 0.550174 0.736666 0.807880
O O10 0.808103 0.675527 0.805155
O O11 0.722216 0.626014 0.923150
O O12 0.604809 0.862974 0.892594
O O13 0.500000 0.819107 0.000000
O O14 0.750000 0.750000 0.000000
O O15 0.654711 0.500000 0.358549
#
# Coordination Sequence:
#
# PCOD9200191 Si02
#       7
#     8   2   8   8   8   8   8
#     4  12  25  44  69  95 123 170 223 274 331 396
#     4  12  24  48  68  94 126 172 222 282 338 388
#     4  12  24  44  69  93 128 175 221 271 332 394
#     4  10  20  37  64  99 138 174 215 274 331 386
#     4   8  16  32  57  95 134 167 216 272 319 380
#     4  12  26  45  64  99 136 173 215 277 340 393
#     4  10  20  36  67 100 127 175 230 269 319 399
#
# _framework density 20.201781
#
# number of rings (size 3 to 8) (size 9 to 14) (size 15 to 20)
#    0.000    1.280    4.800    0.960    2.240    1.600 
#    1.440    0.000    1.760    2.400    0.000    0.000 
#    0.000    0.000    0.000    0.000    0.000    0.000 
#
# Total GULP energy -139172.145766 kJ/mol
# GULP energy per Si atom -5566.885831 kJ/mol
# Density = 2.015580 g / cm^3
# Si number density = 20.201781 Si / 1000 Ang^3
#
#
#
# Elastic Constant Matrix: (Units=GPa)
#
#
# Indices 1 2 3 4 5 6 
#
# 1 48.2833 10.6077 -0.0220 0.0000 4.1759 0.0000
# 2 10.6077 84.6871 15.3697 0.0000 -1.4511 0.0000
# 3 -0.0220 15.3697 85.8400 0.0000 -8.9728 0.0000
# 4 0.0000 0.0000 0.0000 23.1801 0.0000 1.4510
# 5 4.1759 -1.4511 -8.9728 0.0000 33.5408 0.0000
# 6 0.0000 0.0000 0.0000 1.4510 0.0000 14.5698
#
#
#
# Elastic Compliance Matrix: (Units=1/GPa)
#
#
# Indices 1 2 3 4 5 6 
#
# 1 0.021561 -0.002787 0.000217 0.000000 -0.002747 0.000000
# 2 -0.002787 0.012565 -0.002219 0.000000 0.000297 0.000000
# 3 0.000217 -0.002219 0.012380 0.000000 0.003189 0.000000
# 4 0.000000 0.000000 0.000000 0.043411 0.000000 -0.004323
# 5 -0.002747 0.000297 0.003189 0.000000 0.031022 0.000000
# 6 0.000000 0.000000 0.000000 -0.004323 0.000000 0.069066
#
#
# Mechanical properties :
#
#
# Convention : Reuss Voigt Hill
#
# Bulk Modulus (GPa) = 27.07962 30.08014 28.57988
# Shear Modulus (GPa) = 23.59674 27.11514 25.35594
#
# Velocity S-wave (km/s) = 3.42139 3.66760 3.54663
# Velocity P-wave (km/s) = 5.38902 5.73212 5.56322
#
# Compressibility (1/GPa) = 0.03692814
#
# Stress axis : x y z
#
# Youngs Moduli (GPa) = 46.37980 79.58491 80.77300
#
# Poissons Ratio (x) = 0.22182 -0.01756
# Poissons Ratio (y) = 0.12927 0.17927
# Poissons Ratio (z) = -0.01008 0.17664
#
# Static dielectric constant tensor:
#      x y z
#    x 1.745560 0.000000 0.004440 
#    y 0.000000 1.720700 0.000000 
#    z 0.004440 0.000000 1.702690 
# 
# From -- ./inp_files/256673.got.cif
#   From: 2010.05.17/outbox.cif.g08.bks.cpg/sg12_129_cif.got.tgz:256673.got - 2010.06.03 13:09:07.
