data_PCOD9200549
_publ_section_title
;
Structure prediction by ZEFSAII (Michael W. Deem and Ramdas Pophale) SiO2 
 PCOD9200549
Probable space group: C 2/M
;
_chemical_formula_sum "Si O2"
_cell_formula_units_Z 36
_cell_length_a 28.590155
_cell_length_b 9.845857
_cell_length_c 13.147641
_cell_angle_alpha 90.000000
_cell_angle_beta 154.964772
_cell_angle_gamma 90.000000
_cell_volume 1566.167851
_symmetry_space_group_name_H-M "C 2/M"
_symmetry_group_IT_number 12
_symmetry_cell_setting 'monoclinic'
loop_
_space_group_symop_operation_xyz
x,y,z
-x,y,-z
-x,-y,-z
x,-y,z
1/2+x,1/2+y,z
1/2-x,1/2+y,-z
1/2-x,1/2-y,-z
1/2+x,1/2-y,z
loop_
_atom_site_type_symbol
_atom_site_label
_atom_site_fract_x
_atom_site_fract_y
_atom_site_fract_z
Si Si1 0.270907 0.154217 0.895433
Si Si2 0.577205 0.500000 0.255681
Si Si3 0.890120 0.651575 0.341235
Si Si4 0.218368 0.000000 0.355328
Si Si5 0.024112 0.500000 0.165197
Si Si6 0.071138 0.781691 0.949580
O O1 0.304995 0.136508 0.080266
O O2 0.263511 0.000000 0.837973
O O3 0.158103 0.240514 0.675615
O O4 0.363192 0.250057 0.024875
O O5 0.695715 0.500000 0.433258
O O6 0.500000 0.500000 0.000000
O O7 0.538007 0.373450 0.246097
O O8 0.910049 0.500000 0.424896
O O9 0.000000 0.696787 0.500000
O O10 0.343788 0.000000 0.566571
O O11 0.159646 0.134676 0.192844
O O12 0.000000 0.500000 0.000000
O O13 0.967224 0.633784 0.094803
#
# Coordination Sequence:
#
# PCOD9200549 Si02
#       6
#     8   4   8   4   4   8
#     4  10  20  37  58  88 123 151 198 256 299 360
#     4   8  18  38  60  87 120 158 208 251 303 378
#     4   9  20  37  60  85 117 162 199 239 305 368
#     4  10  24  44  64  89 126 169 208 254 320 376
#     4  12  24  40  68  92 124 165 206 261 312 368
#     4  10  21  39  62  92 125 160 207 262 306 368
#
# _framework density 22.986041
#
# number of rings (size 3 to 8) (size 9 to 14) (size 15 to 20)
#    0.000    2.444    1.111    2.000    3.111    5.778 
#    0.000    1.111    9.778    0.000    0.000    0.000 
#    0.000    0.000    0.000    0.000    0.000    0.000 
#
# Total GULP energy -100336.006503 kJ/mol
# GULP energy per Si atom -5574.222584 kJ/mol
# Density = 2.293372 g / cm^3
# Si number density = 22.986041 Si / 1000 Ang^3
#
#
#
# Elastic Constant Matrix: (Units=GPa)
#
#
# Indices 1 2 3 4 5 6 
#
# 1 86.3753 69.9551 22.6867 0.0000 17.0617 0.0000
# 2 69.9551 172.8141 37.8845 0.0000 18.9967 0.0000
# 3 22.6867 37.8845 69.5080 0.0000 16.4809 0.0000
# 4 0.0000 0.0000 0.0000 11.2473 0.0000 20.1225
# 5 17.0617 18.9967 16.4809 0.0000 26.1628 0.0000
# 6 0.0000 0.0000 0.0000 20.1225 0.0000 -12.1888
#
#
#
# Elastic Compliance Matrix: (Units=1/GPa)
#
#
# Indices 1 2 3 4 5 6 
#
# 1 0.018420 -0.006528 -0.000858 0.000000 -0.006732 0.000000
# 2 -0.006528 0.009086 -0.002665 0.000000 -0.000661 0.000000
# 3 -0.000858 -0.002665 0.018254 0.000000 -0.009005 0.000000
# 4 0.000000 0.000000 0.000000 0.022488 0.000000 0.037126
# 5 -0.006732 -0.000661 -0.009005 0.000000 0.048765 0.000000
# 6 0.000000 0.000000 0.000000 0.037126 0.000000 -0.020751
#
#
# Mechanical properties :
#
#
# Convention : Reuss Voigt Hill
#
# Bulk Modulus (GPa) = 38.97309 65.52778 52.25044
# Shear Modulus (GPa) = 40.02693 18.25567 29.14130
#
# Velocity S-wave (km/s) = 4.17749 2.82122 3.56446
# Velocity P-wave (km/s) = 6.34511 6.25955 6.30247
#
# Compressibility (1/GPa) = 0.02565873
#
# Stress axis : x y z
#
# Youngs Moduli (GPa) = 54.29014 110.05879 54.78174
#
# Poissons Ratio (x) = 0.71849 0.04698
# Poissons Ratio (y) = 0.35442 0.14598
# Poissons Ratio (z) = 0.04656 0.29327
#
# Static dielectric constant tensor:
#      x y z
#    x 1.976340 0.000000 0.110840 
#    y 0.000000 1.874510 0.000000 
#    z 0.110840 0.000000 2.115300 
# 
# From -- ./inp_files/244991.got.cif
#   From: 2010.05.17/outbox.cif.g08.bks.cpg/sg12_123_cif.got.tgz:244991.got - 2010.06.03 13:09:07.
