data_PCOD9200293
_publ_section_title
;
Structure prediction by ZEFSAII (Michael W. Deem and Ramdas Pophale) SiO2 
 PCOD9200293
Probable space group: C 2/M
;
_chemical_formula_sum "Si O2"
_cell_formula_units_Z 48
_cell_length_a 20.749130
_cell_length_b 17.747870
_cell_length_c 15.454284
_cell_angle_alpha 90.000000
_cell_angle_beta 149.836324
_cell_angle_gamma 90.000000
_cell_volume 2859.610051
_symmetry_space_group_name_H-M "C 2/M"
_symmetry_group_IT_number 12
_symmetry_cell_setting 'monoclinic'
loop_
_space_group_symop_operation_xyz
x,y,z
-x,y,-z
-x,-y,-z
x,-y,z
1/2+x,1/2+y,z
1/2-x,1/2+y,-z
1/2-x,1/2-y,-z
1/2+x,1/2-y,z
loop_
_atom_site_type_symbol
_atom_site_label
_atom_site_fract_x
_atom_site_fract_y
_atom_site_fract_z
Si Si1 0.009427 0.000000 0.404517
Si Si2 0.000000 0.778122 0.000000
Si Si3 0.561639 0.769218 0.349440
Si Si4 0.017715 0.500000 0.918464
Si Si5 0.424208 0.338692 0.322023
Si Si6 0.319544 0.651700 0.648502
Si Si7 0.775162 0.000000 0.489753
Si Si8 0.874229 0.664665 0.991628
O O1 0.144950 0.000000 0.509031
O O2 0.000000 0.000000 0.500000
O O3 0.942657 0.921611 0.301571
O O4 0.913130 0.830928 0.837657
O O5 0.918010 0.720444 0.964816
O O6 0.489720 0.724951 0.340715
O O7 0.629293 0.707776 0.366418
O O8 0.676504 0.823943 0.510632
O O9 0.458513 0.811996 0.171655
O O10 0.876709 0.500000 0.709871
O O11 0.093537 0.577020 0.987013
O O12 0.000000 0.500000 0.000000
O O13 0.500000 0.340050 0.500000
O O14 0.275374 0.325128 0.165379
O O15 0.311275 0.571774 0.590826
#
# Coordination Sequence:
#
# PCOD9200293 Si02
#       8
#     4   4   8   4   8   8   4   8
#     4  10  23  34  52  83 116 146 190 231 289 346
#     4  10  22  38  60  90 116 152 196 252 280 336
#     4  10  20  37  56  84 114 153 192 242 287 349
#     4  12  25  34  59  89 120 155 189 238 291 353
#     4  11  22  35  56  81 116 154 190 239 294 349
#     4  10  21  37  61  83 118 150 200 238 291 342
#     4  12  22  41  60  85 115 162 194 237 293 348
#     4  11  22  37  56  87 118 153 195 234 294 345
#
# _framework density 16.785506000000002
#
# number of rings (size 3 to 8) (size 9 to 14) (size 15 to 20)
#    0.000    1.333    4.167    2.000    4.667    0.333 
#    0.000    0.000    0.000    0.000    0.000    2.333 
#    0.000    0.000    0.000    0.000    0.000    0.000 
#
# Total GULP energy -133818.517579 kJ/mol
# GULP energy per Si atom -5575.771566 kJ/mol
# Density = 1.674730 g / cm^3
# Si number density = 16.785506 Si / 1000 Ang^3
#
#
#
# Elastic Constant Matrix: (Units=GPa)
#
#
# Indices 1 2 3 4 5 6 
#
# 1 100.4845 50.8536 59.6372 0.0000 14.3501 0.0000
# 2 50.8536 102.1692 51.6761 0.0000 -3.7678 0.0000
# 3 59.6372 51.6761 120.2686 0.0000 18.2130 0.0000
# 4 0.0000 0.0000 0.0000 16.9265 0.0000 16.0326
# 5 14.3501 -3.7678 18.2130 0.0000 32.8969 0.0000
# 6 0.0000 0.0000 0.0000 16.0326 0.0000 66.5953
#
#
#
# Elastic Compliance Matrix: (Units=1/GPa)
#
#
# Indices 1 2 3 4 5 6 
#
# 1 0.016633 -0.006008 -0.004872 0.000000 -0.005247 0.000000
# 2 -0.006008 0.015414 -0.004702 0.000000 0.006990 0.000000
# 3 -0.004872 -0.004702 0.013655 0.000000 -0.005974 0.000000
# 4 0.000000 0.000000 0.000000 0.076530 0.000000 -0.018424
# 5 -0.005247 0.006990 -0.005974 0.000000 0.036794 0.000000
# 6 0.000000 0.000000 0.000000 -0.018424 0.000000 0.019452
#
#
# Mechanical properties :
#
#
# Convention : Reuss Voigt Hill
#
# Bulk Modulus (GPa) = 68.78351 71.91731 70.35041
# Shear Modulus (GPa) = 23.31106 34.00077 28.65592
#
# Velocity S-wave (km/s) = 3.73065 4.50555 4.13629
# Velocity P-wave (km/s) = 7.72165 8.36687 8.05073
#
# Compressibility (1/GPa) = 0.01453837
#
# Stress axis : x y z
#
# Youngs Moduli (GPa) = 60.12108 64.87419 73.23067
#
# Poissons Ratio (x) = 0.38979 0.35675
# Poissons Ratio (y) = 0.36123 0.34435
# Poissons Ratio (z) = 0.29289 0.30506
#
# Static dielectric constant tensor:
#      x y z
#    x 1.550390 0.000000 -0.001430 
#    y 0.000000 1.758920 0.000000 
#    z -0.001430 0.000000 1.553300 
# 
# From -- ./inp_files/112984.got.cif
#   From: 2010.05.17/outbox.cif.g08.bks.cpg/sg12_57_cif.got.tgz:112984.got - 2010.06.03 13:09:07.
