data_PCOD9200746
_publ_section_title
;
Structure prediction by ZEFSAII (Michael W. Deem and Ramdas Pophale) SiO2 
 PCOD9200746
Probable space group: C 2/M
;
_chemical_formula_sum "Si O2"
_cell_formula_units_Z 44
_cell_length_a 16.352220
_cell_length_b 22.358105
_cell_length_c 8.407107
_cell_angle_alpha 90.000000
_cell_angle_beta 36.505542
_cell_angle_gamma 90.000000
_cell_volume 1828.532355
_symmetry_space_group_name_H-M "C 2/M"
_symmetry_group_IT_number 12
_symmetry_cell_setting 'monoclinic'
loop_
_space_group_symop_operation_xyz
x,y,z
-x,y,-z
-x,-y,-z
x,-y,z
1/2+x,1/2+y,z
1/2-x,1/2+y,-z
1/2-x,1/2-y,-z
1/2+x,1/2-y,z
loop_
_atom_site_type_symbol
_atom_site_label
_atom_site_fract_x
_atom_site_fract_y
_atom_site_fract_z
Si Si1 0.210526 0.681537 0.102917
Si Si2 0.297940 0.125214 0.199898
Si Si3 0.715766 0.868360 0.422489
Si Si4 0.507840 0.305799 0.655669
Si Si5 0.147311 0.500000 0.040869
Si Si6 0.178504 0.500000 0.367965
Si Si7 0.000000 0.796393 0.000000
O O1 0.151332 0.663247 0.366465
O O2 0.250000 0.750000 0.000000
O O3 0.141254 0.655357 0.054634
O O4 0.368328 0.655228 0.871631
O O5 0.351144 0.135461 0.296602
O O6 0.143951 0.153934 0.445206
O O7 0.306280 0.056593 0.135571
O O8 0.862251 0.835327 0.210709
O O9 0.734204 0.938141 0.352339
O O10 0.500000 0.272016 0.500000
O O11 0.507096 0.266569 0.816652
O O12 0.199290 0.500000 0.143530
O O13 0.982868 0.500000 0.328834
#
# Coordination Sequence:
#
# PCOD9200746 Si02
#       7
#     8   8   8   8   4   4   4
#     4  10  20  37  59  88 125 164 202 251 302 363
#     4  10  20  38  62  88 119 157 207 251 307 364
#     4  10  20  37  62  89 124 163 199 254 304 374
#     4   8  16  32  54  81 112 151 190 239 291 345
#     4  11  23  41  63  88 121 164 205 259 313 380
#     4  11  23  40  62  90 123 162 204 251 322 384
#     4   8  16  31  56  84 118 150 190 235 296 352
#
# _framework density 24.063013999999999
#
# number of rings (size 3 to 8) (size 9 to 14) (size 15 to 20)
#    0.000    2.364    1.818    0.545    0.000    2.545 
#    0.000   15.000    0.000    6.545    0.000    0.000 
#    0.000    0.000    0.000    0.000    0.000    0.000 
#
# Total GULP energy -122541.643475 kJ/mol
# GULP energy per Si atom -5570.074703 kJ/mol
# Density = 2.400825 g / cm^3
# Si number density = 24.063014 Si / 1000 Ang^3
#
#
#
# Elastic Constant Matrix: (Units=GPa)
#
#
# Indices 1 2 3 4 5 6 
#
# 1 146.1380 69.8781 86.8310 0.0000 89.5107 0.0000
# 2 69.8781 143.6270 32.1206 0.0000 32.8374 0.0000
# 3 86.8310 32.1206 150.2513 0.0000 48.5191 0.0000
# 4 0.0000 0.0000 0.0000 11.6104 0.0000 7.7347
# 5 89.5107 32.8374 48.5191 0.0000 86.5860 0.0000
# 6 0.0000 0.0000 0.0000 7.7347 0.0000 14.1108
#
#
#
# Elastic Compliance Matrix: (Units=1/GPa)
#
#
# Indices 1 2 3 4 5 6 
#
# 1 0.028691 -0.007047 -0.007764 0.000000 -0.022637 0.000000
# 2 -0.007047 0.009444 0.001047 0.000000 0.003117 0.000000
# 3 -0.007764 0.001047 0.010323 0.000000 0.001845 0.000000
# 4 0.000000 0.000000 0.000000 0.135674 0.000000 -0.074368
# 5 -0.022637 0.003117 0.001845 0.000000 0.032735 0.000000
# 6 0.000000 0.000000 0.000000 -0.074368 0.000000 0.111632
#
#
# Mechanical properties :
#
#
# Convention : Reuss Voigt Hill
#
# Bulk Modulus (GPa) = 47.77880 90.85288 69.31584
# Shear Modulus (GPa) = 13.77396 39.20720 26.49058
#
# Velocity S-wave (km/s) = 2.39511 4.04091 3.32156
# Velocity P-wave (km/s) = 5.24857 7.72076 6.60143
#
# Compressibility (1/GPa) = 0.02092979
#
# Stress axis : x y z
#
# Youngs Moduli (GPa) = 34.85405 105.88373 96.87156
#
# Poissons Ratio (x) = 0.74617 0.75214
# Poissons Ratio (y) = 0.24562 -0.10144
# Poissons Ratio (z) = 0.27062 -0.11087
#
# Static dielectric constant tensor:
#      x y z
#    x 1.983940 0.000000 0.032730 
#    y 0.000000 1.852080 0.000000 
#    z 0.032730 0.000000 2.034350 
# 
# From -- ./inp_files/79030.got.cif
#   From: 2010.05.17/outbox.cif.g08.bks.cpg/sg12_40_cif.got.tgz:79030.got - 2010.06.03 13:09:07.
