data_PCOD9200275
_publ_section_title
;
Structure prediction by ZEFSAII (Michael W. Deem and Ramdas Pophale) SiO2 
 PCOD9200275
Probable space group: C 2/M
;
_chemical_formula_sum "Si O2"
_cell_formula_units_Z 56
_cell_length_a 29.567276
_cell_length_b 8.368644
_cell_length_c 14.687346
_cell_angle_alpha 90.000000
_cell_angle_beta 119.995390
_cell_angle_gamma 90.000000
_cell_volume 3147.462316
_symmetry_space_group_name_H-M "C 2/M"
_symmetry_group_IT_number 12
_symmetry_cell_setting 'monoclinic'
loop_
_space_group_symop_operation_xyz
x,y,z
-x,y,-z
-x,-y,-z
x,-y,z
1/2+x,1/2+y,z
1/2-x,1/2+y,-z
1/2-x,1/2-y,-z
1/2+x,1/2-y,z
loop_
_atom_site_type_symbol
_atom_site_label
_atom_site_fract_x
_atom_site_fract_y
_atom_site_fract_z
Si Si1 0.047137 0.809664 0.615490
Si Si2 0.631002 0.193758 0.567826
Si Si3 0.741318 0.810470 0.595168
Si Si4 0.652031 0.190844 0.238972
Si Si5 0.967849 0.691227 0.195062
Si Si6 0.057251 0.189772 0.020709
Si Si7 0.083373 0.306342 0.333498
O O1 0.102776 0.766383 0.626566
O O2 0.044934 0.735054 0.713928
O O3 0.000000 0.752489 0.500000
O O4 0.041557 0.000000 0.618266
O O5 0.688430 0.246338 0.592483
O O6 0.593764 0.242298 0.446364
O O7 0.631069 0.000000 0.576248
O O8 0.750000 0.750000 0.500000
O O9 0.790988 0.766943 0.707411
O O10 0.736027 0.000000 0.581527
O O11 0.628963 0.246147 0.313069
O O12 0.658080 0.000000 0.245715
O O13 0.606555 0.235536 0.122730
O O14 0.965108 0.500000 0.182186
O O15 0.937696 0.769916 0.081103
O O16 0.027682 0.747883 0.242563
O O17 0.058475 0.000000 0.036172
O O18 0.000000 0.248605 0.000000
O O19 0.083186 0.500000 0.331949
#
# Coordination Sequence:
#
# PCOD9200275 Si02
#       7
#     8   8   8   8   8   8   8
#     4  11  23  36  53  83 117 148 185 235 288 334
#     4  10  20  37  56  79 112 153 193 228 274 338
#     4  11  22  36  56  84 116 151 191 236 286 336
#     4  11  21  37  57  82 115 153 194 231 278 341
#     4  11  21  36  58  81 111 153 193 231 277 336
#     4  11  23  37  55  84 118 150 186 235 288 334
#     4   9  17  30  52  81 112 146 187 228 266 325
#
# _framework density 17.792110000000001
#
# number of rings (size 3 to 8) (size 9 to 14) (size 15 to 20)
#    0.000    1.429    4.286    2.143    0.000    2.286 
#    0.000    0.000    0.000    0.857    0.000    0.000 
#    0.000    0.000    0.000    0.000    0.000    0.000 
#
# Total GULP energy -156191.614077 kJ/mol
# GULP energy per Si atom -5578.271931 kJ/mol
# Density = 1.775161 g / cm^3
# Si number density = 17.792110 Si / 1000 Ang^3
#
#
#
# Elastic Constant Matrix: (Units=GPa)
#
#
# Indices 1 2 3 4 5 6 
#
# 1 88.4489 4.6440 24.3212 0.0000 4.5962 0.0000
# 2 4.6440 23.1529 -5.7715 0.0000 1.7847 0.0000
# 3 24.3212 -5.7715 68.8677 0.0000 1.2873 0.0000
# 4 0.0000 0.0000 0.0000 26.6944 0.0000 -0.5834
# 5 4.5962 1.7847 1.2873 0.0000 27.7400 0.0000
# 6 0.0000 0.0000 0.0000 -0.5834 0.0000 22.1845
#
#
#
# Elastic Compliance Matrix: (Units=1/GPa)
#
#
# Indices 1 2 3 4 5 6 
#
# 1 0.012916 -0.003667 -0.004837 0.000000 -0.001680 0.000000
# 2 -0.003667 0.045407 0.005148 0.000000 -0.002553 0.000000
# 3 -0.004837 0.005148 0.016666 0.000000 -0.000303 0.000000
# 4 0.000000 0.000000 0.000000 0.037483 0.000000 0.000986
# 5 -0.001680 -0.002553 -0.000303 0.000000 0.036506 0.000000
# 6 0.000000 0.000000 0.000000 0.000986 0.000000 0.045102
#
#
# Mechanical properties :
#
#
# Convention : Reuss Voigt Hill
#
# Bulk Modulus (GPa) = 14.64639 25.20633 19.92636
# Shear Modulus (GPa) = 22.36631 25.80883 24.08757
#
# Velocity S-wave (km/s) = 3.54939 3.81278 3.68344
# Velocity P-wave (km/s) = 5.00474 5.79490 5.41426
#
# Compressibility (1/GPa) = 0.06827623
#
# Stress axis : x y z
#
# Youngs Moduli (GPa) = 77.42389 22.02317 60.00226
#
# Poissons Ratio (x) = 0.08076 0.29025
# Poissons Ratio (y) = 0.28392 -0.30890
# Poissons Ratio (z) = 0.37452 -0.11338
#
# Static dielectric constant tensor:
#      x y z
#    x 1.621480 0.000000 0.004420 
#    y 0.000000 1.610560 0.000000 
#    z 0.004420 0.000000 1.602470 
# 
# From -- ./inp_files/243278.got.cif
#   From: 2010.05.17/outbox.cif.g08.bks.cpg/sg12_122_cif.got.tgz:243278.got - 2010.06.03 13:09:07.
