data_PCOD9200649
_publ_section_title
;
Structure prediction by ZEFSAII (Michael W. Deem and Ramdas Pophale) SiO2 
 PCOD9200649
Probable space group: C 2/M
;
_chemical_formula_sum "Si O2"
_cell_formula_units_Z 52
_cell_length_a 18.392697
_cell_length_b 25.777593
_cell_length_c 5.264835
_cell_angle_alpha 90.000000
_cell_angle_beta 63.167518
_cell_angle_gamma 90.000000
_cell_volume 2227.399251
_symmetry_space_group_name_H-M "C 2/M"
_symmetry_group_IT_number 12
_symmetry_cell_setting 'monoclinic'
loop_
_space_group_symop_operation_xyz
x,y,z
-x,y,-z
-x,-y,-z
x,-y,z
1/2+x,1/2+y,z
1/2-x,1/2+y,-z
1/2-x,1/2-y,-z
1/2+x,1/2-y,z
loop_
_atom_site_type_symbol
_atom_site_label
_atom_site_fract_x
_atom_site_fract_y
_atom_site_fract_z
Si Si1 0.905447 0.222567 0.125036
Si Si2 0.608596 0.000000 0.071286
Si Si3 0.158343 0.315013 0.526654
Si Si4 0.091856 0.846233 0.378560
Si Si5 0.215309 0.500000 0.400042
Si Si6 0.500000 0.815828 0.500000
Si Si7 0.742226 0.392081 0.896426
Si Si8 0.596503 0.108909 0.008800
O O1 0.842221 0.270125 0.261408
O O2 0.895792 0.180456 0.366892
O O3 0.903591 0.196160 0.854064
O O4 0.000000 0.242259 0.000000
O O5 0.680605 0.000000 0.741360
O O6 0.561108 0.947791 0.093670
O O7 0.643055 0.000000 0.302908
O O8 0.125737 0.369016 0.696270
O O9 0.086289 0.292974 0.459045
O O10 0.240720 0.336719 0.274495
O O11 0.162569 0.886254 0.194791
O O12 0.000000 0.867856 0.500000
O O13 0.260144 0.445029 0.266118
O O14 0.466195 0.851080 0.777979
O O15 0.821760 0.393711 0.950065
#
# Coordination Sequence:
#
# PCOD9200649 Si02
#       8
#     8   4   8   8   4   4   8   8
#     4  10  23  39  62  86 127 165 199 246 309 356
#     4  10  20  37  59  83 121 159 204 244 316 348
#     4  11  22  37  61  86 122 164 211 248 295 363
#     4  10  24  43  62  92 124 160 199 256 309 368
#     4  10  20  40  61  90 119 161 196 252 315 363
#     4  10  22  35  54  86 120 164 210 253 298 348
#     4  10  23  39  65  89 122 158 207 253 307 362
#     4  10  21  37  57  85 119 162 208 256 298 361
#
# _framework density 23.345611999999999
#
# number of rings (size 3 to 8) (size 9 to 14) (size 15 to 20)
#    0.000    1.846    1.538    1.385    9.692    1.538 
#    0.000    2.692    0.000    0.000    0.000    5.385 
#    0.000    0.000    0.000    0.000    0.000    0.000 
#
# Total GULP energy -145127.509311 kJ/mol
# GULP energy per Si atom -5581.827281 kJ/mol
# Density = 2.329248 g / cm^3
# Si number density = 23.345612 Si / 1000 Ang^3
#
#
#
# Elastic Constant Matrix: (Units=GPa)
#
#
# Indices 1 2 3 4 5 6 
#
# 1 65.7454 0.4197 17.6854 0.0000 -4.9702 0.0000
# 2 0.4197 47.9713 1.9511 0.0000 0.5723 0.0000
# 3 17.6854 1.9511 104.7252 0.0000 -7.3145 0.0000
# 4 0.0000 0.0000 0.0000 10.0748 0.0000 7.8319
# 5 -4.9702 0.5723 -7.3145 0.0000 39.2539 0.0000
# 6 0.0000 0.0000 0.0000 7.8319 0.0000 10.8233
#
#
#
# Elastic Compliance Matrix: (Units=1/GPa)
#
#
# Indices 1 2 3 4 5 6 
#
# 1 0.016026 -0.000053 -0.002597 0.000000 0.001546 0.000000
# 2 -0.000053 0.020867 -0.000407 0.000000 -0.000387 0.000000
# 3 -0.002597 -0.000407 0.010104 0.000000 0.001560 0.000000
# 4 0.000000 0.000000 0.000000 0.226883 0.000000 -0.164175
# 5 0.001546 -0.000387 0.001560 0.000000 0.025967 0.000000
# 6 0.000000 0.000000 0.000000 -0.164175 0.000000 0.211191
#
#
# Mechanical properties :
#
#
# Convention : Reuss Voigt Hill
#
# Bulk Modulus (GPa) = 24.46008 28.72825 26.59417
# Shear Modulus (GPa) = 9.42008 25.25611 17.33810
#
# Velocity S-wave (km/s) = 2.01092 3.29270 2.72815
# Velocity P-wave (km/s) = 3.98646 5.17573 4.61952
#
# Compressibility (1/GPa) = 0.04088293
#
# Stress axis : x y z
#
# Youngs Moduli (GPa) = 62.39823 47.92162 98.97103
#
# Poissons Ratio (x) = 0.00254 0.25707
# Poissons Ratio (y) = 0.00331 0.04026
# Poissons Ratio (z) = 0.16208 0.01950
#
# Static dielectric constant tensor:
#      x y z
#    x 1.974860 0.000000 0.005920 
#    y 0.000000 1.939310 0.000000 
#    z 0.005920 0.000000 1.926340 
# 
# From -- ./inp_files/22437.got.cif
#   From: 2010.05.17/outbox.cif.g08.bks.cpg/sg12_12_cif.got.tgz:22437.got - 2010.06.03 13:09:07.
