data_PCOD9200600
_publ_section_title
;
Structure prediction by ZEFSAII (Michael W. Deem and Ramdas Pophale) SiO2 
 PCOD9200600
Probable space group: C 2/M
;
_chemical_formula_sum "Si O2"
_cell_formula_units_Z 64
_cell_length_a 15.148221
_cell_length_b 7.497305
_cell_length_c 22.444323
_cell_angle_alpha 90.000000
_cell_angle_beta 77.950320
_cell_angle_gamma 90.000000
_cell_volume 2492.857783
_symmetry_space_group_name_H-M "C 2/M"
_symmetry_group_IT_number 12
_symmetry_cell_setting 'monoclinic'
loop_
_space_group_symop_operation_xyz
x,y,z
-x,y,-z
-x,-y,-z
x,-y,z
1/2+x,1/2+y,z
1/2-x,1/2+y,-z
1/2-x,1/2-y,-z
1/2+x,1/2-y,z
loop_
_atom_site_type_symbol
_atom_site_label
_atom_site_fract_x
_atom_site_fract_y
_atom_site_fract_z
Si Si1 0.775312 0.795157 0.409352
Si Si2 0.389026 0.784510 0.636376
Si Si3 0.957218 0.213114 0.944896
Si Si4 0.375566 0.284275 0.148004
Si Si5 0.092232 0.282191 0.236801
Si Si6 0.703886 0.786641 0.106824
Si Si7 0.614227 0.207629 0.721747
Si Si8 0.939871 0.790174 0.455396
O O1 0.679096 0.714135 0.404682
O O2 0.829320 0.796268 0.338760
O O3 0.843459 0.714755 0.448519
O O4 0.760074 0.000000 0.428774
O O5 0.363408 0.729012 0.706591
O O6 0.490833 0.727430 0.609183
O O7 0.385860 0.000000 0.634862
O O8 0.853274 0.245819 0.943939
O O9 0.024392 0.279922 0.883397
O O10 0.966213 0.000000 0.945340
O O11 0.000000 0.282099 0.000000
O O12 0.376078 0.500000 0.149578
O O13 0.305153 0.226094 0.106821
O O14 0.345836 0.224784 0.217552
O O15 0.092452 0.500000 0.234646
O O16 0.144297 0.219165 0.171225
O O17 0.988120 0.223934 0.255415
O O18 0.706976 0.000000 0.109321
O O19 0.608993 0.000000 0.705707
O O20 0.000000 0.709208 0.500000
O O21 0.927126 0.000000 0.469364
#
# Coordination Sequence:
#
# PCOD9200600 Si02
#       8
#     8   8   8   8   8   8   8   8
#     4  10  21  37  58  82 111 148 184 222 276 335
#     4  10  20  37  59  82 109 145 186 225 270 329
#     4  10  22  39  56  79 113 148 185 233 282 325
#     4  10  21  37  58  82 111 148 184 222 276 335
#     4   9  17  31  53  80 109 135 168 222 273 316
#     4  10  20  37  59  82 109 145 186 225 270 329
#     4  11  20  33  57  86 113 141 178 226 275 326
#     4  10  22  39  56  79 113 148 185 233 282 325
#
# _framework density 25.673345999999999
#
# number of rings (size 3 to 8) (size 9 to 14) (size 15 to 20)
#    0.000    2.000    2.500    1.125    0.000    4.500 
#    0.000    0.625    0.000    0.000    0.000    0.000 
#    0.000    0.000    0.000    0.000    0.000    0.000 
#
# Total GULP energy -178947.770411 kJ/mol
# GULP energy per Si atom -5592.117825 kJ/mol
# Density = 2.561491 g / cm^3
# Si number density = 25.673346 Si / 1000 Ang^3
#
#
#
# Elastic Constant Matrix: (Units=GPa)
#
#
# Indices 1 2 3 4 5 6 
#
# 1 139.5857 4.3533 16.1668 0.0000 35.4344 0.0000
# 2 4.3533 81.5771 -0.9409 0.0000 -0.7456 0.0000
# 3 16.1668 -0.9409 79.6752 0.0000 32.7194 0.0000
# 4 0.0000 0.0000 0.0000 12.4647 0.0000 1.5165
# 5 35.4344 -0.7456 32.7194 0.0000 50.1897 0.0000
# 6 0.0000 0.0000 0.0000 1.5165 0.0000 2.7423
#
#
#
# Elastic Compliance Matrix: (Units=1/GPa)
#
#
# Indices 1 2 3 4 5 6 
#
# 1 0.008814 -0.000521 0.001043 0.000000 -0.006910 0.000000
# 2 -0.000521 0.012291 0.000034 0.000000 0.000529 0.000000
# 3 0.001043 0.000034 0.017264 0.000000 -0.011991 0.000000
# 4 0.000000 0.000000 0.000000 0.086013 0.000000 -0.047565
# 5 -0.006910 0.000529 -0.011991 0.000000 0.032628 0.000000
# 6 0.000000 0.000000 0.000000 -0.047565 0.000000 0.390962
#
#
# Mechanical properties :
#
#
# Convention : Reuss Voigt Hill
#
# Bulk Modulus (GPa) = 25.32916 37.77738 31.55327
# Shear Modulus (GPa) = 8.92824 31.82992 20.37908
#
# Velocity S-wave (km/s) = 1.86686 3.52490 2.82047
# Velocity P-wave (km/s) = 3.81238 5.59582 4.78787
#
# Compressibility (1/GPa) = 0.03948019
#
# Stress axis : x y z
#
# Youngs Moduli (GPa) = 113.45924 81.35774 57.92504
#
# Poissons Ratio (x) = 0.04243 -0.06043
# Poissons Ratio (y) = 0.05917 -0.00196
# Poissons Ratio (z) = -0.11837 -0.00275
#
# Static dielectric constant tensor:
#      x y z
#    x 2.032600 0.000000 0.038850 
#    y 0.000000 1.957780 0.000000 
#    z 0.038850 0.000000 2.052870 
# 
# From -- ./inp_files/338772.got.cif
#   From: 2010.05.17/outbox.cif.g08.bks.cpg/sg12_170_cif.got.tgz:338772.got - 2010.06.03 13:09:07.
