data_PCOD9200484
_publ_section_title
;
Structure prediction by ZEFSAII (Michael W. Deem and Ramdas Pophale) SiO2 
 PCOD9200484
Probable space group: C 2/M
;
_chemical_formula_sum "Si O2"
_cell_formula_units_Z 56
_cell_length_a 11.911517
_cell_length_b 14.555960
_cell_length_c 27.850540
_cell_angle_alpha 90.000000
_cell_angle_beta 41.052076
_cell_angle_gamma 90.000000
_cell_volume 3171.305881
_symmetry_space_group_name_H-M "C 2/M"
_symmetry_group_IT_number 12
_symmetry_cell_setting 'monoclinic'
loop_
_space_group_symop_operation_xyz
x,y,z
-x,y,-z
-x,-y,-z
x,-y,z
1/2+x,1/2+y,z
1/2-x,1/2+y,-z
1/2-x,1/2-y,-z
1/2+x,1/2-y,z
loop_
_atom_site_type_symbol
_atom_site_label
_atom_site_fract_x
_atom_site_fract_y
_atom_site_fract_z
Si Si1 0.487027 0.860101 0.168738
Si Si2 0.838118 0.106930 0.451843
Si Si3 0.405686 0.304626 0.922499
Si Si4 0.739379 0.500000 0.065195
Si Si5 0.086710 0.500000 0.891483
Si Si6 0.245327 0.104937 0.336703
Si Si7 0.704435 0.277414 0.440484
Si Si8 0.860037 0.097840 0.087021
O O1 0.526235 0.755875 0.142837
O O2 0.421936 0.913765 0.142286
O O3 0.356671 0.874848 0.253963
O O4 0.673562 0.895239 0.124723
O O5 0.778346 0.178061 0.430350
O O6 0.768502 0.152047 0.523808
O O7 0.044029 0.109537 0.389167
O O8 0.787509 0.000000 0.462415
O O9 0.345603 0.404573 0.924356
O O10 0.569481 0.320095 0.903764
O O11 0.250000 0.250000 0.000000
O O12 0.769808 0.500000 0.113133
O O13 0.916045 0.500000 0.978428
O O14 0.278251 0.176517 0.368778
O O15 0.280167 0.000000 0.341484
O O16 0.500000 0.269280 0.500000
O O17 0.866077 0.000000 0.111747
O O18 0.000000 0.094172 0.000000
#
# Coordination Sequence:
#
# PCOD9200484 Si02
#       8
#     8   8   8   4   4   8   8   8
#     4  12  24  38  59  89 112 155 198 246 304 353
#     4   9  18  34  58  89 121 155 189 231 282 329
#     4  12  24  38  59  83 110 146 194 242 302 362
#     4  11  24  41  57  83 113 146 189 255 305 358
#     4  11  22  39  61  83 116 140 197 249 300 355
#     4  10  20  37  58  83 116 150 194 236 284 341
#     4   9  18  34  59  88 117 152 196 233 271 337
#     4  11  21  37  60  79 110 144 190 248 293 348
#
# _framework density 17.658339999999999
#
# number of rings (size 3 to 8) (size 9 to 14) (size 15 to 20)
#    0.000    1.429    5.000    0.429    2.000    3.143 
#    0.000    0.000    0.000    0.000    0.000    0.000 
#    0.000    0.000    0.000    0.000    0.000    0.000 
#
# Total GULP energy -156057.994985 kJ/mol
# GULP energy per Si atom -5573.499821 kJ/mol
# Density = 1.761815 g / cm^3
# Si number density = 17.658340 Si / 1000 Ang^3
#
#
#
# Elastic Constant Matrix: (Units=GPa)
#
#
# Indices 1 2 3 4 5 6 
#
# 1 77.7861 51.1557 24.5933 0.0000 19.0748 0.0000
# 2 51.1557 153.5989 32.7525 0.0000 14.7315 0.0000
# 3 24.5933 32.7525 76.7699 -0.0002 18.0462 0.0001
# 4 0.0000 0.0000 -0.0002 28.5837 0.0000 3.0772
# 5 19.0748 14.7315 18.0462 0.0000 18.1733 0.0000
# 6 0.0000 0.0000 0.0001 3.0772 0.0000 39.1772
#
#
#
# Elastic Compliance Matrix: (Units=1/GPa)
#
#
# Indices 1 2 3 4 5 6 
#
# 1 0.020513 -0.005118 -0.000394 0.000000 -0.016990 0.000000
# 2 -0.005118 0.008626 -0.002165 0.000000 0.000530 0.000000
# 3 -0.000394 -0.002165 0.017697 0.000000 -0.015405 0.000000
# 4 0.000000 0.000000 0.000000 0.035283 0.000000 -0.002771
# 5 -0.016990 0.000530 -0.015405 0.000000 0.087727 0.000000
# 6 0.000000 0.000000 0.000000 -0.002771 0.000000 0.025743
#
#
# Mechanical properties :
#
#
# Convention : Reuss Voigt Hill
#
# Bulk Modulus (GPa) = 31.76458 58.35085 45.05771
# Shear Modulus (GPa) = 22.57992 30.49709 26.53851
#
# Velocity S-wave (km/s) = 3.57979 4.16030 3.88092
# Velocity P-wave (km/s) = 5.92570 7.49624 6.75676
#
# Compressibility (1/GPa) = 0.03148161
#
# Stress axis : x y z
#
# Youngs Moduli (GPa) = 48.75058 115.92978 56.50687
#
# Poissons Ratio (x) = 0.59335 0.02225
# Poissons Ratio (y) = 0.24951 0.12234
# Poissons Ratio (z) = 0.01920 0.25099
#
# Static dielectric constant tensor:
#      x y z
#    x 1.639800 0.000000 0.004180 
#    y 0.000000 1.636080 0.000000 
#    z 0.004180 0.000000 1.561890 
# 
# From -- ./inp_files/358205.got.cif
#   From: 2010.05.17/outbox.cif.g08.bks.cpg/sg12_180_cif.got.tgz:358205.got - 2010.06.03 13:09:07.
