data_PCOD9200656
_publ_section_title
;
Structure prediction by ZEFSAII (Michael W. Deem and Ramdas Pophale) SiO2 
 PCOD9200656
Probable space group: C 2/M
;
_chemical_formula_sum "Si O2"
_cell_formula_units_Z 64
_cell_length_a 19.497874
_cell_length_b 7.737185
_cell_length_c 31.581888
_cell_angle_alpha 90.000000
_cell_angle_beta 143.159029
_cell_angle_gamma 90.000000
_cell_volume 2856.716081
_symmetry_space_group_name_H-M "C 2/M"
_symmetry_group_IT_number 12
_symmetry_cell_setting 'monoclinic'
loop_
_space_group_symop_operation_xyz
x,y,z
-x,y,-z
-x,-y,-z
x,-y,z
1/2+x,1/2+y,z
1/2-x,1/2+y,-z
1/2-x,1/2-y,-z
1/2+x,1/2-y,z
loop_
_atom_site_type_symbol
_atom_site_label
_atom_site_fract_x
_atom_site_fract_y
_atom_site_fract_z
Si Si1 0.067205 0.201765 0.994624
Si Si2 0.863970 0.297569 0.276643
Si Si3 0.571693 0.210818 0.598241
Si Si4 0.082042 0.199065 0.330614
Si Si5 0.792066 0.292307 0.067591
Si Si6 0.046931 0.709617 0.217153
Si Si7 0.672203 0.211335 0.559653
Si Si8 0.618178 0.799389 0.162821
O O1 0.983194 0.209647 0.912921
O O2 0.087123 0.000000 0.014716
O O3 0.191349 0.278100 0.047400
O O4 0.000000 0.284929 0.000000
O O5 0.840650 0.500000 0.269330
O O6 0.895799 0.227269 0.339052
O O7 0.742372 0.218939 0.203184
O O8 0.971224 0.278141 0.298276
O O9 0.652174 0.265917 0.598764
O O10 0.442177 0.261316 0.521900
O O11 0.573594 0.000000 0.599647
O O12 0.208920 0.273880 0.401677
O O13 0.073918 0.211828 0.275799
O O14 0.081483 0.000000 0.343660
O O15 0.795400 0.500000 0.072641
O O16 0.918668 0.234298 0.141064
O O17 0.750000 0.250000 0.000000
O O18 0.051736 0.500000 0.224224
O O19 0.123280 0.760920 0.214328
O O20 0.676378 0.000000 0.562063
O O21 0.585141 0.000000 0.147941
#
# Coordination Sequence:
#
# PCOD9200656 Si02
#       8
#     8   8   8   8   8   8   8   8
#     4  10  22  38  59  86 114 150 191 233 283 341
#     4  11  23  38  57  82 116 155 195 234 286 345
#     4   8  15  31  57  85 111 148 189 232 282 335
#     4  11  23  37  56  86 118 152 193 237 284 335
#     4  10  20  37  59  84 113 145 187 234 286 338
#     4  10  22  39  59  83 115 152 188 235 288 339
#     4   8  15  31  56  85 115 143 187 239 280 329
#     4  11  23  40  60  84 114 150 193 239 290 340
#
# _framework density 22.403347
#
# number of rings (size 3 to 8) (size 9 to 14) (size 15 to 20)
#    0.000    2.125    1.250    2.625    1.750    3.250 
#    0.000    0.000    0.000    2.250    0.000    8.750 
#    0.000    0.000    0.000    0.000    0.000    0.000 
#
# Total GULP energy -178709.341428 kJ/mol
# GULP energy per Si atom -5584.666920 kJ/mol
# Density = 2.235236 g / cm^3
# Si number density = 22.403347 Si / 1000 Ang^3
#
#
#
# Elastic Constant Matrix: (Units=GPa)
#
#
# Indices 1 2 3 4 5 6 
#
# 1 105.3983 -2.6948 13.7581 0.0001 30.3041 0.0000
# 2 -2.6948 36.5262 -12.3337 0.0003 2.8844 -0.0006
# 3 13.7581 -12.3337 48.0480 -0.0001 21.7905 0.0001
# 4 0.0001 0.0003 -0.0001 1.8387 0.0000 -9.8751
# 5 30.3041 2.8844 21.7905 0.0000 40.0275 0.0000
# 6 0.0000 -0.0006 0.0001 -9.8751 0.0000 2.2992
#
#
#
# Elastic Compliance Matrix: (Units=1/GPa)
#
#
# Indices 1 2 3 4 5 6 
#
# 1 0.012329 0.002361 0.001840 0.000000 -0.010506 0.000000
# 2 0.002361 0.032735 0.012757 -0.000002 -0.011091 0.000000
# 3 0.001840 0.012757 0.032676 0.000000 -0.020101 0.000000
# 4 0.000000 -0.000002 0.000000 -0.024646 0.000000 -0.105854
# 5 -0.010506 -0.011091 -0.020101 0.000000 0.044678 0.000000
# 6 0.000000 0.000000 0.000000 -0.105854 0.000000 -0.019710
#
#
# Mechanical properties :
#
#
# Convention : Reuss Voigt Hill
#
# Bulk Modulus (GPa) = 8.95611 20.82574 14.89093
# Shear Modulus (GPa) = 61.45065 21.58262 41.51663
#
# Velocity S-wave (km/s) = 5.24297 3.10718 4.30949
# Velocity P-wave (km/s) = 6.37637 4.71050 5.60566
#
# Compressibility (1/GPa) = 0.11165557
#
# Stress axis : x y z
#
# Youngs Moduli (GPa) = 81.11267 30.54818 30.60311
#
# Poissons Ratio (x) = -0.07211 -0.05632
# Poissons Ratio (y) = -0.19147 -0.39040
# Poissons Ratio (z) = -0.14927 -0.38970
#
# Static dielectric constant tensor:
#      x y z
#    x 1.856270 0.000000 0.014070 
#    y 0.000000 1.813580 0.000000 
#    z 0.014070 0.000000 1.811400 
# 
# From -- ./inp_files/378272.got.cif
#   From: 2010.05.17/outbox.cif.g08.bks.cpg/sg12_190_cif.got.tgz:378272.got - 2010.06.03 13:09:07.
