data_PCOD9200116
_publ_section_title
;
Structure prediction by ZEFSAII (Michael W. Deem and Ramdas Pophale) SiO2 
 PCOD9200116
Probable space group: C 2/M
;
_chemical_formula_sum "Si O2"
_cell_formula_units_Z 36
_cell_length_a 10.570931
_cell_length_b 19.375710
_cell_length_c 7.241341
_cell_angle_alpha 90.000000
_cell_angle_beta 86.310418
_cell_angle_gamma 90.000000
_cell_volume 1480.092241
_symmetry_space_group_name_H-M "C 2/M"
_symmetry_group_IT_number 12
_symmetry_cell_setting 'monoclinic'
loop_
_space_group_symop_operation_xyz
x,y,z
-x,y,-z
-x,-y,-z
x,-y,z
1/2+x,1/2+y,z
1/2-x,1/2+y,-z
1/2-x,1/2-y,-z
1/2+x,1/2-y,z
loop_
_atom_site_type_symbol
_atom_site_label
_atom_site_fract_x
_atom_site_fract_y
_atom_site_fract_z
Si Si1 0.850526 0.579882 0.673895
Si Si2 0.000000 0.889689 0.000000
Si Si3 0.565497 0.816737 0.788873
Si Si4 0.612575 0.670658 0.630143
Si Si5 0.255015 0.071206 0.103301
O O1 0.867215 0.500000 0.605167
O O2 0.972385 0.629017 0.694819
O O3 0.739505 0.625287 0.586092
O O4 0.803255 0.570650 0.888944
O O5 0.075439 0.847076 0.843296
O O6 0.895511 0.929135 0.892830
O O7 0.607880 0.753696 0.653232
O O8 0.691766 0.859035 0.821342
O O9 0.500000 0.800287 0.000000
O O10 0.500000 0.651591 0.500000
O O11 0.302741 0.000000 0.187957
#
# Coordination Sequence:
#
# PCOD9200116 Si02
#       5
#     8   4   8   8   8
#     4   9  20  38  61  89 123 160 203 248 298 359
#     4  10  21  38  62  88 121 156 200 250 297 358
#     4  10  20  36  64  89 122 159 202 246 302 356
#     4  11  24  39  63  90 121 159 202 247 301 357
#     4   9  18  34  61  91 120 158 201 245 301 359
#
# _framework density 24.32281
#
# number of rings (size 3 to 8) (size 9 to 14) (size 15 to 20)
#    0.000    2.222    1.111    1.000    3.111    7.556 
#    0.000    0.000    0.000    1.333    0.000    0.000 
#    0.000    0.000    0.000    0.000    0.000    0.000 
#
# Total GULP energy -100361.173682 kJ/mol
# GULP energy per Si atom -5575.620760 kJ/mol
# Density = 2.426745 g / cm^3
# Si number density = 24.322810 Si / 1000 Ang^3
#
#
#
# Elastic Constant Matrix: (Units=GPa)
#
#
# Indices 1 2 3 4 5 6 
#
# 1 93.4451 58.4090 15.7134 0.0000 35.3868 0.0000
# 2 58.4090 175.0825 27.4531 0.0000 29.9229 0.0000
# 3 15.7134 27.4531 95.5277 0.0000 10.6870 0.0000
# 4 0.0000 0.0000 0.0000 -11.1391 0.0000 27.1493
# 5 35.3868 29.9229 10.6870 0.0000 50.9835 0.0000
# 6 0.0000 0.0000 0.0000 27.1493 0.0000 -40.6847
#
#
#
# Elastic Compliance Matrix: (Units=1/GPa)
#
#
# Indices 1 2 3 4 5 6 
#
# 1 0.016730 -0.003917 -0.000598 0.000000 -0.009187 0.000000
# 2 -0.003917 0.007465 -0.001347 0.000000 -0.001380 0.000000
# 3 -0.000598 -0.001347 0.011079 0.000000 -0.001117 0.000000
# 4 0.000000 0.000000 0.000000 0.143308 0.000000 0.095631
# 5 -0.009187 -0.001380 -0.001117 0.000000 0.027035 0.000000
# 6 0.000000 0.000000 0.000000 0.095631 0.000000 0.039236
#
#
# Mechanical properties :
#
#
# Convention : Reuss Voigt Hill
#
# Bulk Modulus (GPa) = 42.46402 63.02292 52.74347
# Shear Modulus (GPa) = 18.90877 17.33061 18.11969
#
# Velocity S-wave (km/s) = 2.79123 2.67221 2.73237
# Velocity P-wave (km/s) = 5.28057 5.95720 5.62906
#
# Compressibility (1/GPa) = 0.02354935
#
# Stress axis : x y z
#
# Youngs Moduli (GPa) = 59.77386 133.94969 90.26479
#
# Poissons Ratio (x) = 0.52470 0.05401
# Poissons Ratio (y) = 0.23414 0.12156
# Poissons Ratio (z) = 0.03576 0.18039
#
# Static dielectric constant tensor:
#      x y z
#    x 1.965810 0.000000 -0.008690 
#    y 0.000000 2.102260 0.000000 
#    z -0.008690 0.000000 1.921280 
# 
# From -- ./inp_files/46817.got.cif
#   From: 2010.05.17/outbox.cif.g08.bks.cpg/sg12_24_cif.got.tgz:46817.got - 2010.06.03 13:09:07.
