data_PCOD9200556
_publ_section_title
;
Structure prediction by ZEFSAII (Michael W. Deem and Ramdas Pophale) SiO2 
 PCOD9200556
Probable space group: C 2/M
;
_chemical_formula_sum "Si O2"
_cell_formula_units_Z 58
_cell_length_a 29.216759
_cell_length_b 11.885717
_cell_length_c 8.556502
_cell_angle_alpha 90.000000
_cell_angle_beta 85.784220
_cell_angle_gamma 90.000000
_cell_volume 2963.309430
_symmetry_space_group_name_H-M "C 2/M"
_symmetry_group_IT_number 12
_symmetry_cell_setting 'monoclinic'
loop_
_space_group_symop_operation_xyz
x,y,z
-x,y,-z
-x,-y,-z
x,-y,z
1/2+x,1/2+y,z
1/2-x,1/2+y,-z
1/2-x,1/2-y,-z
1/2+x,1/2-y,z
loop_
_atom_site_type_symbol
_atom_site_label
_atom_site_fract_x
_atom_site_fract_y
_atom_site_fract_z
Si Si1 0.832183 0.124604 0.279228
Si Si2 0.000000 0.500000 0.000000
Si Si3 0.636330 0.126866 0.190267
Si Si4 0.743973 0.867918 0.099270
Si Si5 0.105288 0.259464 0.517011
Si Si6 0.028654 0.294939 0.769688
Si Si7 0.405399 0.684282 0.006672
Si Si8 0.953745 0.121961 0.683409
O O1 0.781037 0.142393 0.228482
O O2 0.851864 0.217059 0.392094
O O3 0.835104 0.000000 0.349226
O O4 0.865681 0.128796 0.119530
O O5 0.009307 0.401192 0.865159
O O6 0.691288 0.132688 0.166389
O O7 0.620066 0.171891 0.361509
O O8 0.615073 0.200229 0.057079
O O9 0.620408 0.000000 0.172729
O O10 0.751369 0.000000 0.033079
O O11 0.750000 0.750000 0.000000
O O12 0.069266 0.322609 0.637604
O O13 0.078330 0.151187 0.455095
O O14 0.989155 0.223713 0.695388
O O15 0.052596 0.212216 0.890013
O O16 0.423061 0.622441 0.848338
O O17 0.975961 0.000000 0.664109
#
# Coordination Sequence:
#
# PCOD9200556 Si02
#       8
#     8   2   8   8   8   8   8   8
#     4  10  20  37  62  89 123 157 196 250 301 363
#     4  12  24  44  60  84 116 160 210 266 296 352
#     4  10  22  39  61  88 125 162 200 249 303 365
#     4  10  20  39  65  95 125 160 201 252 308 364
#     4  10  24  40  57  91 119 161 203 240 312 361
#     4  11  24  39  60  87 115 160 206 255 304 352
#     4  10  20  37  58  90 117 153 205 248 303 355
#     4  11  22  40  61  87 123 157 199 251 308 366
#
# _framework density 19.572713
#
# number of rings (size 3 to 8) (size 9 to 14) (size 15 to 20)
#    0.000    1.655    2.759    1.241    1.931    4.966 
#    0.000    2.069    0.000    0.000    0.000    0.000 
#    0.000    0.000    0.000    0.000    0.000    0.000 
#
# Total GULP energy -161538.037572 kJ/mol
# GULP energy per Si atom -5570.277158 kJ/mol
# Density = 1.952816 g / cm^3
# Si number density = 19.572713 Si / 1000 Ang^3
#
#
#
# Elastic Constant Matrix: (Units=GPa)
#
#
# Indices 1 2 3 4 5 6 
#
# 1 54.8756 16.8193 4.5531 0.0000 17.2069 0.0000
# 2 16.8193 123.7062 15.2781 0.0000 2.3171 0.0000
# 3 4.5531 15.2781 61.3948 0.0000 3.9983 0.0000
# 4 0.0000 0.0000 0.0000 10.3146 0.0000 -12.1999
# 5 17.2069 2.3171 3.9983 0.0000 28.4725 0.0000
# 6 0.0000 0.0000 0.0000 -12.1999 0.0000 39.5526
#
#
#
# Elastic Compliance Matrix: (Units=1/GPa)
#
#
# Indices 1 2 3 4 5 6 
#
# 1 0.023501 -0.002921 -0.000108 0.000000 -0.013950 0.000000
# 2 -0.002921 0.008707 -0.002038 0.000000 0.001343 0.000000
# 3 -0.000108 -0.002038 0.016943 0.000000 -0.002148 0.000000
# 4 0.000000 0.000000 0.000000 0.152636 0.000000 0.047080
# 5 -0.013950 0.001343 -0.002148 0.000000 0.043744 0.000000
# 6 0.000000 0.000000 0.000000 0.047080 0.000000 0.039804
#
#
# Mechanical properties :
#
#
# Convention : Reuss Voigt Hill
#
# Bulk Modulus (GPa) = 25.62811 34.80862 30.21837
# Shear Modulus (GPa) = 16.20880 29.22302 22.71591
#
# Velocity S-wave (km/s) = 2.88085 3.86819 3.41044
# Velocity P-wave (km/s) = 4.91813 6.14601 5.56603
#
# Compressibility (1/GPa) = 0.03901966
#
# Stress axis : x y z
#
# Youngs Moduli (GPa) = 42.55094 114.84645 59.02150
#
# Poissons Ratio (x) = 0.33543 0.00635
# Poissons Ratio (y) = 0.12428 0.12026
# Poissons Ratio (z) = 0.00458 0.23402
#
# Static dielectric constant tensor:
#      x y z
#    x 1.686690 0.000000 -0.020870 
#    y 0.000000 1.703490 0.000000 
#    z -0.020870 0.000000 1.664390 
# 
# From -- ./inp_files/103245.got.cif
#   From: 2010.05.17/outbox.cif.g08.bks.cpg/sg12_52_cif.got.tgz:103245.got - 2010.06.03 13:09:07.
