data_PCOD9200349
_publ_section_title
;
Structure prediction by ZEFSAII (Michael W. Deem and Ramdas Pophale) SiO2 
 PCOD9200349
Probable space group: C 2/M
;
_chemical_formula_sum "Si O2"
_cell_formula_units_Z 44
_cell_length_a 29.717191
_cell_length_b 18.568878
_cell_length_c 5.076655
_cell_angle_alpha 90.000000
_cell_angle_beta 125.529338
_cell_angle_gamma 90.000000
_cell_volume 2279.808641
_symmetry_space_group_name_H-M "C 2/M"
_symmetry_group_IT_number 12
_symmetry_cell_setting 'monoclinic'
loop_
_space_group_symop_operation_xyz
x,y,z
-x,y,-z
-x,-y,-z
x,-y,z
1/2+x,1/2+y,z
1/2-x,1/2+y,-z
1/2-x,1/2-y,-z
1/2+x,1/2-y,z
loop_
_atom_site_type_symbol
_atom_site_label
_atom_site_fract_x
_atom_site_fract_y
_atom_site_fract_z
Si Si1 0.126636 0.870538 0.734230
Si Si2 0.460106 0.500000 0.613024
Si Si3 0.314176 0.418896 0.552004
Si Si4 0.209074 0.500000 0.085805
Si Si5 0.637008 0.000000 0.341517
Si Si6 0.934639 0.269005 0.259189
Si Si7 0.565249 0.861684 0.241567
O O1 0.078396 0.929455 0.532581
O O2 0.157959 0.866016 0.562370
O O3 0.100423 0.798276 0.760710
O O4 0.169925 0.899125 0.098787
O O5 0.500000 0.500000 0.500000
O O6 0.500000 0.500000 0.000000
O O7 0.337743 0.500000 0.580483
O O8 0.249260 0.432037 0.282828
O O9 0.158779 0.500000 0.117777
O O10 0.188775 0.500000 0.718460
O O11 0.601185 0.929746 0.283856
O O12 0.924030 0.333987 0.427586
O O13 0.000000 0.250928 0.500000
O O14 0.923738 0.297015 0.928004
O O15 0.500000 0.879028 0.000000
#
# Coordination Sequence:
#
# PCOD9200349 Si02
#       7
#     8   4   8   4   4   8   8
#     4  12  20  37  57  79 115 162 204 232 287 337
#     4  12  22  30  46  80 113 142 197 252 273 310
#     4  10  20  37  57  82 109 152 202 245 281 328
#     4  10  22  37  61  94 114 145 189 256 303 332
#     4  12  21  39  70  90 113 141 190 248 295 360
#     4  10  22  38  57  84 124 161 191 229 288 354
#     4  10  22  40  61  91 120 150 186 229 294 365
#
# _framework density 19.299865
#
# number of rings (size 3 to 8) (size 9 to 14) (size 15 to 20)
#    0.545    0.727    1.818    5.182    0.000    2.182 
#    0.000    3.636    0.000   21.818    0.000    0.000 
#    0.000    0.000    0.000    0.000    0.000    0.000 
#
# Total GULP energy -122860.335590 kJ/mol
# GULP energy per Si atom -5584.560709 kJ/mol
# Density = 1.925594 g / cm^3
# Si number density = 19.299865 Si / 1000 Ang^3
#
#
#
# Elastic Constant Matrix: (Units=GPa)
#
#
# Indices 1 2 3 4 5 6 
#
# 1 60.5371 2.3917 -7.7777 0.0000 -5.0961 0.0000
# 2 2.3917 48.0865 0.2098 0.0000 21.9413 0.0000
# 3 -7.7777 0.2098 65.1686 0.0000 -12.1855 0.0000
# 4 0.0000 0.0000 0.0000 10.0848 0.0000 -3.8731
# 5 -5.0961 21.9413 -12.1855 0.0000 30.0524 0.0000
# 6 0.0000 0.0000 0.0000 -3.8731 0.0000 37.1111
#
#
#
# Elastic Compliance Matrix: (Units=1/GPa)
#
#
# Indices 1 2 3 4 5 6 
#
# 1 0.017799 -0.004408 0.003576 0.000000 0.007687 0.000000
# 2 -0.004408 0.033675 -0.005812 0.000000 -0.027691 0.000000
# 3 0.003576 -0.005812 0.018067 0.000000 0.012176 0.000000
# 4 0.000000 0.000000 0.000000 0.103299 0.000000 0.010781
# 5 0.007687 -0.027691 0.012176 0.000000 0.059733 0.000000
# 6 0.000000 0.000000 0.000000 0.010781 0.000000 0.028071
#
#
# Mechanical properties :
#
#
# Convention : Reuss Voigt Hill
#
# Bulk Modulus (GPa) = 17.77703 18.15999 17.96851
# Shear Modulus (GPa) = 17.08319 27.38089 22.23204
#
# Velocity S-wave (km/s) = 2.97837 3.77066 3.39769
# Velocity P-wave (km/s) = 4.58896 5.32794 4.97220
#
# Compressibility (1/GPa) = 0.05625237
#
# Stress axis : x y z
#
# Youngs Moduli (GPa) = 56.18157 29.69521 55.34969
#
# Poissons Ratio (x) = 0.13090 -0.19792
# Poissons Ratio (y) = 0.24766 0.32171
# Poissons Ratio (z) = -0.20089 0.17260
#
# Static dielectric constant tensor:
#      x y z
#    x 1.657010 0.000000 0.003980 
#    y 0.000000 1.654850 0.000000 
#    z 0.003980 0.000000 1.659380 
# 
# From -- ./inp_files/28904.got.cif
#   From: 2010.05.17/outbox.cif.g08.bks.cpg/sg12_15_cif.got.tgz:28904.got - 2010.06.03 13:09:07.
