data_PCOD9200992
_publ_section_title
;
Structure prediction by ZEFSAII (Michael W. Deem and Ramdas Pophale) SiO2 
 PCOD9200992
Probable space group: C 2/M
;
_chemical_formula_sum "Si O2"
_cell_formula_units_Z 48
_cell_length_a 14.419157
_cell_length_b 16.073418
_cell_length_c 28.370070
_cell_angle_alpha 90.000000
_cell_angle_beta 22.074286
_cell_angle_gamma 90.000000
_cell_volume 2471.012860
_symmetry_space_group_name_H-M "C 2/M"
_symmetry_group_IT_number 12
_symmetry_cell_setting 'monoclinic'
loop_
_space_group_symop_operation_xyz
x,y,z
-x,y,-z
-x,-y,-z
x,-y,z
1/2+x,1/2+y,z
1/2-x,1/2+y,-z
1/2-x,1/2-y,-z
1/2+x,1/2-y,z
loop_
_atom_site_type_symbol
_atom_site_label
_atom_site_fract_x
_atom_site_fract_y
_atom_site_fract_z
Si Si1 0.537025 0.768098 0.862637
Si Si2 0.230878 0.314499 0.670168
Si Si3 0.763519 0.122528 0.354013
Si Si4 0.242518 0.095417 0.433283
Si Si5 0.222657 0.407636 0.263139
Si Si6 0.686466 0.093261 0.867617
O O1 0.595190 0.805545 0.783620
O O2 0.658398 0.677067 0.811940
O O3 0.627590 0.834156 0.858512
O O4 0.250000 0.750000 0.000000
O O5 0.234105 0.222635 0.646978
O O6 0.136858 0.375798 0.673243
O O7 0.506984 0.346361 0.551019
O O8 0.500000 0.095772 0.500000
O O9 0.763873 0.094929 0.299547
O O10 0.023904 0.096279 0.254336
O O11 0.436528 0.100612 0.383875
O O12 0.161502 0.000000 0.467955
O O13 0.303932 0.500000 0.207523
O O14 0.637046 0.000000 0.871856
O O15 0.500000 0.104092 0.000000
#
# Coordination Sequence:
#
# PCOD9200992 Si02
#       6
#     8   8   8   8   8   8
#     4  11  25  41  66  93 122 169 217 261 317 387
#     4  10  20  37  60  88 125 161 208 263 313 377
#     4  11  22  37  63  92 126 166 210 264 319 376
#     4  10  20  37  61  90 125 167 209 265 327 382
#     4  10  23  40  61  89 126 163 207 262 322 376
#     4  11  25  44  65  92 131 172 212 262 322 388
#
# _framework density 19.425234
#
# number of rings (size 3 to 8) (size 9 to 14) (size 15 to 20)
#    0.000    1.500    1.667    4.500    2.333    6.000 
#    0.000    0.000    0.000    2.500    0.000    0.000 
#    0.000    0.000    0.000    0.000    0.000    0.000 
#
# Total GULP energy -133879.942562 kJ/mol
# GULP energy per Si atom -5578.330940 kJ/mol
# Density = 1.938102 g / cm^3
# Si number density = 19.425234 Si / 1000 Ang^3
#
#
#
# Elastic Constant Matrix: (Units=GPa)
#
#
# Indices 1 2 3 4 5 6 
#
# 1 83.0617 33.1839 39.8397 -0.0622 -12.4225 -0.0008
# 2 33.1839 153.8041 43.2006 -0.0843 2.1046 -0.0063
# 3 39.8397 43.2006 110.0169 -0.1746 -2.6821 0.0648
# 4 -0.0622 -0.0843 -0.1746 33.9689 0.0682 -5.3009
# 5 -12.4225 2.1046 -2.6821 0.0682 32.3502 -0.0047
# 6 -0.0008 -0.0063 0.0648 -5.3009 -0.0047 24.1323
#
#
#
# Elastic Compliance Matrix: (Units=1/GPa)
#
#
# Indices 1 2 3 4 5 6 
#
# 1 0.016123 -0.002204 -0.004829 -0.000011 0.005934 0.000012
# 2 -0.002204 0.007625 -0.002234 0.000008 -0.001527 0.000009
# 3 -0.004829 -0.002234 0.011697 0.000044 -0.000739 -0.000023
# 4 -0.000011 0.000008 0.000044 0.030484 -0.000064 0.006696
# 5 0.005934 -0.001527 -0.000739 -0.000064 0.033229 -0.000006
# 6 0.000012 0.000009 -0.000023 0.006696 -0.000006 0.042909
#
#
# Mechanical properties :
#
#
# Convention : Reuss Voigt Hill
#
# Bulk Modulus (GPa) = 59.12179 64.37010 61.74595
# Shear Modulus (GPa) = 30.07752 33.46754 31.77253
#
# Velocity S-wave (km/s) = 3.93921 4.15527 4.04868
# Velocity P-wave (km/s) = 7.15482 7.49874 7.32879
#
# Compressibility (1/GPa) = 0.01691424
#
# Stress axis : x y z
#
# Youngs Moduli (GPa) = 62.02277 131.13922 85.49053
#
# Poissons Ratio (x) = 0.28897 0.41280
# Poissons Ratio (y) = 0.13667 0.19095
# Poissons Ratio (z) = 0.29948 0.29291
#
# Static dielectric constant tensor:
#      x y z
#    x 1.682790 0.000010 0.011330 
#    y 0.000010 1.705860 0.000050 
#    z 0.011330 0.000050 1.551070 
# 
# From -- ./inp_files/376584.got.cif
#   From: 2010.05.17/outbox.cif.g08.bks.cpg/sg12_189_cif.got.tgz:376584.got - 2010.06.03 13:09:07.
