data_PCOD9200765
_publ_section_title
;
Structure prediction by ZEFSAII (Michael W. Deem and Ramdas Pophale) SiO2 
 PCOD9200765
Probable space group: C 2/M
;
_chemical_formula_sum "Si O2"
_cell_formula_units_Z 56
_cell_length_a 13.653949
_cell_length_b 25.986618
_cell_length_c 8.074223
_cell_angle_alpha 90.000000
_cell_angle_beta 69.178281
_cell_angle_gamma 90.000000
_cell_volume 2677.791998
_symmetry_space_group_name_H-M "C 2/M"
_symmetry_group_IT_number 12
_symmetry_cell_setting 'monoclinic'
loop_
_space_group_symop_operation_xyz
x,y,z
-x,y,-z
-x,-y,-z
x,-y,z
1/2+x,1/2+y,z
1/2-x,1/2+y,-z
1/2-x,1/2-y,-z
1/2+x,1/2-y,z
loop_
_atom_site_type_symbol
_atom_site_label
_atom_site_fract_x
_atom_site_fract_y
_atom_site_fract_z
Si Si1 0.546374 0.703311 0.155764
Si Si2 0.585192 0.622586 0.559896
Si Si3 0.758195 0.941780 0.346709
Si Si4 0.948349 0.418323 0.357979
Si Si5 0.246536 0.841236 0.187041
Si Si6 0.151076 0.440732 0.052894
Si Si7 0.950443 0.311285 0.201558
O O1 0.479457 0.668761 0.320816
O O2 0.667215 0.685922 0.105090
O O3 0.518912 0.762591 0.212763
O O4 0.500000 0.695512 0.000000
O O5 0.500000 0.591977 0.500000
O O6 0.643762 0.593063 0.669558
O O7 0.673727 0.641773 0.382017
O O8 0.670473 0.935952 0.544374
O O9 0.705438 0.931272 0.200501
O O10 0.793836 0.000000 0.322705
O O11 0.948613 0.356894 0.333954
O O12 0.000000 0.434037 0.500000
O O13 0.026349 0.438478 0.169391
O O14 0.331586 0.801808 0.212514
O O15 0.305176 0.893034 0.083168
O O16 0.175529 0.500000 0.984702
O O17 0.000000 0.330672 0.000000
#
# Coordination Sequence:
#
# PCOD9200765 Si02
#       7
#     8   8   8   8   8   8   8
#     4  10  24  42  62  85 119 160 204 250 305 353
#     4  10  22  40  60  86 120 157 202 255 297 353
#     4  10  20  37  61  89 121 162 203 245 298 355
#     4  10  20  37  59  91 126 156 199 246 295 365
#     4  11  22  41  62  89 128 154 202 254 295 363
#     4  10  21  38  63  91 125 163 197 241 304 363
#     4  11  22  40  61  91 121 159 200 245 307 356
#
# _framework density 20.912751
#
# number of rings (size 3 to 8) (size 9 to 14) (size 15 to 20)
#    0.000    1.714    2.857    1.286    0.000    7.143 
#    5.143    2.857    0.000    7.714    0.000    0.000 
#    0.000    0.000    0.000    0.000    0.000    0.000 
#
# Total GULP energy -156113.005728 kJ/mol
# GULP energy per Si atom -5575.464490 kJ/mol
# Density = 2.086515 g / cm^3
# Si number density = 20.912751 Si / 1000 Ang^3
#
#
#
# Elastic Constant Matrix: (Units=GPa)
#
#
# Indices 1 2 3 4 5 6 
#
# 1 63.7208 13.2310 -9.7670 0.0000 -10.1058 0.0000
# 2 13.2310 88.2958 11.3544 0.0000 -2.7541 0.0000
# 3 -9.7670 11.3544 50.6275 0.0000 -7.0353 0.0000
# 4 0.0000 0.0000 0.0000 22.7580 0.0000 5.0991
# 5 -10.1058 -2.7541 -7.0353 0.0000 28.1016 0.0000
# 6 0.0000 0.0000 0.0000 5.0991 0.0000 14.8002
#
#
#
# Elastic Compliance Matrix: (Units=1/GPa)
#
#
# Indices 1 2 3 4 5 6 
#
# 1 0.018385 -0.003202 0.005325 0.000000 0.007631 0.000000
# 2 -0.003202 0.012226 -0.003474 0.000000 -0.000823 0.000000
# 3 0.005325 -0.003474 0.022562 0.000000 0.007223 0.000000
# 4 0.000000 0.000000 0.000000 0.047616 0.000000 -0.016405
# 5 0.007631 -0.000823 0.007223 0.000000 0.040057 0.000000
# 6 0.000000 0.000000 0.000000 -0.016405 0.000000 0.073219
#
#
# Mechanical properties :
#
#
# Convention : Reuss Voigt Hill
#
# Bulk Modulus (GPa) = 19.81286 25.80901 22.81093
# Shear Modulus (GPa) = 21.40499 25.65368 23.52933
#
# Velocity S-wave (km/s) = 3.20275 3.50623 3.35792
# Velocity P-wave (km/s) = 4.81367 5.36280 5.09564
#
# Compressibility (1/GPa) = 0.05047227
#
# Stress axis : x y z
#
# Youngs Moduli (GPa) = 54.39304 81.79006 44.32171
#
# Poissons Ratio (x) = 0.26187 -0.23602
# Poissons Ratio (y) = 0.17415 0.15398
# Poissons Ratio (z) = -0.28965 0.28415
#
# Static dielectric constant tensor:
#      x y z
#    x 1.825770 0.000000 0.015020 
#    y 0.000000 1.746520 0.000000 
#    z 0.015020 0.000000 1.759670 
# 
# From -- ./inp_files/65751.got.cif
#   From: 2010.05.17/outbox.cif.g08.bks.cpg/sg12_33_cif.got.tgz:65751.got - 2010.06.03 13:09:07.
