data_PCOD9200673
_publ_section_title
;
Structure prediction by ZEFSAII (Michael W. Deem and Ramdas Pophale) SiO2 
 PCOD9200673
Probable space group: C 2/M
;
_chemical_formula_sum "Si O2"
_cell_formula_units_Z 40
_cell_length_a 12.613015
_cell_length_b 20.635555
_cell_length_c 14.539061
_cell_angle_alpha 90.000000
_cell_angle_beta 30.918210
_cell_angle_gamma 90.000000
_cell_volume 1944.362818
_symmetry_space_group_name_H-M "C 2/M"
_symmetry_group_IT_number 12
_symmetry_cell_setting 'monoclinic'
loop_
_space_group_symop_operation_xyz
x,y,z
-x,y,-z
-x,-y,-z
x,-y,z
1/2+x,1/2+y,z
1/2-x,1/2+y,-z
1/2-x,1/2-y,-z
1/2+x,1/2-y,z
loop_
_atom_site_type_symbol
_atom_site_label
_atom_site_fract_x
_atom_site_fract_y
_atom_site_fract_z
Si Si1 0.815700 0.790368 0.201054
Si Si2 0.352816 0.810360 0.476957
Si Si3 0.894708 0.575148 0.304076
Si Si4 0.808900 0.155956 0.692693
Si Si5 0.799564 0.427262 0.079487
O O1 0.595602 0.795714 0.313513
O O2 0.771069 0.819462 0.335016
O O3 0.857751 0.713140 0.184999
O O4 0.000000 0.816452 0.000000
O O5 0.250000 0.750000 0.500000
O O6 0.356145 0.875302 0.414083
O O7 0.874116 0.500000 0.343374
O O8 0.738220 0.596379 0.339927
O O9 0.113270 0.584093 0.087253
O O10 0.000000 0.188606 0.500000
O O11 0.839554 0.127857 0.771442
O O12 0.713199 0.500000 0.149111
O O13 0.000000 0.425876 0.000000
#
# Coordination Sequence:
#
# PCOD9200673 Si02
#       5
#     8   8   8   8   8
#     4  11  23  40  62  89 125 167 205 254 314 359
#     4  11  22  42  62  94 126 157 212 258 300 371
#     4  10  20  37  59  84 118 160 203 254 308 363
#     4  11  18  33  53  88 127 158 196 251 312 378
#     4   8  16  29  48  75 112 155 191 232 302 373
#
# _framework density 20.572292000000001
#
# number of rings (size 3 to 8) (size 9 to 14) (size 15 to 20)
#    0.000    1.800    4.000    3.600    0.000    2.400 
#    3.600    2.000    0.000    1.200    0.000    0.000 
#    0.000    0.000    0.000    0.000    0.000    0.000 
#
# Total GULP energy -111446.970920 kJ/mol
# GULP energy per Si atom -5572.348546 kJ/mol
# Density = 2.052547 g / cm^3
# Si number density = 20.572292 Si / 1000 Ang^3
#
#
#
# Elastic Constant Matrix: (Units=GPa)
#
#
# Indices 1 2 3 4 5 6 
#
# 1 72.4265 35.4925 49.4690 -0.0046 18.6059 0.0071
# 2 35.4925 133.5348 57.0415 -0.0232 35.6925 0.0080
# 3 49.4690 57.0415 164.5423 -0.0263 30.6413 -0.0050
# 4 -0.0046 -0.0232 -0.0263 31.7783 0.0149 15.7331
# 5 18.6059 35.6925 30.6413 0.0149 29.2321 -0.0017
# 6 0.0071 0.0080 -0.0050 15.7331 -0.0017 16.1771
#
#
#
# Elastic Compliance Matrix: (Units=1/GPa)
#
#
# Indices 1 2 3 4 5 6 
#
# 1 0.018866 -0.001806 -0.004001 0.000010 -0.005608 -0.000019
# 2 -0.001806 0.011661 -0.001320 0.000031 -0.011705 -0.000036
# 3 -0.004001 -0.001320 0.008653 0.000011 -0.004911 -0.000006
# 4 0.000010 0.000031 0.000011 0.060691 -0.000090 -0.059025
# 5 -0.005608 -0.011705 -0.004911 -0.000090 0.057219 0.000100
# 6 -0.000019 -0.000036 -0.000006 -0.059025 0.000100 0.119221
#
#
# Mechanical properties :
#
#
# Convention : Reuss Voigt Hill
#
# Bulk Modulus (GPa) = 40.11997 72.72329 56.42163
# Shear Modulus (GPa) = 16.72948 30.67088 23.70018
#
# Velocity S-wave (km/s) = 2.85477 3.86538 3.39786
# Velocity P-wave (km/s) = 5.51458 7.43965 6.54824
#
# Compressibility (1/GPa) = 0.02492524
#
# Stress axis : x y z
#
# Youngs Moduli (GPa) = 53.00529 85.75411 115.57177
#
# Poissons Ratio (x) = 0.15488 0.46246
# Poissons Ratio (y) = 0.09573 0.15253
# Poissons Ratio (z) = 0.21210 0.11318
#
# Static dielectric constant tensor:
#      x y z
#    x 1.783770 0.000000 -0.068940 
#    y 0.000000 1.728840 0.000000 
#    z -0.068940 0.000000 1.914850 
# 
# From -- ./inp_files/217325.got.cif
#   From: 2010.05.17/outbox.cif.g08.bks.cpg/sg12_109_cif.got.tgz:217325.got - 2010.06.03 13:09:07.
