data_PCOD9200961
_publ_section_title
;
Structure prediction by ZEFSAII (Michael W. Deem and Ramdas Pophale) SiO2 
 PCOD9200961
Probable space group: C 2/M
;
_chemical_formula_sum "Si O2"
_cell_formula_units_Z 56
_cell_length_a 9.847618
_cell_length_b 26.869392
_cell_length_c 17.985954
_cell_angle_alpha 90.000000
_cell_angle_beta 37.839261
_cell_angle_gamma 90.000000
_cell_volume 2919.446454
_symmetry_space_group_name_H-M "C 2/M"
_symmetry_group_IT_number 12
_symmetry_cell_setting 'monoclinic'
loop_
_space_group_symop_operation_xyz
x,y,z
-x,y,-z
-x,-y,-z
x,-y,z
1/2+x,1/2+y,z
1/2-x,1/2+y,-z
1/2-x,1/2-y,-z
1/2+x,1/2-y,z
loop_
_atom_site_type_symbol
_atom_site_label
_atom_site_fract_x
_atom_site_fract_y
_atom_site_fract_z
Si Si1 0.312765 0.854603 0.253909
Si Si2 0.481572 0.942895 0.092111
Si Si3 0.841092 0.299102 0.998683
Si Si4 0.863280 0.809494 0.383234
Si Si5 0.546008 0.196078 0.660760
Si Si6 0.992419 0.943032 0.918788
Si Si7 0.373299 0.350068 0.223898
O O1 0.336137 0.910388 0.211554
O O2 0.352991 0.842097 0.322842
O O3 0.083565 0.830495 0.326772
O O4 0.512513 0.827528 0.124881
O O5 0.400259 0.000000 0.121891
O O6 0.500000 0.921760 0.000000
O O7 0.734108 0.943739 0.010012
O O8 0.625726 0.330993 0.112819
O O9 0.750000 0.250000 0.000000
O O10 0.000000 0.289396 0.000000
O O11 0.674041 0.807686 0.527095
O O12 0.914675 0.753327 0.331939
O O13 0.801286 0.843128 0.339952
O O14 0.290440 0.182959 0.756029
O O15 0.122493 0.905828 0.809178
O O16 0.075390 0.000000 0.880755
O O17 0.000000 0.924161 0.000000
#
# Coordination Sequence:
#
# PCOD9200961 Si02
#       7
#     8   8   8   8   8   8   8
#     4  12  22  38  61  87 121 152 197 252 299 356
#     4  10  20  37  60  87 118 154 194 238 301 371
#     4  12  25  37  57  90 129 162 188 243 316 373
#     4  11  23  43  60  82 119 161 213 244 285 359
#     4  11  25  40  61  85 114 168 208 244 290 353
#     4  10  21  38  59  87 122 158 197 242 302 374
#     4  12  23  38  62  87 122 155 200 253 299 360
#
# _framework density 19.181718
#
# number of rings (size 3 to 8) (size 9 to 14) (size 15 to 20)
#    0.000    0.857    2.857    5.571    2.000    2.286 
#    0.000    0.000    0.000    5.143    0.000    0.000 
#    0.000    0.000    0.000    0.000    0.000    0.000 
#
# Total GULP energy -156518.062846 kJ/mol
# GULP energy per Si atom -5589.930816 kJ/mol
# Density = 1.913806 g / cm^3
# Si number density = 19.181718 Si / 1000 Ang^3
#
#
#
# Elastic Constant Matrix: (Units=GPa)
#
#
# Indices 1 2 3 4 5 6 
#
# 1 103.1448 22.3083 9.1549 0.0000 8.7745 0.0000
# 2 22.3083 95.5442 32.0033 0.0000 10.2369 0.0000
# 3 9.1549 32.0033 52.8747 0.0000 -0.4804 0.0000
# 4 0.0000 0.0000 0.0000 -45.6594 0.0000 48.0793
# 5 8.7745 10.2369 -0.4804 0.0000 31.9435 0.0000
# 6 0.0000 0.0000 0.0000 48.0793 0.0000 4.4746
#
#
#
# Elastic Compliance Matrix: (Units=1/GPa)
#
#
# Indices 1 2 3 4 5 6 
#
# 1 0.010366 -0.001974 -0.000620 0.000000 -0.002224 0.000000
# 2 -0.001974 0.014131 -0.008248 0.000000 -0.004110 0.000000
# 3 -0.000620 -0.008248 0.024041 0.000000 0.003175 0.000000
# 4 0.000000 0.000000 0.000000 -0.001779 0.000000 0.019110
# 5 -0.002224 -0.004110 0.003175 0.000000 0.033281 0.000000
# 6 0.000000 0.000000 0.000000 0.019110 0.000000 0.018148
#
#
# Mechanical properties :
#
#
# Convention : Reuss Voigt Hill
#
# Bulk Modulus (GPa) = 37.24012 42.05521 39.64766
# Shear Modulus (GPa) = 38.81230 10.69156 24.75193
#
# Velocity S-wave (km/s) = 4.50310 2.36346 3.59610
# Velocity P-wave (km/s) = 6.81863 5.42403 6.16092
#
# Compressibility (1/GPa) = 0.02685276
#
# Stress axis : x y z
#
# Youngs Moduli (GPa) = 96.46571 70.76868 41.59526
#
# Poissons Ratio (x) = 0.13973 0.02579
# Poissons Ratio (y) = 0.19047 0.34309
# Poissons Ratio (z) = 0.05981 0.58372
#
# Static dielectric constant tensor:
#      x y z
#    x 1.718560 0.000000 0.012500 
#    y 0.000000 1.538840 0.000000 
#    z 0.012500 0.000000 1.661830 
# 
# From -- ./inp_files/259798.got.cif
#   From: 2010.05.17/outbox.cif.g08.bks.cpg/sg12_130_cif.got.tgz:259798.got - 2010.06.03 13:09:07.
