data_PCOD9200514
_publ_section_title
;
Structure prediction by ZEFSAII (Michael W. Deem and Ramdas Pophale) SiO2 
 PCOD9200514
Probable space group: C 2/M
;
_chemical_formula_sum "Si O2"
_cell_formula_units_Z 32
_cell_length_a 8.923486
_cell_length_b 15.307700
_cell_length_c 13.021835
_cell_angle_alpha 90.000000
_cell_angle_beta 87.645085
_cell_angle_gamma 90.000000
_cell_volume 1777.255014
_symmetry_space_group_name_H-M "C 2/M"
_symmetry_group_IT_number 12
_symmetry_cell_setting 'monoclinic'
loop_
_space_group_symop_operation_xyz
x,y,z
-x,y,-z
-x,-y,-z
x,-y,z
1/2+x,1/2+y,z
1/2-x,1/2+y,-z
1/2-x,1/2-y,-z
1/2+x,1/2-y,z
loop_
_atom_site_type_symbol
_atom_site_label
_atom_site_fract_x
_atom_site_fract_y
_atom_site_fract_z
Si Si1 0.596850 0.000000 0.152623
Si Si2 0.266876 0.000000 0.078368
Si Si3 0.252496 0.328895 0.227437
Si Si4 0.561892 0.398554 0.608265
Si Si5 0.584478 0.649964 0.186832
O O1 0.652065 0.912930 0.207224
O O2 0.419336 0.000000 0.140603
O O3 0.678800 0.000000 0.039910
O O4 0.170329 0.084882 0.109920
O O5 0.309658 0.338448 0.343907
O O6 0.410397 0.335673 0.161435
O O7 0.167845 0.241301 0.200177
O O8 0.500000 0.371016 0.500000
O O9 0.611396 0.500000 0.599973
O O10 0.433373 0.393402 0.699499
#
# Coordination Sequence:
#
# PCOD9200514 Si02
#       5
#     4   4   8   8   8
#     4  11  23  39  59  82 110 148 195 239 285 337
#     4  11  23  39  59  82 110 148 195 239 285 337
#     4  10  20  37  58  85 114 153 183 233 280 330
#     4   9  18  36  60  85 114 151 189 226 283 331
#     4  10  20  37  58  85 114 153 183 233 280 330
#
# _framework density 18.005295
#
# number of rings (size 3 to 8) (size 9 to 14) (size 15 to 20)
#    1.500    0.500    2.500    2.250    0.000    4.000 
#    0.000    0.000    0.000    1.500    0.000    0.000 
#    0.000    0.000    0.000    0.000    0.000    0.000 
#
# Total GULP energy -89078.547664 kJ/mol
# GULP energy per Si atom -5567.409229 kJ/mol
# Density = 1.796431 g / cm^3
# Si number density = 18.005295 Si / 1000 Ang^3
#
#
#
# Elastic Constant Matrix: (Units=GPa)
#
#
# Indices 1 2 3 4 5 6 
#
# 1 44.1745 7.1612 -12.0521 0.0000 5.3592 0.0000
# 2 7.1612 96.7846 -11.9567 0.0000 13.4817 0.0000
# 3 -12.0521 -11.9567 22.1712 0.0000 4.6170 0.0000
# 4 0.0000 0.0000 0.0000 -18.7592 0.0000 8.7563
# 5 5.3592 13.4817 4.6170 0.0000 22.0445 0.0000
# 6 0.0000 0.0000 0.0000 8.7563 0.0000 22.3348
#
#
#
# Elastic Compliance Matrix: (Units=1/GPa)
#
#
# Indices 1 2 3 4 5 6 
#
# 1 0.029131 0.001973 0.019475 0.000000 -0.012368 0.000000
# 2 0.001973 0.012915 0.010229 0.000000 -0.010521 0.000000
# 3 0.019475 0.010229 0.066390 0.000000 -0.024895 0.000000
# 4 0.000000 0.000000 0.000000 -0.045061 0.000000 0.017666
# 5 -0.012368 -0.010521 -0.024895 0.000000 0.060018 0.000000
# 6 0.000000 0.000000 0.000000 0.017666 0.000000 0.037847
#
#
# Mechanical properties :
#
#
# Convention : Reuss Voigt Hill
#
# Bulk Modulus (GPa) = 5.82103 14.38170 10.10137
# Shear Modulus (GPa) = 32.22679 17.12253 24.67466
#
# Velocity S-wave (km/s) = 4.23525 3.08713 3.70592
# Velocity P-wave (km/s) = 5.21119 4.55104 4.89226
#
# Compressibility (1/GPa) = 0.17179082
#
# Stress axis : x y z
#
# Youngs Moduli (GPa) = 34.32723 77.42747 15.06245
#
# Poissons Ratio (x) = -0.15278 -0.29334
# Poissons Ratio (y) = -0.06774 -0.15407
# Poissons Ratio (z) = -0.66853 -0.79197
#
# Static dielectric constant tensor:
#      x y z
#    x 1.615670 0.000000 0.002420 
#    y 0.000000 1.591530 0.000000 
#    z 0.002420 0.000000 1.621610 
# 
# From -- ./inp_files/117792.got.cif
#   From: 2010.05.17/outbox.cif.g08.bks.cpg/sg12_59_cif.got.tgz:117792.got - 2010.06.03 13:09:07.
