data_PCOD9200865
_publ_section_title
;
Structure prediction by ZEFSAII (Michael W. Deem and Ramdas Pophale) SiO2 
 PCOD9200865
Probable space group: C 2/M
;
_chemical_formula_sum "Si O2"
_cell_formula_units_Z 64
_cell_length_a 31.068123
_cell_length_b 7.912853
_cell_length_c 16.701670
_cell_angle_alpha 90.000000
_cell_angle_beta 47.284673
_cell_angle_gamma 90.000000
_cell_volume 3016.738397
_symmetry_space_group_name_H-M "C 2/M"
_symmetry_group_IT_number 12
_symmetry_cell_setting 'monoclinic'
loop_
_space_group_symop_operation_xyz
x,y,z
-x,y,-z
-x,-y,-z
x,-y,z
1/2+x,1/2+y,z
1/2-x,1/2+y,-z
1/2-x,1/2-y,-z
1/2+x,1/2-y,z
loop_
_atom_site_type_symbol
_atom_site_label
_atom_site_fract_x
_atom_site_fract_y
_atom_site_fract_z
Si Si1 0.802450 0.701350 0.590363
Si Si2 0.542661 0.703524 0.375582
Si Si3 0.277795 0.692185 0.048074
Si Si4 0.122854 0.293710 0.653255
Si Si5 0.166362 0.294815 0.771174
Si Si6 0.495342 0.204598 0.754910
Si Si7 0.167024 0.802279 0.279280
Si Si8 0.110600 0.304160 0.004804
O O1 0.810043 0.500000 0.586153
O O2 0.828151 0.759056 0.472854
O O3 0.734269 0.743882 0.685777
O O4 0.837813 0.782166 0.619368
O O5 0.500000 0.766331 0.500000
O O6 0.544831 0.500000 0.379374
O O7 0.519778 0.747465 0.316799
O O8 0.608975 0.763028 0.308561
O O9 0.297712 0.500000 0.015893
O O10 0.225417 0.708488 0.177752
O O11 0.333479 0.796243 0.007145
O O12 0.250000 0.750000 0.000000
O O13 0.122807 0.500000 0.654903
O O14 0.137618 0.237595 0.724263
O O15 0.059433 0.238419 0.701876
O O16 0.165308 0.500000 0.775121
O O17 0.132346 0.230183 0.892794
O O18 0.494882 0.000000 0.758334
O O19 0.445099 0.269719 0.878710
O O20 0.175336 0.000000 0.249087
O O21 0.096163 0.500000 0.006962
#
# Coordination Sequence:
#
# PCOD9200865 Si02
#       8
#     8   8   8   8   8   8   8   8
#     4  11  21  35  57  87 120 152 194 246 296 350
#     4  10  22  39  58  83 115 152 194 238 288 348
#     4  12  24  38  58  83 115 151 190 237 286 342
#     4   9  20  37  58  86 117 153 199 246 293 345
#     4  10  20  37  60  84 117 157 196 243 294 348
#     4  10  21  38  59  85 117 153 196 243 288 344
#     4  11  22  37  58  84 115 151 192 236 289 350
#     4  10  21  37  59  86 117 153 196 241 289 346
#
# _framework density 21.214964999999999
#
# number of rings (size 3 to 8) (size 9 to 14) (size 15 to 20)
#    0.000    1.625    1.250    3.750    0.000    4.250 
#    0.000    4.375    0.000    0.000    0.000    2.625 
#    0.000    0.000    0.000    0.000    0.000    0.000 
#
# Total GULP energy -178879.621354 kJ/mol
# GULP energy per Si atom -5589.988167 kJ/mol
# Density = 2.116668 g / cm^3
# Si number density = 21.214965 Si / 1000 Ang^3
#
#
#
# Elastic Constant Matrix: (Units=GPa)
#
#
# Indices 1 2 3 4 5 6 
#
# 1 132.6977 -8.1719 60.0086 -0.0005 14.1252 -0.0004
# 2 -8.1719 26.6186 -1.3433 -0.0032 -3.4412 -0.0018
# 3 60.0086 -1.3433 156.7610 -0.0003 9.9520 -0.0001
# 4 -0.0005 -0.0032 -0.0003 8.4529 0.0002 11.7352
# 5 14.1252 -3.4412 9.9520 0.0002 38.3240 -0.0001
# 6 -0.0004 -0.0018 -0.0001 11.7352 -0.0001 4.7844
#
#
#
# Elastic Compliance Matrix: (Units=1/GPa)
#
#
# Indices 1 2 3 4 5 6 
#
# 1 0.009508 0.002436 -0.003467 0.000000 -0.002385 0.000001
# 2 0.002436 0.038635 -0.000777 0.000002 0.002773 0.000009
# 3 -0.003467 -0.000777 0.007751 0.000000 -0.000805 0.000000
# 4 0.000000 0.000002 0.000000 -0.049186 0.000001 0.120643
# 5 -0.002385 0.002773 -0.000805 0.000001 0.027430 0.000000
# 6 0.000001 0.000009 0.000000 0.120643 0.000000 -0.086900
#
#
# Mechanical properties :
#
#
# Convention : Reuss Voigt Hill
#
# Bulk Modulus (GPa) = 19.12950 46.34046 32.73498
# Shear Modulus (GPa) = -157.63557 28.01785 -64.80886
#
# Velocity S-wave (km/s) = -8.62933 3.63804 -5.53308
# Velocity P-wave (km/s) = 9.50002 6.28791 5.03551
#
# Compressibility (1/GPa) = 0.05227529
#
# Stress axis : x y z
#
# Youngs Moduli (GPa) = 105.17665 25.88340 129.01799
#
# Poissons Ratio (x) = -0.06304 0.44735
# Poissons Ratio (y) = -0.25617 0.10029
# Poissons Ratio (z) = 0.36468 0.02012
#
# Static dielectric constant tensor:
#      x y z
#    x 1.729960 0.000000 0.004940 
#    y 0.000000 1.783090 0.000000 
#    z 0.004940 0.000000 1.785780 
# 
# From -- ./inp_files/249749.got.cif
#   From: 2010.05.17/outbox.cif.g08.bks.cpg/sg12_125_cif.got.tgz:249749.got - 2010.06.03 13:09:07.
