data_PCOD9200313
_publ_section_title
;
Structure prediction by ZEFSAII (Michael W. Deem and Ramdas Pophale) SiO2 
 PCOD9200313
Probable space group: C 2/M
;
_chemical_formula_sum "Si O2"
_cell_formula_units_Z 56
_cell_length_a 14.381745
_cell_length_b 24.587664
_cell_length_c 12.445793
_cell_angle_alpha 90.000000
_cell_angle_beta 41.151535
_cell_angle_gamma 90.000000
_cell_volume 2896.090661
_symmetry_space_group_name_H-M "C 2/M"
_symmetry_group_IT_number 12
_symmetry_cell_setting 'monoclinic'
loop_
_space_group_symop_operation_xyz
x,y,z
-x,y,-z
-x,-y,-z
x,-y,z
1/2+x,1/2+y,z
1/2-x,1/2+y,-z
1/2-x,1/2-y,-z
1/2+x,1/2-y,z
loop_
_atom_site_type_symbol
_atom_site_label
_atom_site_fract_x
_atom_site_fract_y
_atom_site_fract_z
Si Si1 0.110180 0.653050 0.499948
Si Si2 0.076953 0.565600 0.701688
Si Si3 0.152610 0.939018 0.385738
Si Si4 0.636285 0.095542 0.947066
Si Si5 0.957016 0.227689 0.370931
Si Si6 0.734959 0.704453 0.264970
Si Si7 0.904441 0.809465 0.178642
O O1 0.091434 0.597454 0.579058
O O2 0.089030 0.708539 0.589124
O O3 0.267030 0.654649 0.317503
O O4 0.000000 0.658863 0.500000
O O5 0.067632 0.500000 0.706583
O O6 0.220168 0.580106 0.646148
O O7 0.931686 0.590450 0.877781
O O8 0.228518 0.939189 0.203603
O O9 0.000000 0.910904 0.500000
O O10 0.122165 0.000000 0.450756
O O11 0.683572 0.154143 0.860237
O O12 0.500000 0.074265 0.000000
O O13 0.843915 0.198498 0.550082
O O14 0.964803 0.202825 0.245148
O O15 0.108436 0.222130 0.296150
O O16 0.845397 0.752266 0.185766
O O17 0.000000 0.832140 0.000000
#
# Coordination Sequence:
#
# PCOD9200313 Si02
#       7
#     8   8   8   8   8   8   8
#     4  11  22  43  62  82 118 164 207 252 301 351
#     4  10  23  40  62  89 117 158 207 255 305 356
#     4   9  19  35  56  84 120 153 190 243 303 363
#     4  10  21  32  58  88 125 155 193 239 305 362
#     4  10  22  38  61  86 127 163 206 242 293 369
#     4  10  20  37  56  91 120 162 199 241 293 366
#     4  11  24  37  59  89 123 159 201 247 301 364
#
# _framework density 19.336411999999999
#
# number of rings (size 3 to 8) (size 9 to 14) (size 15 to 20)
#    0.000    1.857    2.857    2.571   12.000    3.714 
#    0.000    0.000    0.000    0.429    0.000    0.000 
#    0.000    0.000    0.000    0.000    0.000    0.000 
#
# Total GULP energy -155957.238543 kJ/mol
# GULP energy per Si atom -5569.901377 kJ/mol
# Density = 1.929240 g / cm^3
# Si number density = 19.336412 Si / 1000 Ang^3
#
#
#
# Elastic Constant Matrix: (Units=GPa)
#
#
# Indices 1 2 3 4 5 6 
#
# 1 90.2046 2.7380 46.4635 0.0000 3.1372 0.0000
# 2 2.7380 80.1625 30.4522 0.0000 4.3793 0.0000
# 3 46.4635 30.4522 129.8224 0.0001 1.0736 0.0000
# 4 0.0000 0.0000 0.0001 4.3129 -0.0001 1.6676
# 5 3.1372 4.3793 1.0736 -0.0001 24.4363 0.0000
# 6 0.0000 0.0000 0.0000 1.6676 0.0000 20.4918
#
#
#
# Elastic Compliance Matrix: (Units=1/GPa)
#
#
# Indices 1 2 3 4 5 6 
#
# 1 0.013843 0.001651 -0.005327 0.000000 -0.001839 0.000000
# 2 0.001651 0.014024 -0.003859 0.000000 -0.002556 0.000000
# 3 -0.005327 -0.003859 0.010507 0.000000 0.000914 0.000000
# 4 0.000000 0.000000 0.000000 0.239395 0.000001 -0.019482
# 5 -0.001839 -0.002556 0.000914 0.000001 0.041577 0.000000
# 6 0.000000 0.000000 0.000000 -0.019482 0.000000 0.050385
#
#
# Mechanical properties :
#
#
# Convention : Reuss Voigt Hill
#
# Bulk Modulus (GPa) = 42.90997 51.05521 46.98259
# Shear Modulus (GPa) = 12.73658 24.55059 18.64359
#
# Velocity S-wave (km/s) = 2.56927 3.56709 3.10848
# Velocity P-wave (km/s) = 5.57144 6.58988 6.10194
#
# Compressibility (1/GPa) = 0.02330461
#
# Stress axis : x y z
#
# Youngs Moduli (GPa) = 72.23614 71.30632 95.17472
#
# Poissons Ratio (x) = -0.11774 0.50697
# Poissons Ratio (y) = -0.11927 0.36732
# Poissons Ratio (z) = 0.38478 0.27520
#
# Static dielectric constant tensor:
#      x y z
#    x 1.713610 0.000000 0.031640 
#    y 0.000000 1.723780 0.000000 
#    z 0.031640 0.000000 1.746940 
# 
# From -- ./inp_files/149431.got.cif
#   From: 2010.05.17/outbox.cif.g08.bks.cpg/sg12_75_cif.got.tgz:149431.got - 2010.06.03 13:09:07.
