data_PCOD9200504
_publ_section_title
;
Structure prediction by ZEFSAII (Michael W. Deem and Ramdas Pophale) SiO2 
 PCOD9200504
Probable space group: C 2/M
;
_chemical_formula_sum "Si O2"
_cell_formula_units_Z 56
_cell_length_a 15.243932
_cell_length_b 8.546551
_cell_length_c 25.152138
_cell_angle_alpha 90.000000
_cell_angle_beta 117.416106
_cell_angle_gamma 90.000000
_cell_volume 2908.855598
_symmetry_space_group_name_H-M "C 2/M"
_symmetry_group_IT_number 12
_symmetry_cell_setting 'monoclinic'
loop_
_space_group_symop_operation_xyz
x,y,z
-x,y,-z
-x,-y,-z
x,-y,z
1/2+x,1/2+y,z
1/2-x,1/2+y,-z
1/2-x,1/2-y,-z
1/2+x,1/2-y,z
loop_
_atom_site_type_symbol
_atom_site_label
_atom_site_fract_x
_atom_site_fract_y
_atom_site_fract_z
Si Si1 0.659294 0.687872 0.510583
Si Si2 0.674083 0.188676 0.934685
Si Si3 0.721995 0.313148 0.363741
Si Si4 0.742528 0.686479 0.154672
Si Si5 0.686270 0.687090 0.713406
Si Si6 0.967949 0.190497 0.619796
Si Si7 0.528561 0.811580 0.068746
O O1 0.661009 0.500000 0.513929
O O2 0.750000 0.750000 0.500000
O O3 0.684824 0.753785 0.575347
O O4 0.563773 0.734885 0.449266
O O5 0.703274 0.242244 0.884026
O O6 0.563922 0.233903 0.920671
O O7 0.679394 0.000000 0.937188
O O8 0.750000 0.250000 0.000000
O O9 0.721420 0.500000 0.364421
O O10 0.737266 0.252785 0.308659
O O11 0.620641 0.259598 0.364871
O O12 0.753765 0.500000 0.161766
O O13 0.784904 0.762602 0.219549
O O14 0.628293 0.729907 0.114592
O O15 0.686608 0.500000 0.709670
O O16 0.575710 0.744611 0.667595
O O17 0.968456 0.000000 0.621010
O O18 0.542063 0.000000 0.075041
O O19 0.500000 0.772545 0.000000
#
# Coordination Sequence:
#
# PCOD9200504 Si02
#       7
#     8   8   8   8   8   8   8
#     4   9  16  31  55  84 114 149 192 241 293 344
#     4  10  21  37  60  88 117 147 183 228 280 333
#     4  10  20  37  58  84 117 150 190 241 293 345
#     4  11  24  40  57  84 119 150 187 236 285 337
#     4  11  23  40  59  80 109 153 199 236 281 342
#     4   8  18  36  58  81 112 151 192 235 285 344
#     4  10  20  37  62  89 117 149 185 226 275 335
#
# _framework density 19.251556999999998
#
# number of rings (size 3 to 8) (size 9 to 14) (size 15 to 20)
#    0.000    2.143    1.429    2.571    0.000    3.143 
#    0.000   14.286    0.000    0.000    0.000    0.000 
#    0.000    0.000    0.000    0.000    0.000    0.000 
#
# Total GULP energy -156306.235943 kJ/mol
# GULP energy per Si atom -5582.365569 kJ/mol
# Density = 1.920774 g / cm^3
# Si number density = 19.251557 Si / 1000 Ang^3
#
#
#
# Elastic Constant Matrix: (Units=GPa)
#
#
# Indices 1 2 3 4 5 6 
#
# 1 86.8034 11.2802 22.3114 0.0000 -10.8743 0.0000
# 2 11.2802 32.3447 13.9357 0.0000 -3.5294 0.0000
# 3 22.3114 13.9357 86.3185 0.0000 -15.0785 0.0000
# 4 0.0000 0.0000 0.0000 33.4878 0.0000 -2.8384
# 5 -10.8743 -3.5294 -15.0785 0.0000 34.4286 0.0000
# 6 0.0000 0.0000 0.0000 -2.8384 0.0000 19.3625
#
#
#
# Elastic Compliance Matrix: (Units=1/GPa)
#
#
# Indices 1 2 3 4 5 6 
#
# 1 0.012876 -0.003186 -0.002339 0.000000 0.002716 0.000000
# 2 -0.003186 0.034058 -0.004592 0.000000 0.000474 0.000000
# 3 -0.002339 -0.004592 0.013774 0.000000 0.004823 0.000000
# 4 0.000000 0.000000 0.000000 0.030237 0.000000 0.004433
# 5 0.002716 0.000474 0.004823 0.000000 0.032064 0.000000
# 6 0.000000 0.000000 0.000000 0.004433 0.000000 0.052296
#
#
# Mechanical properties :
#
#
# Convention : Reuss Voigt Hill
#
# Bulk Modulus (GPa) = 24.70832 33.39125 29.04978
# Shear Modulus (GPa) = 23.91982 27.98505 25.95243
#
# Velocity S-wave (km/s) = 3.52872 3.81681 3.67559
# Velocity P-wave (km/s) = 5.42815 6.06683 5.75635
#
# Compressibility (1/GPa) = 0.04047220
#
# Stress axis : x y z
#
# Youngs Moduli (GPa) = 77.66489 29.36130 72.60311
#
# Poissons Ratio (x) = 0.09355 0.16984
# Poissons Ratio (y) = 0.24746 0.33341
# Poissons Ratio (z) = 0.18168 0.13483
#
# Static dielectric constant tensor:
#      x y z
#    x 1.677680 0.000000 -0.003310 
#    y 0.000000 1.659900 0.000000 
#    z -0.003310 0.000000 1.653580 
# 
# From -- ./inp_files/339042.got.cif
#   From: 2010.05.17/outbox.cif.g08.bks.cpg/sg12_170_cif.got.tgz:339042.got - 2010.06.03 13:09:07.
