data_PCOD9200195
_publ_section_title
;
Structure prediction by ZEFSAII (Michael W. Deem and Ramdas Pophale) SiO2 
 PCOD9200195
Probable space group: C 2/M
;
_chemical_formula_sum "Si O2"
_cell_formula_units_Z 40
_cell_length_a 8.208423
_cell_length_b 23.082828
_cell_length_c 8.658853
_cell_angle_alpha 90.000000
_cell_angle_beta 110.100668
_cell_angle_gamma 90.000000
_cell_volume 1540.694174
_symmetry_space_group_name_H-M "C 2/M"
_symmetry_group_IT_number 12
_symmetry_cell_setting 'monoclinic'
loop_
_space_group_symop_operation_xyz
x,y,z
-x,y,-z
-x,-y,-z
x,-y,z
1/2+x,1/2+y,z
1/2-x,1/2+y,-z
1/2-x,1/2-y,-z
1/2+x,1/2-y,z
loop_
_atom_site_type_symbol
_atom_site_label
_atom_site_fract_x
_atom_site_fract_y
_atom_site_fract_z
Si Si1 0.313655 0.710807 0.878041
Si Si2 0.644017 0.323354 0.423605
Si Si3 0.422800 0.436468 0.264301
Si Si4 0.882804 0.417375 0.608856
Si Si5 0.862542 0.395358 0.067794
O O1 0.327894 0.724576 0.701019
O O2 0.200588 0.653472 0.838818
O O3 0.500000 0.693358 0.000000
O O4 0.250000 0.750000 0.000000
O O5 0.500000 0.303431 0.500000
O O6 0.548262 0.380975 0.317456
O O7 0.818091 0.351074 0.553431
O O8 0.504629 0.500000 0.267495
O O9 0.301420 0.439037 0.378806
O O10 0.290445 0.423567 0.079372
O O11 0.000000 0.434473 0.500000
O O12 0.012140 0.433839 0.790031
O O13 0.000000 0.364207 0.000000
#
# Coordination Sequence:
#
# PCOD9200195 Si02
#       5
#     8   8   8   8   8
#     4  12  24  44  73 101 127 177 230 284 348 417
#     4  10  22  43  70  97 141 181 224 287 346 404
#     4  10  22  41  66  96 139 191 233 270 333 414
#     4  10  20  36  67  97 138 178 222 281 340 390
#     4  10  21  40  68  96 138 178 221 283 338 399
#
# _framework density 25.962326000000001
#
# number of rings (size 3 to 8) (size 9 to 14) (size 15 to 20)
#    0.000    1.600    4.000    0.600    0.000    7.600 
#    0.000    3.000    0.000    0.000    0.000    0.000 
#    0.000    0.000    0.000    0.000    0.000    0.000 
#
# Total GULP energy -111464.079790 kJ/mol
# GULP energy per Si atom -5573.203989 kJ/mol
# Density = 2.590323 g / cm^3
# Si number density = 25.962326 Si / 1000 Ang^3
#
#
#
# Elastic Constant Matrix: (Units=GPa)
#
#
# Indices 1 2 3 4 5 6 
#
# 1 104.4403 36.5827 34.0965 0.0000 -16.7069 0.0000
# 2 36.5827 89.1917 21.8520 0.0000 -8.2640 0.0000
# 3 34.0965 21.8520 136.0358 0.0000 -10.3798 0.0000
# 4 0.0000 0.0000 0.0000 -1.5539 0.0000 -5.8053
# 5 -16.7069 -8.2640 -10.3798 0.0000 70.2456 0.0000
# 6 0.0000 0.0000 0.0000 -5.8053 0.0000 -65.1708
#
#
#
# Elastic Compliance Matrix: (Units=1/GPa)
#
#
# Indices 1 2 3 4 5 6 
#
# 1 0.012105 -0.004236 -0.002197 0.000000 0.002056 0.000000
# 2 -0.004236 0.013240 -0.001035 0.000000 0.000397 0.000000
# 3 -0.002197 -0.001035 0.008110 0.000000 0.000554 0.000000
# 4 0.000000 0.000000 0.000000 -0.964572 0.000000 0.085923
# 5 0.002056 0.000397 0.000554 0.000000 0.014853 0.000000
# 6 0.000000 0.000000 0.000000 0.085923 0.000000 -0.022998
#
#
# Mechanical properties :
#
#
# Convention : Reuss Voigt Hill
#
# Bulk Modulus (GPa) = 53.99723 57.19222 55.59472
# Shear Modulus (GPa) = -5.44571 16.51330 5.53380
#
# Velocity S-wave (km/s) = -1.44986 2.52474 1.46154
# Velocity P-wave (km/s) = 4.24743 5.52954 4.93034
#
# Compressibility (1/GPa) = 0.01851947
#
# Stress axis : x y z
#
# Youngs Moduli (GPa) = 82.61270 75.53107 123.30363
#
# Poissons Ratio (x) = 0.31996 0.27085
# Poissons Ratio (y) = 0.34996 0.12758
# Poissons Ratio (z) = 0.18147 0.07815
#
# Static dielectric constant tensor:
#      x y z
#    x 2.335610 0.000000 -0.201190 
#    y 0.000000 2.130800 0.000000 
#    z -0.201190 0.000000 2.239150 
# 
# From -- ./inp_files/39426.got.cif
#   From: 2010.05.17/outbox.cif.g08.bks.cpg/sg12_20_cif.got.tgz:39426.got - 2010.06.03 13:09:07.
