data_PCOD9200764
_publ_section_title
;
Structure prediction by ZEFSAII (Michael W. Deem and Ramdas Pophale) SiO2 
 PCOD9200764
Probable space group: C 2/M
;
_chemical_formula_sum "Si O2"
_cell_formula_units_Z 50
_cell_length_a 7.889077
_cell_length_b 20.272474
_cell_length_c 15.531712
_cell_angle_alpha 90.000000
_cell_angle_beta 103.348759
_cell_angle_gamma 90.000000
_cell_volume 2416.892953
_symmetry_space_group_name_H-M "C 2/M"
_symmetry_group_IT_number 12
_symmetry_cell_setting 'monoclinic'
loop_
_space_group_symop_operation_xyz
x,y,z
-x,y,-z
-x,-y,-z
x,-y,z
1/2+x,1/2+y,z
1/2-x,1/2+y,-z
1/2-x,1/2-y,-z
1/2+x,1/2-y,z
loop_
_atom_site_type_symbol
_atom_site_label
_atom_site_fract_x
_atom_site_fract_y
_atom_site_fract_z
Si Si1 0.945583 0.423561 0.263137
Si Si2 0.392846 0.281436 0.362843
Si Si3 0.000000 0.000000 0.500000
Si Si4 0.138037 0.684269 0.176438
Si Si5 0.609079 0.704357 0.935622
Si Si6 0.743172 0.854010 0.627052
Si Si7 0.265445 0.894304 0.560042
O O1 0.933421 0.500000 0.237185
O O2 0.770438 0.395013 0.286436
O O3 0.018466 0.374824 0.198300
O O4 0.079676 0.415503 0.359384
O O5 0.260967 0.290595 0.267839
O O6 0.399854 0.204510 0.384783
O O7 0.574325 0.316094 0.362012
O O8 0.302861 0.321059 0.429545
O O9 0.108322 0.942805 0.563758
O O10 0.272997 0.663637 0.117070
O O11 0.018559 0.745222 0.130457
O O12 0.500000 0.670724 0.000000
O O13 0.750000 0.750000 0.000000
O O14 0.708013 0.899062 0.539329
#
# Coordination Sequence:
#
# PCOD9200764 Si02
#       7
#     8   8   2   8   8   8   8
#     4  11  25  39  56  80 118 161 203 245 296 349
#     4  11  22  37  56  85 116 150 195 259 311 343
#     4  12  20  40  58  76 112 160 212 258 300 348
#     4  10  20  37  59  91 122 151 183 234 289 355
#     4   9  18  35  65  95 119 142 175 220 281 353
#     4  12  23  36  55  80 113 158 208 261 303 341
#     4  11  23  38  58  78 111 159 214 258 297 349
#
# _framework density 20.687718
#
# number of rings (size 3 to 8) (size 9 to 14) (size 15 to 20)
#    0.000    1.280    2.400    4.800    1.120    3.200 
#    0.000    0.000    0.000    4.800    0.000    0.000 
#    0.000    0.000    0.000    0.000    0.000    0.000 
#
# Total GULP energy -139367.664761 kJ/mol
# GULP energy per Si atom -5574.706590 kJ/mol
# Density = 2.064063 g / cm^3
# Si number density = 20.687718 Si / 1000 Ang^3
#
#
#
# Elastic Constant Matrix: (Units=GPa)
#
#
# Indices 1 2 3 4 5 6 
#
# 1 91.9131 6.1549 26.2653 0.0000 -13.9776 0.0000
# 2 6.1549 80.5855 12.0217 0.0000 -18.3196 0.0000
# 3 26.2653 12.0217 79.3674 0.0000 -22.3041 0.0000
# 4 0.0000 0.0000 0.0000 8.8826 0.0000 6.4556
# 5 -13.9776 -18.3196 -22.3041 0.0000 55.9122 0.0000
# 6 0.0000 0.0000 0.0000 6.4556 0.0000 -35.9335
#
#
#
# Elastic Compliance Matrix: (Units=1/GPa)
#
#
# Indices 1 2 3 4 5 6 
#
# 1 0.012144 -0.000031 -0.003563 0.000000 0.001604 0.000000
# 2 -0.000031 0.013465 -0.000891 0.000000 0.004048 0.000000
# 3 -0.003563 -0.000891 0.015296 0.000000 0.004919 0.000000
# 4 0.000000 0.000000 0.000000 0.099578 0.000000 0.017890
# 5 0.001604 0.004048 0.004919 0.000000 0.021575 0.000000
# 6 0.000000 0.000000 0.000000 0.017890 0.000000 -0.024615
#
#
# Mechanical properties :
#
#
# Convention : Reuss Voigt Hill
#
# Bulk Modulus (GPa) = 31.31552 37.86110 34.58831
# Shear Modulus (GPa) = 31.83508 19.60055 25.71781
#
# Velocity S-wave (km/s) = 3.92706 3.08140 3.52965
# Velocity P-wave (km/s) = 5.97767 5.56786 5.77640
#
# Compressibility (1/GPa) = 0.03193305
#
# Stress axis : x y z
#
# Youngs Moduli (GPa) = 82.34410 74.26739 65.37560
#
# Poissons Ratio (x) = 0.00232 0.23296
# Poissons Ratio (y) = 0.00258 0.05828
# Poissons Ratio (z) = 0.29342 0.06621
#
# Static dielectric constant tensor:
#      x y z
#    x 1.882310 0.000000 -0.049890 
#    y 0.000000 1.632890 0.000000 
#    z -0.049890 0.000000 1.767690 
# 
# From -- ./inp_files/197145.got.cif
#   From: 2010.05.17/outbox.cif.g08.bks.cpg/sg12_99_cif.got.tgz:197145.got - 2010.06.03 13:09:07.
