data_PCOD9200010
_publ_section_title
;
Structure prediction by ZEFSAII (Michael W. Deem and Ramdas Pophale) SiO2 
 PCOD9200010
Probable space group: C 2/M
;
_chemical_formula_sum "Si O2"
_cell_formula_units_Z 36
_cell_length_a 18.516667
_cell_length_b 13.424329
_cell_length_c 7.388790
_cell_angle_alpha 90.000000
_cell_angle_beta 116.827957
_cell_angle_gamma 90.000000
_cell_volume 1638.972252
_symmetry_space_group_name_H-M "C 2/M"
_symmetry_group_IT_number 12
_symmetry_cell_setting 'monoclinic'
loop_
_space_group_symop_operation_xyz
x,y,z
-x,y,-z
-x,-y,-z
x,-y,z
1/2+x,1/2+y,z
1/2-x,1/2+y,-z
1/2-x,1/2-y,-z
1/2+x,1/2-y,z
loop_
_atom_site_type_symbol
_atom_site_label
_atom_site_fract_x
_atom_site_fract_y
_atom_site_fract_z
Si Si1 0.180577 0.297822 0.684572
Si Si2 0.403295 0.000000 0.376964
Si Si3 0.500000 0.666308 0.000000
Si Si4 0.845342 0.710325 0.913846
Si Si5 0.096256 0.500000 0.057400
Si Si6 0.076869 0.892439 0.453840
O O1 0.138169 0.401764 0.586460
O O2 0.274393 0.276818 0.746197
O O3 0.131447 0.203283 0.554327
O O4 0.175462 0.299995 0.897878
O O5 0.500000 0.000000 0.500000
O O6 0.393818 0.000000 0.149152
O O7 0.569573 0.734643 0.995840
O O8 0.542079 0.609438 0.211784
O O9 0.859682 0.602728 0.838928
O O10 0.000000 0.500000 0.000000
O O11 0.000000 0.885872 0.500000
O O12 0.117770 0.000000 0.534440
#
# Coordination Sequence:
#
# PCOD9200010 Si02
#       6
#     8   4   4   8   4   8
#     4  10  22  43  65  98 132 176 223 276 342 394
#     4  10  22  38  68  95 128 172 218 279 331 402
#     4  12  23  43  66  98 132 173 228 279 328 402
#     4  10  22  39  66  98 136 171 227 280 326 405
#     4  10  20  36  62  98 129 174 218 272 329 387
#     4  11  24  43  67  96 130 175 217 272 337 407
#
# _framework density 21.964984999999999
#
# number of rings (size 3 to 8) (size 9 to 14) (size 15 to 20)
#    0.000    1.556    3.333    1.000    4.667    0.889 
#    6.000    0.000    0.000    0.000    0.000    0.000 
#    0.000    0.000    0.000    0.000    0.000    0.000 
#
# Total GULP energy -100527.109819 kJ/mol
# GULP energy per Si atom -5584.839434 kJ/mol
# Density = 2.191499 g / cm^3
# Si number density = 21.964985 Si / 1000 Ang^3
#
#
#
# Elastic Constant Matrix: (Units=GPa)
#
#
# Indices 1 2 3 4 5 6 
#
# 1 106.9564 63.9408 9.0676 0.0000 26.2737 0.0000
# 2 63.9408 206.1034 26.7799 0.0000 39.9136 0.0000
# 3 9.0676 26.7799 60.2426 0.0000 -2.3715 0.0000
# 4 0.0000 0.0000 0.0000 6.5623 0.0000 38.9300
# 5 26.2737 39.9136 -2.3715 0.0000 49.3997 0.0000
# 6 0.0000 0.0000 0.0000 38.9300 0.0000 -33.3304
#
#
#
# Elastic Compliance Matrix: (Units=1/GPa)
#
#
# Indices 1 2 3 4 5 6 
#
# 1 0.012151 -0.002867 -0.000719 0.000000 -0.004181 0.000000
# 2 -0.002867 0.006920 -0.002810 0.000000 -0.004201 0.000000
# 3 -0.000719 -0.002810 0.018096 0.000000 0.003522 0.000000
# 4 0.000000 0.000000 0.000000 0.019219 0.000000 0.022447
# 5 -0.004181 -0.004201 0.003522 0.000000 0.026031 0.000000
# 6 0.000000 0.000000 0.000000 0.022447 0.000000 -0.003784
#
#
# Mechanical properties :
#
#
# Convention : Reuss Voigt Hill
#
# Bulk Modulus (GPa) = 41.02553 63.65321 52.33937
# Shear Modulus (GPa) = 50.22622 22.76061 36.49341
#
# Velocity S-wave (km/s) = 4.78708 3.22253 4.08049
# Velocity P-wave (km/s) = 7.01948 6.54894 6.78829
#
# Compressibility (1/GPa) = 0.02437507
#
# Stress axis : x y z
#
# Youngs Moduli (GPa) = 82.29480 144.50765 55.26189
#
# Poissons Ratio (x) = 0.41425 0.03975
# Poissons Ratio (y) = 0.23591 0.15529
# Poissons Ratio (z) = 0.05919 0.40608
#
# Static dielectric constant tensor:
#      x y z
#    x 1.752980 0.000000 -0.022660 
#    y 0.000000 1.840460 0.000000 
#    z -0.022660 0.000000 1.876440 
# 
# From -- ./inp_files/83842.got.cif
#   From: 2010.05.17/outbox.cif.g08.bks.cpg/sg12_42_cif.got.tgz:83842.got - 2010.06.03 13:09:07.
