data_PCOD9200683
_publ_section_title
;
Structure prediction by ZEFSAII (Michael W. Deem and Ramdas Pophale) SiO2 
 PCOD9200683
Probable space group: C 2/M
;
_chemical_formula_sum "Si O2"
_cell_formula_units_Z 36
_cell_length_a 18.869710
_cell_length_b 9.819511
_cell_length_c 9.745548
_cell_angle_alpha 90.000000
_cell_angle_beta 101.945945
_cell_angle_gamma 90.000000
_cell_volume 1766.658610
_symmetry_space_group_name_H-M "C 2/M"
_symmetry_group_IT_number 12
_symmetry_cell_setting 'monoclinic'
loop_
_space_group_symop_operation_xyz
x,y,z
-x,y,-z
-x,-y,-z
x,-y,z
1/2+x,1/2+y,z
1/2-x,1/2+y,-z
1/2-x,1/2-y,-z
1/2+x,1/2-y,z
loop_
_atom_site_type_symbol
_atom_site_label
_atom_site_fract_x
_atom_site_fract_y
_atom_site_fract_z
Si Si1 0.376084 0.665328 0.430526
Si Si2 0.339490 0.852241 0.957642
Si Si3 0.500000 0.772706 0.000000
Si Si4 0.265773 0.159133 0.225735
Si Si5 0.015969 0.840081 0.304535
O O1 0.363221 0.500000 0.420614
O O2 0.307133 0.751983 0.356070
O O3 0.411382 0.709886 0.589914
O O4 0.441956 0.701750 0.351785
O O5 0.307888 0.732627 0.850906
O O6 0.310409 0.000000 0.900261
O O7 0.425588 0.852568 0.988160
O O8 0.313063 0.833355 0.103694
O O9 0.510291 0.689110 0.143192
O O10 0.256733 0.000000 0.258628
O O11 0.018743 0.000000 0.329402
#
# Coordination Sequence:
#
# PCOD9200683 Si02
#       5
#     8   8   4   8   8
#     4   9  17  36  58  82 114 153 190 229 280 338
#     4  10  22  37  56  84 118 153 185 231 291 340
#     4  12  20  36  58  88 117 146 187 238 285 334
#     4  10  20  37  59  85 112 149 197 237 273 334
#     4   9  19  32  55  86 118 150 187 231 283 337
#
# _framework density 20.377452000000002
#
# number of rings (size 3 to 8) (size 9 to 14) (size 15 to 20)
#    0.000    2.222    2.222    2.667    0.000    2.667 
#    0.000    5.556    0.000    0.000    0.000    0.000 
#    0.000    0.000    0.000    0.000    0.000    0.000 
#
# Total GULP energy -100367.042134 kJ/mol
# GULP energy per Si atom -5575.946785 kJ/mol
# Density = 2.033107 g / cm^3
# Si number density = 20.377452 Si / 1000 Ang^3
#
#
#
# Elastic Constant Matrix: (Units=GPa)
#
#
# Indices 1 2 3 4 5 6 
#
# 1 83.6295 34.1550 24.5538 0.0000 23.2213 0.0000
# 2 34.1550 91.5576 36.3452 0.0000 34.8706 0.0000
# 3 24.5538 36.3452 114.4915 0.0000 26.9022 0.0000
# 4 0.0000 0.0000 0.0000 34.7540 0.0000 3.4842
# 5 23.2213 34.8706 26.9022 0.0000 37.9877 0.0000
# 6 0.0000 0.0000 0.0000 3.4842 0.0000 29.9884
#
#
#
# Elastic Compliance Matrix: (Units=1/GPa)
#
#
# Indices 1 2 3 4 5 6 
#
# 1 0.015076 -0.003073 -0.000906 0.000000 -0.005753 0.000000
# 2 -0.003073 0.017830 -0.001915 0.000000 -0.013132 0.000000
# 3 -0.000906 -0.001915 0.010789 0.000000 -0.005328 0.000000
# 4 0.000000 0.000000 0.000000 0.029113 0.000000 -0.003383
# 5 -0.005753 -0.013132 -0.005328 0.000000 0.045669 0.000000
# 6 0.000000 0.000000 0.000000 -0.003383 0.000000 0.033739
#
#
# Mechanical properties :
#
#
# Convention : Reuss Voigt Hill
#
# Bulk Modulus (GPa) = 31.34203 53.30963 42.32583
# Shear Modulus (GPa) = 28.63019 33.52099 31.07559
#
# Velocity S-wave (km/s) = 3.75239 4.06026 3.90936
# Velocity P-wave (km/s) = 5.84705 6.94254 6.41821
#
# Compressibility (1/GPa) = 0.03190604
#
# Stress axis : x y z
#
# Youngs Moduli (GPa) = 66.33014 56.08380 92.69059
#
# Poissons Ratio (x) = 0.17236 0.08395
# Poissons Ratio (y) = 0.20385 0.17755
# Poissons Ratio (z) = 0.06008 0.10743
#
# Static dielectric constant tensor:
#      x y z
#    x 1.773520 0.000000 -0.033100 
#    y 0.000000 1.719490 0.000000 
#    z -0.033100 0.000000 1.749710 
# 
# From -- ./inp_files/70955.got.cif
#   From: 2010.05.17/outbox.cif.g08.bks.cpg/sg12_36_cif.got.tgz:70955.got - 2010.06.03 13:09:07.
