data_PCOD9200565
_publ_section_title
;
Structure prediction by ZEFSAII (Michael W. Deem and Ramdas Pophale) SiO2 
 PCOD9200565
Probable space group: C 2/M
;
_chemical_formula_sum "Si O2"
_cell_formula_units_Z 48
_cell_length_a 33.957912
_cell_length_b 7.831025
_cell_length_c 9.719243
_cell_angle_alpha 90.000000
_cell_angle_beta 96.855907
_cell_angle_gamma 90.000000
_cell_volume 2566.111078
_symmetry_space_group_name_H-M "C 2/M"
_symmetry_group_IT_number 12
_symmetry_cell_setting 'monoclinic'
loop_
_space_group_symop_operation_xyz
x,y,z
-x,y,-z
-x,-y,-z
x,-y,z
1/2+x,1/2+y,z
1/2-x,1/2+y,-z
1/2-x,1/2-y,-z
1/2+x,1/2-y,z
loop_
_atom_site_type_symbol
_atom_site_label
_atom_site_fract_x
_atom_site_fract_y
_atom_site_fract_z
Si Si1 0.661078 0.191535 0.259021
Si Si2 0.633626 0.298349 0.795830
Si Si3 0.463215 0.500000 0.885142
Si Si4 0.957909 0.000000 0.562389
Si Si5 0.205695 0.704984 0.024270
Si Si6 0.608087 0.202231 0.489061
Si Si7 0.414584 0.815750 0.971681
O O1 0.639600 0.264078 0.385339
O O2 0.625282 0.177324 0.134961
O O3 0.674567 0.000000 0.304606
O O4 0.694370 0.272773 0.173422
O O5 0.628195 0.500000 0.777022
O O6 0.674436 0.267745 0.896249
O O7 0.629367 0.213774 0.645614
O O8 0.599120 0.227098 0.880354
O O9 0.470237 0.500000 0.726943
O O10 0.439168 0.667222 0.915250
O O11 0.500000 0.500000 0.000000
O O12 0.929635 0.167824 0.525584
O O13 0.000000 0.000000 0.500000
O O14 0.201547 0.500000 0.029273
O O15 0.250000 0.750000 0.000000
O O16 0.598155 0.000000 0.456112
O O17 0.434508 0.000000 0.974254
#
# Coordination Sequence:
#
# PCOD9200565 Si02
#       7
#     8   8   4   4   8   8   8
#     4   8  17  35  62  84 111 157 207 249 295 364
#     4  11  21  36  63  93 121 160 210 260 306 368
#     4  12  26  40  62  90 124 158 206 258 322 374
#     4  12  28  44  62  92 132 162 206 270 324 372
#     4  10  20  37  58  92 129 162 202 255 314 366
#     4  11  22  42  66  89 120 166 214 256 310 378
#     4  10  20  39  61  85 115 157 207 256 301 368
#
# _framework density 18.705348000000001
#
# number of rings (size 3 to 8) (size 9 to 14) (size 15 to 20)
#    0.000    1.667    3.333    3.000    2.333    0.667 
#    1.500    0.833    0.000    0.000    0.000    0.000 
#    0.000    0.000    0.000    0.000    0.000    0.000 
#
# Total GULP energy -133734.364045 kJ/mol
# GULP energy per Si atom -5572.265169 kJ/mol
# Density = 1.866277 g / cm^3
# Si number density = 18.705348 Si / 1000 Ang^3
#
#
#
# Elastic Constant Matrix: (Units=GPa)
#
#
# Indices 1 2 3 4 5 6 
#
# 1 100.8053 37.7582 58.6787 0.0000 -32.2741 0.0000
# 2 37.7582 113.3000 20.5441 0.0000 -14.0861 0.0000
# 3 58.6787 20.5441 152.2505 0.0000 -32.0613 0.0000
# 4 0.0000 0.0000 0.0000 36.4804 0.0000 -21.2095
# 5 -32.2741 -14.0861 -32.0613 0.0000 33.5647 0.0000
# 6 0.0000 0.0000 0.0000 -21.2095 0.0000 28.8115
#
#
#
# Elastic Compliance Matrix: (Units=1/GPa)
#
#
# Indices 1 2 3 4 5 6 
#
# 1 0.017058 -0.003602 -0.003696 0.000000 0.011360 0.000000
# 2 -0.003602 0.010109 0.000236 0.000000 0.001004 0.000000
# 3 -0.003696 0.000236 0.009055 0.000000 0.005194 0.000000
# 4 0.000000 0.000000 0.000000 0.047922 0.000000 0.035278
# 5 0.011360 0.001004 0.005194 0.000000 0.046099 0.000000
# 6 0.000000 0.000000 0.000000 0.035278 0.000000 0.060678
#
#
# Mechanical properties :
#
#
# Convention : Reuss Voigt Hill
#
# Bulk Modulus (GPa) = 45.25724 66.70196 55.97960
# Shear Modulus (GPa) = 23.53935 36.39631 29.96783
#
# Velocity S-wave (km/s) = 3.55128 4.41587 4.00697
# Velocity P-wave (km/s) = 6.40803 7.85727 7.16936
#
# Compressibility (1/GPa) = 0.02209591
#
# Stress axis : x y z
#
# Youngs Moduli (GPa) = 58.62447 98.92531 110.44157
#
# Poissons Ratio (x) = 0.35635 0.40819
# Poissons Ratio (y) = 0.21117 -0.02603
# Poissons Ratio (z) = 0.21668 -0.02331
#
# Static dielectric constant tensor:
#      x y z
#    x 1.618470 0.000000 -0.058100 
#    y 0.000000 1.676770 0.000000 
#    z -0.058100 0.000000 1.650570 
# 
# From -- ./inp_files/108832.got.cif
#   From: 2010.05.17/outbox.cif.g08.bks.cpg/sg12_55_cif.got.tgz:108832.got - 2010.06.03 13:09:07.
