data_PCOD9200850
_publ_section_title
;
Structure prediction by ZEFSAII (Michael W. Deem and Ramdas Pophale) SiO2 
 PCOD9200850
Probable space group: C 2/M
;
_chemical_formula_sum "Si O2"
_cell_formula_units_Z 56
_cell_length_a 20.726363
_cell_length_b 8.775638
_cell_length_c 18.016879
_cell_angle_alpha 90.000000
_cell_angle_beta 63.282471
_cell_angle_gamma 90.000000
_cell_volume 2927.160598
_symmetry_space_group_name_H-M "C 2/M"
_symmetry_group_IT_number 12
_symmetry_cell_setting 'monoclinic'
loop_
_space_group_symop_operation_xyz
x,y,z
-x,y,-z
-x,-y,-z
x,-y,z
1/2+x,1/2+y,z
1/2-x,1/2+y,-z
1/2-x,1/2-y,-z
1/2+x,1/2-y,z
loop_
_atom_site_type_symbol
_atom_site_label
_atom_site_fract_x
_atom_site_fract_y
_atom_site_fract_z
Si Si1 0.326510 0.682623 0.935974
Si Si2 0.582412 0.683670 0.968596
Si Si3 0.326491 0.316345 0.659086
Si Si4 0.673820 0.317199 0.512361
Si Si5 0.904602 0.682133 0.755963
Si Si6 0.162570 0.316409 0.786277
Si Si7 0.070823 0.683887 0.689347
O O1 0.321899 0.500000 0.935530
O O2 0.351595 0.745385 0.844014
O O3 0.250000 0.750000 0.000000
O O4 0.385190 0.727016 0.968346
O O5 0.582853 0.500000 0.964137
O O6 0.632849 0.747122 0.877434
O O7 0.500000 0.736697 0.000000
O O8 0.331977 0.500000 0.662088
O O9 0.338193 0.273964 0.567298
O O10 0.381724 0.240060 0.686992
O O11 0.244875 0.272870 0.725146
O O12 0.677325 0.500000 0.514236
O O13 0.750000 0.250000 0.500000
O O14 0.612306 0.255591 0.598469
O O15 0.899172 0.500000 0.762242
O O16 0.986852 0.726670 0.732315
O O17 0.160261 0.500000 0.792801
O O18 0.111371 0.269824 0.744068
O O19 0.076001 0.500000 0.681404
#
# Coordination Sequence:
#
# PCOD9200850 Si02
#       7
#     8   8   8   8   8   8   8
#     4  11  23  40  62  86 119 159 201 247 299 361
#     4  10  22  38  56  83 116 148 190 244 295 346
#     4  10  22  40  61  86 120 156 195 244 296 357
#     4  11  22  39  64  92 121 157 199 246 299 356
#     4  11  24  40  61  89 122 159 200 249 302 355
#     4  10  20  37  60  84 113 152 196 241 291 349
#     4  10  22  41  61  87 124 160 199 247 300 358
#
# _framework density 19.131167999999999
#
# number of rings (size 3 to 8) (size 9 to 14) (size 15 to 20)
#    0.000    1.571    1.429    3.000    0.000    7.714 
#    0.000    2.857    0.000    0.000    0.000    0.000 
#    0.000    0.000    0.000    0.000    0.000    0.000 
#
# Total GULP energy -156550.174846 kJ/mol
# GULP energy per Si atom -5591.077673 kJ/mol
# Density = 1.908762 g / cm^3
# Si number density = 19.131168 Si / 1000 Ang^3
#
#
#
# Elastic Constant Matrix: (Units=GPa)
#
#
# Indices 1 2 3 4 5 6 
#
# 1 71.7097 16.6395 -9.3135 0.0000 9.2393 0.0000
# 2 16.6395 16.0809 12.9962 0.0000 3.2097 -0.0001
# 3 -9.3135 12.9962 77.9486 0.0000 10.5959 0.0000
# 4 0.0000 0.0000 0.0000 38.7905 0.0000 0.8366
# 5 9.2393 3.2097 10.5959 0.0000 35.7524 0.0000
# 6 0.0000 -0.0001 0.0000 0.8366 0.0000 29.7276
#
#
#
# Elastic Compliance Matrix: (Units=1/GPa)
#
#
# Indices 1 2 3 4 5 6 
#
# 1 0.022403 -0.028705 0.008231 0.000000 -0.005652 0.000000
# 2 -0.028705 0.108965 -0.022169 0.000000 0.004206 0.000000
# 3 0.008231 -0.022169 0.018263 0.000000 -0.005549 0.000000
# 4 0.000000 0.000000 0.000000 0.025795 0.000000 -0.000726
# 5 -0.005652 0.004206 -0.005549 0.000000 0.030698 0.000000
# 6 0.000000 0.000000 0.000000 -0.000726 0.000000 0.033659
#
#
# Mechanical properties :
#
#
# Convention : Reuss Voigt Hill
#
# Bulk Modulus (GPa) = 15.54140 22.93153 19.23646
# Shear Modulus (GPa) = 14.42926 30.54856 22.48891
#
# Velocity S-wave (km/s) = 2.74930 4.00033 3.43229
# Velocity P-wave (km/s) = 4.26842 5.77489 5.07783
#
# Compressibility (1/GPa) = 0.06434427
#
# Stress axis : x y z
#
# Youngs Moduli (GPa) = 44.63653 9.17727 54.75548
#
# Poissons Ratio (x) = 0.26344 -0.45070
# Poissons Ratio (y) = 1.28131 1.21388
# Poissons Ratio (z) = -0.36741 0.20345
#
# Static dielectric constant tensor:
#      x y z
#    x 1.661990 0.000000 0.006050 
#    y 0.000000 1.644910 0.000000 
#    z 0.006050 0.000000 1.622110 
# 
# From -- ./inp_files/280953.got.cif
#   From: 2010.05.17/outbox.cif.g08.bks.cpg/sg12_141_cif.got.tgz:280953.got - 2010.06.03 13:09:07.
