data_PCOD9200358
_publ_section_title
;
Structure prediction by ZEFSAII (Michael W. Deem and Ramdas Pophale) SiO2 
 PCOD9200358
Probable space group: C 2/M
;
_chemical_formula_sum "Si O2"
_cell_formula_units_Z 58
_cell_length_a 20.193180
_cell_length_b 31.547654
_cell_length_c 4.982668
_cell_angle_alpha 90.000000
_cell_angle_beta 77.461646
_cell_angle_gamma 90.000000
_cell_volume 3098.494265
_symmetry_space_group_name_H-M "C 2/M"
_symmetry_group_IT_number 12
_symmetry_cell_setting 'monoclinic'
loop_
_space_group_symop_operation_xyz
x,y,z
-x,y,-z
-x,-y,-z
x,-y,z
1/2+x,1/2+y,z
1/2-x,1/2+y,-z
1/2-x,1/2-y,-z
1/2+x,1/2-y,z
loop_
_atom_site_type_symbol
_atom_site_label
_atom_site_fract_x
_atom_site_fract_y
_atom_site_fract_z
Si Si1 0.923287 0.257872 0.096840
Si Si2 0.500000 0.000000 0.500000
Si Si3 0.781769 0.547796 0.328104
Si Si4 0.380834 0.851177 0.114632
Si Si5 0.662897 0.260346 0.315934
Si Si6 0.754276 0.318416 0.579971
Si Si7 0.067208 0.562637 0.777402
Si Si8 0.273825 0.104192 0.861580
O O1 0.918636 0.307636 0.019927
O O2 0.895929 0.252568 0.421557
O O3 0.870807 0.234865 0.943060
O O4 0.000000 0.243095 0.000000
O O5 0.556359 0.037598 0.513012
O O6 0.755921 0.500000 0.358591
O O7 0.861097 0.547236 0.171360
O O8 0.781743 0.570772 0.614941
O O9 0.747298 0.578722 0.142432
O O10 0.317493 0.837784 0.357361
O O11 0.426561 0.886674 0.219392
O O12 0.344822 0.873612 0.892127
O O13 0.701533 0.299806 0.413497
O O14 0.716117 0.221145 0.276325
O O15 0.730322 0.356376 0.790607
O O16 0.000000 0.548573 0.000000
#
# Coordination Sequence:
#
# PCOD9200358 Si02
#       8
#     8   2   8   8   8   8   8   8
#     4  11  22  39  53  79 110 145 177 214 274 337
#     4  12  26  36  52  62 100 136 194 236 292 316
#     4  11  24  37  51  70  97 135 178 231 275 328
#     4  10  22  37  52  75 101 133 182 237 281 318
#     4  10  23  34  59  79 111 137 175 231 277 327
#     4  10  20  37  57  83 103 134 182 233 288 321
#     4  11  24  35  46  68  90 134 177 239 274 325
#     4  11  20  36  56  74  99 128 178 228 278 323
#
# _framework density 18.718771
#
# number of rings (size 3 to 8) (size 9 to 14) (size 15 to 20)
#    0.000    1.379    4.828    1.448    5.793    1.655 
#    4.966    0.000    0.000    0.000    0.000    0.000 
#    0.000    0.000    0.000    0.000    0.000   48.276 
#
# Total GULP energy -161680.121313 kJ/mol
# GULP energy per Si atom -5575.176597 kJ/mol
# Density = 1.867617 g / cm^3
# Si number density = 18.718771 Si / 1000 Ang^3
#
#
#
# Elastic Constant Matrix: (Units=GPa)
#
#
# Indices 1 2 3 4 5 6 
#
# 1 43.6547 22.3280 2.9867 0.0000 5.9966 0.0000
# 2 22.3280 98.5864 17.0671 0.0000 16.1268 0.0000
# 3 2.9867 17.0671 73.4704 0.0000 8.9307 0.0000
# 4 0.0000 0.0000 0.0000 36.7741 0.0000 13.0901
# 5 5.9966 16.1268 8.9307 0.0000 22.2533 0.0000
# 6 0.0000 0.0000 0.0000 13.0901 0.0000 29.8470
#
#
#
# Elastic Compliance Matrix: (Units=1/GPa)
#
#
# Indices 1 2 3 4 5 6 
#
# 1 0.026123 -0.005481 0.000614 0.000000 -0.003314 0.000000
# 2 -0.005481 0.012874 -0.001906 0.000000 -0.007088 0.000000
# 3 0.000614 -0.001906 0.014593 0.000000 -0.004640 0.000000
# 4 0.000000 0.000000 0.000000 0.032224 0.000000 -0.014132
# 5 -0.003314 -0.007088 -0.004640 0.000000 0.052829 0.000000
# 6 0.000000 0.000000 0.000000 -0.014132 0.000000 0.039702
#
#
# Mechanical properties :
#
#
# Convention : Reuss Voigt Hill
#
# Bulk Modulus (GPa) = 24.97216 33.38612 29.17914
# Shear Modulus (GPa) = 24.36179 29.33017 26.84598
#
# Velocity S-wave (km/s) = 3.61149 3.96268 3.79116
# Velocity P-wave (km/s) = 5.54619 6.22989 5.89795
#
# Compressibility (1/GPa) = 0.04004460
#
# Stress axis : x y z
#
# Youngs Moduli (GPa) = 38.27981 77.67532 68.52665
#
# Poissons Ratio (x) = 0.42571 -0.04208
# Poissons Ratio (y) = 0.20980 0.13063
# Poissons Ratio (z) = -0.02350 0.14807
#
# Static dielectric constant tensor:
#      x y z
#    x 1.635280 0.000000 0.016370 
#    y 0.000000 1.710300 0.000000 
#    z 0.016370 0.000000 1.779490 
# 
# From -- ./inp_files/18129.got.cif
#   From: 2010.05.17/outbox.cif.g08.bks.cpg/sg12_10_cif.got.tgz:18129.got - 2010.06.03 13:09:07.
