data_PCOD9200343
_publ_section_title
;
Structure prediction by ZEFSAII (Michael W. Deem and Ramdas Pophale) SiO2 
 PCOD9200343
Probable space group: C 2/M
;
_chemical_formula_sum "Si O2"
_cell_formula_units_Z 60
_cell_length_a 23.092423
_cell_length_b 12.955998
_cell_length_c 19.057943
_cell_angle_alpha 90.000000
_cell_angle_beta 148.357121
_cell_angle_gamma 90.000000
_cell_volume 2991.326863
_symmetry_space_group_name_H-M "C 2/M"
_symmetry_group_IT_number 12
_symmetry_cell_setting 'monoclinic'
loop_
_space_group_symop_operation_xyz
x,y,z
-x,y,-z
-x,-y,-z
x,-y,z
1/2+x,1/2+y,z
1/2-x,1/2+y,-z
1/2-x,1/2-y,-z
1/2+x,1/2-y,z
loop_
_atom_site_type_symbol
_atom_site_label
_atom_site_fract_x
_atom_site_fract_y
_atom_site_fract_z
Si Si1 0.819019 0.205107 0.006233
Si Si2 0.428072 0.316340 0.365506
Si Si3 0.987879 0.619377 0.130709
Si Si4 0.500000 0.766315 0.000000
Si Si5 0.738084 0.688047 0.204543
Si Si6 0.586398 0.115286 0.503387
Si Si7 0.637761 0.803359 0.407196
Si Si8 0.981628 0.109878 0.272312
O O1 0.890600 0.302866 0.053627
O O2 0.896204 0.119839 0.120917
O O3 0.750000 0.250000 0.000000
O O4 0.761375 0.158709 0.877592
O O5 0.500000 0.369199 0.500000
O O6 0.306883 0.295247 0.270782
O O7 0.495122 0.206562 0.420812
O O8 0.424023 0.374390 0.288044
O O9 0.954722 0.500000 0.093157
O O10 0.023596 0.662822 0.091960
O O11 0.083235 0.633891 0.287217
O O12 0.388163 0.701253 0.900689
O O13 0.815055 0.625645 0.337849
O O14 0.638638 0.132824 0.480250
O O15 0.538019 0.000000 0.457593
O O16 0.750000 0.750000 0.500000
O O17 0.559872 0.706373 0.343369
O O18 0.039837 0.000000 0.331044
#
# Coordination Sequence:
#
# PCOD9200343 Si02
#       8
#     8   8   8   4   8   8   8   8
#     4  10  20  37  57  81 118 152 187 241 294 344
#     4   9  19  36  57  80 114 148 187 242 294 340
#     4  10  21  37  60  86 115 151 198 242 288 350
#     4  10  21  38  57  84 120 158 195 240 297 348
#     4  10  20  37  58  80 119 158 190 237 295 349
#     4  10  21  37  60  88 115 149 197 245 294 353
#     4  10  21  39  58  81 118 156 189 240 297 345
#     4  10  21  36  55  82 111 146 192 237 286 348
#
# _framework density 20.057988999999999
#
# number of rings (size 3 to 8) (size 9 to 14) (size 15 to 20)
#    0.000    2.133    1.333    1.400    0.000    4.800 
#    0.000    1.000    0.000    3.200    0.000    0.000 
#    0.000    0.000    0.000    0.000    0.000    0.000 
#
# Total GULP energy -167175.066833 kJ/mol
# GULP energy per Si atom -5572.502228 kJ/mol
# Density = 2.001234 g / cm^3
# Si number density = 20.057989 Si / 1000 Ang^3
#
#
#
# Elastic Constant Matrix: (Units=GPa)
#
#
# Indices 1 2 3 4 5 6 
#
# 1 118.2144 11.6127 34.0434 0.0000 -20.6149 0.0000
# 2 11.6127 84.9931 4.9085 0.0000 -12.8360 0.0000
# 3 34.0434 4.9085 92.1378 0.0000 -22.5980 0.0000
# 4 0.0000 0.0000 0.0000 6.3553 0.0000 -4.2025
# 5 -20.6149 -12.8360 -22.5980 0.0000 48.2447 0.0000
# 6 0.0000 0.0000 0.0000 -4.2025 0.0000 -6.9537
#
#
#
# Elastic Compliance Matrix: (Units=1/GPa)
#
#
# Indices 1 2 3 4 5 6 
#
# 1 0.009842 -0.000779 -0.002954 0.000000 0.002615 0.000000
# 2 -0.000779 0.012322 0.000400 0.000000 0.003133 0.000000
# 3 -0.002954 0.000400 0.013151 0.000000 0.005004 0.000000
# 4 0.000000 0.000000 0.000000 0.112422 0.000000 -0.067943
# 5 0.002615 0.003133 0.005004 0.000000 0.025022 0.000000
# 6 0.000000 0.000000 0.000000 -0.067943 0.000000 -0.102746
#
#
# Mechanical properties :
#
#
# Convention : Reuss Voigt Hill
#
# Bulk Modulus (GPa) = 34.90555 44.05272 39.47914
# Shear Modulus (GPa) = 57.98512 25.84796 41.91654
#
# Velocity S-wave (km/s) = 5.38252 3.59369 4.57636
# Velocity P-wave (km/s) = 7.48791 6.26337 6.90285
#
# Compressibility (1/GPa) = 0.02864874
#
# Stress axis : x y z
#
# Youngs Moduli (GPa) = 101.60169 81.15462 76.04159
#
# Poissons Ratio (x) = 0.06324 0.22461
# Poissons Ratio (y) = 0.07918 -0.03040
# Poissons Ratio (z) = 0.30011 -0.03245
#
# Static dielectric constant tensor:
#      x y z
#    x 1.740340 0.000000 -0.026120 
#    y 0.000000 1.687210 0.000000 
#    z -0.026120 0.000000 1.655240 
# 
# From -- ./inp_files/325290.got.cif
#   From: 2010.05.17/outbox.cif.g08.bks.cpg/sg12_163_cif.got.tgz:325290.got - 2010.06.03 13:09:07.
