data_PCOD9200761
_publ_section_title
;
Structure prediction by ZEFSAII (Michael W. Deem and Ramdas Pophale) SiO2 
 PCOD9200761
Probable space group: C 2/M
;
_chemical_formula_sum "Si O2"
_cell_formula_units_Z 34
_cell_length_a 13.845353
_cell_length_b 24.267140
_cell_length_c 5.058399
_cell_angle_alpha 90.000000
_cell_angle_beta 109.504369
_cell_angle_gamma 90.000000
_cell_volume 1602.029595
_symmetry_space_group_name_H-M "C 2/M"
_symmetry_group_IT_number 12
_symmetry_cell_setting 'monoclinic'
loop_
_space_group_symop_operation_xyz
x,y,z
-x,y,-z
-x,-y,-z
x,-y,z
1/2+x,1/2+y,z
1/2-x,1/2+y,-z
1/2-x,1/2-y,-z
1/2+x,1/2-y,z
loop_
_atom_site_type_symbol
_atom_site_label
_atom_site_fract_x
_atom_site_fract_y
_atom_site_fract_z
Si Si1 0.000000 0.151088 0.000000
Si Si2 0.275261 0.385850 0.781842
Si Si3 0.500000 0.000000 0.000000
Si Si4 0.842310 0.500000 0.358184
Si Si5 0.083986 0.250308 0.752153
Si Si6 0.275384 0.814404 0.754793
O O1 0.102364 0.117190 0.155175
O O2 0.968649 0.193943 0.199467
O O3 0.227702 0.445612 0.713105
O O4 0.222955 0.345400 0.519643
O O5 0.252568 0.359640 0.047241
O O6 0.408908 0.000000 0.687144
O O7 0.586037 0.000000 0.836236
O O8 0.184318 0.230824 0.683062
O O9 0.000000 0.280912 0.500000
O O10 0.124408 0.284061 0.040866
#
# Coordination Sequence:
#
# PCOD9200761 Si02
#       6
#     4   8   2   4   8   8
#     4  10  22  37  67  94 146 163 219 256 360 386
#     4  11  23  43  64 101 128 179 214 287 318 412
#     4  10  24  50  70  92 116 182 210 290 324 378
#     4  11  24  47  76  92 136 165 232 273 341 376
#     4  10  20  37  59  89 133 185 210 275 319 401
#     4  10  23  37  61  91 135 169 231 258 332 384
#
# _framework density 21.223077
#
# number of rings (size 3 to 8) (size 9 to 14) (size 15 to 20)
#    0.000    1.647    2.353    1.412    3.294    3.294 
#    8.471    1.176    0.000    5.647    0.000    0.000 
#    0.000    0.000    0.000    0.000    0.000    0.000 
#
# Total GULP energy -94819.599540 kJ/mol
# GULP energy per Si atom -5577.623502 kJ/mol
# Density = 2.117477 g / cm^3
# Si number density = 21.223077 Si / 1000 Ang^3
#
#
#
# Elastic Constant Matrix: (Units=GPa)
#
#
# Indices 1 2 3 4 5 6 
#
# 1 114.4180 58.7304 55.4020 0.0000 27.0518 0.0000
# 2 58.7304 130.9425 46.3987 0.0000 21.7973 0.0000
# 3 55.4020 46.3987 134.1070 0.0000 21.9993 0.0000
# 4 0.0000 0.0000 0.0000 2.2647 0.0000 -10.5666
# 5 27.0518 21.7973 21.9993 0.0000 53.7688 0.0000
# 6 0.0000 0.0000 0.0000 -10.5666 0.0000 -5.9472
#
#
#
# Elastic Compliance Matrix: (Units=1/GPa)
#
#
# Indices 1 2 3 4 5 6 
#
# 1 0.013446 -0.004181 -0.003512 0.000000 -0.003633 0.000000
# 2 -0.004181 0.010319 -0.001610 0.000000 -0.001421 0.000000
# 3 -0.003512 -0.001610 0.009720 0.000000 -0.001557 0.000000
# 4 0.000000 0.000000 0.000000 0.047531 0.000000 -0.084450
# 5 -0.003633 -0.001421 -0.001557 0.000000 0.021639 0.000000
# 6 0.000000 0.000000 0.000000 -0.084450 0.000000 -0.018100
#
#
# Mechanical properties :
#
#
# Convention : Reuss Voigt Hill
#
# Bulk Modulus (GPa) = 67.21098 77.83662 72.52380
# Shear Modulus (GPa) = 46.24441 24.61302 35.42871
#
# Velocity S-wave (km/s) = 4.67301 3.40917 4.09020
# Velocity P-wave (km/s) = 7.80087 7.22853 7.52015
#
# Compressibility (1/GPa) = 0.01487852
#
# Stress axis : x y z
#
# Youngs Moduli (GPa) = 74.37368 96.90507 102.88023
#
# Poissons Ratio (x) = 0.40521 0.36132
# Poissons Ratio (y) = 0.31099 0.16561
# Poissons Ratio (z) = 0.26120 0.15600
#
# Static dielectric constant tensor:
#      x y z
#    x 1.815060 0.000000 -0.007070 
#    y 0.000000 1.737150 0.000000 
#    z -0.007070 0.000000 1.791250 
# 
# From -- ./inp_files/11483.got.cif
#   From: 2010.05.17/outbox.cif.g08.bks.cpg/sg12_6_cif.got.tgz:11483.got - 2010.06.03 13:09:07.
