data_PCOD9200855
_publ_section_title
;
Structure prediction by ZEFSAII (Michael W. Deem and Ramdas Pophale) SiO2 
 PCOD9200855
Probable space group: C 2/M
;
_chemical_formula_sum "Si O2"
_cell_formula_units_Z 64
_cell_length_a 31.195612
_cell_length_b 8.727685
_cell_length_c 16.416039
_cell_angle_alpha 90.000000
_cell_angle_beta 134.695366
_cell_angle_gamma 90.000000
_cell_volume 3177.187188
_symmetry_space_group_name_H-M "C 2/M"
_symmetry_group_IT_number 12
_symmetry_cell_setting 'monoclinic'
loop_
_space_group_symop_operation_xyz
x,y,z
-x,y,-z
-x,-y,-z
x,-y,z
1/2+x,1/2+y,z
1/2-x,1/2+y,-z
1/2-x,1/2-y,-z
1/2+x,1/2-y,z
loop_
_atom_site_type_symbol
_atom_site_label
_atom_site_fract_x
_atom_site_fract_y
_atom_site_fract_z
Si Si1 0.434873 0.684689 0.376288
Si Si2 0.911090 0.184326 0.156219
Si Si3 0.721111 0.183293 0.044653
Si Si4 0.011899 0.179866 0.890706
Si Si5 0.415490 0.175138 0.878021
Si Si6 0.315490 0.173017 0.487365
Si Si7 0.815332 0.683873 0.298853
Si Si8 0.325323 0.668465 0.660609
O O1 0.500000 0.728548 0.500000
O O2 0.429001 0.500000 0.377232
O O3 0.428506 0.721433 0.272103
O O4 0.378738 0.763681 0.345591
O O5 0.965309 0.225378 0.167666
O O6 0.902597 0.000000 0.139028
O O7 0.848314 0.262393 0.046767
O O8 0.761108 0.243543 0.173702
O O9 0.724116 0.000000 0.046401
O O10 0.750000 0.250000 0.000000
O O11 0.959367 0.278246 0.861962
O O12 0.996969 0.000000 0.872369
O O13 0.067732 0.213670 0.025887
O O14 0.349940 0.207443 0.756162
O O15 0.424613 0.000000 0.914008
O O16 0.316192 0.227486 0.395415
O O17 0.342684 0.283218 0.592215
O O18 0.245930 0.160905 0.421949
O O19 0.341450 0.000000 0.526298
O O20 0.809068 0.500000 0.286495
O O21 0.350425 0.500000 0.712960
#
# Coordination Sequence:
#
# PCOD9200855 Si02
#       8
#     8   8   8   8   8   8   8   8
#     4  10  22  41  63  88 120 159 201 248 299 358
#     4  10  22  40  62  89 122 158 200 252 304 359
#     4  12  24  39  62  91 124 161 201 249 304 359
#     4  10  21  38  59  84 115 155 201 244 298 357
#     4  11  22  37  57  84 119 155 196 247 298 347
#     4   9  21  39  58  85 119 152 192 244 294 348
#     4  11  23  40  62  91 123 159 201 248 305 358
#     4  10  20  37  60  84 114 156 198 239 294 353
#
# _framework density 20.143604
#
# number of rings (size 3 to 8) (size 9 to 14) (size 15 to 20)
#    0.000    1.625    1.250    4.125    1.750    3.750 
#    0.000    1.250    0.000    0.000    0.000    0.000 
#    0.000    0.000    0.000    0.000    0.000    0.000 
#
# Total GULP energy -178696.954958 kJ/mol
# GULP energy per Si atom -5584.279842 kJ/mol
# Density = 2.009776 g / cm^3
# Si number density = 20.143604 Si / 1000 Ang^3
#
#
#
# Elastic Constant Matrix: (Units=GPa)
#
#
# Indices 1 2 3 4 5 6 
#
# 1 60.2164 10.6915 16.0810 0.0000 -28.3594 0.0000
# 2 10.6915 39.6219 8.4155 0.0000 0.4604 0.0000
# 3 16.0810 8.4155 73.8769 0.0000 -1.9024 0.0000
# 4 0.0000 0.0000 0.0000 18.0385 0.0000 4.6623
# 5 -28.3594 0.4604 -1.9024 0.0000 32.1372 0.0000
# 6 0.0000 0.0000 0.0000 4.6623 0.0000 28.6395
#
#
#
# Elastic Compliance Matrix: (Units=1/GPa)
#
#
# Indices 1 2 3 4 5 6 
#
# 1 0.033257 -0.008131 -0.005563 0.000000 0.029135 0.000000
# 2 -0.008131 0.027862 -0.001601 0.000000 -0.007669 0.000000
# 3 -0.005563 -0.001601 0.014826 0.000000 -0.004008 0.000000
# 4 0.000000 0.000000 0.000000 0.057872 0.000000 -0.009421
# 5 0.029135 -0.007669 -0.004008 0.000000 0.056699 0.000000
# 6 0.000000 0.000000 0.000000 -0.009421 0.000000 0.036451
#
#
# Mechanical properties :
#
#
# Convention : Reuss Voigt Hill
#
# Bulk Modulus (GPa) = 22.04837 27.12125 24.58481
# Shear Modulus (GPa) = 18.33675 24.99818 21.66746
#
# Velocity S-wave (km/s) = 3.02039 3.52660 3.28327
# Velocity P-wave (km/s) = 4.80968 5.48414 5.15795
#
# Compressibility (1/GPa) = 0.04535483
#
# Stress axis : x y z
#
# Youngs Moduli (GPa) = 30.06846 35.89123 67.44869
#
# Poissons Ratio (x) = 0.29184 0.37520
# Poissons Ratio (y) = 0.24449 0.10801
# Poissons Ratio (z) = 0.16726 0.05748
#
# Static dielectric constant tensor:
#      x y z
#    x 1.705780 0.000000 0.011780 
#    y 0.000000 1.712720 0.000000 
#    z 0.011780 0.000000 1.721530 
# 
# From -- ./inp_files/250045.got.cif
#   From: 2010.05.17/outbox.cif.g08.bks.cpg/sg12_126_cif.got.tgz:250045.got - 2010.06.03 13:09:07.
