data_PCOD9200006
_publ_section_title
;
Structure prediction by ZEFSAII (Michael W. Deem and Ramdas Pophale) SiO2 
 PCOD9200006
Probable space group: C 2/M
;
_chemical_formula_sum "Si O2"
_cell_formula_units_Z 44
_cell_length_a 34.316751
_cell_length_b 12.928133
_cell_length_c 4.934267
_cell_angle_alpha 90.000000
_cell_angle_beta 92.392672
_cell_angle_gamma 90.000000
_cell_volume 2187.186558
_symmetry_space_group_name_H-M "C 2/M"
_symmetry_group_IT_number 12
_symmetry_cell_setting 'monoclinic'
loop_
_space_group_symop_operation_xyz
x,y,z
-x,y,-z
-x,-y,-z
x,-y,z
1/2+x,1/2+y,z
1/2-x,1/2+y,-z
1/2-x,1/2-y,-z
1/2+x,1/2-y,z
loop_
_atom_site_type_symbol
_atom_site_label
_atom_site_fract_x
_atom_site_fract_y
_atom_site_fract_z
Si Si1 0.387468 0.692034 0.832089
Si Si2 0.674560 0.000000 0.906667
Si Si3 0.973146 0.119535 0.727979
Si Si4 0.272482 0.000000 0.571063
Si Si5 0.169925 0.000000 0.146234
Si Si6 0.722150 0.669773 0.839092
Si Si7 0.853710 0.711708 0.332886
O O1 0.432243 0.672885 0.775281
O O2 0.361246 0.590807 0.766690
O O3 0.370619 0.782692 0.637387
O O4 0.380896 0.719835 0.143865
O O5 0.713711 0.000000 0.732395
O O6 0.651591 0.101044 0.805887
O O7 0.689886 0.000000 0.218755
O O8 0.000000 0.165885 0.500000
O O9 0.964115 0.000000 0.649080
O O10 0.000000 0.118532 0.000000
O O11 0.246816 0.099483 0.640214
O O12 0.199221 0.090910 0.030266
O O13 0.688723 0.734990 0.680111
O O14 0.750000 0.750000 0.000000
#
# Coordination Sequence:
#
# PCOD9200006 Si02
#       7
#     8   4   8   4   4   8   8
#     4  11  22  42  61  92 127 163 193 241 300 381
#     4  12  24  42  58  86 110 155 208 266 307 349
#     4  10  20  36  62  97 129 160 188 230 289 367
#     4  11  24  38  60  78 115 151 204 276 309 355
#     4   9  22  36  58  86 121 160 200 250 302 351
#     4  10  21  40  58  83 113 161 213 258 312 355
#     4  11  25  39  62  84 119 160 211 252 310 355
#
# _framework density 20.117169000000001
#
# number of rings (size 3 to 8) (size 9 to 14) (size 15 to 20)
#    0.000    1.455    2.727    2.182    2.545    8.727 
#    0.000    0.000    0.000    0.000    0.000   12.727 
#    0.000    0.000    0.000    0.000    0.000    0.000 
#
# Total GULP energy -122562.215147 kJ/mol
# GULP energy per Si atom -5571.009779 kJ/mol
# Density = 2.007138 g / cm^3
# Si number density = 20.117169 Si / 1000 Ang^3
#
#
#
# Elastic Constant Matrix: (Units=GPa)
#
#
# Indices 1 2 3 4 5 6 
#
# 1 124.9659 20.6725 13.7064 0.0000 -9.8349 0.0000
# 2 20.6725 81.5639 -7.0615 0.0000 5.3905 0.0000
# 3 13.7064 -7.0615 52.3630 0.0000 -7.1056 0.0000
# 4 0.0000 0.0000 0.0000 48.3666 0.0000 75.5529
# 5 -9.8349 5.3905 -7.1056 0.0000 29.9650 0.0000
# 6 0.0000 0.0000 0.0000 75.5529 0.0000 215.7907
#
#
#
# Elastic Compliance Matrix: (Units=1/GPa)
#
#
# Indices 1 2 3 4 5 6 
#
# 1 0.008918 -0.002649 -0.002304 0.000000 0.002857 0.000000
# 2 -0.002649 0.013297 0.002112 0.000000 -0.002761 0.000000
# 3 -0.002304 0.002112 0.020490 0.000000 0.003723 0.000000
# 4 0.000000 0.000000 0.000000 0.045633 0.000000 -0.015977
# 5 0.002857 -0.002761 0.003723 0.000000 0.035689 0.000000
# 6 0.000000 0.000000 0.000000 -0.015977 0.000000 0.010228
#
#
# Mechanical properties :
#
#
# Convention : Reuss Voigt Hill
#
# Bulk Modulus (GPa) = 27.00927 34.83638 30.92283
# Shear Modulus (GPa) = 32.83468 74.26282 53.54875
#
# Velocity S-wave (km/s) = 4.04440 6.08237 5.16490
# Velocity P-wave (km/s) = 5.93841 8.16587 7.13954
#
# Compressibility (1/GPa) = 0.03702433
#
# Stress axis : x y z
#
# Youngs Moduli (GPa) = 112.13461 75.20565 48.80313
#
# Poissons Ratio (x) = 0.19918 0.11243
# Poissons Ratio (y) = 0.29699 -0.10307
# Poissons Ratio (z) = 0.25833 -0.15882
#
# Static dielectric constant tensor:
#      x y z
#    x 1.688910 0.000000 -0.004570 
#    y 0.000000 1.726040 0.000000 
#    z -0.004570 0.000000 1.727370 
# 
# From -- ./inp_files/30908.got.cif
#   From: 2010.05.17/outbox.cif.g08.bks.cpg/sg12_16_cif.got.tgz:30908.got - 2010.06.03 13:09:07.
