data_PCOD9200326
_publ_section_title
;
Structure prediction by ZEFSAII (Michael W. Deem and Ramdas Pophale) SiO2 
 PCOD9200326
Probable space group: C 2/M
;
_chemical_formula_sum "Si O2"
_cell_formula_units_Z 56
_cell_length_a 19.109193
_cell_length_b 29.907222
_cell_length_c 9.240336
_cell_angle_alpha 90.000000
_cell_angle_beta 35.759260
_cell_angle_gamma 90.000000
_cell_volume 3086.044187
_symmetry_space_group_name_H-M "C 2/M"
_symmetry_group_IT_number 12
_symmetry_cell_setting 'monoclinic'
loop_
_space_group_symop_operation_xyz
x,y,z
-x,y,-z
-x,-y,-z
x,-y,z
1/2+x,1/2+y,z
1/2-x,1/2+y,-z
1/2-x,1/2-y,-z
1/2+x,1/2-y,z
loop_
_atom_site_type_symbol
_atom_site_label
_atom_site_fract_x
_atom_site_fract_y
_atom_site_fract_z
Si Si1 0.629803 0.099216 0.704887
Si Si2 0.297975 0.680516 0.498146
Si Si3 0.388235 0.746134 0.108903
Si Si4 0.965399 0.550822 0.399589
Si Si5 0.279282 0.049170 0.184734
Si Si6 0.375229 0.367912 0.648199
Si Si7 0.122524 0.223833 0.201273
O O1 0.703976 0.144416 0.596432
O O2 0.614331 0.082326 0.567348
O O3 0.699141 0.062164 0.684260
O O4 0.500000 0.104791 0.000000
O O5 0.361977 0.704082 0.256749
O O6 0.224166 0.720364 0.699719
O O7 0.377250 0.655611 0.486200
O O8 0.500000 0.769837 0.000000
O O9 0.414209 0.731007 0.903440
O O10 0.916158 0.500000 0.497790
O O11 0.000000 0.568060 0.500000
O O12 0.089705 0.547171 0.105027
O O13 0.212701 0.090435 0.221171
O O14 0.223228 0.000000 0.263521
O O15 0.500000 0.385268 0.500000
O O16 0.345598 0.326917 0.805634
O O17 0.000000 0.235532 0.500000
O O18 0.250000 0.250000 0.000000
#
# Coordination Sequence:
#
# PCOD9200326 Si02
#       7
#     8   8   8   8   8   8   8
#     4   9  17  32  52  76 110 142 185 233 279 346
#     4  10  21  36  55  80 107 146 190 232 289 342
#     4  11  22  36  59  79 110 148 191 238 291 352
#     4   9  17  30  50  76 109 143 178 229 289 339
#     4   9  18  32  53  79 107 147 190 230 281 344
#     4  10  20  37  57  79 114 148 189 239 289 346
#     4  11  23  41  61  86 119 158 198 244 298 352
#
# _framework density 18.146208000000001
#
# number of rings (size 3 to 8) (size 9 to 14) (size 15 to 20)
#    0.000    2.143    1.429    2.571    2.000    3.143 
#    0.000    0.714    0.000    0.000    0.000    0.000 
#    0.000   21.714    0.000    0.000    0.000    0.000 
#
# Total GULP energy -155933.723336 kJ/mol
# GULP energy per Si atom -5569.061548 kJ/mol
# Density = 1.810491 g / cm^3
# Si number density = 18.146208 Si / 1000 Ang^3
#
#
#
# Elastic Constant Matrix: (Units=GPa)
#
#
# Indices 1 2 3 4 5 6 
#
# 1 124.1314 34.0389 29.7722 0.0000 17.9383 0.0000
# 2 34.0389 79.4245 26.2180 0.0000 3.0337 0.0000
# 3 29.7722 26.2180 64.4636 0.0000 11.3793 0.0000
# 4 0.0000 0.0000 0.0000 37.8766 0.0000 -14.1380
# 5 17.9383 3.0337 11.3793 0.0000 38.2612 0.0000
# 6 0.0000 0.0000 0.0000 -14.1380 0.0000 27.9771
#
#
#
# Elastic Compliance Matrix: (Units=1/GPa)
#
#
# Indices 1 2 3 4 5 6 
#
# 1 0.010144 -0.003321 -0.002682 0.000000 -0.003695 0.000000
# 2 -0.003321 0.015645 -0.005156 0.000000 0.001850 0.000000
# 3 -0.002682 -0.005156 0.019582 0.000000 -0.004158 0.000000
# 4 0.000000 0.000000 0.000000 0.032539 0.000000 0.016443
# 5 -0.003695 0.001850 -0.004158 0.000000 0.028958 0.000000
# 6 0.000000 0.000000 0.000000 0.016443 0.000000 0.044053
#
#
# Mechanical properties :
#
#
# Convention : Reuss Voigt Hill
#
# Bulk Modulus (GPa) = 43.37710 49.78641 46.58175
# Shear Modulus (GPa) = 27.63595 32.68900 30.16248
#
# Velocity S-wave (km/s) = 3.90675 4.24892 4.08142
# Velocity P-wave (km/s) = 6.65630 7.18101 6.92363
#
# Compressibility (1/GPa) = 0.02305364
#
# Stress axis : x y z
#
# Youngs Moduli (GPa) = 98.58212 63.91785 51.06690
#
# Poissons Ratio (x) = 0.21226 0.13696
# Poissons Ratio (y) = 0.32738 0.26329
# Poissons Ratio (z) = 0.26440 0.32955
#
# Static dielectric constant tensor:
#      x y z
#    x 1.652350 0.000000 -0.019290 
#    y 0.000000 1.621250 0.000000 
#    z -0.019290 0.000000 1.634540 
# 
# From -- ./inp_files/54161.got.cif
#   From: 2010.05.17/outbox.cif.g08.bks.cpg/sg12_28_cif.got.tgz:54161.got - 2010.06.03 13:09:07.
