data_PCOD9200539
_publ_section_title
;
Structure prediction by ZEFSAII (Michael W. Deem and Ramdas Pophale) SiO2 
 PCOD9200539
Probable space group: C 2/M
;
_chemical_formula_sum "Si O2"
_cell_formula_units_Z 64
_cell_length_a 15.978613
_cell_length_b 15.577562
_cell_length_c 16.808997
_cell_angle_alpha 90.000000
_cell_angle_beta 136.322954
_cell_angle_gamma 90.000000
_cell_volume 2889.364692
_symmetry_space_group_name_H-M "C 2/M"
_symmetry_group_IT_number 12
_symmetry_cell_setting 'monoclinic'
loop_
_space_group_symop_operation_xyz
x,y,z
-x,y,-z
-x,-y,-z
x,-y,z
1/2+x,1/2+y,z
1/2-x,1/2+y,-z
1/2-x,1/2-y,-z
1/2+x,1/2-y,z
loop_
_atom_site_type_symbol
_atom_site_label
_atom_site_fract_x
_atom_site_fract_y
_atom_site_fract_z
Si Si1 0.979545 0.900980 0.575639
Si Si2 0.227120 0.901102 0.023286
Si Si3 0.880856 0.276144 0.031130
Si Si4 0.257735 0.593004 0.641806
Si Si5 0.165640 0.222516 0.754932
Si Si6 0.870738 0.592108 0.277748
Si Si7 0.717489 0.846345 0.451681
Si Si8 0.359528 0.771268 0.754180
O O1 0.842130 0.889091 0.507977
O O2 0.000000 0.866141 0.500000
O O3 0.070590 0.852891 0.696585
O O4 0.011953 0.000000 0.596353
O O5 0.344584 0.855092 0.064261
O O6 0.256287 0.908014 0.137679
O O7 0.204533 0.000000 0.980628
O O8 0.133024 0.822418 0.945770
O O9 0.022247 0.283888 0.110993
O O10 0.775856 0.280077 0.892896
O O11 0.319468 0.500000 0.678921
O O12 0.173839 0.591304 0.661987
O O13 0.181441 0.607657 0.508643
O O14 0.346996 0.673323 0.714583
O O15 0.086878 0.310262 0.705326
O O16 0.237422 0.215448 0.720720
O O17 0.933353 0.500000 0.304701
O O18 0.750000 0.750000 0.500000
O O19 0.635089 0.834901 0.317515
#
# Coordination Sequence:
#
# PCOD9200539 Si02
#       8
#     8   8   8   8   8   8   8   8
#     4  11  23  41  66  92 121 166 217 261 310 365
#     4   9  19  37  57  83 122 163 205 252 303 366
#     4  10  21  35  60  92 120 162 208 246 307 380
#     4   9  18  33  56  85 116 151 200 254 305 366
#     4  10  20  38  63  90 124 161 205 259 304 368
#     4   8  16  33  59  85 116 156 196 248 312 372
#     4  10  21  37  60  89 122 159 204 259 315 365
#     4  10  20  37  58  86 125 161 198 253 319 371
#
# _framework density 22.150198
#
# number of rings (size 3 to 8) (size 9 to 14) (size 15 to 20)
#    0.000    2.375    1.250    0.750    0.000    7.000 
#    0.000    1.875    0.000   14.625    0.000    0.000 
#    0.000    0.000    0.000    0.000    0.000    0.000 
#
# Total GULP energy -178186.613564 kJ/mol
# GULP energy per Si atom -5568.331674 kJ/mol
# Density = 2.209978 g / cm^3
# Si number density = 22.150198 Si / 1000 Ang^3
#
#
#
# Elastic Constant Matrix: (Units=GPa)
#
#
# Indices 1 2 3 4 5 6 
#
# 1 38.0992 19.5890 22.8305 0.0000 -14.2155 0.0000
# 2 19.5890 106.7056 50.5147 0.0000 -0.2289 0.0000
# 3 22.8305 50.5147 98.2308 0.0000 -4.6007 0.0000
# 4 0.0000 0.0000 0.0000 20.3843 0.0000 -2.4974
# 5 -14.2155 -0.2289 -4.6007 0.0000 37.5571 0.0000
# 6 0.0000 0.0000 0.0000 -2.4974 0.0000 21.6778
#
#
#
# Elastic Compliance Matrix: (Units=1/GPa)
#
#
# Indices 1 2 3 4 5 6 
#
# 1 0.036701 -0.003916 -0.005901 0.000000 0.013145 0.000000
# 2 -0.003916 0.012824 -0.005783 0.000000 -0.002113 0.000000
# 3 -0.005901 -0.005783 0.014503 0.000000 -0.000492 0.000000
# 4 0.000000 0.000000 0.000000 0.049760 0.000000 0.005732
# 5 0.013145 -0.002113 -0.000492 0.000000 0.031528 0.000000
# 6 0.000000 0.000000 0.000000 0.005732 0.000000 0.046791
#
#
# Mechanical properties :
#
#
# Convention : Reuss Voigt Hill
#
# Bulk Modulus (GPa) = 30.46216 47.65600 39.05908
# Shear Modulus (GPa) = 21.34484 25.93060 23.63772
#
# Velocity S-wave (km/s) = 3.10762 3.42522 3.27028
# Velocity P-wave (km/s) = 5.16322 6.09955 5.65081
#
# Compressibility (1/GPa) = 0.03282761
#
# Stress axis : x y z
#
# Youngs Moduli (GPa) = 27.24706 77.97986 68.95354
#
# Poissons Ratio (x) = 0.30537 0.40686
# Poissons Ratio (y) = 0.10670 0.39878
# Poissons Ratio (z) = 0.16077 0.45099
#
# Static dielectric constant tensor:
#      x y z
#    x 1.871790 0.000000 -0.058760 
#    y 0.000000 1.837460 0.000000 
#    z -0.058760 0.000000 1.822760 
# 
# From -- ./inp_files/278164.got.cif
#   From: 2010.05.17/outbox.cif.g08.bks.cpg/sg12_140_cif.got.tgz:278164.got - 2010.06.03 13:09:07.
