data_PCOD9200893
_publ_section_title
;
Structure prediction by ZEFSAII (Michael W. Deem and Ramdas Pophale) SiO2 
 PCOD9200893
Probable space group: C 2/M
;
_chemical_formula_sum "Si O2"
_cell_formula_units_Z 64
_cell_length_a 26.545214
_cell_length_b 8.758927
_cell_length_c 14.302195
_cell_angle_alpha 90.000000
_cell_angle_beta 90.178831
_cell_angle_gamma 90.000000
_cell_volume 3325.352717
_symmetry_space_group_name_H-M "C 2/M"
_symmetry_group_IT_number 12
_symmetry_cell_setting 'monoclinic'
loop_
_space_group_symop_operation_xyz
x,y,z
-x,y,-z
-x,-y,-z
x,-y,z
1/2+x,1/2+y,z
1/2-x,1/2+y,-z
1/2-x,1/2-y,-z
1/2+x,1/2-y,z
loop_
_atom_site_type_symbol
_atom_site_label
_atom_site_fract_x
_atom_site_fract_y
_atom_site_fract_z
Si Si1 0.996805 0.673087 0.886584
Si Si2 0.652355 0.183297 0.706272
Si Si3 0.892414 0.683759 0.102922
Si Si4 0.390794 0.680133 0.898354
Si Si5 0.946246 0.182978 0.393313
Si Si6 0.749498 0.683596 0.604224
Si Si7 0.849171 0.317061 0.719085
Si Si8 0.949083 0.683504 0.602624
O O1 0.990179 0.500000 0.849858
O O2 0.051889 0.735440 0.861659
O O3 0.946914 0.767819 0.866974
O O4 0.000000 0.663977 0.000000
O O5 0.647363 0.218829 0.816594
O O6 0.602629 0.251442 0.657795
O O7 0.701377 0.253331 0.659121
O O8 0.652128 0.000000 0.695070
O O9 0.896371 0.500000 0.093390
O O10 0.881902 0.751568 0.001380
O O11 0.388768 0.500000 0.903650
O O12 0.352725 0.742491 0.820639
O O13 0.943536 0.239675 0.500911
O O14 0.998563 0.253771 0.355450
O O15 0.947885 0.000000 0.389320
O O16 0.747497 0.500000 0.599658
O O17 0.750000 0.750000 0.500000
O O18 0.800436 0.728299 0.659238
O O19 0.848271 0.500000 0.730139
O O20 0.900083 0.278619 0.662893
O O21 0.952279 0.500000 0.592253
#
# Coordination Sequence:
#
# PCOD9200893 Si02
#       8
#     8   8   8   8   8   8   8   8
#     4   8  15  31  53  77 110 157 202 237 283 349
#     4  11  23  40  63  90 119 159 207 250 300 363
#     4   9  20  38  59  82 116 163 207 245 293 359
#     4  11  22  34  55  88 123 156 197 252 305 351
#     4  11  22  36  56  87 125 158 191 245 308 366
#     4  11  24  44  69  95 121 156 200 255 309 362
#     4  10  23  41  62  85 116 159 205 243 295 366
#     4  10  20  37  60  85 116 158 202 245 297 367
#
# _framework density 19.246079999999999
#
# number of rings (size 3 to 8) (size 9 to 14) (size 15 to 20)
#    0.000    1.875    0.000    5.625    1.750    6.250 
#    0.000    0.625    0.000    0.000    0.000    0.000 
#    0.000    0.000    0.000    0.000    0.000    0.000 
#
# Total GULP energy -178825.594390 kJ/mol
# GULP energy per Si atom -5588.299825 kJ/mol
# Density = 1.920227 g / cm^3
# Si number density = 19.246080 Si / 1000 Ang^3
#
#
#
# Elastic Constant Matrix: (Units=GPa)
#
#
# Indices 1 2 3 4 5 6 
#
# 1 154.5636 61.0604 94.5882 0.0000 -0.0030 0.0000
# 2 61.0604 73.7380 56.0826 0.0000 2.9808 0.0000
# 3 94.5882 56.0826 139.0241 0.0000 0.6806 0.0000
# 4 0.0000 0.0000 0.0000 17.2571 0.0000 -1.2321
# 5 -0.0030 2.9808 0.6806 0.0000 36.8556 0.0000
# 6 0.0000 0.0000 0.0000 -1.2321 0.0000 28.1737
#
#
#
# Elastic Compliance Matrix: (Units=1/GPa)
#
#
# Indices 1 2 3 4 5 6 
#
# 1 0.012520 -0.005641 -0.006246 0.000000 0.000573 0.000000
# 2 -0.005641 0.022181 -0.005102 0.000000 -0.001700 0.000000
# 3 -0.006246 -0.005102 0.013500 0.000000 0.000163 0.000000
# 4 0.000000 0.000000 0.000000 0.058129 0.000000 0.002542
# 5 0.000573 -0.001700 0.000163 0.000000 0.027267 0.000000
# 6 0.000000 0.000000 0.000000 0.002542 0.000000 0.035605
#
#
# Mechanical properties :
#
#
# Convention : Reuss Voigt Hill
#
# Bulk Modulus (GPa) = 70.29988 87.86533 79.08260
# Shear Modulus (GPa) = 24.04746 26.83026 25.43886
#
# Velocity S-wave (km/s) = 3.53862 3.73777 3.63956
# Velocity P-wave (km/s) = 7.30082 8.02375 7.67081
#
# Compressibility (1/GPa) = 0.01422477
#
# Stress axis : x y z
#
# Youngs Moduli (GPa) = 79.86911 45.08265 74.07410
#
# Poissons Ratio (x) = 0.25429 0.46267
# Poissons Ratio (y) = 0.45050 0.37793
# Poissons Ratio (z) = 0.49886 0.23002
#
# Static dielectric constant tensor:
#      x y z
#    x 1.667120 0.000000 -0.002630 
#    y 0.000000 1.644070 0.000000 
#    z -0.002630 0.000000 1.689600 
# 
# From -- ./inp_files/243912.got.cif
#   From: 2010.05.17/outbox.cif.g08.bks.cpg/sg12_122_cif.got.tgz:243912.got - 2010.06.03 13:09:07.
