data_PCOD9200774
_publ_section_title
;
Structure prediction by ZEFSAII (Michael W. Deem and Ramdas Pophale) SiO2 
 PCOD9200774
Probable space group: C 2/M
;
_chemical_formula_sum "Si O2"
_cell_formula_units_Z 64
_cell_length_a 16.508749
_cell_length_b 7.776680
_cell_length_c 19.683919
_cell_angle_alpha 90.000000
_cell_angle_beta 98.116243
_cell_angle_gamma 90.000000
_cell_volume 2501.773539
_symmetry_space_group_name_H-M "C 2/M"
_symmetry_group_IT_number 12
_symmetry_cell_setting 'monoclinic'
loop_
_space_group_symop_operation_xyz
x,y,z
-x,y,-z
-x,-y,-z
x,-y,z
1/2+x,1/2+y,z
1/2-x,1/2+y,-z
1/2-x,1/2-y,-z
1/2+x,1/2-y,z
loop_
_atom_site_type_symbol
_atom_site_label
_atom_site_fract_x
_atom_site_fract_y
_atom_site_fract_z
Si Si1 0.347236 0.199962 0.580938
Si Si2 0.672131 0.799024 0.034509
Si Si3 0.456977 0.293031 0.708057
Si Si4 0.293794 0.288834 0.334434
Si Si5 0.381174 0.304212 0.831983
Si Si6 0.948071 0.699852 0.086517
Si Si7 0.080246 0.198363 0.543393
Si Si8 0.864394 0.205923 0.207885
O O1 0.431427 0.218849 0.633120
O O2 0.280799 0.267584 0.626977
O O3 0.354672 0.296540 0.510815
O O4 0.331208 0.000000 0.565092
O O5 0.592468 0.725477 0.986323
O O6 0.662007 0.000000 0.025481
O O7 0.750000 0.750000 0.000000
O O8 0.675529 0.765281 0.114911
O O9 0.448559 0.500000 0.703421
O O10 0.396436 0.221454 0.760117
O O11 0.548734 0.261603 0.743925
O O12 0.293830 0.500000 0.333922
O O13 0.374448 0.230991 0.385441
O O14 0.298329 0.235749 0.256172
O O15 0.358431 0.500000 0.818416
O O16 0.472712 0.295196 0.875547
O O17 0.973130 0.500000 0.081218
O O18 0.877723 0.710226 0.136319
O O19 0.000000 0.280983 0.500000
O O20 0.059135 0.000000 0.557644
O O21 0.855772 0.000000 0.196337
#
# Coordination Sequence:
#
# PCOD9200774 Si02
#       8
#     8   8   8   8   8   8   8   8
#     4  11  22  34  52  81 114 142 171 217 273 325
#     4  11  24  39  56  81 115 151 187 231 280 332
#     4   9  19  36  57  80 106 140 182 222 261 316
#     4   9  19  35  54  79 109 139 176 220 268 323
#     4  10  21  38  61  85 109 143 188 233 277 331
#     4  10  21  37  57  84 115 145 182 229 279 330
#     4  10  20  37  60  78  99 139 184 223 264 315
#     4   9  18  36  60  81 103 139 187 229 264 315
#
# _framework density 25.581851
#
# number of rings (size 3 to 8) (size 9 to 14) (size 15 to 20)
#    0.000    2.125    0.000    3.750    0.000    9.250 
#    0.000    5.000    0.000    0.000    0.000    0.000 
#    0.000    0.000    0.000    0.000    0.000    0.000 
#
# Total GULP energy -178966.769768 kJ/mol
# GULP energy per Si atom -5592.711555 kJ/mol
# Density = 2.552363 g / cm^3
# Si number density = 25.581851 Si / 1000 Ang^3
#
#
#
# Elastic Constant Matrix: (Units=GPa)
#
#
# Indices 1 2 3 4 5 6 
#
# 1 66.1919 0.8691 8.1949 0.0000 -16.4266 0.0000
# 2 0.8691 39.9025 -2.5624 0.0000 0.2826 0.0000
# 3 8.1949 -2.5624 149.1304 0.0000 -17.6128 0.0000
# 4 0.0000 0.0000 0.0000 264.0768 0.0000 -482.6839
# 5 -16.4266 0.2826 -17.6128 0.0000 51.3905 0.0000
# 6 0.0000 0.0000 0.0000 -482.6839 0.0000 966.1472
#
#
#
# Elastic Compliance Matrix: (Units=1/GPa)
#
#
# Indices 1 2 3 4 5 6 
#
# 1 0.016428 -0.000414 -0.000302 0.000000 0.005150 0.000000
# 2 -0.000414 0.025099 0.000440 0.000000 -0.000120 0.000000
# 3 -0.000302 0.000440 0.007001 0.000000 0.002301 0.000000
# 4 0.000000 0.000000 0.000000 0.043612 0.000000 0.021788
# 5 0.005150 -0.000120 0.002301 0.000000 0.021894 0.000000
# 6 0.000000 0.000000 0.000000 0.021788 0.000000 0.011920
#
#
# Mechanical properties :
#
#
# Convention : Reuss Voigt Hill
#
# Bulk Modulus (GPa) = 20.84282 29.80313 25.32297
# Shear Modulus (GPa) = 35.08794 272.90446 153.99620
#
# Velocity S-wave (km/s) = 3.70752 10.33975 7.76712
# Velocity P-wave (km/s) = 5.14712 12.41865 9.50567
#
# Compressibility (1/GPa) = 0.04797816
#
# Stress axis : x y z
#
# Youngs Moduli (GPa) = 60.86998 39.84193 142.82871
#
# Poissons Ratio (x) = 0.01648 0.04308
# Poissons Ratio (y) = 0.02518 -0.06283
# Poissons Ratio (z) = 0.01836 -0.01753
#
# Static dielectric constant tensor:
#      x y z
#    x 2.129050 0.000000 -0.025040 
#    y 0.000000 1.915270 0.000000 
#    z -0.025040 0.000000 2.019190 
# 
# From -- ./inp_files/314039.got.cif
#   From: 2010.05.17/outbox.cif.g08.bks.cpg/sg12_158_cif.got.tgz:314039.got - 2010.06.03 13:09:07.
