data_PCOD9200220
_publ_section_title
;
Structure prediction by ZEFSAII (Michael W. Deem and Ramdas Pophale) SiO2 
 PCOD9200220
Probable space group: C 2/M
;
_chemical_formula_sum "Si O2"
_cell_formula_units_Z 64
_cell_length_a 22.528792
_cell_length_b 24.225113
_cell_length_c 18.295252
_cell_angle_alpha 90.000000
_cell_angle_beta 160.294690
_cell_angle_gamma 90.000000
_cell_volume 3366.721183
_symmetry_space_group_name_H-M "C 2/M"
_symmetry_group_IT_number 12
_symmetry_cell_setting 'monoclinic'
loop_
_space_group_symop_operation_xyz
x,y,z
-x,y,-z
-x,-y,-z
x,-y,z
1/2+x,1/2+y,z
1/2-x,1/2+y,-z
1/2-x,1/2-y,-z
1/2+x,1/2-y,z
loop_
_atom_site_type_symbol
_atom_site_label
_atom_site_fract_x
_atom_site_fract_y
_atom_site_fract_z
Si Si1 0.104011 0.633903 0.390859
Si Si2 0.408282 0.638002 0.628724
Si Si3 0.303337 0.353611 0.775586
Si Si4 0.807988 0.744919 0.271800
Si Si5 0.351641 0.189856 0.779927
Si Si6 0.517212 0.244322 0.827095
Si Si7 0.299047 0.062620 0.241399
Si Si8 0.741309 0.067589 0.970688
O O1 0.259303 0.616699 0.513880
O O2 0.199107 0.640922 0.579497
O O3 0.031369 0.694379 0.282930
O O4 0.934279 0.593200 0.194635
O O5 0.299701 0.652772 0.430003
O O6 0.471910 0.696262 0.740091
O O7 0.570967 0.597864 0.797121
O O8 0.197023 0.319132 0.713120
O O9 0.320243 0.411572 0.835111
O O10 0.500000 0.330289 0.000000
O O11 0.714024 0.770301 0.233123
O O12 0.000000 0.768401 0.500000
O O13 0.715971 0.755159 0.087914
O O14 0.415438 0.226996 0.784407
O O15 0.500000 0.157874 0.000000
O O16 0.500000 0.065239 0.500000
O O17 0.245411 0.000000 0.170854
O O18 0.285849 0.085499 0.145138
O O19 0.746707 0.000000 0.985027
#
# Coordination Sequence:
#
# PCOD9200220 Si02
#       8
#     8   8   8   8   8   8   8   8
#     4  11  23  38  62  87 121 159 193 249 297 345
#     4  11  22  40  63  88 122 157 196 243 297 354
#     4  12  22  35  54  80 113 154 198 236 285 341
#     4  11  22  32  53  84 121 153 186 228 283 359
#     4   9  19  38  58  85 122 154 185 238 289 354
#     4  10  21  38  57  89 121 153 197 235 297 356
#     4  10  20  37  53  73 107 147 193 244 279 321
#     4  11  25  41  60  86 118 158 206 248 291 346
#
# _framework density 19.009594
#
# number of rings (size 3 to 8) (size 9 to 14) (size 15 to 20)
#    0.000    1.375    1.250    6.750    3.500    1.250 
#    0.000    0.000    0.000    0.375    0.000   10.500 
#    0.000    0.000    0.000    0.000    0.000    0.000 
#
# Total GULP energy -178232.533868 kJ/mol
# GULP energy per Si atom -5569.766683 kJ/mol
# Density = 1.896633 g / cm^3
# Si number density = 19.009594 Si / 1000 Ang^3
#
#
#
# Elastic Constant Matrix: (Units=GPa)
#
#
# Indices 1 2 3 4 5 6 
#
# 1 40.7462 30.1332 36.8806 -0.0003 -2.5568 0.0002
# 2 30.1332 66.4953 48.1726 -0.0002 11.6608 0.0001
# 3 36.8806 48.1726 132.6010 -0.0007 -1.0381 0.0012
# 4 -0.0003 -0.0002 -0.0007 22.9667 -0.0001 4.1385
# 5 -2.5568 11.6608 -1.0381 -0.0001 32.3242 0.0004
# 6 0.0002 0.0001 0.0012 4.1385 0.0004 15.2504
#
#
#
# Elastic Compliance Matrix: (Units=1/GPa)
#
#
# Indices 1 2 3 4 5 6 
#
# 1 0.042760 -0.016888 -0.005685 0.000000 0.009292 0.000000
# 2 -0.016888 0.029137 -0.005982 0.000000 -0.012039 0.000001
# 3 -0.005685 -0.005982 0.011312 0.000000 0.002072 -0.000001
# 4 0.000000 0.000000 0.000000 0.045780 0.000000 -0.012423
# 5 0.009292 -0.012039 0.002072 0.000000 0.036081 -0.000001
# 6 0.000000 0.000001 -0.000001 -0.012423 -0.000001 0.068944
#
#
# Mechanical properties :
#
#
# Convention : Reuss Voigt Hill
#
# Bulk Modulus (GPa) = 38.31672 52.24614 45.28143
# Shear Modulus (GPa) = 16.67644 22.41866 19.54755
#
# Velocity S-wave (km/s) = 2.96508 3.43787 3.21019
# Velocity P-wave (km/s) = 5.65000 6.58045 6.13290
#
# Compressibility (1/GPa) = 0.02609827
#
# Stress axis : x y z
#
# Youngs Moduli (GPa) = 23.38613 34.32079 88.40132
#
# Poissons Ratio (x) = 0.57963 0.50255
# Poissons Ratio (y) = 0.39496 0.52883
# Poissons Ratio (z) = 0.13295 0.20531
#
# Static dielectric constant tensor:
#      x y z
#    x 1.846070 0.000000 0.234200 
#    y 0.000000 1.755530 0.000000 
#    z 0.234200 0.000000 1.937620 
# 
# From -- ./inp_files/286486.got.cif
#   From: 2010.05.17/outbox.cif.g08.bks.cpg/sg12_144_cif.got.tgz:286486.got - 2010.06.03 13:09:07.
