data_PCOD9200517
_publ_section_title
;
Structure prediction by ZEFSAII (Michael W. Deem and Ramdas Pophale) SiO2 
 PCOD9200517
Probable space group: C 2/M
;
_chemical_formula_sum "Si O2"
_cell_formula_units_Z 48
_cell_length_a 19.095037
_cell_length_b 23.677248
_cell_length_c 13.094972
_cell_angle_alpha 90.000000
_cell_angle_beta 24.611555
_cell_angle_gamma 90.000000
_cell_volume 2465.664180
_symmetry_space_group_name_H-M "C 2/M"
_symmetry_group_IT_number 12
_symmetry_cell_setting 'monoclinic'
loop_
_space_group_symop_operation_xyz
x,y,z
-x,y,-z
-x,-y,-z
x,-y,z
1/2+x,1/2+y,z
1/2-x,1/2+y,-z
1/2-x,1/2-y,-z
1/2+x,1/2-y,z
loop_
_atom_site_type_symbol
_atom_site_label
_atom_site_fract_x
_atom_site_fract_y
_atom_site_fract_z
Si Si1 0.305118 0.350647 0.732985
Si Si2 0.780747 0.630047 0.390417
Si Si3 0.965458 0.138931 0.925665
Si Si4 0.511531 0.232693 0.108110
Si Si5 0.045533 0.433397 0.153067
Si Si6 0.349736 0.064290 0.619090
O O1 0.500000 0.342333 0.500000
O O2 0.273719 0.362731 0.654319
O O3 0.183622 0.297342 0.913842
O O4 0.221396 0.400829 0.909889
O O5 0.933272 0.587101 0.206440
O O6 0.857857 0.689254 0.334774
O O7 0.619506 0.608863 0.665795
O O8 0.790479 0.106350 0.151476
O O9 0.978315 0.203211 0.867392
O O10 0.000000 0.141048 0.000000
O O11 0.500000 0.235143 0.000000
O O12 0.070443 0.500000 0.122677
O O13 0.934698 0.417309 0.399531
O O14 0.500000 0.061801 0.500000
O O15 0.281971 0.000000 0.695484
#
# Coordination Sequence:
#
# PCOD9200517 Si02
#       6
#     8   8   8   8   8   8
#     4  10  22  38  57  83 118 147 189 239 281 330
#     4  10  20  37  58  85 116 147 188 238 277 330
#     4  11  20  35  62  88 108 149 196 228 277 343
#     4   8  18  36  57  82 115 150 182 233 283 329
#     4  10  21  40  61  81 112 153 190 232 283 334
#     4  10  23  40  57  83 121 151 182 233 287 335
#
# _framework density 19.467371
#
# number of rings (size 3 to 8) (size 9 to 14) (size 15 to 20)
#    0.000    2.167    1.667    2.000    2.333    3.333 
#    0.000    0.833    0.000    0.000    0.000    0.000 
#    0.000    0.000    0.000    0.000    0.000    0.000 
#
# Total GULP energy -133761.142686 kJ/mol
# GULP energy per Si atom -5573.380945 kJ/mol
# Density = 1.942306 g / cm^3
# Si number density = 19.467371 Si / 1000 Ang^3
#
#
#
# Elastic Constant Matrix: (Units=GPa)
#
#
# Indices 1 2 3 4 5 6 
#
# 1 52.0445 0.6042 28.1377 -0.0006 -9.9679 -0.0045
# 2 0.6042 64.8632 46.6561 -0.0085 -11.5641 0.0132
# 3 28.1377 46.6561 144.7495 -0.0273 -20.6795 -0.0005
# 4 -0.0006 -0.0085 -0.0273 11.1078 0.0051 0.0412
# 5 -9.9679 -11.5641 -20.6795 0.0051 32.7349 0.0189
# 6 -0.0045 0.0132 -0.0005 0.0412 0.0189 31.1349
#
#
#
# Elastic Compliance Matrix: (Units=1/GPa)
#
#
# Indices 1 2 3 4 5 6 
#
# 1 0.022953 0.004422 -0.005128 -0.000010 0.005312 -0.000002
# 2 0.004422 0.021252 -0.007084 -0.000003 0.004379 -0.000011
# 3 -0.005128 -0.007084 0.010561 0.000019 0.002608 0.000001
# 4 -0.000010 -0.000003 0.000019 0.090027 -0.000006 -0.000119
# 5 0.005312 0.004379 0.002608 -0.000006 0.035360 -0.000022
# 6 -0.000002 -0.000011 0.000001 -0.000119 -0.000022 0.032119
#
#
# Mechanical properties :
#
#
# Convention : Reuss Voigt Hill
#
# Bulk Modulus (GPa) = 25.51957 45.82812 35.67385
# Shear Modulus (GPa) = 20.75424 27.41280 24.08352
#
# Velocity S-wave (km/s) = 3.26867 3.75659 3.52109
# Velocity P-wave (km/s) = 5.23287 6.51215 5.90724
#
# Compressibility (1/GPa) = 0.03918561
#
# Stress axis : x y z
#
# Youngs Moduli (GPa) = 43.56752 47.05420 94.68580
#
# Poissons Ratio (x) = -0.20807 0.48557
# Poissons Ratio (y) = -0.19265 0.67075
# Poissons Ratio (z) = 0.22342 0.33333
#
# Static dielectric constant tensor:
#      x y z
#    x 1.686730 -0.000010 0.027330 
#    y -0.000010 1.722650 0.000010 
#    z 0.027330 0.000010 1.683350 
# 
# From -- ./inp_files/50589.got.cif
#   From: 2010.05.17/outbox.cif.g08.bks.cpg/sg12_26_cif.got.tgz:50589.got - 2010.06.03 13:09:07.
