data_PCOD9200651
_publ_section_title
;
Structure prediction by ZEFSAII (Michael W. Deem and Ramdas Pophale) SiO2 
 PCOD9200651
Probable space group: C 2/M
;
_chemical_formula_sum "Si O2"
_cell_formula_units_Z 64
_cell_length_a 14.864815
_cell_length_b 8.398331
_cell_length_c 29.873102
_cell_angle_alpha 90.000000
_cell_angle_beta 116.791828
_cell_angle_gamma 90.000000
_cell_volume 3329.002214
_symmetry_space_group_name_H-M "C 2/M"
_symmetry_group_IT_number 12
_symmetry_cell_setting 'monoclinic'
loop_
_space_group_symop_operation_xyz
x,y,z
-x,y,-z
-x,-y,-z
x,-y,z
1/2+x,1/2+y,z
1/2-x,1/2+y,-z
1/2-x,1/2-y,-z
1/2+x,1/2-y,z
loop_
_atom_site_type_symbol
_atom_site_label
_atom_site_fract_x
_atom_site_fract_y
_atom_site_fract_z
Si Si1 0.676539 0.807699 0.421453
Si Si2 0.329331 0.309476 0.053979
Si Si3 0.103734 0.807432 0.500339
Si Si4 0.960336 0.689132 0.691438
Si Si5 0.767150 0.691454 0.137414
Si Si6 0.175813 0.186683 0.755648
Si Si7 0.046899 0.806533 0.119219
Si Si8 0.886343 0.811573 0.769351
O O1 0.793404 0.755216 0.451374
O O2 0.618762 0.749048 0.452788
O O3 0.618767 0.755447 0.363911
O O4 0.677072 0.000000 0.422117
O O5 0.328460 0.500000 0.052936
O O6 0.301578 0.250978 0.097210
O O7 0.444684 0.253938 0.072565
O O8 0.250000 0.250000 0.000000
O O9 0.000000 0.751672 0.500000
O O10 0.102077 0.000000 0.500134
O O11 0.974007 0.500000 0.689952
O O12 0.918769 0.726477 0.731448
O O13 0.068730 0.770817 0.710547
O O14 0.773884 0.500000 0.141464
O O15 0.827304 0.764554 0.192685
O O16 0.650632 0.740863 0.119067
O O17 0.269260 0.280317 0.754826
O O18 0.196488 0.000000 0.756506
O O19 0.053706 0.755398 0.172749
O O20 0.047013 0.000000 0.120024
O O21 0.903719 0.000000 0.767912
#
# Coordination Sequence:
#
# PCOD9200651 Si02
#       8
#     8   8   8   8   8   8   8   8
#     4   9  20  36  53  79 112 143 181 227 273 323
#     4  11  22  37  55  80 110 142 180 224 275 332
#     4   9  18  35  58  80 105 141 183 227 276 329
#     4  11  22  36  54  81 118 154 188 230 274 324
#     4  10  20  38  60  81 105 140 183 228 277 331
#     4  11  22  37  57  83 113 148 187 228 278 336
#     4   8  18  36  57  76 103 141 178 216 265 325
#     4  10  20  37  59  84 111 145 188 231 279 334
#
# _framework density 19.224979000000001
#
# number of rings (size 3 to 8) (size 9 to 14) (size 15 to 20)
#    0.000    2.125    0.000    4.125    0.000    3.750 
#    0.000   10.625    0.000    0.000    0.000    0.000 
#    0.000    0.000    0.000    0.000    0.000    0.000 
#
# Total GULP energy -178682.213505 kJ/mol
# GULP energy per Si atom -5583.819172 kJ/mol
# Density = 1.918122 g / cm^3
# Si number density = 19.224979 Si / 1000 Ang^3
#
#
#
# Elastic Constant Matrix: (Units=GPa)
#
#
# Indices 1 2 3 4 5 6 
#
# 1 78.2647 -2.6153 31.6772 0.0000 16.3932 0.0000
# 2 -2.6153 30.3899 9.4572 0.0000 5.6878 0.0000
# 3 31.6772 9.4572 67.8902 0.0000 27.3669 0.0000
# 4 0.0000 0.0000 0.0000 26.4992 0.0000 -5.4254
# 5 16.3932 5.6878 27.3669 0.0000 19.2795 0.0000
# 6 0.0000 0.0000 0.0000 -5.4254 0.0000 26.9688
#
#
#
# Elastic Compliance Matrix: (Units=1/GPa)
#
#
# Indices 1 2 3 4 5 6 
#
# 1 0.016739 0.004588 -0.005064 0.000000 -0.008399 0.000000
# 2 0.004588 0.036167 -0.003051 0.000000 -0.010241 0.000000
# 3 -0.005064 -0.003051 0.036042 0.000000 -0.045956 0.000000
# 4 0.000000 0.000000 0.000000 0.039358 0.000000 0.007918
# 5 -0.008399 -0.010241 -0.045956 0.000000 0.127264 0.000000
# 6 0.000000 0.000000 0.000000 0.007918 0.000000 0.038673
#
#
# Mechanical properties :
#
#
# Convention : Reuss Voigt Hill
#
# Bulk Modulus (GPa) = 12.21077 28.17589 20.19333
# Shear Modulus (GPa) = 15.21629 23.75120 19.48375
#
# Velocity S-wave (km/s) = 2.81639 3.51869 3.18694
# Velocity P-wave (km/s) = 4.11599 5.58533 4.90598
#
# Compressibility (1/GPa) = 0.08189493
#
# Stress axis : x y z
#
# Youngs Moduli (GPa) = 59.73969 27.64985 27.74506
#
# Poissons Ratio (x) = -0.12687 0.14050
# Poissons Ratio (y) = -0.27411 0.08465
# Poissons Ratio (z) = 0.30253 0.08436
#
# Static dielectric constant tensor:
#      x y z
#    x 1.668420 0.000000 0.026640 
#    y 0.000000 1.657090 0.000000 
#    z 0.026640 0.000000 1.644360 
# 
# From -- ./inp_files/375080.got.cif
#   From: 2010.05.17/outbox.cif.g08.bks.cpg/sg12_188_cif.got.tgz:375080.got - 2010.06.03 13:09:07.
