data_PCOD9200493
_publ_section_title
;
Structure prediction by ZEFSAII (Michael W. Deem and Ramdas Pophale) SiO2 
 PCOD9200493
Probable space group: C 2/M
;
_chemical_formula_sum "Si O2"
_cell_formula_units_Z 64
_cell_length_a 19.171878
_cell_length_b 14.939081
_cell_length_c 14.610052
_cell_angle_alpha 90.000000
_cell_angle_beta 138.643543
_cell_angle_gamma 90.000000
_cell_volume 2764.852452
_symmetry_space_group_name_H-M "C 2/M"
_symmetry_group_IT_number 12
_symmetry_cell_setting 'monoclinic'
loop_
_space_group_symop_operation_xyz
x,y,z
-x,y,-z
-x,-y,-z
x,-y,z
1/2+x,1/2+y,z
1/2-x,1/2+y,-z
1/2-x,1/2-y,-z
1/2+x,1/2-y,z
loop_
_atom_site_type_symbol
_atom_site_label
_atom_site_fract_x
_atom_site_fract_y
_atom_site_fract_z
Si Si1 0.405670 0.898125 0.964759
Si Si2 0.260753 0.833486 0.333511
Si Si3 0.819564 0.866508 0.326118
Si Si4 0.948093 0.104366 0.794311
Si Si5 0.160383 0.603601 0.907566
Si Si6 0.503964 0.361527 0.641801
Si Si7 0.668843 0.605089 0.057304
Si Si8 0.983341 0.351409 0.591965
O O1 0.297785 0.902809 0.800955
O O2 0.441837 0.000000 0.021762
O O3 0.500000 0.855120 0.000000
O O4 0.376674 0.854206 0.033503
O O5 0.297304 0.737082 0.330987
O O6 0.155572 0.837051 0.290387
O O7 0.231914 0.885825 0.213084
O O8 0.360378 0.872638 0.486123
O O9 0.903747 0.897204 0.485127
O O10 0.884962 0.884069 0.297033
O O11 0.987738 0.109321 0.728997
O O12 0.923641 0.000000 0.793770
O O13 0.050052 0.138916 0.949762
O O14 0.187674 0.500000 0.955274
O O15 0.261031 0.645363 0.955318
O O16 0.066080 0.603210 0.740706
O O17 0.499620 0.254052 0.627064
O O18 0.655831 0.500000 0.025014
O O19 0.000000 0.369025 0.500000
#
# Coordination Sequence:
#
# PCOD9200493 Si02
#       8
#     8   8   8   8   8   8   8   8
#     4  10  23  41  58  85 126 161 202 260 313 368
#     4  11  22  38  60  89 124 160 202 254 312 370
#     4  10  21  40  65  87 116 160 209 252 306 365
#     4  11  25  40  59  92 128 161 203 256 316 372
#     4  10  21  36  61  90 117 163 211 251 308 370
#     4  10  21  41  64  88 122 157 207 258 307 366
#     4  10  20  37  58  83 121 162 204 251 304 368
#     4  11  20  40  62  88 125 159 203 261 305 361
#
# _framework density 23.147708999999999
#
# number of rings (size 3 to 8) (size 9 to 14) (size 15 to 20)
#    0.000    1.625    3.750    1.500    0.000   10.250 
#    0.000    5.000    0.000    0.000    0.000    0.000 
#    0.000    0.000    0.000    0.000    0.000    0.000 
#
# Total GULP energy -178739.702363 kJ/mol
# GULP energy per Si atom -5585.615699 kJ/mol
# Density = 2.309502 g / cm^3
# Si number density = 23.147709 Si / 1000 Ang^3
#
#
#
# Elastic Constant Matrix: (Units=GPa)
#
#
# Indices 1 2 3 4 5 6 
#
# 1 141.8998 19.9628 43.9530 0.0000 26.2768 0.0000
# 2 19.9628 51.7586 6.5346 0.0000 4.4898 0.0000
# 3 43.9530 6.5346 94.3899 0.0000 32.0545 0.0000
# 4 0.0000 0.0000 0.0000 2.8438 0.0000 -2.7313
# 5 26.2768 4.4898 32.0545 0.0000 45.0171 0.0000
# 6 0.0000 0.0000 0.0000 -2.7313 0.0000 18.9247
#
#
#
# Elastic Compliance Matrix: (Units=1/GPa)
#
#
# Indices 1 2 3 4 5 6 
#
# 1 0.008885 -0.002808 -0.003003 0.000000 -0.002768 0.000000
# 2 -0.002808 0.020436 0.000037 0.000000 -0.000426 0.000000
# 3 -0.003003 0.000037 0.015031 0.000000 -0.008954 0.000000
# 4 0.000000 0.000000 0.000000 0.408220 0.000000 0.058916
# 5 -0.002768 -0.000426 -0.008954 0.000000 0.030247 0.000000
# 6 0.000000 0.000000 0.000000 0.058916 0.000000 0.061344
#
#
# Mechanical properties :
#
#
# Convention : Reuss Voigt Hill
#
# Bulk Modulus (GPa) = 30.48358 47.66100 39.07229
# Shear Modulus (GPa) = 8.82388 27.86366 18.34377
#
# Velocity S-wave (km/s) = 1.95455 3.47325 2.81813
# Velocity P-wave (km/s) = 4.27685 6.05964 5.24455
#
# Compressibility (1/GPa) = 0.03280455
#
# Stress axis : x y z
#
# Youngs Moduli (GPa) = 112.55032 48.93435 66.53050
#
# Poissons Ratio (x) = 0.13739 0.19979
# Poissons Ratio (y) = 0.31600 -0.00248
# Poissons Ratio (z) = 0.33798 -0.00182
#
# Static dielectric constant tensor:
#      x y z
#    x 1.911830 0.000000 0.019510 
#    y 0.000000 1.907890 0.000000 
#    z 0.019510 0.000000 1.863500 
# 
# From -- ./inp_files/226870.got.cif
#   From: 2010.05.17/outbox.cif.g08.bks.cpg/sg12_114_cif.got.tgz:226870.got - 2010.06.03 13:09:07.
