data_PCOD9200872
_publ_section_title
;
Structure prediction by ZEFSAII (Michael W. Deem and Ramdas Pophale) SiO2 
 PCOD9200872
Probable space group: C 2/M
;
_chemical_formula_sum "Si O2"
_cell_formula_units_Z 48
_cell_length_a 29.943635
_cell_length_b 7.951067
_cell_length_c 8.333608
_cell_angle_alpha 90.000000
_cell_angle_beta 101.240887
_cell_angle_gamma 90.000000
_cell_volume 1946.035126
_symmetry_space_group_name_H-M "C 2/M"
_symmetry_group_IT_number 12
_symmetry_cell_setting 'monoclinic'
loop_
_space_group_symop_operation_xyz
x,y,z
-x,y,-z
-x,-y,-z
x,-y,z
1/2+x,1/2+y,z
1/2-x,1/2+y,-z
1/2-x,1/2-y,-z
1/2+x,1/2-y,z
loop_
_atom_site_type_symbol
_atom_site_label
_atom_site_fract_x
_atom_site_fract_y
_atom_site_fract_z
Si Si1 0.974090 0.793810 0.139630
Si Si2 0.109988 0.794450 0.743541
Si Si3 0.719152 0.309285 0.126653
Si Si4 0.301896 0.699859 0.362328
Si Si5 0.857791 0.304541 0.715864
Si Si6 0.557267 0.302683 0.390789
O O1 0.008005 0.738420 0.306184
O O2 0.922370 0.739606 0.134260
O O3 0.973859 0.000000 0.137058
O O4 0.000000 0.735789 0.000000
O O5 0.161806 0.743665 0.749426
O O6 0.082532 0.735538 0.565312
O O7 0.111330 0.000000 0.744236
O O8 0.706110 0.500000 0.088158
O O9 0.754749 0.292451 0.299391
O O10 0.672843 0.219451 0.147763
O O11 0.750000 0.250000 0.000000
O O12 0.293587 0.500000 0.342029
O O13 0.327122 0.734497 0.547016
O O14 0.865780 0.500000 0.695302
O O15 0.906580 0.215694 0.729883
O O16 0.551187 0.500000 0.418316
#
# Coordination Sequence:
#
# PCOD9200872 Si02
#       6
#     8   8   8   8   8   8
#     4   9  16  26  45  76 108 138 177 225 274 325
#     4   8  15  28  48  74 104 139 179 223 270 324
#     4  12  25  41  59  83 115 149 185 225 276 334
#     4  10  20  37  60  85 112 146 189 234 281 331
#     4  11  22  38  59  83 111 145 188 235 283 333
#     4   9  17  31  52  76 104 139 180 226 275 326
#
# _framework density 24.665534999999998
#
# number of rings (size 3 to 8) (size 9 to 14) (size 15 to 20)
#    0.000    2.167    0.000    5.500    0.000    3.333 
#    0.000    3.333    0.000    9.500    0.000    0.000 
#    0.000    0.000    0.000    0.000    0.000    0.000 
#
# Total GULP energy -134137.270372 kJ/mol
# GULP energy per Si atom -5589.052932 kJ/mol
# Density = 2.460939 g / cm^3
# Si number density = 24.665535 Si / 1000 Ang^3
#
#
#
# Elastic Constant Matrix: (Units=GPa)
#
#
# Indices 1 2 3 4 5 6 
#
# 1 144.5516 -15.3106 15.3806 0.0000 -25.1734 0.0000
# 2 -15.3106 39.0873 -9.2883 0.0000 3.2211 0.0000
# 3 15.3806 -9.2883 57.1235 0.0000 -19.2423 0.0000
# 4 0.0000 0.0000 0.0000 16.0585 0.0000 -4.2348
# 5 -25.1734 3.2211 -19.2423 0.0000 46.4924 0.0000
# 6 0.0000 0.0000 0.0000 -4.2348 0.0000 12.3885
#
#
#
# Elastic Compliance Matrix: (Units=1/GPa)
#
#
# Indices 1 2 3 4 5 6 
#
# 1 0.007931 0.002694 -0.000365 0.000000 0.003957 0.000000
# 2 0.002694 0.027527 0.004183 0.000000 0.001283 0.000000
# 3 -0.000365 0.004183 0.021056 0.000000 0.008227 0.000000
# 4 0.000000 0.000000 0.000000 0.068442 0.000000 0.023396
# 5 0.003957 0.001283 0.008227 0.000000 0.026968 0.000000
# 6 0.000000 0.000000 0.000000 0.023396 0.000000 0.088717
#
#
# Mechanical properties :
#
#
# Convention : Reuss Voigt Hill
#
# Bulk Modulus (GPa) = 14.38063 24.70286 19.54175
# Shear Modulus (GPa) = 19.93653 31.65328 25.79490
#
# Velocity S-wave (km/s) = 2.84610 3.58620 3.23737
# Velocity P-wave (km/s) = 4.07962 5.21389 4.68124
#
# Compressibility (1/GPa) = 0.06953796
#
# Stress axis : x y z
#
# Youngs Moduli (GPa) = 126.08522 36.32769 47.49334
#
# Poissons Ratio (x) = -0.09787 0.01732
# Poissons Ratio (y) = -0.33967 -0.19865
# Poissons Ratio (z) = 0.04597 -0.15195
#
# Static dielectric constant tensor:
#      x y z
#    x 1.966700 0.000000 -0.047520 
#    y 0.000000 1.891470 0.000000 
#    z -0.047520 0.000000 2.072570 
# 
# From -- ./inp_files/108715.got.cif
#   From: 2010.05.17/outbox.cif.g08.bks.cpg/sg12_55_cif.got.tgz:108715.got - 2010.06.03 13:09:07.
