data_PCOD9200538
_publ_section_title
;
Structure prediction by ZEFSAII (Michael W. Deem and Ramdas Pophale) SiO2 
 PCOD9200538
Probable space group: C 2/M
;
_chemical_formula_sum "Si O2"
_cell_formula_units_Z 50
_cell_length_a 25.559784
_cell_length_b 7.459822
_cell_length_c 10.501831
_cell_angle_alpha 90.000000
_cell_angle_beta 99.552518
_cell_angle_gamma 90.000000
_cell_volume 1974.633766
_symmetry_space_group_name_H-M "C 2/M"
_symmetry_group_IT_number 12
_symmetry_cell_setting 'monoclinic'
loop_
_space_group_symop_operation_xyz
x,y,z
-x,y,-z
-x,-y,-z
x,-y,z
1/2+x,1/2+y,z
1/2-x,1/2+y,-z
1/2-x,1/2-y,-z
1/2+x,1/2-y,z
loop_
_atom_site_type_symbol
_atom_site_label
_atom_site_fract_x
_atom_site_fract_y
_atom_site_fract_z
Si Si1 0.317341 0.281196 0.246846
Si Si2 0.715229 0.796201 0.318004
Si Si3 0.669891 0.717283 0.026686
Si Si4 0.556420 0.284323 0.073170
Si Si5 0.433620 0.697786 0.377771
Si Si6 0.000000 0.500000 0.500000
Si Si7 0.103515 0.287150 0.367746
O O1 0.314972 0.500000 0.249639
O O2 0.273794 0.214279 0.330484
O O3 0.306057 0.224022 0.097713
O O4 0.377925 0.235790 0.298885
O O5 0.664012 0.721668 0.368997
O O6 0.720587 0.000000 0.365916
O O7 0.696760 0.796337 0.162740
O O8 0.673414 0.500000 0.036982
O O9 0.607490 0.766452 0.008827
O O10 0.554114 0.500000 0.070340
O O11 0.572567 0.232298 0.223031
O O12 0.500000 0.216492 0.000000
O O13 0.446987 0.500000 0.332224
O O14 0.478739 0.844155 0.392164
O O15 0.420025 0.687030 0.522319
O O16 0.101855 0.500000 0.402107
#
# Coordination Sequence:
#
# PCOD9200538 Si02
#       7
#     8   8   8   8   8   2   8
#     4   9  19  36  58  87 121 163 210 252 310 383
#     4   9  18  34  57  86 124 163 201 254 316 370
#     4   9  17  32  52  82 121 157 203 254 307 376
#     4   9  18  32  54  82 112 154 207 258 312 375
#     4  11  24  44  68  90 124 167 207 258 317 368
#     4  12  26  48  64  94 122 160 214 260 310 378
#     4  10  20  37  58  86 123 159 206 261 309 371
#
# _framework density 25.321149999999999
#
# number of rings (size 3 to 8) (size 9 to 14) (size 15 to 20)
#    0.000    2.400    0.800    1.200    0.000    2.880 
#    2.880    3.200    0.000    0.000    0.000    0.000 
#    0.000    0.000    0.000    0.000    0.000    0.000 
#
# Total GULP energy -139535.351624 kJ/mol
# GULP energy per Si atom -5581.414065 kJ/mol
# Density = 2.526352 g / cm^3
# Si number density = 25.321150 Si / 1000 Ang^3
#
#
#
# Elastic Constant Matrix: (Units=GPa)
#
#
# Indices 1 2 3 4 5 6 
#
# 1 69.3996 17.0552 18.0733 0.0000 9.5507 0.0000
# 2 17.0552 98.0347 -4.7536 0.0000 5.9769 0.0000
# 3 18.0733 -4.7536 67.5201 0.0000 7.7304 0.0000
# 4 0.0000 0.0000 0.0000 15.2720 0.0000 5.8952
# 5 9.5507 5.9769 7.7304 0.0000 42.1206 0.0000
# 6 0.0000 0.0000 0.0000 5.8952 0.0000 -33.8727
#
#
#
# Elastic Compliance Matrix: (Units=1/GPa)
#
#
# Indices 1 2 3 4 5 6 
#
# 1 0.016621 -0.002948 -0.004365 0.000000 -0.002549 0.000000
# 2 -0.002948 0.010867 0.001690 0.000000 -0.001184 0.000000
# 3 -0.004365 0.001690 0.016355 0.000000 -0.002252 0.000000
# 4 0.000000 0.000000 0.000000 0.061357 0.000000 0.010679
# 5 -0.002549 -0.001184 -0.002252 0.000000 0.024901 0.000000
# 6 0.000000 0.000000 0.000000 0.010679 0.000000 -0.027664
#
#
# Mechanical properties :
#
#
# Convention : Reuss Voigt Hill
#
# Bulk Modulus (GPa) = 30.67630 32.85602 31.76616
# Shear Modulus (GPa) = 40.14450 18.34263 29.24357
#
# Velocity S-wave (km/s) = 3.98605 2.69439 3.40208
# Velocity P-wave (km/s) = 5.77286 4.76272 5.29195
#
# Compressibility (1/GPa) = 0.03259846
#
# Stress axis : x y z
#
# Youngs Moduli (GPa) = 60.16394 92.01830 61.14162
#
# Poissons Ratio (x) = 0.27125 0.26686
# Poissons Ratio (y) = 0.17735 -0.10331
# Poissons Ratio (z) = 0.26260 -0.15548
#
# Static dielectric constant tensor:
#      x y z
#    x 2.164850 0.000000 0.012140 
#    y 0.000000 2.009550 0.000000 
#    z 0.012140 0.000000 1.951770 
# 
# From -- ./inp_files/180189.got.cif
#   From: 2010.05.17/outbox.cif.g08.bks.cpg/sg12_91_cif.got.tgz:180189.got - 2010.06.03 13:09:07.
