data_PCOD9200932
_publ_section_title
;
Structure prediction by ZEFSAII (Michael W. Deem and Ramdas Pophale) SiO2 
 PCOD9200932
Probable space group: C 2/M
;
_chemical_formula_sum "Si O2"
_cell_formula_units_Z 56
_cell_length_a 21.040619
_cell_length_b 8.560232
_cell_length_c 18.220805
_cell_angle_alpha 90.000000
_cell_angle_beta 116.559925
_cell_angle_gamma 90.000000
_cell_volume 2935.459054
_symmetry_space_group_name_H-M "C 2/M"
_symmetry_group_IT_number 12
_symmetry_cell_setting 'monoclinic'
loop_
_space_group_symop_operation_xyz
x,y,z
-x,y,-z
-x,-y,-z
x,-y,z
1/2+x,1/2+y,z
1/2-x,1/2+y,-z
1/2-x,1/2-y,-z
1/2+x,1/2-y,z
loop_
_atom_site_type_symbol
_atom_site_label
_atom_site_fract_x
_atom_site_fract_y
_atom_site_fract_z
Si Si1 0.353003 0.187130 0.778243
Si Si2 0.417763 0.311116 0.961014
Si Si3 0.825285 0.314082 0.509668
Si Si4 0.809518 0.189093 0.340822
Si Si5 0.601068 0.690551 0.754823
Si Si6 0.328374 0.688793 0.056747
Si Si7 0.437761 0.312477 0.683933
O O1 0.375370 0.244684 0.869933
O O2 0.272259 0.234292 0.717072
O O3 0.405725 0.255688 0.744490
O O4 0.356129 0.000000 0.777235
O O5 0.416121 0.500000 0.956149
O O6 0.500000 0.261784 0.000000
O O7 0.381013 0.263405 0.018195
O O8 0.823915 0.500000 0.513328
O O9 0.750000 0.250000 0.500000
O O10 0.833745 0.258988 0.430452
O O11 0.887306 0.250163 0.593653
O O12 0.858428 0.239182 0.297973
O O13 0.811902 0.000000 0.347137
O O14 0.601575 0.500000 0.755610
O O15 0.642301 0.742134 0.849301
O O16 0.519080 0.739971 0.715681
O O17 0.326546 0.500000 0.056844
O O18 0.250000 0.750000 0.000000
O O19 0.436449 0.500000 0.682281
#
# Coordination Sequence:
#
# PCOD9200932 Si02
#       7
#     8   8   8   8   8   8   8
#     4  11  22  36  59  88 118 153 197 248 300 351
#     4  10  21  37  58  83 114 154 201 247 295 353
#     4  12  24  40  62  90 121 155 197 243 297 353
#     4  10  21  39  62  87 118 155 198 243 292 353
#     4   9  20  39  62  87 117 159 202 240 292 358
#     4  10  20  37  60  86 117 156 199 244 294 350
#     4  11  22  39  64  89 119 157 199 246 296 355
#
# _framework density 19.077082999999998
#
# number of rings (size 3 to 8) (size 9 to 14) (size 15 to 20)
#    0.000    1.571    1.429    3.857    0.000    5.429 
#    0.000    7.857    0.000    0.000    0.000    0.000 
#    0.000    0.000    0.000    0.000    0.000    0.000 
#
# Total GULP energy -156534.279865 kJ/mol
# GULP energy per Si atom -5590.509995 kJ/mol
# Density = 1.903366 g / cm^3
# Si number density = 19.077083 Si / 1000 Ang^3
#
#
#
# Elastic Constant Matrix: (Units=GPa)
#
#
# Indices 1 2 3 4 5 6 
#
# 1 157.9762 23.6948 66.3867 0.0000 -17.3676 0.0000
# 2 23.6948 26.1396 19.7070 0.0000 -6.7317 0.0000
# 3 66.3867 19.7070 147.8508 0.0000 -19.6134 0.0000
# 4 0.0000 0.0000 0.0000 34.1284 0.0000 3.8618
# 5 -17.3676 -6.7317 -19.6134 0.0000 39.1669 0.0000
# 6 0.0000 0.0000 0.0000 3.8618 0.0000 19.6355
#
#
#
# Elastic Compliance Matrix: (Units=1/GPa)
#
#
# Indices 1 2 3 4 5 6 
#
# 1 0.008489 -0.005113 -0.002943 0.000000 0.001412 0.000000
# 2 -0.005113 0.046465 -0.003362 0.000000 0.004035 0.000000
# 3 -0.002943 -0.003362 0.008873 0.000000 0.002560 0.000000
# 4 0.000000 0.000000 0.000000 0.029968 0.000000 -0.005894
# 5 0.001412 0.004035 0.002560 0.000000 0.028133 0.000000
# 6 0.000000 0.000000 0.000000 -0.005894 0.000000 0.052087
#
#
# Mechanical properties :
#
#
# Convention : Reuss Voigt Hill
#
# Bulk Modulus (GPa) = 24.39581 61.28261 42.83921
# Shear Modulus (GPa) = 23.75135 33.39803 28.57469
#
# Velocity S-wave (km/s) = 3.53231 4.18866 3.87441
# Velocity P-wave (km/s) = 5.42698 7.45564 6.52069
#
# Compressibility (1/GPa) = 0.04099065
#
# Stress axis : x y z
#
# Youngs Moduli (GPa) = 117.80237 21.52170 112.70472
#
# Poissons Ratio (x) = 0.11003 0.33167
# Poissons Ratio (y) = 0.60228 0.37895
# Poissons Ratio (z) = 0.34667 0.07236
#
# Static dielectric constant tensor:
#      x y z
#    x 1.662020 0.000000 0.009160 
#    y 0.000000 1.653450 0.000000 
#    z 0.009160 0.000000 1.634960 
# 
# From -- ./inp_files/275583.got.cif
#   From: 2010.05.17/outbox.cif.g08.bks.cpg/sg12_138_cif.got.tgz:275583.got - 2010.06.03 13:09:07.
