data_PCOD9200707
_publ_section_title
;
Structure prediction by ZEFSAII (Michael W. Deem and Ramdas Pophale) SiO2 
 PCOD9200707
Probable space group: C 2/M
;
_chemical_formula_sum "Si O2"
_cell_formula_units_Z 42
_cell_length_a 21.178438
_cell_length_b 14.507998
_cell_length_c 7.755408
_cell_angle_alpha 90.000000
_cell_angle_beta 68.515393
_cell_angle_gamma 90.000000
_cell_volume 2217.327828
_symmetry_space_group_name_H-M "C 2/M"
_symmetry_group_IT_number 12
_symmetry_cell_setting 'monoclinic'
loop_
_space_group_symop_operation_xyz
x,y,z
-x,y,-z
-x,-y,-z
x,-y,z
1/2+x,1/2+y,z
1/2-x,1/2+y,-z
1/2-x,1/2-y,-z
1/2+x,1/2-y,z
loop_
_atom_site_type_symbol
_atom_site_label
_atom_site_fract_x
_atom_site_fract_y
_atom_site_fract_z
Si Si1 0.139467 0.767129 0.655977
Si Si2 0.263808 0.894818 0.944727
Si Si3 0.500002 0.652832 0.308665
Si Si4 0.139464 0.767110 0.065092
Si Si5 0.236178 0.394819 0.472312
Si Si6 0.000000 0.000000 0.000000
O O1 0.172860 0.667809 0.589942
O O2 0.195729 0.841578 0.537429
O O3 0.067689 0.786094 0.642689
O O4 0.131586 0.780018 0.868417
O O5 0.327135 0.832208 0.935709
O O6 0.262044 0.895728 0.737978
O O7 0.266193 0.000000 0.003005
O O8 0.195719 0.841558 0.071152
O O9 0.500000 0.610864 0.500000
O O10 0.567681 0.713934 0.221951
O O11 0.500012 0.579846 0.153027
O O12 0.233776 0.500000 0.535376
#
# Coordination Sequence:
#
# PCOD9200707 Si02
#       6
#     8   8   8   8   8   2
#     4  10  20  37  59  85 124 159 196 252 300 354
#     4   9  19  35  59  85 117 158 203 249 301 357
#     4  12  25  41  64  89 124 161 199 244 306 360
#     4  10  20  37  59  85 124 159 196 252 300 354
#     4   9  19  35  59  85 117 158 203 249 301 357
#     4  12  26  44  60  94 122 160 198 250 300 366
#
# _framework density 18.941718000000002
#
# number of rings (size 3 to 8) (size 9 to 14) (size 15 to 20)
#    0.000    1.905    1.905    1.429    2.667    2.286 
#    0.000    0.952    0.000    5.714    0.000    0.000 
#    0.000    0.000    0.000    0.000    0.000    0.000 
#
# Total GULP energy -116981.683821 kJ/mol
# GULP energy per Si atom -5570.556372 kJ/mol
# Density = 1.889861 g / cm^3
# Si number density = 18.941718 Si / 1000 Ang^3
#
#
#
# Elastic Constant Matrix: (Units=GPa)
#
#
# Indices 1 2 3 4 5 6 
#
# 1 122.7600 68.0370 51.2150 0.0000 -29.7288 0.0000
# 2 68.0370 157.2835 33.8771 0.0000 -19.0587 0.0000
# 3 51.2150 33.8771 83.3251 0.0000 7.7811 0.0000
# 4 0.0000 0.0000 0.0000 21.4275 0.0000 17.8205
# 5 -29.7288 -19.0587 7.7811 0.0000 30.0924 0.0000
# 6 0.0000 0.0000 0.0000 17.8205 0.0000 -10.4404
#
#
#
# Elastic Compliance Matrix: (Units=1/GPa)
#
#
# Indices 1 2 3 4 5 6 
#
# 1 0.021182 -0.003528 -0.013661 0.000000 0.022225 0.000000
# 2 -0.003528 0.008481 -0.001492 0.000000 0.002272 0.000000
# 3 -0.013661 -0.001492 0.022906 0.000000 -0.020364 0.000000
# 4 0.000000 0.000000 0.000000 0.019288 0.000000 0.032923
# 5 0.022225 0.002272 -0.020364 0.000000 0.061892 0.000000
# 6 0.000000 0.000000 0.000000 0.032923 0.000000 -0.039587
#
#
# Mechanical properties :
#
#
# Convention : Reuss Voigt Hill
#
# Bulk Modulus (GPa) = 65.75353 74.40299 70.07826
# Shear Modulus (GPa) = 36.60535 22.23187 29.41861
#
# Velocity S-wave (km/s) = 4.40082 3.42965 3.94523
# Velocity P-wave (km/s) = 7.78536 7.41947 7.60462
#
# Compressibility (1/GPa) = 0.01520831
#
# Stress axis : x y z
#
# Youngs Moduli (GPa) = 47.20882 117.91757 43.65698
#
# Poissons Ratio (x) = 0.41596 0.59639
# Poissons Ratio (y) = 0.16653 0.06513
# Poissons Ratio (z) = 0.64491 0.17591
#
# Static dielectric constant tensor:
#      x y z
#    x 1.645640 0.000000 0.018850 
#    y 0.000000 1.632370 0.000000 
#    z 0.018850 0.000000 1.679410 
# 
# From -- ./inp_files/72950.got.cif
#   From: 2010.05.17/outbox.cif.g08.bks.cpg/sg12_37_cif.got.tgz:72950.got - 2010.06.03 13:09:07.
