data_PCOD9200694
_publ_section_title
;
Structure prediction by ZEFSAII (Michael W. Deem and Ramdas Pophale) SiO2 
 PCOD9200694
Probable space group: C 2/M
;
_chemical_formula_sum "Si O2"
_cell_formula_units_Z 52
_cell_length_a 10.256756
_cell_length_b 26.367196
_cell_length_c 13.121010
_cell_angle_alpha 90.000000
_cell_angle_beta 54.417080
_cell_angle_gamma 90.000000
_cell_volume 2885.879969
_symmetry_space_group_name_H-M "C 2/M"
_symmetry_group_IT_number 12
_symmetry_cell_setting 'monoclinic'
loop_
_space_group_symop_operation_xyz
x,y,z
-x,y,-z
-x,-y,-z
x,-y,z
1/2+x,1/2+y,z
1/2-x,1/2+y,-z
1/2-x,1/2-y,-z
1/2+x,1/2-y,z
loop_
_atom_site_type_symbol
_atom_site_label
_atom_site_fract_x
_atom_site_fract_y
_atom_site_fract_z
Si Si1 0.670881 0.864782 0.617733
Si Si2 0.695474 0.683319 0.240681
Si Si3 0.098022 0.708670 0.353310
Si Si4 0.129335 0.058710 0.860422
Si Si5 0.635928 0.636114 0.676635
Si Si6 0.536328 0.058751 0.171933
Si Si7 0.500000 0.866690 0.000000
O O1 0.769399 0.835544 0.660064
O O2 0.520208 0.829215 0.653696
O O3 0.775490 0.874616 0.470239
O O4 0.603495 0.916509 0.696378
O O5 0.651214 0.742451 0.266101
O O6 0.541871 0.654966 0.265515
O O7 0.852815 0.667714 0.105497
O O8 0.255098 0.678851 0.318760
O O9 0.000000 0.724545 0.500000
O O10 0.131606 0.089255 0.755214
O O11 0.301577 0.060728 0.836126
O O12 0.087712 0.000000 0.859655
O O13 0.000000 0.079485 0.000000
O O14 0.506240 0.000000 0.157762
O O15 0.550709 0.095861 0.068681
#
# Coordination Sequence:
#
# PCOD9200694 Si02
#       7
#     8   8   8   8   8   8   4
#     4  10  21  37  58  89 119 145 196 238 284 348
#     4  11  22  38  58  84 118 157 192 237 286 334
#     4  10  20  37  59  85 117 153 192 233 286 344
#     4  10  21  37  58  83 113 151 195 237 282 341
#     4  11  21  37  61  87 115 154 190 239 289 338
#     4  10  20  38  61  83 113 153 190 235 291 342
#     4  10  23  40  58  84 118 152 195 234 282 352
#
# _framework density 18.018768000000001
#
# number of rings (size 3 to 8) (size 9 to 14) (size 15 to 20)
#    0.000    1.692    1.538    3.462    0.000    3.077 
#    1.385    8.462    0.000    4.615    0.000    0.000 
#    0.000    0.000    0.000    0.000    0.000    0.000 
#
# Total GULP energy -145195.990225 kJ/mol
# GULP energy per Si atom -5584.461163 kJ/mol
# Density = 1.797776 g / cm^3
# Si number density = 18.018768 Si / 1000 Ang^3
#
#
#
# Elastic Constant Matrix: (Units=GPa)
#
#
# Indices 1 2 3 4 5 6 
#
# 1 100.5564 24.6181 42.7524 0.0000 0.7306 0.0000
# 2 24.6181 88.1251 67.3130 0.0000 -0.3112 0.0000
# 3 42.7524 67.3130 124.3278 0.0000 2.6472 0.0000
# 4 0.0000 0.0000 0.0000 -17.1497 0.0000 1.2253
# 5 0.7306 -0.3112 2.6472 0.0000 21.3305 0.0000
# 6 0.0000 0.0000 0.0000 1.2253 0.0000 15.7874
#
#
#
# Elastic Compliance Matrix: (Units=1/GPa)
#
#
# Indices 1 2 3 4 5 6 
#
# 1 0.011653 -0.000329 -0.003830 0.000000 0.000071 0.000000
# 2 -0.000329 0.019413 -0.010431 0.000000 0.001589 0.000000
# 3 -0.003830 -0.010431 0.015048 0.000000 -0.001889 0.000000
# 4 0.000000 0.000000 0.000000 -0.057989 0.000000 0.004501
# 5 0.000071 0.001589 -0.001889 0.000000 0.047136 0.000000
# 6 0.000000 0.000000 0.000000 0.004501 0.000000 0.062992
#
#
# Mechanical properties :
#
#
# Convention : Reuss Voigt Hill
#
# Bulk Modulus (GPa) = 59.05727 64.70847 61.88287
# Shear Modulus (GPa) = 37.57148 15.88201 26.72675
#
# Velocity S-wave (km/s) = 4.57128 2.97208 3.85551
# Velocity P-wave (km/s) = 7.79158 6.91140 7.36465
#
# Compressibility (1/GPa) = 0.01693272
#
# Stress axis : x y z
#
# Youngs Moduli (GPa) = 85.81245 51.51303 66.45380
#
# Poissons Ratio (x) = 0.01697 0.25455
# Poissons Ratio (y) = 0.02826 0.69317
# Poissons Ratio (z) = 0.32870 0.53732
#
# Static dielectric constant tensor:
#      x y z
#    x 1.602060 0.000000 0.000450 
#    y 0.000000 1.601180 0.000000 
#    z 0.000450 0.000000 1.606570 
# 
# From -- ./inp_files/125135.got.cif
#   From: 2010.05.17/outbox.cif.g08.bks.cpg/sg12_63_cif.got.tgz:125135.got - 2010.06.03 13:09:07.
