data_PCOD9200888
_publ_section_title
;
Structure prediction by ZEFSAII (Michael W. Deem and Ramdas Pophale) SiO2 
 PCOD9200888
Probable space group: C 2/M
;
_chemical_formula_sum "Si O2"
_cell_formula_units_Z 48
_cell_length_a 17.346143
_cell_length_b 18.554351
_cell_length_c 13.705085
_cell_angle_alpha 90.000000
_cell_angle_beta 147.310973
_cell_angle_gamma 90.000000
_cell_volume 2382.252735
_symmetry_space_group_name_H-M "C 2/M"
_symmetry_group_IT_number 12
_symmetry_cell_setting 'monoclinic'
loop_
_space_group_symop_operation_xyz
x,y,z
-x,y,-z
-x,-y,-z
x,-y,z
1/2+x,1/2+y,z
1/2-x,1/2+y,-z
1/2-x,1/2-y,-z
1/2+x,1/2-y,z
loop_
_atom_site_type_symbol
_atom_site_label
_atom_site_fract_x
_atom_site_fract_y
_atom_site_fract_z
Si Si1 0.840964 0.298356 0.822800
Si Si2 0.806157 0.578960 0.945043
Si Si3 0.170024 0.296064 0.772017
Si Si4 0.744391 0.335356 0.509835
Si Si5 0.520620 0.082617 0.356837
Si Si6 0.082239 0.164763 0.814328
O O1 0.837581 0.358625 0.902754
O O2 0.720977 0.239754 0.725171
O O3 0.808796 0.338974 0.687670
O O4 0.000000 0.265819 0.000000
O O5 0.803912 0.500000 0.897515
O O6 0.657412 0.599714 0.837365
O O7 0.922057 0.580569 0.154451
O O8 0.090613 0.234519 0.751812
O O9 0.070556 0.366021 0.668914
O O10 0.315664 0.314835 0.986242
O O11 0.750000 0.250000 0.500000
O O12 0.835612 0.379323 0.528298
O O13 0.578022 0.354285 0.329851
O O14 0.541265 0.000000 0.411837
#
# Coordination Sequence:
#
# PCOD9200888 Si02
#       6
#     8   8   8   8   8   8
#     4  11  21  34  57  85 114 150 192 237 282 330
#     4   9  19  35  55  82 118 153 183 219 282 355
#     4   9  18  37  57  79 111 152 194 228 270 344
#     4  12  22  35  55  86 115 144 191 242 285 332
#     4  10  20  37  60  85 115 154 186 226 290 349
#     4   9  18  33  56  78 114 149 188 228 273 333
#
# _framework density 20.148996
#
# number of rings (size 3 to 8) (size 9 to 14) (size 15 to 20)
#    0.000    2.000    3.333    2.000    0.000    4.333 
#    0.000    0.833    0.000    2.500    0.000    0.000 
#    0.000    0.000    0.000    0.000    0.000    0.000 
#
# Total GULP energy -133987.995615 kJ/mol
# GULP energy per Si atom -5582.833151 kJ/mol
# Density = 2.010314 g / cm^3
# Si number density = 20.148996 Si / 1000 Ang^3
#
#
#
# Elastic Constant Matrix: (Units=GPa)
#
#
# Indices 1 2 3 4 5 6 
#
# 1 64.2311 41.9793 34.3213 0.0000 26.2968 0.0000
# 2 41.9793 114.4586 19.5220 0.0000 21.8070 0.0000
# 3 34.3213 19.5220 86.3375 0.0000 28.8648 0.0000
# 4 0.0000 0.0000 0.0000 16.4626 0.0000 4.3149
# 5 26.2968 21.8070 28.8648 0.0000 46.7624 0.0000
# 6 0.0000 0.0000 0.0000 4.3149 0.0000 18.3968
#
#
#
# Elastic Compliance Matrix: (Units=1/GPa)
#
#
# Indices 1 2 3 4 5 6 
#
# 1 0.026992 -0.007314 -0.006479 0.000000 -0.007769 0.000000
# 2 -0.007314 0.011620 0.000903 0.000000 -0.001863 0.000000
# 3 -0.006479 0.000903 0.016225 0.000000 -0.006793 0.000000
# 4 0.000000 0.000000 0.000000 0.064722 0.000000 -0.015180
# 5 -0.007769 -0.001863 -0.006793 0.000000 0.030815 0.000000
# 6 0.000000 0.000000 0.000000 -0.015180 0.000000 0.057918
#
#
# Mechanical properties :
#
#
# Convention : Reuss Voigt Hill
#
# Bulk Modulus (GPa) = 34.41560 50.74139 42.57849
# Shear Modulus (GPa) = 20.51217 27.60468 24.05843
#
# Velocity S-wave (km/s) = 3.19411 3.70540 3.45922
# Velocity P-wave (km/s) = 5.54263 6.59882 6.09365
#
# Compressibility (1/GPa) = 0.02905659
#
# Stress axis : x y z
#
# Youngs Moduli (GPa) = 37.04852 86.05553 61.63438
#
# Poissons Ratio (x) = 0.62945 0.39931
# Poissons Ratio (y) = 0.27099 -0.05566
# Poissons Ratio (z) = 0.24003 -0.07771
#
# Static dielectric constant tensor:
#      x y z
#    x 1.744620 0.000000 -0.006790 
#    y 0.000000 1.704920 0.000000 
#    z -0.006790 0.000000 1.697140 
# 
# From -- ./inp_files/75096.got.cif
#   From: 2010.05.17/outbox.cif.g08.bks.cpg/sg12_38_cif.got.tgz:75096.got - 2010.06.03 13:09:07.
