data_PCOD9200379
_publ_section_title
;
Structure prediction by ZEFSAII (Michael W. Deem and Ramdas Pophale) SiO2 
 PCOD9200379
Probable space group: C 2/M
;
_chemical_formula_sum "Si O2"
_cell_formula_units_Z 56
_cell_length_a 15.983859
_cell_length_b 27.998938
_cell_length_c 7.431878
_cell_angle_alpha 90.000000
_cell_angle_beta 129.584577
_cell_angle_gamma 90.000000
_cell_volume 2563.294838
_symmetry_space_group_name_H-M "C 2/M"
_symmetry_group_IT_number 12
_symmetry_cell_setting 'monoclinic'
loop_
_space_group_symop_operation_xyz
x,y,z
-x,y,-z
-x,-y,-z
x,-y,z
1/2+x,1/2+y,z
1/2-x,1/2+y,-z
1/2-x,1/2-y,-z
1/2+x,1/2-y,z
loop_
_atom_site_type_symbol
_atom_site_label
_atom_site_fract_x
_atom_site_fract_y
_atom_site_fract_z
Si Si1 0.588916 0.638294 0.773816
Si Si2 0.851239 0.598522 0.619806
Si Si3 0.683525 0.185971 0.990375
Si Si4 0.343234 0.790450 0.637691
Si Si5 0.779619 0.053929 0.871013
Si Si6 0.542489 0.266063 0.749558
Si Si7 0.900072 0.588639 0.110390
O O1 0.500000 0.624623 0.500000
O O2 0.696665 0.664106 0.838750
O O3 0.555970 0.682465 0.861560
O O4 0.632859 0.592069 0.937041
O O5 0.831076 0.655148 0.548559
O O6 0.764218 0.569633 0.384808
O O7 0.853376 0.590936 0.840321
O O8 0.971487 0.580691 0.725380
O O9 0.646827 0.199776 0.138441
O O10 0.612405 0.141856 0.826080
O O11 0.646393 0.233691 0.840019
O O12 0.250000 0.750000 0.500000
O O13 0.451017 0.766549 0.709796
O O14 0.820386 0.000000 0.924608
O O15 0.676434 0.057289 0.867670
O O16 0.500000 0.282699 0.500000
#
# Coordination Sequence:
#
# PCOD9200379 Si02
#       7
#     8   8   8   8   8   8   8
#     4  10  23  41  61  88 125 167 220 275 322 379
#     4  10  21  38  61  97 134 163 205 263 321 394
#     4  10  20  37  57  86 129 164 206 244 312 388
#     4  11  22  34  57  91 133 174 201 241 307 387
#     4  11  25  42  66  91 118 168 228 275 328 380
#     4  11  22  34  59  95 128 169 207 249 316 389
#     4   9  20  39  62  90 135 164 195 260 330 395
#
# _framework density 21.846882999999998
#
# number of rings (size 3 to 8) (size 9 to 14) (size 15 to 20)
#    0.000    1.714    1.429    3.000    6.000    2.000 
#    0.000    1.429    0.000    0.000    0.000   15.000 
#    0.000    0.000    0.000    0.000    0.000    0.000 
#
# Total GULP energy -156051.699837 kJ/mol
# GULP energy per Si atom -5573.274994 kJ/mol
# Density = 2.179716 g / cm^3
# Si number density = 21.846883 Si / 1000 Ang^3
#
#
#
# Elastic Constant Matrix: (Units=GPa)
#
#
# Indices 1 2 3 4 5 6 
#
# 1 33.6024 2.2877 8.8910 0.0000 0.8213 0.0000
# 2 2.2877 151.4376 51.6716 0.0000 1.4477 0.0000
# 3 8.8910 51.6716 109.2844 0.0000 10.9321 0.0000
# 4 0.0000 0.0000 0.0000 12.1562 0.0000 9.3948
# 5 0.8213 1.4477 10.9321 0.0000 25.0945 0.0000
# 6 0.0000 0.0000 0.0000 9.3948 0.0000 7.2516
#
#
#
# Elastic Compliance Matrix: (Units=1/GPa)
#
#
# Indices 1 2 3 4 5 6 
#
# 1 0.030442 0.000464 -0.002712 0.000000 0.000158 0.000000
# 2 0.000464 0.007917 -0.003904 0.000000 0.001229 0.000000
# 3 -0.002712 -0.003904 0.011695 0.000000 -0.004781 0.000000
# 4 0.000000 0.000000 0.000000-65.547075 0.000000 84.919554
# 5 0.000158 0.001229 -0.004781 0.000000 0.041856 0.000000
# 6 0.000000 0.000000 0.000000 84.919554 0.000000**********
#
#
# Mechanical properties :
#
#
# Convention : Reuss Voigt Hill
#
# Bulk Modulus (GPa) = 26.48992 46.66943 36.57967
# Shear Modulus (GPa) = -0.02852 24.33209 12.15178
#
# Velocity S-wave (km/s) = -0.11438 3.34092 2.36100
# Velocity P-wave (km/s) = 3.48341 6.02418 4.92061
#
# Compressibility (1/GPa) = 0.03775021
#
# Stress axis : x y z
#
# Youngs Moduli (GPa) = 32.84949 126.31657 85.50611
#
# Poissons Ratio (x) = -0.05860 0.23188
# Poissons Ratio (y) = -0.01524 0.33380
# Poissons Ratio (z) = 0.08908 0.49311
#
# Static dielectric constant tensor:
#      x y z
#    x 1.989630 0.000000 -0.125430 
#    y 0.000000 1.918180 0.000000 
#    z -0.125430 0.000000 2.070290 
# 
# From -- ./inp_files/80118.got.cif
#   From: 2010.05.17/outbox.cif.g08.bks.cpg/sg12_41_cif.got.tgz:80118.got - 2010.06.03 13:09:07.
