data_PCOD9200692
_publ_section_title
;
Structure prediction by ZEFSAII (Michael W. Deem and Ramdas Pophale) SiO2 
 PCOD9200692
Probable space group: C 2/M
;
_chemical_formula_sum "Si O2"
_cell_formula_units_Z 40
_cell_length_a 30.334541
_cell_length_b 10.502647
_cell_length_c 7.045391
_cell_angle_alpha 90.000000
_cell_angle_beta 117.894935
_cell_angle_gamma 90.000000
_cell_volume 1983.803856
_symmetry_space_group_name_H-M "C 2/M"
_symmetry_group_IT_number 12
_symmetry_cell_setting 'monoclinic'
loop_
_space_group_symop_operation_xyz
x,y,z
-x,y,-z
-x,-y,-z
x,-y,z
1/2+x,1/2+y,z
1/2-x,1/2+y,-z
1/2-x,1/2-y,-z
1/2+x,1/2-y,z
loop_
_atom_site_type_symbol
_atom_site_label
_atom_site_fract_x
_atom_site_fract_y
_atom_site_fract_z
Si Si1 0.445966 0.346684 0.815364
Si Si2 0.803400 0.500000 0.824804
Si Si3 0.692620 0.500000 0.702497
Si Si4 0.854269 0.235073 0.891729
Si Si5 0.326879 0.000000 0.325381
Si Si6 0.784273 0.000000 0.799143
Si Si7 0.877044 0.235571 0.385114
O O1 0.444044 0.500000 0.812191
O O2 0.402182 0.294169 0.861587
O O3 0.431191 0.296723 0.577082
O O4 0.500000 0.307365 0.000000
O O5 0.743548 0.500000 0.687155
O O6 0.829241 0.371594 0.804902
O O7 0.812746 0.500000 0.072558
O O8 0.659621 0.625676 0.608786
O O9 0.706735 0.500000 0.954121
O O10 0.812649 0.125312 0.784221
O O11 0.871955 0.231376 0.147815
O O12 0.358074 0.872123 0.416768
O O13 0.275328 0.000000 0.338133
#
# Coordination Sequence:
#
# PCOD9200692 Si02
#       7
#     8   4   4   8   4   4   8
#     4  11  24  41  60  82 107 140 193 249 284 322
#     4   9  18  33  57  88 121 151 180 220 272 334
#     4   9  16  31  57  86 117 153 186 218 264 328
#     4  10  20  37  59  85 116 149 185 226 276 332
#     4   9  18  33  57  88 121 151 180 220 272 334
#     4   9  16  31  57  86 117 153 186 218 264 328
#     4  10  20  37  59  85 116 149 185 226 276 332
#
# _framework density 20.163281999999999
#
# number of rings (size 3 to 8) (size 9 to 14) (size 15 to 20)
#    0.000    2.200    2.000    1.200    0.000    6.400 
#    0.000   10.000    0.000    3.600    0.000    0.000 
#    0.000    0.000    0.000    0.000    0.000    0.000 
#
# Total GULP energy -111805.723519 kJ/mol
# GULP energy per Si atom -5590.286176 kJ/mol
# Density = 2.011739 g / cm^3
# Si number density = 20.163282 Si / 1000 Ang^3
#
#
#
# Elastic Constant Matrix: (Units=GPa)
#
#
# Indices 1 2 3 4 5 6 
#
# 1 55.4574 22.2721 16.5576 0.0000 0.7030 0.0000
# 2 22.2721 158.6329 36.2661 0.0000 18.9847 0.0000
# 3 16.5576 36.2661 113.3377 0.0000 12.9536 0.0000
# 4 0.0000 0.0000 0.0000 6.3212 0.0000 1.4801
# 5 0.7030 18.9847 12.9536 0.0000 36.7043 0.0000
# 6 0.0000 0.0000 0.0000 1.4801 0.0000 1.2134
#
#
#
# Elastic Compliance Matrix: (Units=1/GPa)
#
#
# Indices 1 2 3 4 5 6 
#
# 1 0.019674 -0.002442 -0.002286 0.000000 0.001693 0.000000
# 2 -0.002442 0.007407 -0.001647 0.000000 -0.003203 0.000000
# 3 -0.002286 -0.001647 0.009985 0.000000 -0.002628 0.000000
# 4 0.000000 0.000000 0.000000 0.221453 0.000000 -0.270139
# 5 0.001693 -0.003203 -0.002628 0.000000 0.029796 0.000000
# 6 0.000000 0.000000 0.000000 -0.270139 0.000000 1.153669
#
#
# Mechanical properties :
#
#
# Convention : Reuss Voigt Hill
#
# Bulk Modulus (GPa) = 41.12874 53.06884 47.09879
# Shear Modulus (GPa) = 3.41801 25.66992 14.54397
#
# Velocity S-wave (km/s) = 1.30340 3.57193 2.68863
# Velocity P-wave (km/s) = 4.76521 6.58697 5.74872
#
# Compressibility (1/GPa) = 0.02431390
#
# Stress axis : x y z
#
# Youngs Moduli (GPa) = 50.82911 135.01433 100.15421
#
# Poissons Ratio (x) = 0.32973 0.22897
# Poissons Ratio (y) = 0.12413 0.16497
# Poissons Ratio (z) = 0.11621 0.22239
#
# Static dielectric constant tensor:
#      x y z
#    x 1.690350 0.000000 -0.059690 
#    y 0.000000 1.670230 0.000000 
#    z -0.059690 0.000000 1.773020 
# 
# From -- ./inp_files/102904.got.cif
#   From: 2010.05.17/outbox.cif.g08.bks.cpg/sg12_52_cif.got.tgz:102904.got - 2010.06.03 13:09:07.
