data_PCOD9200182
_publ_section_title
;
Structure prediction by ZEFSAII (Michael W. Deem and Ramdas Pophale) SiO2 
 PCOD9200182
Probable space group: C 2/M
;
_chemical_formula_sum "Si O2"
_cell_formula_units_Z 44
_cell_length_a 20.484866
_cell_length_b 9.544212
_cell_length_c 22.533192
_cell_angle_alpha 90.000000
_cell_angle_beta 23.839015
_cell_angle_gamma 90.000000
_cell_volume 1780.566100
_symmetry_space_group_name_H-M "C 2/M"
_symmetry_group_IT_number 12
_symmetry_cell_setting 'monoclinic'
loop_
_space_group_symop_operation_xyz
x,y,z
-x,y,-z
-x,-y,-z
x,-y,z
1/2+x,1/2+y,z
1/2-x,1/2+y,-z
1/2-x,1/2-y,-z
1/2+x,1/2-y,z
loop_
_atom_site_type_symbol
_atom_site_label
_atom_site_fract_x
_atom_site_fract_y
_atom_site_fract_z
Si Si1 0.287271 0.000000 0.487754
Si Si2 0.861022 0.163225 0.972134
Si Si3 0.309023 0.659081 0.224669
Si Si4 0.286641 0.661862 0.804261
Si Si5 0.358820 0.652422 0.545976
Si Si6 0.075157 0.729587 0.693792
O O1 0.150864 0.878245 0.614458
O O2 0.422895 0.876831 0.362110
O O3 0.025195 0.158483 0.876266
O O4 0.922006 0.244067 0.862724
O O5 0.815665 0.000000 0.999008
O O6 0.742271 0.254746 0.111263
O O7 0.272225 0.500000 0.237244
O O8 0.309976 0.759122 0.167362
O O9 0.176155 0.722277 0.380079
O O10 0.237201 0.500000 0.852152
O O11 0.471960 0.662966 0.628015
O O12 0.351599 0.500000 0.582992
O O13 0.212564 0.654898 0.620854
#
# Coordination Sequence:
#
# PCOD9200182 Si02
#       6
#     4   8   8   8   8   8
#     4  10  20  36  66  88 104 132 186 228 284 332
#     4  10  21  37  55  81 116 144 184 228 271 319
#     4  10  21  36  56  81 110 150 195 229 261 313
#     4  11  23  35  53  80 116 156 185 219 270 324
#     4  10  21  37  55  81 117 146 183 228 271 320
#     4  10  20  38  62  89 106 140 177 235 274 332
#
# _framework density 24.711241000000001
#
# number of rings (size 3 to 8) (size 9 to 14) (size 15 to 20)
#    0.000    1.818    1.818    2.182    2.545    7.273 
#    0.000    0.000    0.000    6.545    0.000    0.000 
#    0.000    0.000    0.000    0.000    0.000    0.000 
#
# Total GULP energy -122708.412712 kJ/mol
# GULP energy per Si atom -5577.655123 kJ/mol
# Density = 2.465500 g / cm^3
# Si number density = 24.711241 Si / 1000 Ang^3
#
#
#
# Elastic Constant Matrix: (Units=GPa)
#
#
# Indices 1 2 3 4 5 6 
#
# 1 56.7013 -1.7536 -9.5822 -0.0007 -1.4614 -0.0014
# 2 -1.7536 206.2864 55.5555 -0.0026 8.0923 -0.0036
# 3 -9.5822 55.5555 152.3309 -0.0014 13.7243 -0.0021
# 4 -0.0007 -0.0026 -0.0014 29.5385 -0.0002 8.3236
# 5 -1.4614 8.0923 13.7243 -0.0002 35.8453 0.0010
# 6 -0.0014 -0.0036 -0.0021 8.3236 0.0010 -135.6539
#
#
#
# Elastic Compliance Matrix: (Units=1/GPa)
#
#
# Indices 1 2 3 4 5 6 
#
# 1 0.017835 -0.000172 0.001156 0.000001 0.000324 0.000000
# 2 -0.000172 0.005385 -0.001931 0.000000 -0.000483 0.000000
# 3 0.001156 -0.001931 0.007559 0.000000 -0.002411 0.000000
# 4 0.000001 0.000000 0.000000 0.033279 0.000000 0.002042
# 5 0.000324 -0.000483 -0.002411 0.000000 0.028943 0.000000
# 6 0.000000 0.000000 0.000000 0.002042 0.000000 -0.007246
#
#
# Mechanical properties :
#
#
# Convention : Reuss Voigt Hill
#
# Bulk Modulus (GPa) = 34.62285 55.97311 45.29798
# Shear Modulus (GPa) = 51.39921 10.68592 31.04256
#
# Velocity S-wave (km/s) = 4.56564 2.08176 3.54815
# Velocity P-wave (km/s) = 6.46799 5.33651 5.92930
#
# Compressibility (1/GPa) = 0.02888266
#
# Stress axis : x y z
#
# Youngs Moduli (GPa) = 56.07083 185.69238 132.29405
#
# Poissons Ratio (x) = 0.03199 -0.15287
# Poissons Ratio (y) = 0.00966 0.25550
# Poissons Ratio (z) = -0.06479 0.35863
#
# Static dielectric constant tensor:
#      x y z
#    x 2.109530 0.000000 -0.014770 
#    y 0.000000 1.879430 0.000000 
#    z -0.014770 0.000000 1.993420 
# 
# From -- ./inp_files/107904.got.cif
#   From: 2010.05.17/outbox.cif.g08.bks.cpg/sg12_54_cif.got.tgz:107904.got - 2010.06.03 13:09:07.
