data_PCOD9200229
_publ_section_title
;
Structure prediction by ZEFSAII (Michael W. Deem and Ramdas Pophale) SiO2 
 PCOD9200229
Probable space group: C 2/M
;
_chemical_formula_sum "Si O2"
_cell_formula_units_Z 42
_cell_length_a 30.926838
_cell_length_b 7.755163
_cell_length_c 15.799850
_cell_angle_alpha 90.000000
_cell_angle_beta 143.053563
_cell_angle_gamma 90.000000
_cell_volume 2277.734675
_symmetry_space_group_name_H-M "C 2/M"
_symmetry_group_IT_number 12
_symmetry_cell_setting 'monoclinic'
loop_
_space_group_symop_operation_xyz
x,y,z
-x,y,-z
-x,-y,-z
x,-y,z
1/2+x,1/2+y,z
1/2-x,1/2+y,-z
1/2-x,1/2-y,-z
1/2+x,1/2-y,z
loop_
_atom_site_type_symbol
_atom_site_label
_atom_site_fract_x
_atom_site_fract_y
_atom_site_fract_z
Si Si1 0.031961 0.699492 0.357642
Si Si2 0.834762 0.200181 0.328805
Si Si3 0.675182 0.209338 0.046445
Si Si4 0.529195 0.307178 0.910130
Si Si5 0.500000 0.000000 0.000000
Si Si6 0.608418 0.791983 0.764760
O O1 0.013735 0.500000 0.312057
O O2 0.109819 0.712615 0.520684
O O3 0.020937 0.793993 0.251922
O O4 0.971769 0.760383 0.331077
O O5 0.753491 0.269257 0.198456
O O6 0.866185 0.214673 0.283309
O O7 0.831431 0.000000 0.347714
O O8 0.673401 0.000000 0.047681
O O9 0.610042 0.279301 0.000613
O O10 0.659276 0.255005 0.923642
O O11 0.523093 0.500000 0.936185
O O12 0.511280 0.153003 0.945348
O O13 0.609304 0.000000 0.755745
#
# Coordination Sequence:
#
# PCOD9200229 Si02
#       6
#     8   8   8   8   2   8
#     4  10  20  37  54  78 119 157 193 246 290 332
#     4  11  21  30  50  82 116 164 201 238 283 338
#     4   9  19  37  53  78 121 157 191 246 290 330
#     4  11  22  39  67  94 112 147 189 233 294 357
#     4  12  22  44  68  94 118 136 180 250 296 350
#     4   9  18  32  50  72 112 162 209 243 283 322
#
# _framework density 18.439373
#
# number of rings (size 3 to 8) (size 9 to 14) (size 15 to 20)
#    0.000    1.905    1.905    3.714    0.000    7.619 
#    0.000    0.000    0.000    1.143    0.000    0.000 
#    0.000    0.000    0.000    0.000    0.000    0.000 
#
# Total GULP energy -116987.324300 kJ/mol
# GULP energy per Si atom -5570.824967 kJ/mol
# Density = 1.839740 g / cm^3
# Si number density = 18.439373 Si / 1000 Ang^3
#
#
#
# Elastic Constant Matrix: (Units=GPa)
#
#
# Indices 1 2 3 4 5 6 
#
# 1 62.6426 32.4686 54.2639 0.0000 -20.9252 0.0000
# 2 32.4686 91.6075 18.6788 0.0000 -7.4411 0.0000
# 3 54.2639 18.6788 126.0873 0.0000 13.5175 0.0000
# 4 0.0000 0.0000 0.0000 20.2449 0.0000 0.3172
# 5 -20.9252 -7.4411 13.5175 0.0000 13.2681 0.0000
# 6 0.0000 0.0000 0.0000 0.3172 0.0000 10.4934
#
#
#
# Elastic Compliance Matrix: (Units=1/GPa)
#
#
# Indices 1 2 3 4 5 6 
#
# 1 -0.046867 0.001765 0.031126 0.000000 -0.104636 0.000000
# 2 0.001765 0.012234 -0.004048 0.000000 0.013770 0.000000
# 3 0.031126 -0.004048 -0.011096 0.000000 0.058124 0.000000
# 4 0.000000 0.000000 0.000000 0.049419 0.000000 -0.001494
# 5 -0.104636 0.013770 0.058124 0.000000 -0.141148 0.000000
# 6 0.000000 0.000000 0.000000 -0.001494 0.000000 0.095343
#
#
# Mechanical properties :
#
#
# Convention : Reuss Voigt Hill
#
# Bulk Modulus (GPa) = 83.63049 54.57334 69.10191
# Shear Modulus (GPa) = -52.18344 20.46301 -15.86022
#
# Velocity S-wave (km/s) = -5.32555 3.33490 -2.93598
# Velocity P-wave (km/s) = 2.76360 6.67001 5.10522
#
# Compressibility (1/GPa) = 0.01195736
#
# Stress axis : x y z
#
# Youngs Moduli (GPa) = -21.33692 81.73654 -90.11959
#
# Poissons Ratio (x) = -0.14428 2.80509
# Poissons Ratio (y) = 0.03766 -0.36483
# Poissons Ratio (z) = 0.66414 0.33090
#
# Static dielectric constant tensor:
#      x y z
#    x 1.598360 0.000000 0.019780 
#    y 0.000000 1.669840 0.000000 
#    z 0.019780 0.000000 1.637500 
# 
# From -- ./inp_files/220729.got.cif
#   From: 2010.05.17/outbox.cif.g08.bks.cpg/sg12_111_cif.got.tgz:220729.got - 2010.06.03 13:09:07.
