data_PCOD9200121
_publ_section_title
;
Structure prediction by ZEFSAII (Michael W. Deem and Ramdas Pophale) SiO2 
 PCOD9200121
Probable space group: C 2/M
;
_chemical_formula_sum "Si O2"
_cell_formula_units_Z 64
_cell_length_a 27.427360
_cell_length_b 28.151822
_cell_length_c 5.622609
_cell_angle_alpha 90.000000
_cell_angle_beta 134.038464
_cell_angle_gamma 90.000000
_cell_volume 3120.906448
_symmetry_space_group_name_H-M "C 2/M"
_symmetry_group_IT_number 12
_symmetry_cell_setting 'monoclinic'
loop_
_space_group_symop_operation_xyz
x,y,z
-x,y,-z
-x,-y,-z
x,-y,z
1/2+x,1/2+y,z
1/2-x,1/2+y,-z
1/2-x,1/2-y,-z
1/2+x,1/2-y,z
loop_
_atom_site_type_symbol
_atom_site_label
_atom_site_fract_x
_atom_site_fract_y
_atom_site_fract_z
Si Si1 0.285931 0.887045 0.516721
Si Si2 0.783478 0.946984 0.346821
Si Si3 0.065040 0.717474 0.541422
Si Si4 0.718433 0.790730 0.222171
Si Si5 0.036330 0.179073 0.362187
Si Si6 0.185234 0.149316 0.774545
Si Si7 0.462741 0.887302 0.627392
Si Si8 0.354189 0.052364 0.418210
O O1 0.249028 0.931734 0.513364
O O2 0.298864 0.843052 0.731313
O O3 0.351340 0.909133 0.616959
O O4 0.237337 0.864103 0.156572
O O5 0.823128 0.898946 0.410522
O O6 0.814635 0.000000 0.458324
O O7 0.720549 0.949335 0.949829
O O8 0.047839 0.765281 0.346358
O O9 0.064718 0.666153 0.418438
O O10 0.000000 0.714936 0.500000
O O11 0.142851 0.725659 0.891309
O O12 0.750000 0.750000 0.500000
O O13 0.778058 0.806699 0.238746
O O14 0.112246 0.159553 0.633901
O O15 0.000000 0.173797 0.500000
O O16 0.000000 0.159022 0.000000
O O17 0.500000 0.886146 0.500000
O O18 0.403542 0.925578 0.393235
O O19 0.500000 0.901371 0.000000
O O20 0.373926 0.000000 0.562355
#
# Coordination Sequence:
#
# PCOD9200121 Si02
#       8
#     8   8   8   8   8   8   8   8
#     4  10  20  36  64  90 125 166 211 268 333 385
#     4   9  19  37  64  94 122 159 210 269 331 394
#     4  10  23  41  62  95 128 178 222 272 324 395
#     4  11  24  39  65  96 135 172 221 274 331 393
#     4  11  26  44  69  96 134 177 219 267 329 402
#     4  10  23  40  64  96 132 169 217 273 330 393
#     4  11  25  41  61  86 124 172 222 274 326 389
#     4  10  22  38  58  87 120 161 217 275 332 387
#
# _framework density 20.506862000000002
#
# number of rings (size 3 to 8) (size 9 to 14) (size 15 to 20)
#    0.000    1.750    0.000    3.750   12.250    4.000 
#    0.000    0.000    0.000    0.750    0.000    0.000 
#    0.000    0.000    0.000    0.000    0.000    0.000 
#
# Total GULP energy -178159.832018 kJ/mol
# GULP energy per Si atom -5567.494751 kJ/mol
# Density = 2.046019 g / cm^3
# Si number density = 20.506862 Si / 1000 Ang^3
#
#
#
# Elastic Constant Matrix: (Units=GPa)
#
#
# Indices 1 2 3 4 5 6 
#
# 1 103.9405 39.5472 41.5113 0.0000 15.7106 0.0000
# 2 39.5472 80.5677 16.3624 0.0000 16.3053 0.0000
# 3 41.5113 16.3624 58.9540 0.0000 4.6474 0.0000
# 4 0.0000 0.0000 0.0000 19.7798 0.0000 2.2263
# 5 15.7106 16.3053 4.6474 0.0000 28.9881 0.0000
# 6 0.0000 0.0000 0.0000 2.2263 0.0000 1.4502
#
#
#
# Elastic Compliance Matrix: (Units=1/GPa)
#
#
# Indices 1 2 3 4 5 6 
#
# 1 0.015994 -0.005046 -0.009522 0.000000 -0.004303 0.000000
# 2 -0.005046 0.016266 -0.000462 0.000000 -0.006340 0.000000
# 3 -0.009522 -0.000462 0.023667 0.000000 0.001626 0.000000
# 4 0.000000 0.000000 0.000000 0.061117 0.000000 -0.093824
# 5 -0.004303 -0.006340 0.001626 0.000000 0.040135 0.000000
# 6 0.000000 0.000000 0.000000 -0.093824 0.000000 0.833576
#
#
# Mechanical properties :
#
#
# Convention : Reuss Voigt Hill
#
# Bulk Modulus (GPa) = 38.65878 48.70047 43.67962
# Shear Modulus (GPa) = 4.85702 19.77972 12.31837
#
# Velocity S-wave (km/s) = 1.54066 3.10908 2.45357
# Velocity P-wave (km/s) = 4.69653 6.05710 5.41968
#
# Compressibility (1/GPa) = 0.02586735
#
# Stress axis : x y z
#
# Youngs Moduli (GPa) = 62.52240 61.47897 42.25253
#
# Poissons Ratio (x) = 0.31023 0.40234
# Poissons Ratio (y) = 0.31550 0.01950
# Poissons Ratio (z) = 0.59536 0.02837
#
# Static dielectric constant tensor:
#      x y z
#    x 1.871260 0.000000 -0.015760 
#    y 0.000000 1.754300 0.000000 
#    z -0.015760 0.000000 1.752100 
# 
# From -- ./inp_files/29882.got.cif
#   From: 2010.05.17/outbox.cif.g08.bks.cpg/sg12_15_cif.got.tgz:29882.got - 2010.06.03 13:09:07.
