data_PCOD9200210
_publ_section_title
;
Structure prediction by ZEFSAII (Michael W. Deem and Ramdas Pophale) SiO2 
 PCOD9200210
Probable space group: C 2/M
;
_chemical_formula_sum "Si O2"
_cell_formula_units_Z 38
_cell_length_a 17.279771
_cell_length_b 13.905843
_cell_length_c 9.778146
_cell_angle_alpha 90.000000
_cell_angle_beta 138.529949
_cell_angle_gamma 90.000000
_cell_volume 1555.964453
_symmetry_space_group_name_H-M "C 2/M"
_symmetry_group_IT_number 12
_symmetry_cell_setting 'monoclinic'
loop_
_space_group_symop_operation_xyz
x,y,z
-x,y,-z
-x,-y,-z
x,-y,z
1/2+x,1/2+y,z
1/2-x,1/2+y,-z
1/2-x,1/2-y,-z
1/2+x,1/2-y,z
loop_
_atom_site_type_symbol
_atom_site_label
_atom_site_fract_x
_atom_site_fract_y
_atom_site_fract_z
Si Si1 0.398839 0.805842 0.585519
Si Si2 0.476025 0.500000 0.292223
Si Si3 0.744360 0.500000 0.704924
Si Si4 0.274044 0.000000 0.411952
Si Si5 0.328561 0.198587 0.796888
Si Si6 0.000000 0.000000 0.000000
Si Si7 0.872421 0.794925 0.119698
O O1 0.402265 0.809594 0.755963
O O2 0.302919 0.725238 0.423926
O O3 0.522434 0.773584 0.693409
O O4 0.346454 0.905815 0.467428
O O5 0.603041 0.500000 0.537107
O O6 0.512826 0.500000 0.182095
O O7 0.402879 0.401389 0.209336
O O8 0.764882 0.500000 0.566555
O O9 0.811267 0.595301 0.844571
O O10 0.145632 0.000000 0.180054
O O11 0.371940 0.282400 0.953982
O O12 0.750000 0.750000 0.000000
#
# Coordination Sequence:
#
# PCOD9200210 Si02
#       7
#     8   4   4   4   8   2   8
#     4  10  21  40  63  96 131 172 225 281 344 391
#     4  11  23  42  65  96 130 178 225 283 325 410
#     4   9  18  39  64  94 124 164 224 266 337 398
#     4   9  19  34  63 100 135 167 212 291 343 405
#     4  10  21  39  67  95 126 170 221 290 333 398
#     4  10  20  36  72 106 128 164 234 282 348 394
#     4  12  27  42  63  97 137 180 228 271 344 414
#
# _framework density 24.422150999999999
#
# number of rings (size 3 to 8) (size 9 to 14) (size 15 to 20)
#    0.000    1.684    2.105    1.895    5.895    3.368 
#    0.000    4.211    0.000    3.789    0.000    0.000 
#    0.000    0.000    0.000    0.000    0.000    0.000 
#
# Total GULP energy -106091.263403 kJ/mol
# GULP energy per Si atom -5583.750705 kJ/mol
# Density = 2.436657 g / cm^3
# Si number density = 24.422151 Si / 1000 Ang^3
#
#
#
# Elastic Constant Matrix: (Units=GPa)
#
#
# Indices 1 2 3 4 5 6 
#
# 1 68.2653 58.7035 46.0244 0.0000 36.8973 0.0000
# 2 58.7035 201.6171 58.1450 0.0000 31.8931 0.0000
# 3 46.0244 58.1450 105.2414 0.0000 22.4000 0.0000
# 4 0.0000 0.0000 0.0000 25.6822 0.0000 -5.4144
# 5 36.8973 31.8931 22.4000 0.0000 67.7646 0.0000
# 6 0.0000 0.0000 0.0000 -5.4144 0.0000 10.5343
#
#
#
# Elastic Compliance Matrix: (Units=1/GPa)
#
#
# Indices 1 2 3 4 5 6 
#
# 1 0.030589 -0.004656 -0.008311 0.000000 -0.011717 0.000000
# 2 -0.004656 0.006827 -0.001712 0.000000 -0.000112 0.000000
# 3 -0.008311 -0.001712 0.013927 0.000000 0.000727 0.000000
# 4 0.000000 0.000000 0.000000 0.043669 0.000000 0.022445
# 5 -0.011717 -0.000112 0.000727 0.000000 0.020949 0.000000
# 6 0.000000 0.000000 0.000000 0.022445 0.000000 0.106464
#
#
# Mechanical properties :
#
#
# Convention : Reuss Voigt Hill
#
# Bulk Modulus (GPa) = 45.48401 77.87439 61.67920
# Shear Modulus (GPa) = 19.29673 34.94629 27.12151
#
# Velocity S-wave (km/s) = 2.81398 3.78686 3.33608
# Velocity P-wave (km/s) = 5.40578 7.14678 6.33636
#
# Compressibility (1/GPa) = 0.02198575
#
# Stress axis : x y z
#
# Youngs Moduli (GPa) = 32.69184 146.47788 71.80049
#
# Poissons Ratio (x) = 0.68201 0.59672
# Poissons Ratio (y) = 0.15222 0.12291
# Poissons Ratio (z) = 0.27170 0.25074
#
# Static dielectric constant tensor:
#      x y z
#    x 2.005120 0.000000 -0.033970 
#    y 0.000000 2.033250 0.000000 
#    z -0.033970 0.000000 1.920830 
# 
# From -- ./inp_files/156374.got.cif
#   From: 2010.05.17/outbox.cif.g08.bks.cpg/sg12_79_cif.got.tgz:156374.got - 2010.06.03 13:09:07.
