data_PCOD9200013
_publ_section_title
;
Structure prediction by ZEFSAII (Michael W. Deem and Ramdas Pophale) SiO2 
 PCOD9200013
Probable space group: C 2/M
;
_chemical_formula_sum "Si O2"
_cell_formula_units_Z 40
_cell_length_a 10.464630
_cell_length_b 19.944241
_cell_length_c 12.146413
_cell_angle_alpha 90.000000
_cell_angle_beta 129.575749
_cell_angle_gamma 90.000000
_cell_volume 1953.986438
_symmetry_space_group_name_H-M "C 2/M"
_symmetry_group_IT_number 12
_symmetry_cell_setting 'monoclinic'
loop_
_space_group_symop_operation_xyz
x,y,z
-x,y,-z
-x,-y,-z
x,-y,z
1/2+x,1/2+y,z
1/2-x,1/2+y,-z
1/2-x,1/2-y,-z
1/2+x,1/2-y,z
loop_
_atom_site_type_symbol
_atom_site_label
_atom_site_fract_x
_atom_site_fract_y
_atom_site_fract_z
Si Si1 0.366229 0.078389 0.625011
Si Si2 0.257989 0.575443 0.832733
Si Si3 0.746843 0.074856 0.188883
Si Si4 0.317969 0.677105 0.057216
Si Si5 0.098760 0.116017 0.318699
O O1 0.561125 0.087243 0.713793
O O2 0.321498 0.088779 0.727921
O O3 0.251204 0.123309 0.484197
O O4 0.327674 0.000000 0.577520
O O5 0.284487 0.500000 0.892426
O O6 0.337681 0.579589 0.756120
O O7 0.325895 0.631558 0.952562
O O8 0.705378 0.132089 0.077860
O O9 0.948546 0.077493 0.297508
O O10 0.695122 0.000000 0.126567
O O11 0.497707 0.679619 0.215329
O O12 0.250000 0.750000 0.000000
#
# Coordination Sequence:
#
# PCOD9200013 Si02
#       5
#     8   8   8   8   8
#     4  10  20  36  62  99 129 153 195 263 322 366
#     4  11  22  38  63  96 128 158 205 261 315 366
#     4   9  19  36  64  91 120 160 207 253 306 368
#     4  10  24  42  59  86 124 169 212 255 305 364
#     4  10  21  37  66  92 119 160 205 255 311 365
#
# _framework density 20.470970999999999
#
# number of rings (size 3 to 8) (size 9 to 14) (size 15 to 20)
#    1.200    0.800    0.000    4.200    0.000    4.800 
#    7.200    4.000    4.400    0.000    0.000    0.000 
#    0.000    0.000    0.000    0.000    0.000    0.000 
#
# Total GULP energy -111539.399031 kJ/mol
# GULP energy per Si atom -5576.969952 kJ/mol
# Density = 2.042438 g / cm^3
# Si number density = 20.470971 Si / 1000 Ang^3
#
#
#
# Elastic Constant Matrix: (Units=GPa)
#
#
# Indices 1 2 3 4 5 6 
#
# 1 107.0782 17.3948 30.3873 0.0000 13.1949 0.0000
# 2 17.3948 115.5180 54.4088 0.0000 -1.1651 0.0000
# 3 30.3873 54.4088 82.7176 0.0000 9.0703 0.0000
# 4 0.0000 0.0000 0.0000 22.6266 0.0000 12.4475
# 5 13.1949 -1.1651 9.0703 0.0000 27.9225 0.0000
# 6 0.0000 0.0000 0.0000 12.4475 0.0000 -23.2086
#
#
#
# Elastic Compliance Matrix: (Units=1/GPa)
#
#
# Indices 1 2 3 4 5 6 
#
# 1 0.010834 -0.000003 -0.003543 0.000000 -0.003969 0.000000
# 2 -0.000003 0.012847 -0.008822 0.000000 0.003403 0.000000
# 3 -0.003543 -0.008822 0.019754 0.000000 -0.005111 0.000000
# 4 0.000000 0.000000 0.000000 0.034127 0.000000 0.018303
# 5 -0.003969 0.003403 -0.005111 0.000000 0.039491 0.000000
# 6 0.000000 0.000000 0.000000 0.018303 0.000000 -0.033271
#
#
# Mechanical properties :
#
#
# Convention : Reuss Voigt Hill
#
# Bulk Modulus (GPa) = 53.47891 56.63287 55.05589
# Shear Modulus (GPa) = 43.57270 19.00963 31.29116
#
# Velocity S-wave (km/s) = 4.61858 3.05062 3.91393
# Velocity P-wave (km/s) = 7.39072 6.33509 6.88317
#
# Compressibility (1/GPa) = 0.01869896
#
# Stress axis : x y z
#
# Youngs Moduli (GPa) = 92.30268 77.84110 50.62176
#
# Poissons Ratio (x) = 0.00021 0.17935
# Poissons Ratio (y) = 0.00024 0.44660
# Poissons Ratio (z) = 0.32703 0.68674
#
# Static dielectric constant tensor:
#      x y z
#    x 1.742540 0.000000 0.027950 
#    y 0.000000 1.725390 0.000000 
#    z 0.027950 0.000000 1.751580 
# 
# From -- ./inp_files/132779.got.cif
#   From: 2010.05.17/outbox.cif.g08.bks.cpg/sg12_67_cif.got.tgz:132779.got - 2010.06.03 13:09:07.
