data_PCOD9200339
_publ_section_title
;
Structure prediction by ZEFSAII (Michael W. Deem and Ramdas Pophale) SiO2 
 PCOD9200339
Probable space group: C 2/M
;
_chemical_formula_sum "Si O2"
_cell_formula_units_Z 48
_cell_length_a 7.625220
_cell_length_b 31.500335
_cell_length_c 10.094263
_cell_angle_alpha 90.000000
_cell_angle_beta 73.837391
_cell_angle_gamma 90.000000
_cell_volume 2328.780095
_symmetry_space_group_name_H-M "C 2/M"
_symmetry_group_IT_number 12
_symmetry_cell_setting 'monoclinic'
loop_
_space_group_symop_operation_xyz
x,y,z
-x,y,-z
-x,-y,-z
x,-y,z
1/2+x,1/2+y,z
1/2-x,1/2+y,-z
1/2-x,1/2-y,-z
1/2+x,1/2-y,z
loop_
_atom_site_type_symbol
_atom_site_label
_atom_site_fract_x
_atom_site_fract_y
_atom_site_fract_z
Si Si1 0.286323 0.136652 0.390958
Si Si2 0.846214 0.954470 0.646687
Si Si3 0.723929 0.799899 0.117728
Si Si4 0.780540 0.371369 0.690762
Si Si5 0.286620 0.793876 0.180040
Si Si6 0.602504 0.452109 0.844144
O O1 0.257739 0.089626 0.339551
O O2 0.505120 0.139641 0.358624
O O3 0.207598 0.135425 0.557093
O O4 0.216512 0.174313 0.309377
O O5 0.000000 0.953550 0.500000
O O6 0.948652 0.954882 0.764214
O O7 0.745762 0.000000 0.651577
O O8 0.797872 0.838554 0.187239
O O9 0.504822 0.801486 0.141625
O O10 0.761241 0.756881 0.192302
O O11 0.792464 0.801497 0.951512
O O12 0.744033 0.418161 0.755681
O O13 0.677873 0.500000 0.848086
O O14 0.500000 0.438710 0.000000
#
# Coordination Sequence:
#
# PCOD9200339 Si02
#       6
#     8   8   8   8   8   8
#     4  10  21  36  57  83 114 146 186 228 276 332
#     4  10  20  37  57  81 114 148 185 227 274 330
#     4   9  19  36  54  78 109 143 184 227 276 327
#     4  10  21  37  56  83 113 148 184 229 279 330
#     4   9  19  36  55  77 108 144 183 228 274 330
#     4  10  22  39  57  82 115 148 186 233 280 329
#
# _framework density 20.611649
#
# number of rings (size 3 to 8) (size 9 to 14) (size 15 to 20)
#    0.000    2.333    1.667    0.000    2.333    2.667 
#    3.000    1.667    0.000    3.000    0.000    0.000 
#    0.000    0.000    0.000    0.000    0.000    0.000 
#
# Total GULP energy -133704.882236 kJ/mol
# GULP energy per Si atom -5571.036760 kJ/mol
# Density = 2.056474 g / cm^3
# Si number density = 20.611649 Si / 1000 Ang^3
#
#
#
# Elastic Constant Matrix: (Units=GPa)
#
#
# Indices 1 2 3 4 5 6 
#
# 1 18.3963 7.4337 7.2110 0.0000 1.2328 0.0000
# 2 7.4337 136.5766 57.5653 0.0000 12.8054 0.0000
# 3 7.2110 57.5653 120.2731 0.0000 8.3814 0.0000
# 4 0.0000 0.0000 0.0000 35.9210 0.0000 -0.7167
# 5 1.2328 12.8054 8.3814 0.0000 20.1028 0.0000
# 6 0.0000 0.0000 0.0000 -0.7167 0.0000 20.5275
#
#
#
# Elastic Compliance Matrix: (Units=1/GPa)
#
#
# Indices 1 2 3 4 5 6 
#
# 1 0.056150 -0.001952 -0.002347 0.000000 -0.001221 0.000000
# 2 -0.001952 0.009586 -0.004175 0.000000 -0.004246 0.000000
# 3 -0.002347 -0.004175 0.010565 0.000000 -0.001601 0.000000
# 4 0.000000 0.000000 0.000000 0.027858 0.000000 0.000973
# 5 -0.001221 -0.004246 -0.001601 0.000000 0.053191 0.000000
# 6 0.000000 0.000000 0.000000 0.000973 0.000000 0.048749
#
#
# Mechanical properties :
#
#
# Convention : Reuss Voigt Hill
#
# Bulk Modulus (GPa) = 16.84872 46.62955 31.73913
# Shear Modulus (GPa) = 20.59033 28.84598 24.71816
#
# Velocity S-wave (km/s) = 3.16407 3.74505 3.46675
# Velocity P-wave (km/s) = 4.64118 6.43215 5.60861
#
# Compressibility (1/GPa) = 0.05935168
#
# Stress axis : x y z
#
# Youngs Moduli (GPa) = 17.80956 104.31845 94.65192
#
# Poissons Ratio (x) = 0.20368 0.22214
# Poissons Ratio (y) = 0.03477 0.39519
# Poissons Ratio (z) = 0.04180 0.43554
#
# Static dielectric constant tensor:
#      x y z
#    x 1.758430 0.000000 -0.030880 
#    y 0.000000 1.765660 0.000000 
#    z -0.030880 0.000000 1.740580 
# 
# From -- ./inp_files/42160.got.cif
#   From: 2010.05.17/outbox.cif.g08.bks.cpg/sg12_22_cif.got.tgz:42160.got - 2010.06.03 13:09:07.
