data_PCOD9200894
_publ_section_title
;
Structure prediction by ZEFSAII (Michael W. Deem and Ramdas Pophale) SiO2 
 PCOD9200894
Probable space group: C 2/M
;
_chemical_formula_sum "Si O2"
_cell_formula_units_Z 56
_cell_length_a 21.906421
_cell_length_b 22.466894
_cell_length_c 14.959047
_cell_angle_alpha 90.000000
_cell_angle_beta 158.701409
_cell_angle_gamma 90.000000
_cell_volume 2674.225914
_symmetry_space_group_name_H-M "C 2/M"
_symmetry_group_IT_number 12
_symmetry_cell_setting 'monoclinic'
loop_
_space_group_symop_operation_xyz
x,y,z
-x,y,-z
-x,-y,-z
x,-y,z
1/2+x,1/2+y,z
1/2-x,1/2+y,-z
1/2-x,1/2-y,-z
1/2+x,1/2-y,z
loop_
_atom_site_type_symbol
_atom_site_label
_atom_site_fract_x
_atom_site_fract_y
_atom_site_fract_z
Si Si1 0.264896 0.569851 0.197940
Si Si2 0.644588 0.179014 0.270501
Si Si3 0.027333 0.928468 0.691526
Si Si4 0.523399 0.749251 0.276303
Si Si5 0.629231 0.068000 0.364118
Si Si6 0.773352 0.854101 0.910232
Si Si7 0.427006 0.864843 0.537531
O O1 0.306744 0.500000 0.252590
O O2 0.345765 0.592474 0.215867
O O3 0.351110 0.591225 0.406667
O O4 0.067757 0.574238 0.928729
O O5 0.560885 0.224429 0.228761
O O6 0.815586 0.210722 0.473395
O O7 0.703557 0.119896 0.404552
O O8 0.500000 0.167449 0.000000
O O9 0.033203 0.000000 0.708953
O O10 0.086303 0.899601 0.863355
O O11 0.525852 0.806239 0.342625
O O12 0.354257 0.709872 0.045735
O O13 0.632114 0.085523 0.472427
O O14 0.683712 0.000000 0.421920
O O15 0.601905 0.875925 0.724686
O O16 0.720746 0.853990 0.735171
#
# Coordination Sequence:
#
# PCOD9200894 Si02
#       7
#     8   8   8   8   8   8   8
#     4   8  15  30  50  77 115 151 183 221 277 338
#     4  10  22  39  61  83 106 146 201 239 285 336
#     4   9  17  30  50  82 118 151 183 222 280 343
#     4  10  22  41  58  78 114 153 188 245 289 333
#     4  10  20  37  60  85 117 151 186 235 288 339
#     4  11  21  35  59  87 116 152 192 233 277 345
#     4  10  22  38  57  87 118 148 191 231 286 348
#
# _framework density 20.940639999999998
#
# number of rings (size 3 to 8) (size 9 to 14) (size 15 to 20)
#    0.000    2.286    1.429    2.143    2.000    0.857 
#    0.000    3.571    0.000    0.857    0.000    0.000 
#    0.000    0.000    0.000    0.000    0.000    0.000 
#
# Total GULP energy -156128.273264 kJ/mol
# GULP energy per Si atom -5576.009759 kJ/mol
# Density = 2.089298 g / cm^3
# Si number density = 20.940640 Si / 1000 Ang^3
#
#
#
# Elastic Constant Matrix: (Units=GPa)
#
#
# Indices 1 2 3 4 5 6 
#
# 1 24.1513 -3.3093 12.0503 0.0000 -6.2797 0.0000
# 2 -3.3093 67.6411 8.5205 0.0000 -7.3274 0.0000
# 3 12.0503 8.5205 102.1150 0.0000 -27.2825 0.0000
# 4 0.0000 0.0000 0.0000 31.1966 0.0000 -4.2398
# 5 -6.2797 -7.3274 -27.2825 0.0000 28.5942 0.0000
# 6 0.0000 0.0000 0.0000 -4.2398 0.0000 9.7394
#
#
#
# Elastic Compliance Matrix: (Units=1/GPa)
#
#
# Indices 1 2 3 4 5 6 
#
# 1 0.045655 0.003501 -0.003706 0.000000 0.007388 0.000000
# 2 0.003501 0.015482 -0.000590 0.000000 0.004173 0.000000
# 3 -0.003706 -0.000590 0.013450 0.000000 0.011868 0.000000
# 4 0.000000 0.000000 0.000000 0.034070 0.000000 0.014832
# 5 0.007388 0.004173 0.011868 0.000000 0.048988 0.000000
# 6 0.000000 0.000000 0.000000 0.014832 0.000000 0.109132
#
#
# Mechanical properties :
#
#
# Convention : Reuss Voigt Hill
#
# Bulk Modulus (GPa) = 13.69920 25.38115 19.54017
# Shear Modulus (GPa) = 17.08231 25.68243 21.38237
#
# Velocity S-wave (km/s) = 2.85923 3.50586 3.19892
# Velocity P-wave (km/s) = 4.17808 5.34180 4.79538
#
# Compressibility (1/GPa) = 0.07299696
#
# Stress axis : x y z
#
# Youngs Moduli (GPa) = 21.90327 64.59293 74.34766
#
# Poissons Ratio (x) = -0.22613 0.27553
# Poissons Ratio (y) = -0.07668 0.04386
# Poissons Ratio (z) = 0.08117 0.03811
#
# Static dielectric constant tensor:
#      x y z
#    x 1.828510 0.000000 0.033350 
#    y 0.000000 1.759000 0.000000 
#    z 0.033350 0.000000 1.780520 
# 
# From -- ./inp_files/242175.got.cif
#   From: 2010.05.17/outbox.cif.g08.bks.cpg/sg12_122_cif.got.tgz:242175.got - 2010.06.03 13:09:07.
