data_PCOD9200693
_publ_section_title
;
Structure prediction by ZEFSAII (Michael W. Deem and Ramdas Pophale) SiO2 
 PCOD9200693
Probable space group: C 2/M
;
_chemical_formula_sum "Si O2"
_cell_formula_units_Z 48
_cell_length_a 25.626551
_cell_length_b 8.151032
_cell_length_c 12.824242
_cell_angle_alpha 90.000000
_cell_angle_beta 70.853270
_cell_angle_gamma 90.000000
_cell_volume 2530.579438
_symmetry_space_group_name_H-M "C 2/M"
_symmetry_group_IT_number 12
_symmetry_cell_setting 'monoclinic'
loop_
_space_group_symop_operation_xyz
x,y,z
-x,y,-z
-x,-y,-z
x,-y,z
1/2+x,1/2+y,z
1/2-x,1/2+y,-z
1/2-x,1/2-y,-z
1/2+x,1/2-y,z
loop_
_atom_site_type_symbol
_atom_site_label
_atom_site_fract_x
_atom_site_fract_y
_atom_site_fract_z
Si Si1 0.388722 0.192761 0.873463
Si Si2 0.808570 0.302174 0.509237
Si Si3 0.004574 0.192858 0.877741
Si Si4 0.314842 0.693244 0.110803
Si Si5 0.192326 0.700809 0.252442
Si Si6 0.879747 0.306335 0.270299
O O1 0.445992 0.280655 0.861469
O O2 0.356518 0.253214 0.792227
O O3 0.400563 0.000000 0.853737
O O4 0.347446 0.216792 0.997870
O O5 0.809720 0.500000 0.513085
O O6 0.750000 0.250000 0.500000
O O7 0.814162 0.242542 0.624212
O O8 0.855584 0.248955 0.396936
O O9 0.055431 0.277064 0.786464
O O10 0.017426 0.000000 0.875193
O O11 0.000000 0.255828 0.000000
O O12 0.314073 0.500000 0.086149
O O13 0.252103 0.751606 0.168821
O O14 0.347616 0.718419 0.197277
O O15 0.192820 0.500000 0.252117
O O16 0.868161 0.500000 0.267885
#
# Coordination Sequence:
#
# PCOD9200693 Si02
#       6
#     8   8   8   8   8   8
#     4  11  22  37  58  84 115 150 191 234 279 335
#     4  10  20  37  59  85 116 149 189 229 276 331
#     4  11  23  39  59  81 111 151 189 232 287 338
#     4  11  20  34  57  84 119 153 182 227 286 337
#     4   9  20  37  57  83 118 155 185 226 282 337
#     4  11  22  35  58  89 114 144 190 237 275 328
#
# _framework density 18.967987999999998
#
# number of rings (size 3 to 8) (size 9 to 14) (size 15 to 20)
#    0.000    1.500    3.333    2.500    0.000    1.333 
#    0.000    5.000    0.000    5.000    0.000    0.000 
#    0.000    0.000    0.000    0.000    0.000    0.000 
#
# Total GULP energy -134102.118814 kJ/mol
# GULP energy per Si atom -5587.588284 kJ/mol
# Density = 1.892482 g / cm^3
# Si number density = 18.967988 Si / 1000 Ang^3
#
#
#
# Elastic Constant Matrix: (Units=GPa)
#
#
# Indices 1 2 3 4 5 6 
#
# 1 125.4750 -12.0183 52.4191 0.0000 0.8198 0.0000
# 2 -12.0183 13.7416 -10.3237 0.0000 -4.1014 0.0000
# 3 52.4191 -10.3237 77.1183 0.0000 -13.9980 0.0000
# 4 0.0000 0.0000 0.0000 14.4806 0.0000 2.2133
# 5 0.8198 -4.1014 -13.9980 0.0000 32.3646 0.0000
# 6 0.0000 0.0000 0.0000 2.2133 0.0000 10.8509
#
#
#
# Elastic Compliance Matrix: (Units=1/GPa)
#
#
# Indices 1 2 3 4 5 6 
#
# 1 0.011697 0.003071 -0.008163 0.000000 -0.003438 0.000000
# 2 0.003071 0.090392 0.013108 0.000000 0.017046 0.000000
# 3 -0.008163 0.013108 0.022366 0.000000 0.011541 0.000000
# 4 0.000000 0.000000 0.000000 0.071280 0.000000 -0.014539
# 5 -0.003438 0.017046 0.011541 0.000000 0.038137 0.000000
# 6 0.000000 0.000000 0.000000 -0.014539 0.000000 0.095124
#
#
# Mechanical properties :
#
#
# Convention : Reuss Voigt Hill
#
# Bulk Modulus (GPa) = 7.11825 30.72103 18.91964
# Shear Modulus (GPa) = 13.89685 23.95642 18.92663
#
# Velocity S-wave (km/s) = 2.70968 3.55772 3.16226
# Velocity P-wave (km/s) = 3.68114 5.75394 4.83004
#
# Compressibility (1/GPa) = 0.14048394
#
# Stress axis : x y z
#
# Youngs Moduli (GPa) = 85.49406 11.06290 44.71159
#
# Poissons Ratio (x) = -0.03397 0.36500
# Poissons Ratio (y) = -0.26253 -0.58606
# Poissons Ratio (z) = 0.69793 -0.14501
#
# Static dielectric constant tensor:
#      x y z
#    x 1.626330 0.000000 0.003770 
#    y 0.000000 1.660140 0.000000 
#    z 0.003770 0.000000 1.653730 
# 
# From -- ./inp_files/172129.got.cif
#   From: 2010.05.17/outbox.cif.g08.bks.cpg/sg12_87_cif.got.tgz:172129.got - 2010.06.03 13:09:07.
