data_PCOD9200169
_publ_section_title
;
Structure prediction by ZEFSAII (Michael W. Deem and Ramdas Pophale) SiO2 
 PCOD9200169
Probable space group: C 2/M
;
_chemical_formula_sum "Si O2"
_cell_formula_units_Z 58
_cell_length_a 26.947386
_cell_length_b 18.098030
_cell_length_c 11.138076
_cell_angle_alpha 90.000000
_cell_angle_beta 146.662125
_cell_angle_gamma 90.000000
_cell_volume 2985.281249
_symmetry_space_group_name_H-M "C 2/M"
_symmetry_group_IT_number 12
_symmetry_cell_setting 'monoclinic'
loop_
_space_group_symop_operation_xyz
x,y,z
-x,y,-z
-x,-y,-z
x,-y,z
1/2+x,1/2+y,z
1/2-x,1/2+y,-z
1/2-x,1/2-y,-z
1/2+x,1/2-y,z
loop_
_atom_site_type_symbol
_atom_site_label
_atom_site_fract_x
_atom_site_fract_y
_atom_site_fract_z
Si Si1 0.622623 0.119934 0.105704
Si Si2 0.411597 0.154628 0.240413
Si Si3 0.000000 0.500000 0.000000
Si Si4 0.402119 0.283203 0.864001
Si Si5 0.826956 0.916029 0.558842
Si Si6 0.430878 0.415910 0.521945
Si Si7 0.766648 0.913738 0.005985
Si Si8 0.104024 0.819175 0.869055
O O1 0.628461 0.197685 0.190310
O O2 0.724866 0.090044 0.304067
O O3 0.559599 0.064238 0.050400
O O4 0.584632 0.130851 0.892756
O O5 0.500000 0.140209 0.500000
O O6 0.327247 0.115084 0.132505
O O7 0.394029 0.242487 0.198551
O O8 0.344810 0.346947 0.682165
O O9 0.500000 0.284477 0.000000
O O10 0.403978 0.304165 0.006750
O O11 0.896232 0.907735 0.588118
O O12 0.839203 0.000000 0.633878
O O13 0.461929 0.500000 0.567842
O O14 0.513467 0.363924 0.657766
O O15 0.343695 0.403973 0.263104
O O16 0.760427 0.000000 0.963103
O O17 0.806440 0.865749 0.978147
#
# Coordination Sequence:
#
# PCOD9200169 Si02
#       8
#     8   8   2   8   8   8   8   8
#     4  11  24  46  69  96 131 174 227 281 321 389
#     4  11  25  45  68  94 132 175 217 272 334 389
#     4  12  24  44  78  96 128 178 240 272 314 384
#     4  11  23  42  63  97 134 174 216 268 335 392
#     4  11  22  40  67  94 130 175 220 262 332 402
#     4  10  20  36  65  92 126 170 211 268 325 391
#     4  11  23  41  64  93 127 169 219 269 325 392
#     4  11  23  41  64  96 133 166 216 272 324 391
#
# _framework density 19.428654999999999
#
# number of rings (size 3 to 8) (size 9 to 14) (size 15 to 20)
#    0.000    1.103    4.138    2.483    0.966    2.759 
#    2.483    0.000    0.000    0.000    0.000    0.000 
#    0.000    0.000    0.000    0.000    0.000    0.000 
#
# Total GULP energy -161683.687912 kJ/mol
# GULP energy per Si atom -5575.299583 kJ/mol
# Density = 1.938443 g / cm^3
# Si number density = 19.428655 Si / 1000 Ang^3
#
#
#
# Elastic Constant Matrix: (Units=GPa)
#
#
# Indices 1 2 3 4 5 6 
#
# 1 88.7164 55.7837 17.8322 0.0000 19.9368 0.0000
# 2 55.7837 135.4682 47.4373 0.0000 9.7022 0.0000
# 3 17.8322 47.4373 53.5973 0.0000 13.1544 0.0000
# 4 0.0000 0.0000 0.0000 22.7650 0.0000 11.8968
# 5 19.9368 9.7022 13.1544 0.0000 25.7415 0.0000
# 6 0.0000 0.0000 0.0000 11.8968 0.0000 60.7091
#
#
#
# Elastic Compliance Matrix: (Units=1/GPa)
#
#
# Indices 1 2 3 4 5 6 
#
# 1 0.018618 -0.008248 0.004439 0.000000 -0.013579 0.000000
# 2 -0.008248 0.014371 -0.011678 0.000000 0.006939 0.000000
# 3 0.004439 -0.011678 0.031192 0.000000 -0.014976 0.000000
# 4 0.000000 0.000000 0.000000 0.048939 0.000000 -0.009590
# 5 -0.013579 0.006939 -0.014976 0.000000 0.054402 0.000000
# 6 0.000000 0.000000 0.000000 -0.009590 0.000000 0.018351
#
#
# Mechanical properties :
#
#
# Convention : Reuss Voigt Hill
#
# Bulk Modulus (GPa) = 30.11550 57.76535 43.94043
# Shear Modulus (GPa) = 21.93793 32.29170 27.11481
#
# Velocity S-wave (km/s) = 3.36393 4.08127 3.73984
# Velocity P-wave (km/s) = 5.53374 7.21149 6.42759
#
# Compressibility (1/GPa) = 0.03320549
#
# Stress axis : x y z
#
# Youngs Moduli (GPa) = 53.71279 69.58668 32.05932
#
# Poissons Ratio (x) = 0.57397 -0.14230
# Poissons Ratio (y) = 0.44303 0.37438
# Poissons Ratio (z) = -0.23841 0.81262
#
# Static dielectric constant tensor:
#      x y z
#    x 1.669380 0.000000 -0.030250 
#    y 0.000000 1.696480 0.000000 
#    z -0.030250 0.000000 1.669090 
# 
# From -- ./inp_files/184432.got.cif
#   From: 2010.05.17/outbox.cif.g08.bks.cpg/sg12_93_cif.got.tgz:184432.got - 2010.06.03 13:09:07.
