data_PCOD9200425
_publ_section_title
;
Structure prediction by ZEFSAII (Michael W. Deem and Ramdas Pophale) SiO2 
 PCOD9200425
Probable space group: C 2/M
;
_chemical_formula_sum "Si O2"
_cell_formula_units_Z 52
_cell_length_a 30.430557
_cell_length_b 17.787042
_cell_length_c 5.332994
_cell_angle_alpha 90.000000
_cell_angle_beta 85.814383
_cell_angle_gamma 90.000000
_cell_volume 2878.888488
_symmetry_space_group_name_H-M "C 2/M"
_symmetry_group_IT_number 12
_symmetry_cell_setting 'monoclinic'
loop_
_space_group_symop_operation_xyz
x,y,z
-x,y,-z
-x,-y,-z
x,-y,z
1/2+x,1/2+y,z
1/2-x,1/2+y,-z
1/2-x,1/2-y,-z
1/2+x,1/2-y,z
loop_
_atom_site_type_symbol
_atom_site_label
_atom_site_fract_x
_atom_site_fract_y
_atom_site_fract_z
Si Si1 0.529984 0.334165 0.737307
Si Si2 0.163729 0.290597 0.230056
Si Si3 0.470647 0.500000 0.262881
Si Si4 0.816154 0.912565 0.282187
Si Si5 0.234125 0.815315 0.319301
Si Si6 0.123124 0.770199 0.766353
Si Si7 0.778772 0.585844 0.953039
O O1 0.500000 0.325155 0.500000
O O2 0.551192 0.418581 0.723418
O O3 0.571519 0.280087 0.735542
O O4 0.500000 0.328417 0.000000
O O5 0.204064 0.233484 0.147031
O O6 0.144766 0.264154 0.505010
O O7 0.185554 0.372641 0.233011
O O8 0.130928 0.279212 0.011869
O O9 0.500000 0.500000 0.500000
O O10 0.500000 0.500000 0.000000
O O11 0.797512 0.878790 0.549784
O O12 0.853404 0.851897 0.193724
O O13 0.771064 0.910815 0.136532
O O14 0.830471 0.000000 0.288943
O O15 0.250000 0.750000 0.500000
O O16 0.274909 0.861072 0.195813
O O17 0.789445 0.500000 0.999465
#
# Coordination Sequence:
#
# PCOD9200425 Si02
#       7
#     8   8   4   8   8   8   8
#     4  10  20  37  58  80 106 143 181 225 280 342
#     4  11  22  37  54  81 110 150 188 231 283 324
#     4   8  16  30  52  76 102 136 176 212 266 328
#     4  10  21  33  49  76 109 149 197 237 268 312
#     4  11  19  34  52  73 105 154 197 235 269 328
#     4  11  23  37  57  80 113 144 186 237 279 332
#     4  11  21  35  54  77 110 153 197 234 274 329
#
# _framework density 18.062525999999998
#
# number of rings (size 3 to 8) (size 9 to 14) (size 15 to 20)
#    0.000    1.538    3.077    3.692    1.077    0.000 
#    0.000    0.000    0.000    0.000    0.000    0.000 
#    0.000   12.308    0.000    0.000    0.000    0.000 
#
# Total GULP energy -144869.059443 kJ/mol
# GULP energy per Si atom -5571.886902 kJ/mol
# Density = 1.802141 g / cm^3
# Si number density = 18.062526 Si / 1000 Ang^3
#
#
#
# Elastic Constant Matrix: (Units=GPa)
#
#
# Indices 1 2 3 4 5 6 
#
# 1 83.7996 31.9122 30.6772 0.0000 10.0553 0.0000
# 2 31.9122 111.1329 40.7876 0.0000 0.3810 0.0000
# 3 30.6772 40.7876 85.2085 0.0000 13.2383 0.0000
# 4 0.0000 0.0000 0.0000 19.1138 0.0000 2.1107
# 5 10.0553 0.3810 13.2383 0.0000 22.0340 0.0000
# 6 0.0000 0.0000 0.0000 2.1107 0.0000 23.1256
#
#
#
# Elastic Compliance Matrix: (Units=1/GPa)
#
#
# Indices 1 2 3 4 5 6 
#
# 1 0.014833 -0.003105 -0.003100 0.000000 -0.004853 0.000000
# 2 -0.003105 0.011782 -0.005195 0.000000 0.004335 0.000000
# 3 -0.003100 -0.005195 0.016660 0.000000 -0.008505 0.000000
# 4 0.000000 0.000000 0.000000 0.052851 0.000000 -0.004824
# 5 -0.004853 0.004335 -0.008505 0.000000 0.052634 0.000000
# 6 0.000000 0.000000 0.000000 -0.004824 0.000000 0.043682
#
#
# Mechanical properties :
#
#
# Convention : Reuss Voigt Hill
#
# Bulk Modulus (GPa) = 48.84136 54.09945 51.47040
# Shear Modulus (GPa) = 22.51571 24.63894 23.57732
#
# Velocity S-wave (km/s) = 3.53447 3.69737 3.61684
# Velocity P-wave (km/s) = 6.61479 6.94576 6.78230
#
# Compressibility (1/GPa) = 0.02047445
#
# Stress axis : x y z
#
# Youngs Moduli (GPa) = 67.41835 84.87745 60.02320
#
# Poissons Ratio (x) = 0.26354 0.18607
# Poissons Ratio (y) = 0.20933 0.31184
# Poissons Ratio (z) = 0.20899 0.44096
#
# Static dielectric constant tensor:
#      x y z
#    x 1.624400 0.000000 0.024530 
#    y 0.000000 1.633770 0.000000 
#    z 0.024530 0.000000 1.702840 
# 
# From -- ./inp_files/28512.got.cif
#   From: 2010.05.17/outbox.cif.g08.bks.cpg/sg12_15_cif.got.tgz:28512.got - 2010.06.03 13:09:07.
