data_PCOD9200966
_publ_section_title
;
Structure prediction by ZEFSAII (Michael W. Deem and Ramdas Pophale) SiO2 
 PCOD9200966
Probable space group: C 2/M
;
_chemical_formula_sum "Si O2"
_cell_formula_units_Z 64
_cell_length_a 32.665297
_cell_length_b 8.377327
_cell_length_c 16.584537
_cell_angle_alpha 90.000000
_cell_angle_beta 133.262237
_cell_angle_gamma 90.000000
_cell_volume 3304.918736
_symmetry_space_group_name_H-M "C 2/M"
_symmetry_group_IT_number 12
_symmetry_cell_setting 'monoclinic'
loop_
_space_group_symop_operation_xyz
x,y,z
-x,y,-z
-x,-y,-z
x,-y,z
1/2+x,1/2+y,z
1/2-x,1/2+y,-z
1/2-x,1/2-y,-z
1/2+x,1/2-y,z
loop_
_atom_site_type_symbol
_atom_site_label
_atom_site_fract_x
_atom_site_fract_y
_atom_site_fract_z
Si Si1 0.421115 0.690908 0.344715
Si Si2 0.903340 0.806864 0.651809
Si Si3 0.954836 0.809629 0.558706
Si Si4 0.938888 0.192953 0.880143
Si Si5 0.776688 0.690148 0.453009
Si Si6 0.678189 0.186867 0.203310
Si Si7 0.319887 0.817070 0.124432
Si Si8 0.281904 0.314065 0.909394
O O1 0.407760 0.500000 0.322556
O O2 0.482665 0.710019 0.390173
O O3 0.417566 0.745509 0.432947
O O4 0.381637 0.798702 0.238800
O O5 0.941766 0.746900 0.629548
O O6 0.925383 0.751631 0.769588
O O7 0.840016 0.758531 0.541162
O O8 0.904704 0.000000 0.657898
O O9 0.945518 0.000000 0.550910
O O10 0.882525 0.240966 0.853563
O O11 0.941174 0.000000 0.882435
O O12 0.000000 0.246142 0.000000
O O13 0.780438 0.500000 0.456186
O O14 0.750000 0.750000 0.500000
O O15 0.731931 0.742911 0.324377
O O16 0.691340 0.217936 0.127290
O O17 0.675800 0.000000 0.218024
O O18 0.280145 0.762608 0.144838
O O19 0.304143 0.000000 0.084308
O O20 0.313776 0.712038 0.036670
O O21 0.281097 0.500000 0.885203
#
# Coordination Sequence:
#
# PCOD9200966 Si02
#       8
#     8   8   8   8   8   8   8   8
#     4   9  17  33  56  81 114 155 197 241 290 350
#     4  10  20  37  60  87 119 158 205 253 299 357
#     4   8  17  33  54  83 114 152 201 243 286 349
#     4  10  22  40  62  88 122 163 205 249 300 362
#     4  12  24  40  62  90 123 158 199 250 307 364
#     4  12  25  41  63  91 123 160 201 250 304 357
#     4  10  21  37  57  85 118 152 194 244 298 349
#     4  10  22  40  60  84 117 155 197 243 292 353
#
# _framework density 19.365075000000001
#
# number of rings (size 3 to 8) (size 9 to 14) (size 15 to 20)
#    0.000    1.875    1.250    3.750    1.750    2.750 
#    0.000    4.375    0.000    0.000    0.000    0.000 
#    0.000    0.000    0.000    0.000    0.000    0.000 
#
# Total GULP energy -178317.991681 kJ/mol
# GULP energy per Si atom -5572.437240 kJ/mol
# Density = 1.932100 g / cm^3
# Si number density = 19.365075 Si / 1000 Ang^3
#
#
#
# Elastic Constant Matrix: (Units=GPa)
#
#
# Indices 1 2 3 4 5 6 
#
# 1 71.6276 17.1528 -58.6415 0.0000 15.2927 0.0000
# 2 17.1528 30.6491 56.6675 0.0000 -13.8188 0.0000
# 3 -58.6415 56.6675 -500.5418 0.0000 239.6779 0.0000
# 4 0.0000 0.0000 0.0000 14.8033 0.0000 20.8526
# 5 15.2927 -13.8188 239.6779 0.0000 -68.9971 0.0000
# 6 0.0000 0.0000 0.0000 20.8526 0.0000 -8.1760
#
#
#
# Elastic Compliance Matrix: (Units=1/GPa)
#
#
# Indices 1 2 3 4 5 6 
#
# 1 0.014530 -0.006231 0.000404 0.000000 0.005872 0.000000
# 2 -0.006231 0.032801 -0.000960 0.000000 -0.011284 0.000000
# 3 0.000404 -0.000960 0.003043 0.000000 0.010854 0.000000
# 4 0.000000 0.000000 0.000000 0.014709 0.000000 0.037514
# 5 0.005872 -0.011284 0.010854 0.000000 0.026772 0.000000
# 6 0.000000 0.000000 0.000000 0.037514 0.000000 -0.026631
#
#
# Mechanical properties :
#
#
# Convention : Reuss Voigt Hill
#
# Bulk Modulus (GPa) = 27.17279 -40.87860 -6.85291
# Shear Modulus (GPa) = 54.90538 -40.03690 7.43424
#
# Velocity S-wave (km/s) = 5.33051 -4.55189 1.96146
# Velocity P-wave (km/s) = 7.20750 6.98438 1.25829
#
# Compressibility (1/GPa) = 0.03680153
#
# Stress axis : x y z
#
# Youngs Moduli (GPa) = 68.82106 30.48652 328.57188
#
# Poissons Ratio (x) = 0.18998 -0.13278
# Poissons Ratio (y) = 0.42886 0.31528
# Poissons Ratio (z) = -0.02781 0.02925
#
# Static dielectric constant tensor:
#      x y z
#    x 3.669080 0.000000 0.265030 
#    y 0.000000 1.715780 0.000000 
#    z 0.265030 0.000000 1.744710 
# 
# From -- ./inp_files/249996.got.cif
#   From: 2010.05.17/outbox.cif.g08.bks.cpg/sg12_125_cif.got.tgz:249996.got - 2010.06.03 13:09:07.
