data_PCOD9200612
_publ_section_title
;
Structure prediction by ZEFSAII (Michael W. Deem and Ramdas Pophale) SiO2 
 PCOD9200612
Probable space group: C 2/M
;
_chemical_formula_sum "Si O2"
_cell_formula_units_Z 56
_cell_length_a 16.787882
_cell_length_b 9.230493
_cell_length_c 23.666787
_cell_angle_alpha 90.000000
_cell_angle_beta 127.874190
_cell_angle_gamma 90.000000
_cell_volume 2894.913687
_symmetry_space_group_name_H-M "C 2/M"
_symmetry_group_IT_number 12
_symmetry_cell_setting 'monoclinic'
loop_
_space_group_symop_operation_xyz
x,y,z
-x,y,-z
-x,-y,-z
x,-y,z
1/2+x,1/2+y,z
1/2-x,1/2+y,-z
1/2-x,1/2-y,-z
1/2+x,1/2-y,z
loop_
_atom_site_type_symbol
_atom_site_label
_atom_site_fract_x
_atom_site_fract_y
_atom_site_fract_z
Si Si1 0.482868 0.675019 0.663425
Si Si2 0.354912 0.668321 0.803173
Si Si3 0.019210 0.340471 0.942838
Si Si4 0.712780 0.330733 0.038290
Si Si5 0.334687 0.828422 0.202446
Si Si6 0.919782 0.172387 0.415104
Si Si7 0.208320 0.171370 0.350708
O O1 0.484390 0.500000 0.666584
O O2 0.564141 0.740371 0.742367
O O3 0.525530 0.718865 0.619964
O O4 0.369352 0.719340 0.633405
O O5 0.382349 0.500000 0.828248
O O6 0.427288 0.781107 0.865842
O O7 0.242290 0.689386 0.778722
O O8 0.351950 0.686914 0.734758
O O9 0.053528 0.500000 0.935223
O O10 0.096839 0.209613 0.983173
O O11 0.000000 0.364390 0.000000
O O12 0.727909 0.500000 0.042102
O O13 0.771179 0.279771 0.119847
O O14 0.750000 0.250000 0.000000
O O15 0.357049 0.000000 0.206979
O O16 0.814673 0.248406 0.386831
O O17 0.000000 0.194964 0.500000
O O18 0.899910 0.000000 0.401069
O O19 0.229145 0.000000 0.367591
#
# Coordination Sequence:
#
# PCOD9200612 Si02
#       7
#     8   8   8   8   8   8   8
#     4  10  22  39  61  90 124 160 201 249 300 356
#     4  10  20  37  59  82 112 150 195 248 305 361
#     4  11  23  37  55  81 110 148 199 248 300 362
#     4  11  24  40  56  79 115 155 200 254 309 361
#     4  10  21  38  60  84 113 154 202 250 301 361
#     4  10  22  41  64  92 127 163 197 240 297 357
#     4  10  22  40  62  91 121 155 200 246 297 357
#
# _framework density 19.344270999999999
#
# number of rings (size 3 to 8) (size 9 to 14) (size 15 to 20)
#    0.000    1.714    2.857    0.857    2.000    4.286 
#    0.000    0.000    0.000    0.000    0.000    0.000 
#    0.000    0.000    0.000    0.000    0.000    0.000 
#
# Total GULP energy -155994.755586 kJ/mol
# GULP energy per Si atom -5571.241271 kJ/mol
# Density = 1.930024 g / cm^3
# Si number density = 19.344271 Si / 1000 Ang^3
#
#
#
# Elastic Constant Matrix: (Units=GPa)
#
#
# Indices 1 2 3 4 5 6 
#
# 1 136.8513 43.5920 47.4313 0.0000 6.9987 0.0000
# 2 43.5920 43.7465 37.2656 0.0000 5.0215 0.0000
# 3 47.4313 37.2656 60.2332 0.0000 13.4154 0.0000
# 4 0.0000 0.0000 0.0000 30.5895 0.0000 8.6258
# 5 6.9987 5.0215 13.4154 0.0000 19.2711 0.0000
# 6 0.0000 0.0000 0.0000 8.6258 0.0000 30.9641
#
#
#
# Elastic Compliance Matrix: (Units=1/GPa)
#
#
# Indices 1 2 3 4 5 6 
#
# 1 0.011163 -0.007540 -0.004332 0.000000 0.000926 0.000000
# 2 -0.007540 0.055016 -0.030200 0.000000 0.009426 0.000000
# 3 -0.004332 -0.030200 0.043310 0.000000 -0.020707 0.000000
# 4 0.000000 0.000000 0.000000 0.035478 0.000000 -0.009883
# 5 0.000926 0.009426 -0.020707 0.000000 0.063514 0.000000
# 6 0.000000 0.000000 0.000000 -0.009883 0.000000 0.035049
#
#
# Mechanical properties :
#
#
# Convention : Reuss Voigt Hill
#
# Bulk Modulus (GPa) = 39.45476 55.26762 47.36119
# Shear Modulus (GPa) = 14.87562 23.66773 19.27167
#
# Velocity S-wave (km/s) = 2.77608 3.50165 3.15976
# Velocity P-wave (km/s) = 5.54219 6.70681 6.15212
#
# Compressibility (1/GPa) = 0.02534549
#
# Stress axis : x y z
#
# Youngs Moduli (GPa) = 89.58277 18.17657 23.08951
#
# Poissons Ratio (x) = 0.13704 0.10002
# Poissons Ratio (y) = 0.67541 0.69730
# Poissons Ratio (z) = 0.38807 0.54893
#
# Static dielectric constant tensor:
#      x y z
#    x 1.654080 0.000000 -0.058020 
#    y 0.000000 1.623190 0.000000 
#    z -0.058020 0.000000 1.632480 
# 
# From -- ./inp_files/342499.got.cif
#   From: 2010.05.17/outbox.cif.g08.bks.cpg/sg12_172_cif.got.tgz:342499.got - 2010.06.03 13:09:07.
