data_PCOD9200934
_publ_section_title
;
Structure prediction by ZEFSAII (Michael W. Deem and Ramdas Pophale) SiO2 
 PCOD9200934
Probable space group: C 2/M
;
_chemical_formula_sum "Si O2"
_cell_formula_units_Z 56
_cell_length_a 17.183961
_cell_length_b 19.740136
_cell_length_c 7.937354
_cell_angle_alpha 90.000000
_cell_angle_beta 67.520324
_cell_angle_gamma 90.000000
_cell_volume 2487.873497
_symmetry_space_group_name_H-M "C 2/M"
_symmetry_group_IT_number 12
_symmetry_cell_setting 'monoclinic'
loop_
_space_group_symop_operation_xyz
x,y,z
-x,y,-z
-x,-y,-z
x,-y,z
1/2+x,1/2+y,z
1/2-x,1/2+y,-z
1/2-x,1/2-y,-z
1/2+x,1/2-y,z
loop_
_atom_site_type_symbol
_atom_site_label
_atom_site_fract_x
_atom_site_fract_y
_atom_site_fract_z
Si Si1 0.763435 0.077371 0.300504
Si Si2 0.377831 0.761111 0.333324
Si Si3 0.781459 0.158694 0.624336
Si Si4 0.046782 0.303018 0.142324
Si Si5 0.386564 0.332325 0.013940
Si Si6 0.575229 0.581287 0.302841
Si Si7 0.917741 0.574285 0.682544
O O1 0.785031 0.107146 0.464256
O O2 0.802439 0.126419 0.127017
O O3 0.663566 0.078374 0.367282
O O4 0.793738 0.000000 0.255222
O O5 0.315247 0.813489 0.287041
O O6 0.328617 0.727272 0.527251
O O7 0.464396 0.791730 0.325318
O O8 0.405376 0.700731 0.182208
O O9 0.838159 0.120328 0.715418
O O10 0.090495 0.369566 0.169019
O O11 0.106524 0.237487 0.096739
O O12 0.000000 0.311864 0.000000
O O13 0.443174 0.386254 0.865312
O O14 0.500000 0.595325 0.500000
O O15 0.586346 0.500000 0.286808
O O16 0.918857 0.500000 0.762326
O O17 0.000000 0.580051 0.500000
#
# Coordination Sequence:
#
# PCOD9200934 Si02
#       7
#     8   8   8   8   8   8   8
#     4  10  21  39  62  88 122 166 210 251 303 368
#     4   9  20  37  58  86 116 153 202 254 308 370
#     4  10  20  37  60  86 118 155 204 257 307 364
#     4  10  21  37  58  85 117 153 196 246 304 360
#     4  10  22  38  58  85 120 157 203 255 307 365
#     4  11  24  40  59  88 125 164 208 261 319 372
#     4  10  22  39  60  88 121 158 201 248 304 372
#
# _framework density 22.509181999999999
#
# number of rings (size 3 to 8) (size 9 to 14) (size 15 to 20)
#    0.000    2.000    0.000    2.571    0.000   10.000 
#    0.000    0.714    0.000   13.714    0.000    0.000 
#    0.000    0.000    0.000    0.000    0.000    0.000 
#
# Total GULP energy -156064.486217 kJ/mol
# GULP energy per Si atom -5573.731651 kJ/mol
# Density = 2.245795 g / cm^3
# Si number density = 22.509182 Si / 1000 Ang^3
#
#
#
# Elastic Constant Matrix: (Units=GPa)
#
#
# Indices 1 2 3 4 5 6 
#
# 1 66.9849 46.2988 23.1577 0.0000 -3.7058 0.0000
# 2 46.2988 132.4266 23.5562 0.0000 5.5183 0.0000
# 3 23.1577 23.5562 57.3295 0.0000 -1.2372 0.0000
# 4 0.0000 0.0000 0.0000 32.3953 0.0000 0.2501
# 5 -3.7058 5.5183 -1.2372 0.0000 24.5278 0.0000
# 6 0.0000 0.0000 0.0000 0.2501 0.0000 32.2411
#
#
#
# Elastic Compliance Matrix: (Units=1/GPa)
#
#
# Indices 1 2 3 4 5 6 
#
# 1 0.021944 -0.006799 -0.005972 0.000000 0.004544 0.000000
# 2 -0.006799 0.010353 -0.001582 0.000000 -0.003436 0.000000
# 3 -0.005972 -0.001582 0.020516 0.000000 0.000488 0.000000
# 4 0.000000 0.000000 0.000000 0.030871 0.000000 -0.000240
# 5 0.004544 -0.003436 0.000488 0.000000 0.042254 0.000000
# 6 0.000000 0.000000 0.000000 -0.000240 0.000000 0.031018
#
#
# Mechanical properties :
#
#
# Convention : Reuss Voigt Hill
#
# Bulk Modulus (GPa) = 41.48206 49.19629 45.33917
# Shear Modulus (GPa) = 25.81335 28.74806 27.28070
#
# Velocity S-wave (km/s) = 3.39011 3.57763 3.48513
# Velocity P-wave (km/s) = 5.81315 6.24255 6.03167
#
# Compressibility (1/GPa) = 0.02410681
#
# Stress axis : x y z
#
# Youngs Moduli (GPa) = 45.56994 96.59048 48.74253
#
# Poissons Ratio (x) = 0.65673 0.29111
# Poissons Ratio (y) = 0.30983 0.07710
# Poissons Ratio (z) = 0.27216 0.15278
#
# Static dielectric constant tensor:
#      x y z
#    x 1.883740 0.000000 -0.017720 
#    y 0.000000 1.835500 0.000000 
#    z -0.017720 0.000000 1.910760 
# 
# From -- ./inp_files/75856.got.cif
#   From: 2010.05.17/outbox.cif.g08.bks.cpg/sg12_38_cif.got.tgz:75856.got - 2010.06.03 13:09:07.
