data_PCOD9200985
_publ_section_title
;
Structure prediction by ZEFSAII (Michael W. Deem and Ramdas Pophale) SiO2 
 PCOD9200985
Probable space group: C 2/M
;
_chemical_formula_sum "Si O2"
_cell_formula_units_Z 40
_cell_length_a 9.191559
_cell_length_b 18.404376
_cell_length_c 12.181956
_cell_angle_alpha 90.000000
_cell_angle_beta 109.998559
_cell_angle_gamma 90.000000
_cell_volume 1936.498188
_symmetry_space_group_name_H-M "C 2/M"
_symmetry_group_IT_number 12
_symmetry_cell_setting 'monoclinic'
loop_
_space_group_symop_operation_xyz
x,y,z
-x,y,-z
-x,-y,-z
x,-y,z
1/2+x,1/2+y,z
1/2-x,1/2+y,-z
1/2-x,1/2-y,-z
1/2+x,1/2-y,z
loop_
_atom_site_type_symbol
_atom_site_label
_atom_site_fract_x
_atom_site_fract_y
_atom_site_fract_z
Si Si1 0.914779 0.199685 0.182179
Si Si2 0.682925 0.915679 0.049178
Si Si3 0.522776 0.918892 0.637505
Si Si4 0.591613 0.776227 0.412886
Si Si5 0.272372 0.652561 0.849454
O O1 0.786110 0.137225 0.150473
O O2 0.822887 0.275207 0.138538
O O3 0.005753 0.217526 0.317078
O O4 0.054038 0.176886 0.136296
O O5 0.696406 0.000000 0.083396
O O6 0.500000 0.896765 0.000000
O O7 0.752582 0.902045 0.945483
O O8 0.500000 0.926732 0.500000
O O9 0.405501 0.855062 0.644768
O O10 0.685672 0.884868 0.722586
O O11 0.502785 0.000000 0.679193
O O12 0.500000 0.787849 0.500000
O O13 0.750000 0.750000 0.500000
#
# Coordination Sequence:
#
# PCOD9200985 Si02
#       5
#     8   8   8   8   8
#     4  11  22  38  62  90 120 159 207 252 302 368
#     4  11  25  43  61  86 122 161 203 256 316 370
#     4   9  18  33  56  87 118 151 196 248 302 359
#     4  10  20  37  60  88 121 157 197 249 308 367
#     4  11  22  38  61  87 119 160 204 254 305 364
#
# _framework density 20.655840000000001
#
# number of rings (size 3 to 8) (size 9 to 14) (size 15 to 20)
#    0.000    1.600    0.000    6.600    0.000    4.000 
#    0.000    1.000    0.000    1.200    0.000    0.000 
#    0.000    0.000    0.000    0.000    0.000    0.000 
#
# Total GULP energy -111487.667582 kJ/mol
# GULP energy per Si atom -5574.383379 kJ/mol
# Density = 2.060883 g / cm^3
# Si number density = 20.655840 Si / 1000 Ang^3
#
#
#
# Elastic Constant Matrix: (Units=GPa)
#
#
# Indices 1 2 3 4 5 6 
#
# 1 97.6773 67.3205 18.9659 0.0000 19.5990 0.0000
# 2 67.3205 163.5813 66.0039 0.0000 37.8853 0.0000
# 3 18.9659 66.0039 108.3365 0.0000 18.5637 0.0000
# 4 0.0000 0.0000 0.0000 32.9307 0.0000 7.5909
# 5 19.5990 37.8853 18.5637 0.0000 39.6955 0.0000
# 6 0.0000 0.0000 0.0000 7.5909 0.0000 18.0109
#
#
#
# Elastic Compliance Matrix: (Units=1/GPa)
#
#
# Indices 1 2 3 4 5 6 
#
# 1 0.014590 -0.006152 0.001546 0.000000 -0.002055 0.000000
# 2 -0.006152 0.012207 -0.005310 0.000000 -0.006130 0.000000
# 3 0.001546 -0.005310 0.012455 0.000000 -0.001520 0.000000
# 4 0.000000 0.000000 0.000000 0.033634 0.000000 -0.014176
# 5 -0.002055 -0.006130 -0.001520 0.000000 0.032768 0.000000
# 6 0.000000 0.000000 0.000000 -0.014176 0.000000 0.061497
#
#
# Mechanical properties :
#
#
# Convention : Reuss Voigt Hill
#
# Bulk Modulus (GPa) = 51.49129 74.90841 63.19985
# Shear Modulus (GPa) = 25.84550 32.61441 29.22995
#
# Velocity S-wave (km/s) = 3.54113 3.97790 3.76585
# Velocity P-wave (km/s) = 6.45769 7.57905 7.04073
#
# Compressibility (1/GPa) = 0.01942076
#
# Stress axis : x y z
#
# Youngs Moduli (GPa) = 68.53896 81.91818 80.28671
#
# Poissons Ratio (x) = 0.50400 -0.12414
# Poissons Ratio (y) = 0.42168 0.42631
# Poissons Ratio (z) = -0.10598 0.43497
#
# Static dielectric constant tensor:
#      x y z
#    x 1.767360 0.000000 -0.107100 
#    y 0.000000 1.909770 0.000000 
#    z -0.107100 0.000000 1.951890 
# 
# From -- ./inp_files/195708.got.cif
#   From: 2010.05.17/outbox.cif.g08.bks.cpg/sg12_98_cif.got.tgz:195708.got - 2010.06.03 13:09:07.
