data_PCOD9200378
_publ_section_title
;
Structure prediction by ZEFSAII (Michael W. Deem and Ramdas Pophale) SiO2 
 PCOD9200378
Probable space group: C 2/M
;
_chemical_formula_sum "Si O2"
_cell_formula_units_Z 48
_cell_length_a 28.133326
_cell_length_b 11.074596
_cell_length_c 12.776737
_cell_angle_alpha 90.000000
_cell_angle_beta 136.616733
_cell_angle_gamma 90.000000
_cell_volume 2734.304128
_symmetry_space_group_name_H-M "C 2/M"
_symmetry_group_IT_number 12
_symmetry_cell_setting 'monoclinic'
loop_
_space_group_symop_operation_xyz
x,y,z
-x,y,-z
-x,-y,-z
x,-y,z
1/2+x,1/2+y,z
1/2-x,1/2+y,-z
1/2-x,1/2-y,-z
1/2+x,1/2-y,z
loop_
_atom_site_type_symbol
_atom_site_label
_atom_site_fract_x
_atom_site_fract_y
_atom_site_fract_z
Si Si1 0.173744 0.245128 0.428130
Si Si2 0.705663 0.138990 0.693202
Si Si3 0.077458 0.640748 0.112652
Si Si4 0.192092 0.357109 0.903019
Si Si5 0.861660 0.227151 0.989254
Si Si6 0.400024 0.500000 0.754805
Si Si7 0.557772 0.500000 0.934767
O O1 0.250000 0.250000 0.500000
O O2 0.179411 0.275639 0.559251
O O3 0.122707 0.337767 0.288063
O O4 0.141072 0.116507 0.349137
O O5 0.666728 0.149221 0.742316
O O6 0.785634 0.171136 0.846478
O O7 0.702548 0.000000 0.652595
O O8 0.070759 0.500000 0.080077
O O9 0.116346 0.701696 0.078861
O O10 0.000000 0.694025 0.000000
O O11 0.213708 0.500000 0.952737
O O12 0.250000 0.250000 0.000000
O O13 0.142118 0.315299 0.916743
O O14 0.915313 0.117267 0.083337
O O15 0.476550 0.500000 0.827940
O O16 0.407225 0.500000 0.892809
#
# Coordination Sequence:
#
# PCOD9200378 Si02
#       7
#     8   8   8   8   8   4   4
#     4  12  23  35  58  85 118 153 193 245 300 364
#     4  10  20  37  57  86 119 153 192 243 302 355
#     4  11  23  36  54  82 117 153 193 241 296 359
#     4   9  20  36  58  88 123 159 204 252 302 357
#     4  11  19  35  60  86 115 156 202 244 301 351
#     4  11  24  38  55  89 120 157 203 244 302 358
#     4  11  20  38  63  81 119 161 203 248 291 374
#
# _framework density 17.554741
#
# number of rings (size 3 to 8) (size 9 to 14) (size 15 to 20)
#    0.000    1.333    4.167    2.000    3.500    0.000 
#    6.000    0.000    0.000    5.000    0.000   11.667 
#    0.000    0.000    0.000    0.000    0.000    0.000 
#
# Total GULP energy -133835.015261 kJ/mol
# GULP energy per Si atom -5576.458969 kJ/mol
# Density = 1.751479 g / cm^3
# Si number density = 17.554741 Si / 1000 Ang^3
#
#
#
# Elastic Constant Matrix: (Units=GPa)
#
#
# Indices 1 2 3 4 5 6 
#
# 1 82.7073 32.8522 40.5633 0.0000 -11.4061 0.0000
# 2 32.8522 112.0607 26.7617 0.0000 -8.5749 0.0000
# 3 40.5633 26.7617 73.5190 0.0000 -3.3571 0.0000
# 4 0.0000 0.0000 0.0000 26.9708 0.0000 6.3150
# 5 -11.4061 -8.5749 -3.3571 0.0000 27.5969 0.0000
# 6 0.0000 0.0000 0.0000 6.3150 0.0000 92.3524
#
#
#
# Elastic Compliance Matrix: (Units=1/GPa)
#
#
# Indices 1 2 3 4 5 6 
#
# 1 0.018316 -0.002834 -0.008817 0.000000 0.005617 0.000000
# 2 -0.002834 0.010404 -0.002141 0.000000 0.001801 0.000000
# 3 -0.008817 -0.002141 0.019156 0.000000 -0.001979 0.000000
# 4 0.000000 0.000000 0.000000 0.037680 0.000000 -0.002577
# 5 0.005617 0.001801 -0.001979 0.000000 0.038876 0.000000
# 6 0.000000 0.000000 0.000000 -0.002577 0.000000 0.011004
#
#
# Mechanical properties :
#
#
# Convention : Reuss Voigt Hill
#
# Bulk Modulus (GPa) = 49.28518 52.07126 50.67822
# Shear Modulus (GPa) = 29.44912 40.59133 35.02023
#
# Velocity S-wave (km/s) = 4.10025 4.81383 4.47129
# Velocity P-wave (km/s) = 7.11000 7.78613 7.45573
#
# Compressibility (1/GPa) = 0.02029007
#
# Stress axis : x y z
#
# Youngs Moduli (GPa) = 54.59851 96.11958 52.20342
#
# Poissons Ratio (x) = 0.27240 0.46029
# Poissons Ratio (y) = 0.15473 0.11178
# Poissons Ratio (z) = 0.48141 0.20581
#
# Static dielectric constant tensor:
#      x y z
#    x 1.627710 0.000000 0.016450 
#    y 0.000000 1.685460 0.000000 
#    z 0.016450 0.000000 1.598980 
# 
# From -- ./inp_files/182267.got.cif
#   From: 2010.05.17/outbox.cif.g08.bks.cpg/sg12_92_cif.got.tgz:182267.got - 2010.06.03 13:09:07.
