data_PCOD9200332
_publ_section_title
;
Structure prediction by ZEFSAII (Michael W. Deem and Ramdas Pophale) SiO2 
 PCOD9200332
Probable space group: C 2/M
;
_chemical_formula_sum "Si O2"
_cell_formula_units_Z 40
_cell_length_a 18.788819
_cell_length_b 12.370252
_cell_length_c 11.836077
_cell_angle_alpha 90.000000
_cell_angle_beta 124.969436
_cell_angle_gamma 90.000000
_cell_volume 2254.303870
_symmetry_space_group_name_H-M "C 2/M"
_symmetry_group_IT_number 12
_symmetry_cell_setting 'monoclinic'
loop_
_space_group_symop_operation_xyz
x,y,z
-x,y,-z
-x,-y,-z
x,-y,z
1/2+x,1/2+y,z
1/2-x,1/2+y,-z
1/2-x,1/2-y,-z
1/2+x,1/2-y,z
loop_
_atom_site_type_symbol
_atom_site_label
_atom_site_fract_x
_atom_site_fract_y
_atom_site_fract_z
Si Si1 0.923392 0.375731 0.838000
Si Si2 0.715579 0.254203 0.148560
Si Si3 0.140407 0.128653 0.862738
Si Si4 0.503020 0.786897 0.328865
Si Si5 0.873526 0.622837 0.380093
O O1 0.896855 0.500000 0.795303
O O2 0.845423 0.306813 0.819281
O O3 0.960790 0.327212 0.756719
O O4 0.000000 0.374606 0.000000
O O5 0.782336 0.170883 0.148753
O O6 0.776509 0.341754 0.265024
O O7 0.660294 0.312839 0.000253
O O8 0.048798 0.175011 0.733615
O O9 0.141276 0.000000 0.873294
O O10 0.580514 0.796074 0.490045
O O11 0.429045 0.865201 0.315065
O O12 0.880104 0.500000 0.427385
#
# Coordination Sequence:
#
# PCOD9200332 Si02
#       5
#     8   8   8   8   8
#     4  11  21  35  56  83 114 146 180 229 280 323
#     4  10  21  36  55  85 111 143 188 230 271 332
#     4  10  20  37  57  80 112 149 186 228 273 323
#     4  10  20  37  57  84 111 144 188 227 266 332
#     4  10  20  37  61  84 110 147 185 228 273 323
#
# _framework density 17.743838
#
# number of rings (size 3 to 8) (size 9 to 14) (size 15 to 20)
#    0.000    1.800    2.000    3.600    0.000    0.800 
#    0.000   12.000    0.000    0.000    0.000    0.000 
#    0.000    0.000    0.000    0.000    0.000    0.000 
#
# Total GULP energy -111583.083473 kJ/mol
# GULP energy per Si atom -5579.154174 kJ/mol
# Density = 1.770345 g / cm^3
# Si number density = 17.743838 Si / 1000 Ang^3
#
#
#
# Elastic Constant Matrix: (Units=GPa)
#
#
# Indices 1 2 3 4 5 6 
#
# 1 105.0132 46.2364 49.1123 0.0000 -17.9041 0.0000
# 2 46.2364 108.8820 33.1782 0.0000 -5.6628 0.0000
# 3 49.1123 33.1782 69.3094 0.0000 -5.5596 0.0000
# 4 0.0000 0.0000 0.0000 15.0807 0.0000 2.9019
# 5 -17.9041 -5.6628 -5.5596 0.0000 30.2377 0.0000
# 6 0.0000 0.0000 0.0000 2.9019 0.0000 14.6988
#
#
#
# Elastic Compliance Matrix: (Units=1/GPa)
#
#
# Indices 1 2 3 4 5 6 
#
# 1 0.017017 -0.003914 -0.009577 0.000000 0.007582 0.000000
# 2 -0.003914 0.011688 -0.002874 0.000000 -0.000657 0.000000
# 3 -0.009577 -0.002874 0.022423 0.000000 -0.002086 0.000000
# 4 0.000000 0.000000 0.000000 0.068928 0.000000 -0.013608
# 5 0.007582 -0.000657 -0.002086 0.000000 0.037054 0.000000
# 6 0.000000 0.000000 0.000000 -0.013608 0.000000 0.070719
#
#
# Mechanical properties :
#
#
# Convention : Reuss Voigt Hill
#
# Bulk Modulus (GPa) = 54.35304 60.02871 57.19088
# Shear Modulus (GPa) = 18.74821 22.31530 20.53175
#
# Velocity S-wave (km/s) = 3.25407 3.55016 3.40534
# Velocity P-wave (km/s) = 6.69456 7.12103 6.91109
#
# Compressibility (1/GPa) = 0.01839824
#
# Stress axis : x y z
#
# Youngs Moduli (GPa) = 58.76344 85.55817 44.59772
#
# Poissons Ratio (x) = 0.33486 0.42710
# Poissons Ratio (y) = 0.22999 0.12819
# Poissons Ratio (z) = 0.56276 0.24593
#
# Static dielectric constant tensor:
#      x y z
#    x 1.580760 0.000000 0.003990 
#    y 0.000000 1.586960 0.000000 
#    z 0.003990 0.000000 1.622610 
# 
# From -- ./inp_files/152703.got.cif
#   From: 2010.05.17/outbox.cif.g08.bks.cpg/sg12_77_cif.got.tgz:152703.got - 2010.06.03 13:09:07.
