data_PCOD9200264
_publ_section_title
;
Structure prediction by ZEFSAII (Michael W. Deem and Ramdas Pophale) SiO2 
 PCOD9200264
Probable space group: C 2/M
;
_chemical_formula_sum "Si O2"
_cell_formula_units_Z 64
_cell_length_a 20.221956
_cell_length_b 9.048833
_cell_length_c 22.330841
_cell_angle_alpha 90.000000
_cell_angle_beta 63.822796
_cell_angle_gamma 90.000000
_cell_volume 3667.104724
_symmetry_space_group_name_H-M "C 2/M"
_symmetry_group_IT_number 12
_symmetry_cell_setting 'monoclinic'
loop_
_space_group_symop_operation_xyz
x,y,z
-x,y,-z
-x,-y,-z
x,-y,z
1/2+x,1/2+y,z
1/2-x,1/2+y,-z
1/2-x,1/2-y,-z
1/2+x,1/2-y,z
loop_
_atom_site_type_symbol
_atom_site_label
_atom_site_fract_x
_atom_site_fract_y
_atom_site_fract_z
Si Si1 0.027925 0.677008 0.789763
Si Si2 0.800806 0.823629 0.429318
Si Si3 0.680898 0.175935 0.794131
Si Si4 0.542189 0.675171 0.074560
Si Si5 0.541332 0.822693 0.646561
Si Si6 0.453436 0.324536 0.577841
Si Si7 0.115849 0.174768 0.928872
Si Si8 0.279866 0.675340 0.647374
O O1 0.023377 0.500000 0.795288
O O2 0.109010 0.719515 0.782983
O O3 0.021925 0.719354 0.722784
O O4 0.967646 0.746051 0.858214
O O5 0.750000 0.750000 0.500000
O O6 0.882283 0.756470 0.400639
O O7 0.766119 0.772972 0.380268
O O8 0.802293 0.000000 0.435077
O O9 0.673806 0.249631 0.861741
O O10 0.752044 0.209848 0.725547
O O11 0.677009 0.000000 0.803799
O O12 0.552431 0.500000 0.079046
O O13 0.463250 0.694639 0.072663
O O14 0.602741 0.728989 0.002113
O O15 0.481762 0.767805 0.622810
O O16 0.550397 0.000000 0.640792
O O17 0.500000 0.284950 0.500000
O O18 0.465239 0.500000 0.584178
O O19 0.366450 0.302065 0.603532
O O20 0.129856 0.000000 0.925885
O O21 0.263401 0.500000 0.643415
#
# Coordination Sequence:
#
# PCOD9200264 Si02
#       8
#     8   8   8   8   8   8   8   8
#     4   9  17  29  46  70 101 135 170 209 255 307
#     4  12  24  37  57  82 107 136 175 216 264 322
#     4   9  16  28  46  69 100 137 171 207 258 310
#     4   8  14  24  39  62  96 134 168 206 253 301
#     4  11  22  38  57  79 110 141 175 220 267 315
#     4  10  22  39  58  79 104 138 179 221 267 321
#     4   8  14  24  38  62  97 133 168 208 252 299
#     4  10  20  37  56  77 110 141 173 221 270 316
#
# _framework density 17.452461
#
# number of rings (size 3 to 8) (size 9 to 14) (size 15 to 20)
#    0.000    2.375    1.250    3.000    0.000    3.750 
#    0.000    2.500    0.000    0.000    0.000    0.875 
#    0.000    0.000    0.000    0.000    0.000    0.000 
#
# Total GULP energy -178402.313590 kJ/mol
# GULP energy per Si atom -5575.072300 kJ/mol
# Density = 1.741274 g / cm^3
# Si number density = 17.452461 Si / 1000 Ang^3
#
#
#
# Elastic Constant Matrix: (Units=GPa)
#
#
# Indices 1 2 3 4 5 6 
#
# 1 13.1636 5.7320 -16.7785 0.0001 -1.2260 0.0002
# 2 5.7320 28.6499 9.6625 0.0002 -0.0277 0.0003
# 3 -16.7785 9.6625 87.5271 0.0001 -7.7566 0.0003
# 4 0.0001 0.0002 0.0001 32.4636 0.0000 4.2581
# 5 -1.2260 -0.0277 -7.7566 0.0000 17.4213 0.0001
# 6 0.0002 0.0003 0.0003 4.2581 0.0001 18.2584
#
#
#
# Elastic Compliance Matrix: (Units=1/GPa)
#
#
# Indices 1 2 3 4 5 6 
#
# 1 0.136159 -0.038158 0.032437 0.000000 0.023963 -0.000001
# 2 -0.038158 0.047001 -0.013258 0.000000 -0.008513 0.000000
# 3 0.032437 -0.013258 0.020100 0.000000 0.011211 0.000000
# 4 0.000000 0.000000 0.000000 0.031776 0.000000 -0.007411
# 5 0.023963 -0.008513 0.011211 0.000000 0.064065 0.000000
# 6 -0.000001 0.000000 0.000000 -0.007411 0.000000 0.056497
#
#
# Mechanical properties :
#
#
# Convention : Reuss Voigt Hill
#
# Bulk Modulus (GPa) = 6.04949 14.06361 10.05655
# Shear Modulus (GPa) = 11.14437 22.34365 16.74401
#
# Velocity S-wave (km/s) = 2.52971 3.58195 3.10079
# Velocity P-wave (km/s) = 3.46502 5.01826 4.31215
#
# Compressibility (1/GPa) = 0.16530331
#
# Stress axis : x y z
#
# Youngs Moduli (GPa) = 7.34436 21.27595 49.75087
#
# Poissons Ratio (x) = 0.81184 -1.61377
# Poissons Ratio (y) = 0.28024 0.65959
# Poissons Ratio (z) = -0.23823 0.28207
#
# Static dielectric constant tensor:
#      x y z
#    x 1.581990 0.000000 0.001220 
#    y 0.000000 1.584510 0.000000 
#    z 0.001220 0.000000 1.627040 
# 
# From -- ./inp_files/319857.got.cif
#   From: 2010.05.17/outbox.cif.g08.bks.cpg/sg12_160_cif.got.tgz:319857.got - 2010.06.03 13:09:07.
