data_PCOD9200437
_publ_section_title
;
Structure prediction by ZEFSAII (Michael W. Deem and Ramdas Pophale) SiO2 
 PCOD9200437
Probable space group: C 2/M
;
_chemical_formula_sum "Si O2"
_cell_formula_units_Z 40
_cell_length_a 14.041529
_cell_length_b 16.307618
_cell_length_c 17.961811
_cell_angle_alpha 90.000000
_cell_angle_beta 24.197395
_cell_angle_gamma 90.000000
_cell_volume 1685.828676
_symmetry_space_group_name_H-M "C 2/M"
_symmetry_group_IT_number 12
_symmetry_cell_setting 'monoclinic'
loop_
_space_group_symop_operation_xyz
x,y,z
-x,y,-z
-x,-y,-z
x,-y,z
1/2+x,1/2+y,z
1/2-x,1/2+y,-z
1/2-x,1/2-y,-z
1/2+x,1/2-y,z
loop_
_atom_site_type_symbol
_atom_site_label
_atom_site_fract_x
_atom_site_fract_y
_atom_site_fract_z
Si Si1 0.778684 0.406188 0.995648
Si Si2 0.039152 0.654847 0.677652
Si Si3 0.018161 0.911680 0.397808
Si Si4 0.314174 0.321198 0.348741
Si Si5 0.887852 0.279472 0.152407
O O1 0.849015 0.500000 0.959125
O O2 0.826312 0.383198 0.874909
O O3 0.935176 0.341752 0.930977
O O4 0.509627 0.390976 0.205855
O O5 0.264662 0.606181 0.547437
O O6 0.082043 0.654172 0.558750
O O7 0.071514 0.747420 0.684140
O O8 0.189488 0.837786 0.260605
O O9 0.000000 0.913901 0.500000
O O10 0.105223 0.000000 0.309048
O O11 0.292211 0.280934 0.283429
O O12 0.000000 0.238318 0.000000
#
# Coordination Sequence:
#
# PCOD9200437 Si02
#       5
#     8   8   8   8   8
#     4  11  22  37  58  86 118 150 188 234 284 339
#     4  10  20  37  58  80 117 157 190 227 277 340
#     4  11  20  33  54  86 123 148 175 224 289 350
#     4  10  22  38  55  81 114 154 198 232 270 336
#     4  11  22  36  56  85 119 152 186 231 285 343
#
# _framework density 23.727202999999999
#
# number of rings (size 3 to 8) (size 9 to 14) (size 15 to 20)
#    0.000    1.400    4.000    4.800    0.000    6.400 
#    0.000    0.000    0.000    0.600    0.000    4.200 
#    0.000    0.000    0.000    0.000    0.000    0.000 
#
# Total GULP energy -111900.876814 kJ/mol
# GULP energy per Si atom -5595.043841 kJ/mol
# Density = 2.367320 g / cm^3
# Si number density = 23.727203 Si / 1000 Ang^3
#
#
#
# Elastic Constant Matrix: (Units=GPa)
#
#
# Indices 1 2 3 4 5 6 
#
# 1 101.0318 44.5824 45.8420 -0.0080 29.3174 -0.0213
# 2 44.5824 44.7490 10.0138 -0.0760 10.6079 0.0167
# 3 45.8420 10.0138 124.9884 -0.1374 50.1790 0.0737
# 4 -0.0080 -0.0760 -0.1374 19.4695 0.0344 0.2825
# 5 29.3174 10.6079 50.1790 0.0344 49.6090 -0.0091
# 6 -0.0213 0.0167 0.0737 0.2825 -0.0091 3.1013
#
#
#
# Elastic Compliance Matrix: (Units=1/GPa)
#
#
# Indices 1 2 3 4 5 6 
#
# 1 0.022059 -0.019980 -0.005004 -0.000103 -0.003703 0.000376
# 2 -0.019980 0.041641 0.004760 0.000199 -0.001911 -0.000498
# 3 -0.005004 0.004760 0.014609 0.000149 -0.012838 -0.000458
# 4 -0.000103 0.000199 0.000149 0.051433 -0.000169 -0.004690
# 5 -0.003703 -0.001911 -0.012838 -0.000169 0.035740 0.000411
# 6 0.000376 -0.000498 -0.000458 -0.004690 0.000411 0.322888
#
#
# Mechanical properties :
#
#
# Convention : Reuss Voigt Hill
#
# Bulk Modulus (GPa) = 26.41241 52.40506 39.40874
# Shear Modulus (GPa) = 9.23465 25.79138 17.51302
#
# Velocity S-wave (km/s) = 1.97496 3.30054 2.71974
# Velocity P-wave (km/s) = 4.04431 6.05468 5.14858
#
# Compressibility (1/GPa) = 0.03786098
#
# Stress axis : x y z
#
# Youngs Moduli (GPa) = 45.33201 24.01474 68.45065
#
# Poissons Ratio (x) = 0.47982 0.34252
# Poissons Ratio (y) = 0.90574 -0.32580
# Poissons Ratio (z) = 0.22683 -0.11430
#
# Static dielectric constant tensor:
#      x y z
#    x 1.945420 -0.000020 0.027720 
#    y -0.000020 1.897850 0.000090 
#    z 0.027720 0.000090 1.972890 
# 
# From -- ./inp_files/317092.got.cif
#   From: 2010.05.17/outbox.cif.g08.bks.cpg/sg12_159_cif.got.tgz:317092.got - 2010.06.03 13:09:07.
