data_PCOD9200209
_publ_section_title
;
Structure prediction by ZEFSAII (Michael W. Deem and Ramdas Pophale) SiO2 
 PCOD9200209
Probable space group: C 2/M
;
_chemical_formula_sum "Si O2"
_cell_formula_units_Z 44
_cell_length_a 14.326030
_cell_length_b 15.388089
_cell_length_c 11.905889
_cell_angle_alpha 90.000000
_cell_angle_beta 139.513367
_cell_angle_gamma 90.000000
_cell_volume 1704.111991
_symmetry_space_group_name_H-M "C 2/M"
_symmetry_group_IT_number 12
_symmetry_cell_setting 'monoclinic'
loop_
_space_group_symop_operation_xyz
x,y,z
-x,y,-z
-x,-y,-z
x,-y,z
1/2+x,1/2+y,z
1/2-x,1/2+y,-z
1/2-x,1/2-y,-z
1/2+x,1/2-y,z
loop_
_atom_site_type_symbol
_atom_site_label
_atom_site_fract_x
_atom_site_fract_y
_atom_site_fract_z
Si Si1 0.365863 0.356015 0.520970
Si Si2 0.198395 0.598366 0.939890
Si Si3 0.810639 0.132984 0.804724
Si Si4 0.542292 0.500000 0.231849
Si Si5 0.589675 0.839531 0.432297
Si Si6 0.664289 0.164795 0.142706
O O1 0.463204 0.424726 0.673390
O O2 0.441937 0.262528 0.580930
O O3 0.225384 0.346006 0.472571
O O4 0.287582 0.378843 0.331769
O O5 0.217660 0.500000 0.998284
O O6 0.300382 0.608965 0.925775
O O7 0.040299 0.611932 0.744332
O O8 0.210692 0.661775 0.055847
O O9 0.910094 0.074632 0.818661
O O10 0.652329 0.122508 0.604917
O O11 0.844204 0.235117 0.824428
O O12 0.500000 0.128732 0.000000
#
# Coordination Sequence:
#
# PCOD9200209 Si02
#       6
#     8   8   8   4   8   8
#     4   9  19  36  56  87 112 152 188 241 284 336
#     4  12  24  36  61  92 119 149 191 245 297 345
#     4  10  22  40  58  88 119 157 189 240 290 343
#     4  10  20  36  69  80 116 146 204 244 283 332
#     4   9  19  35  58  84 117 146 190 235 294 338
#     4  11  23  39  60  84 125 157 190 231 298 354
#
# _framework density 25.819897000000001
#
# number of rings (size 3 to 8) (size 9 to 14) (size 15 to 20)
#    0.000    1.818    2.727    2.182    6.364    1.091 
#    0.000    0.455    0.000    0.000    0.000    2.545 
#    0.000    0.000    0.000    0.000    0.000    0.000 
#
# Total GULP energy -122722.496036 kJ/mol
# GULP energy per Si atom -5578.295274 kJ/mol
# Density = 2.576113 g / cm^3
# Si number density = 25.819897 Si / 1000 Ang^3
#
#
#
# Elastic Constant Matrix: (Units=GPa)
#
#
# Indices 1 2 3 4 5 6 
#
# 1 83.6737 13.1792 49.0204 0.0000 -6.8637 0.0000
# 2 13.1792 90.3582 31.5050 0.0000 -5.1341 0.0000
# 3 49.0204 31.5050 155.5187 0.0000 -19.2714 0.0000
# 4 0.0000 0.0000 0.0000 42.4806 0.0000 -35.6285
# 5 -6.8637 -5.1341 -19.2714 0.0000 53.7163 0.0000
# 6 0.0000 0.0000 0.0000 -35.6285 0.0000 29.9206
#
#
#
# Elastic Compliance Matrix: (Units=1/GPa)
#
#
# Indices 1 2 3 4 5 6 
#
# 1 0.014687 -0.000565 -0.004489 0.000000 0.000212 0.000001
# 2 -0.000565 0.011934 -0.002205 0.000000 0.000277 0.000000
# 3 -0.004489 -0.002205 0.008576 0.000000 0.002292 0.000000
# 4 0.000000 0.000000 0.000000 18.071659 0.000001 21.519159
# 5 0.000212 0.000277 0.002292 0.000001 0.019492 0.000001
# 6 0.000001 0.000000 0.000000 21.519159 0.000001 25.657754
#
#
# Mechanical properties :
#
#
# Convention : Reuss Voigt Hill
#
# Bulk Modulus (GPa) = 48.35759 57.43998 52.89878
# Shear Modulus (GPa) = 0.11414 40.94657 20.53036
#
# Velocity S-wave (km/s) = 0.21048 3.98660 2.82288
# Velocity P-wave (km/s) = 4.33919 6.59434 5.58184
#
# Compressibility (1/GPa) = 0.02067928
#
# Stress axis : x y z
#
# Youngs Moduli (GPa) = 68.08573 83.79349 116.60783
#
# Poissons Ratio (x) = 0.04735 0.52343
# Poissons Ratio (y) = 0.03847 0.25714
# Poissons Ratio (z) = 0.30562 0.18478
#
# Static dielectric constant tensor:
#      x y z
#    x 2.056440 0.000000 0.074560 
#    y 0.000000 1.978200 0.000000 
#    z 0.074560 0.000000 2.101530 
# 
# From -- ./inp_files/156281.got.cif
#   From: 2010.05.17/outbox.cif.g08.bks.cpg/sg12_79_cif.got.tgz:156281.got - 2010.06.03 13:09:07.
