data_PCOD9200682
_publ_section_title
;
Structure prediction by ZEFSAII (Michael W. Deem and Ramdas Pophale) SiO2 
 PCOD9200682
Probable space group: C 2/M
;
_chemical_formula_sum "Si O2"
_cell_formula_units_Z 48
_cell_length_a 32.309169
_cell_length_b 19.194296
_cell_length_c 10.378508
_cell_angle_alpha 90.000000
_cell_angle_beta 25.563926
_cell_angle_gamma 90.000000
_cell_volume 2777.356800
_symmetry_space_group_name_H-M "C 2/M"
_symmetry_group_IT_number 12
_symmetry_cell_setting 'monoclinic'
loop_
_space_group_symop_operation_xyz
x,y,z
-x,y,-z
-x,-y,-z
x,-y,z
1/2+x,1/2+y,z
1/2-x,1/2+y,-z
1/2-x,1/2-y,-z
1/2+x,1/2-y,z
loop_
_atom_site_type_symbol
_atom_site_label
_atom_site_fract_x
_atom_site_fract_y
_atom_site_fract_z
Si Si1 0.427146 0.920490 0.824879
Si Si2 0.711321 0.824330 0.922376
Si Si3 0.573316 0.721758 0.683397
Si Si4 0.552663 0.111485 0.723024
Si Si5 0.752846 0.920365 0.052285
Si Si6 0.911658 0.189146 0.651089
O O1 0.500000 0.912850 0.500000
O O2 0.487721 0.907837 0.783130
O O3 0.390423 0.000000 0.926224
O O4 0.344953 0.863596 0.032866
O O5 0.817322 0.798123 0.589897
O O6 0.723016 0.879691 0.005634
O O7 0.649615 0.759169 0.147869
O O8 0.564114 0.805020 0.697479
O O9 0.554950 0.692131 0.591667
O O10 0.500000 0.697907 0.000000
O O11 0.658678 0.081679 0.405511
O O12 0.500000 0.087743 0.000000
O O13 0.779137 0.000000 0.951634
O O14 0.839745 0.875866 0.866721
O O15 0.000000 0.186259 0.500000
#
# Coordination Sequence:
#
# PCOD9200682 Si02
#       6
#     8   8   8   8   8   8
#     4  11  21  34  57  85 112 145 187 233 277 329
#     4  11  19  37  61  86 107 146 190 238 268 329
#     4  10  20  37  59  85 112 145 186 231 281 323
#     4  11  21  37  55  85 119 147 179 226 287 336
#     4  11  21  36  58  83 112 151 188 225 275 336
#     4  11  21  38  60  82 112 146 190 234 270 325
#
# _framework density 17.282619
#
# number of rings (size 3 to 8) (size 9 to 14) (size 15 to 20)
#    0.000    1.167    5.000    3.500    0.000    1.667 
#    3.000    2.500    0.000   12.500    0.000    0.000 
#    0.000    0.000    0.000    0.000    0.000    0.000 
#
# Total GULP energy -134049.456207 kJ/mol
# GULP energy per Si atom -5585.394009 kJ/mol
# Density = 1.724328 g / cm^3
# Si number density = 17.282619 Si / 1000 Ang^3
#
#
#
# Elastic Constant Matrix: (Units=GPa)
#
#
# Indices 1 2 3 4 5 6 
#
# 1 125.9708 50.0332 73.2340 0.0000 -8.9354 0.0000
# 2 50.0332 109.5061 40.2081 0.0000 -10.8798 0.0000
# 3 73.2340 40.2081 122.4314 0.0000 3.8635 0.0000
# 4 0.0000 0.0000 0.0000 9.1795 0.0000 10.9700
# 5 -8.9354 -10.8798 3.8635 0.0000 25.3453 0.0000
# 6 0.0000 0.0000 0.0000 10.9700 0.0000 -37.7089
#
#
#
# Elastic Compliance Matrix: (Units=1/GPa)
#
#
# Indices 1 2 3 4 5 6 
#
# 1 0.013798 -0.003137 -0.007370 0.000000 0.004641 0.000000
# 2 -0.003137 0.011769 -0.002123 0.000000 0.004270 0.000000
# 3 -0.007370 -0.002123 0.013449 0.000000 -0.005560 0.000000
# 4 0.000000 0.000000 0.000000 0.080835 0.000000 0.023516
# 5 0.004641 0.004270 -0.005560 0.000000 0.043771 0.000000
# 6 0.000000 0.000000 0.000000 0.023516 0.000000 -0.019678
#
#
# Mechanical properties :
#
#
# Convention : Reuss Voigt Hill
#
# Bulk Modulus (GPa) = 72.69719 76.09544 74.39631
# Shear Modulus (GPa) = 28.77030 12.32538 20.54784
#
# Velocity S-wave (km/s) = 4.08449 2.67341 3.45183
# Velocity P-wave (km/s) = 8.02491 7.32497 7.68291
#
# Compressibility (1/GPa) = 0.01375569
#
# Stress axis : x y z
#
# Youngs Moduli (GPa) = 72.47448 84.96794 74.35590
#
# Poissons Ratio (x) = 0.26656 0.54797
# Poissons Ratio (y) = 0.22737 0.15788
# Poissons Ratio (z) = 0.53411 0.18041
#
# Static dielectric constant tensor:
#      x y z
#    x 1.576750 0.000000 0.001490 
#    y 0.000000 1.593230 0.000000 
#    z 0.001490 0.000000 1.582980 
# 
# From -- ./inp_files/112745.got.cif
#   From: 2010.05.17/outbox.cif.g08.bks.cpg/sg12_57_cif.got.tgz:112745.got - 2010.06.03 13:09:07.
