data_PCOD9200464
_publ_section_title
;
Structure prediction by ZEFSAII (Michael W. Deem and Ramdas Pophale) SiO2 
 PCOD9200464
Probable space group: C 2/M
;
_chemical_formula_sum "Si O2"
_cell_formula_units_Z 44
_cell_length_a 13.269358
_cell_length_b 8.260675
_cell_length_c 24.412116
_cell_angle_alpha 90.000000
_cell_angle_beta 123.339976
_cell_angle_gamma 90.000000
_cell_volume 2235.516453
_symmetry_space_group_name_H-M "C 2/M"
_symmetry_group_IT_number 12
_symmetry_cell_setting 'monoclinic'
loop_
_space_group_symop_operation_xyz
x,y,z
-x,y,-z
-x,-y,-z
x,-y,z
1/2+x,1/2+y,z
1/2-x,1/2+y,-z
1/2-x,1/2-y,-z
1/2+x,1/2-y,z
loop_
_atom_site_type_symbol
_atom_site_label
_atom_site_fract_x
_atom_site_fract_y
_atom_site_fract_z
Si Si1 0.293092 0.818653 0.696277
Si Si2 0.513576 0.819156 0.677314
Si Si3 0.528328 0.309900 0.569373
Si Si4 0.112971 0.000000 0.758099
Si Si5 0.500000 0.249445 0.000000
Si Si6 0.887178 0.000000 0.774760
Si Si7 0.934134 0.000000 0.072751
Si Si8 0.292598 0.000000 0.911091
O O1 0.402419 0.815814 0.685634
O O2 0.170452 0.799046 0.625325
O O3 0.315202 0.665395 0.741867
O O4 0.295240 0.000000 0.722377
O O5 0.470546 0.786740 0.602440
O O6 0.596770 0.665262 0.718472
O O7 0.567548 0.000000 0.697211
O O8 0.500000 0.251423 0.500000
O O9 0.493494 0.500000 0.562190
O O10 0.996646 0.000000 0.763560
O O11 0.225766 0.000000 0.832697
O O12 0.551127 0.350518 0.964117
O O13 0.384741 0.148356 0.945213
O O14 0.952457 0.000000 0.852407
O O15 0.812260 0.000000 0.073205
#
# Coordination Sequence:
#
# PCOD9200464 Si02
#       8
#     8   8   8   4   4   4   4   4
#     4   9  20  38  56  81 114 146 190 242 290 350
#     4  10  20  37  58  82 112 147 191 242 291 346
#     4  10  21  37  55  79 112 151 190 235 295 349
#     4   9  19  39  60  85 118 151 190 240 295 348
#     4  10  22  40  62  94 122 162 210 236 296 382
#     4   9  19  37  62  85 114 155 190 236 301 342
#     4  10  21  41  62  90 128 158 202 256 294 361
#     4  10  21  41  64  88 126 166 196 250 310 351
#
# _framework density 19.682252999999999
#
# number of rings (size 3 to 8) (size 9 to 14) (size 15 to 20)
#    0.000    2.364    0.909    0.545    1.273    2.545 
#    6.545    0.000    0.000    0.000    0.000    0.000 
#    0.000    0.000    0.000    0.000    0.000    0.000 
#
# Total GULP energy -122714.613947 kJ/mol
# GULP energy per Si atom -5577.936998 kJ/mol
# Density = 1.963746 g / cm^3
# Si number density = 19.682253 Si / 1000 Ang^3
#
#
#
# Elastic Constant Matrix: (Units=GPa)
#
#
# Indices 1 2 3 4 5 6 
#
# 1 64.8909 18.5882 7.0592 0.0000 -2.1900 0.0000
# 2 18.5882 107.5731 45.9990 0.0000 1.1172 0.0000
# 3 7.0592 45.9990 113.3954 0.0000 -1.2449 0.0000
# 4 0.0000 0.0000 0.0000 7.2399 0.0000 -3.9543
# 5 -2.1900 1.1172 -1.2449 0.0000 26.7145 0.0000
# 6 0.0000 0.0000 0.0000 -3.9543 0.0000 24.1084
#
#
#
# Elastic Compliance Matrix: (Units=1/GPa)
#
#
# Indices 1 2 3 4 5 6 
#
# 1 0.016272 -0.002904 0.000181 0.000000 0.001464 0.000000
# 2 -0.002904 0.011778 -0.004607 0.000000 -0.000945 0.000000
# 3 0.000181 -0.004607 0.010684 0.000000 0.000705 0.000000
# 4 0.000000 0.000000 0.000000 0.151715 0.000000 0.024885
# 5 0.001464 -0.000945 0.000705 0.000000 0.037625 0.000000
# 6 0.000000 0.000000 0.000000 0.024885 0.000000 0.045561
#
#
# Mechanical properties :
#
#
# Convention : Reuss Voigt Hill
#
# Bulk Modulus (GPa) = 41.54003 47.68358 44.61180
# Shear Modulus (GPa) = 16.87365 25.89344 21.38354
#
# Velocity S-wave (km/s) = 2.93115 3.63102 3.29969
# Velocity P-wave (km/s) = 5.71022 6.46980 6.10184
#
# Compressibility (1/GPa) = 0.02407317
#
# Stress axis : x y z
#
# Youngs Moduli (GPa) = 61.45470 84.90552 93.59709
#
# Poissons Ratio (x) = 0.24661 -0.01697
# Poissons Ratio (y) = 0.17849 0.43123
# Poissons Ratio (z) = -0.01114 0.39118
#
# Static dielectric constant tensor:
#      x y z
#    x 1.711480 0.000000 -0.022380 
#    y 0.000000 1.725110 0.000000 
#    z -0.022380 0.000000 1.643970 
# 
# From -- ./inp_files/308680.got.cif
#   From: 2010.05.17/outbox.cif.g08.bks.cpg/sg12_155_cif.got.tgz:308680.got - 2010.06.03 13:09:07.
