data_PCOD9200421
_publ_section_title
;
Structure prediction by ZEFSAII (Michael W. Deem and Ramdas Pophale) SiO2 
 PCOD9200421
Probable space group: C 2/M
;
_chemical_formula_sum "Si O2"
_cell_formula_units_Z 34
_cell_length_a 9.948344
_cell_length_b 10.184552
_cell_length_c 16.933312
_cell_angle_alpha 90.000000
_cell_angle_beta 84.966098
_cell_angle_gamma 90.000000
_cell_volume 1709.056033
_symmetry_space_group_name_H-M "C 2/M"
_symmetry_group_IT_number 12
_symmetry_cell_setting 'monoclinic'
loop_
_space_group_symop_operation_xyz
x,y,z
-x,y,-z
-x,-y,-z
x,-y,z
1/2+x,1/2+y,z
1/2-x,1/2+y,-z
1/2-x,1/2-y,-z
1/2+x,1/2-y,z
loop_
_atom_site_type_symbol
_atom_site_label
_atom_site_fract_x
_atom_site_fract_y
_atom_site_fract_z
Si Si1 0.500000 0.500000 0.000000
Si Si2 0.814825 0.851769 0.159424
Si Si3 0.195163 0.650388 0.341362
Si Si4 0.062906 0.735128 0.071937
Si Si5 0.027555 0.153148 0.591598
O O1 0.592185 0.380233 0.035103
O O2 0.759362 0.846873 0.250716
O O3 0.940388 0.756711 0.139587
O O4 0.691750 0.821726 0.107901
O O5 0.865841 0.000000 0.136106
O O6 0.150670 0.500000 0.359035
O O7 0.317834 0.683012 0.394352
O O8 0.073986 0.751419 0.357763
O O9 0.000000 0.660529 0.000000
O O10 0.000000 0.167357 0.500000
O O11 0.004900 0.000000 0.614746
#
# Coordination Sequence:
#
# PCOD9200421 Si02
#       5
#     2   8   8   8   8
#     4   8  20  36  58  82 108 144 194 228 288 324
#     4  11  21  38  55  81 114 147 186 234 280 333
#     4  10  22  37  57  84 117 151 187 233 287 335
#     4  10  20  37  58  79 110 147 187 232 279 327
#     4  10  21  39  61  87 115 149 190 232 279 339
#
# _framework density 19.894024000000002
#
# number of rings (size 3 to 8) (size 9 to 14) (size 15 to 20)
#    0.706    1.176    1.176    2.824    0.000    1.882 
#    4.235    0.000    0.000    0.000    0.000    0.000 
#    0.000    0.000    0.000    0.000    0.000    0.000 
#
# Total GULP energy -94666.461154 kJ/mol
# GULP energy per Si atom -5568.615362 kJ/mol
# Density = 1.984874 g / cm^3
# Si number density = 19.894024 Si / 1000 Ang^3
#
#
#
# Elastic Constant Matrix: (Units=GPa)
#
#
# Indices 1 2 3 4 5 6 
#
# 1 64.3774 21.8287 0.2943 0.0000 -9.2169 0.0000
# 2 21.8287 47.4567 4.6090 0.0000 -12.3718 0.0000
# 3 0.2943 4.6090 37.0330 0.0000 9.1908 0.0000
# 4 0.0000 0.0000 0.0000 19.1922 0.0000 -3.9874
# 5 -9.2169 -12.3718 9.1908 0.0000 33.0521 0.0000
# 6 0.0000 0.0000 0.0000 -3.9874 0.0000 34.6483
#
#
#
# Elastic Compliance Matrix: (Units=1/GPa)
#
#
# Indices 1 2 3 4 5 6 
#
# 1 0.018550 -0.008024 0.000336 0.000000 0.002076 0.000000
# 2 -0.008024 0.027893 -0.005847 0.000000 0.009829 0.000000
# 3 0.000336 -0.005847 0.030342 0.000000 -0.010532 0.000000
# 4 0.000000 0.000000 0.000000 0.053381 0.000000 0.006143
# 5 0.002076 0.009829 -0.010532 0.000000 0.037442 0.000000
# 6 0.000000 0.000000 0.000000 0.006143 0.000000 0.029568
#
#
# Mechanical properties :
#
#
# Convention : Reuss Voigt Hill
#
# Bulk Modulus (GPa) = 20.11475 22.48122 21.29799
# Shear Modulus (GPa) = 20.76268 25.52087 23.14178
#
# Velocity S-wave (km/s) = 3.23408 3.58556 3.41435
# Velocity P-wave (km/s) = 4.90700 5.33542 5.12569
#
# Compressibility (1/GPa) = 0.04971475
#
# Stress axis : x y z
#
# Youngs Moduli (GPa) = 53.90917 35.85157 32.95779
#
# Poissons Ratio (x) = 0.28766 -0.01107
# Poissons Ratio (y) = 0.43255 0.19271
# Poissons Ratio (z) = -0.01811 0.20963
#
# Static dielectric constant tensor:
#      x y z
#    x 1.629020 0.000000 0.041460 
#    y 0.000000 1.716780 0.000000 
#    z 0.041460 0.000000 1.719340 
# 
# From -- ./inp_files/298725.got.cif
#   From: 2010.05.17/outbox.cif.g08.bks.cpg/sg12_150_cif.got.tgz:298725.got - 2010.06.03 13:09:07.
