data_PCOD9200903
_publ_section_title
;
Structure prediction by ZEFSAII (Michael W. Deem and Ramdas Pophale) SiO2 
 PCOD9200903
Probable space group: C 2/M
;
_chemical_formula_sum "Si O2"
_cell_formula_units_Z 56
_cell_length_a 13.956972
_cell_length_b 22.587204
_cell_length_c 8.229366
_cell_angle_alpha 90.000000
_cell_angle_beta 106.035164
_cell_angle_gamma 90.000000
_cell_volume 2493.361098
_symmetry_space_group_name_H-M "C 2/M"
_symmetry_group_IT_number 12
_symmetry_cell_setting 'monoclinic'
loop_
_space_group_symop_operation_xyz
x,y,z
-x,y,-z
-x,-y,-z
x,-y,z
1/2+x,1/2+y,z
1/2-x,1/2+y,-z
1/2-x,1/2-y,-z
1/2+x,1/2-y,z
loop_
_atom_site_type_symbol
_atom_site_label
_atom_site_fract_x
_atom_site_fract_y
_atom_site_fract_z
Si Si1 0.379771 0.253000 0.440381
Si Si2 0.401338 0.568876 0.851106
Si Si3 0.115491 0.689016 0.877697
Si Si4 0.390618 0.389063 0.500181
Si Si5 0.117113 0.309862 0.234458
Si Si6 0.322135 0.934435 0.603214
Si Si7 0.677327 0.066402 0.790378
O O1 0.500000 0.241746 0.500000
O O2 0.340670 0.219614 0.262448
O O3 0.370026 0.323545 0.424106
O O4 0.341680 0.226265 0.592790
O O5 0.406590 0.500000 0.794510
O O6 0.396179 0.612665 0.697631
O O7 0.294843 0.573090 0.888845
O O8 0.500000 0.579996 0.000000
O O9 0.120424 0.618889 0.849062
O O10 0.999460 0.705952 0.830184
O O11 0.160450 0.701659 0.075808
O O12 0.500000 0.410291 0.500000
O O13 0.296021 0.429107 0.414208
O O14 0.127674 0.378967 0.286385
O O15 0.331543 0.927915 0.410816
O O16 0.358710 0.000000 0.663796
O O17 0.645428 0.000000 0.817988
#
# Coordination Sequence:
#
# PCOD9200903 Si02
#       7
#     8   8   8   8   8   8   8
#     4   9  19  39  59  83 119 155 191 241 288 347
#     4   9  19  37  58  84 119 156 194 241 296 346
#     4  10  20  37  60  85 120 153 194 238 290 351
#     4  10  21  38  59  85 114 155 198 241 295 344
#     4  10  21  37  59  88 116 155 192 240 294 341
#     4  10  21  37  58  85 117 152 197 242 293 353
#     4   9  18  34  57  83 116 156 194 240 294 350
#
# _framework density 22.459643
#
# number of rings (size 3 to 8) (size 9 to 14) (size 15 to 20)
#    0.000    2.429    1.429    1.286    0.000    4.000 
#    7.714    5.000    0.000    0.000    0.000    0.000 
#    0.000    0.000    0.000    0.000    0.000    0.000 
#
# Total GULP energy -156360.833038 kJ/mol
# GULP energy per Si atom -5584.315466 kJ/mol
# Density = 2.240852 g / cm^3
# Si number density = 22.459643 Si / 1000 Ang^3
#
#
#
# Elastic Constant Matrix: (Units=GPa)
#
#
# Indices 1 2 3 4 5 6 
#
# 1 28.6207 1.5099 25.9905 0.0000 -4.2119 0.0000
# 2 1.5099 56.3697 50.6762 0.0000 -7.5477 0.0000
# 3 25.9905 50.6762 112.2382 0.0000 -7.4001 0.0000
# 4 0.0000 0.0000 0.0000 14.4702 0.0000 7.0760
# 5 -4.2119 -7.5477 -7.4001 0.0000 27.9247 0.0000
# 6 0.0000 0.0000 0.0000 7.0760 0.0000 23.7867
#
#
#
# Elastic Compliance Matrix: (Units=1/GPa)
#
#
# Indices 1 2 3 4 5 6 
#
# 1 0.052775 0.017045 -0.019428 0.000000 0.007419 0.000000
# 2 0.017045 0.035952 -0.019714 0.000000 0.007064 0.000000
# 3 -0.019428 -0.019714 0.022152 0.000000 -0.002388 0.000000
# 4 0.000000 0.000000 0.000000 0.080871 0.000000 -0.024057
# 5 0.007419 0.007064 -0.002388 0.000000 0.038206 0.000000
# 6 0.000000 0.000000 0.000000 -0.024057 0.000000 0.049197
#
#
# Mechanical properties :
#
#
# Convention : Reuss Voigt Hill
#
# Bulk Modulus (GPa) = 14.99570 39.28686 27.14128
# Shear Modulus (GPa) = 14.46868 21.17312 17.82090
#
# Velocity S-wave (km/s) = 2.54088 3.07370 2.81990
# Velocity P-wave (km/s) = 3.91143 5.48881 4.76583
#
# Compressibility (1/GPa) = 0.06668578
#
# Stress axis : x y z
#
# Youngs Moduli (GPa) = 18.94850 27.81485 45.14298
#
# Poissons Ratio (x) = -0.47411 0.87702
# Poissons Ratio (y) = -0.32298 0.88994
# Poissons Ratio (z) = 0.36812 0.54834
#
# Static dielectric constant tensor:
#      x y z
#    x 1.905220 0.000000 0.009860 
#    y 0.000000 1.788070 0.000000 
#    z 0.009860 0.000000 1.844740 
# 
# From -- ./inp_files/65427.got.cif
#   From: 2010.05.17/outbox.cif.g08.bks.cpg/sg12_33_cif.got.tgz:65427.got - 2010.06.03 13:09:07.
