data_PCOD9200708
_publ_section_title
;
Structure prediction by ZEFSAII (Michael W. Deem and Ramdas Pophale) SiO2 
 PCOD9200708
Probable space group: C 2/M
;
_chemical_formula_sum "Si O2"
_cell_formula_units_Z 52
_cell_length_a 8.160336
_cell_length_b 11.874177
_cell_length_c 31.426008
_cell_angle_alpha 90.000000
_cell_angle_beta 128.866745
_cell_angle_gamma 90.000000
_cell_volume 2370.933402
_symmetry_space_group_name_H-M "C 2/M"
_symmetry_group_IT_number 12
_symmetry_cell_setting 'monoclinic'
loop_
_space_group_symop_operation_xyz
x,y,z
-x,y,-z
-x,-y,-z
x,-y,z
1/2+x,1/2+y,z
1/2-x,1/2+y,-z
1/2-x,1/2-y,-z
1/2+x,1/2-y,z
loop_
_atom_site_type_symbol
_atom_site_label
_atom_site_fract_x
_atom_site_fract_y
_atom_site_fract_z
Si Si1 0.503265 0.874012 0.805399
Si Si2 0.773217 0.190476 0.458900
Si Si3 0.466248 0.297842 0.872862
Si Si4 0.125368 0.130934 0.370720
Si Si5 0.429900 0.873687 0.940392
Si Si6 0.952997 0.500000 0.629300
Si Si7 0.352935 0.824627 0.685915
O O1 0.419599 0.783243 0.825201
O O2 0.434605 0.845414 0.746428
O O3 0.756817 0.866922 0.848608
O O4 0.430747 0.000000 0.804094
O O5 0.750000 0.250000 0.500000
O O6 0.771398 0.292569 0.424391
O O7 0.607173 0.099921 0.415332
O O8 0.000000 0.132627 0.500000
O O9 0.512614 0.217152 0.920554
O O10 0.676252 0.366488 0.897330
O O11 0.121262 0.195972 0.325135
O O12 0.892978 0.139648 0.353814
O O13 0.181024 0.000000 0.374690
O O14 0.500319 0.000000 0.940725
O O15 0.500000 0.850355 0.000000
O O16 0.966852 0.401795 0.669420
#
# Coordination Sequence:
#
# PCOD9200708 Si02
#       7
#     8   8   8   8   8   4   8
#     4  11  21  38  62  86 121 158 203 253 305 356
#     4  11  24  40  63  91 118 156 199 241 307 359
#     4  10  22  36  57  92 122 156 209 254 297 359
#     4  11  24  43  63  88 125 151 201 248 297 374
#     4  10  20  37  59  85 124 167 204 249 305 354
#     4  10  21  40  65  84 121 158 196 240 299 374
#     4  11  22  43  65  89 117 166 199 248 312 359
#
# _framework density 21.932292
#
# number of rings (size 3 to 8) (size 9 to 14) (size 15 to 20)
#    0.000    1.385    1.538    4.385    1.077    0.308 
#   11.077    3.846    0.000    7.385    0.000    0.000 
#    0.000    0.000    0.000    0.000    0.000    0.000 
#
# Total GULP energy -144888.223688 kJ/mol
# GULP energy per Si atom -5572.623988 kJ/mol
# Density = 2.188237 g / cm^3
# Si number density = 21.932292 Si / 1000 Ang^3
#
#
#
# Elastic Constant Matrix: (Units=GPa)
#
#
# Indices 1 2 3 4 5 6 
#
# 1 17.7033 0.1643 -18.4673 0.0000 2.4960 0.0000
# 2 0.1643 156.6453 38.7802 0.0000 -17.9390 0.0000
# 3 -18.4673 38.7802 97.4157 0.0000 -23.1014 0.0000
# 4 0.0000 0.0000 0.0000 4.9630 0.0000 4.3984
# 5 2.4960 -17.9390 -23.1014 0.0000 29.6404 0.0000
# 6 0.0000 0.0000 0.0000 4.3984 0.0000 7.1082
#
#
#
# Elastic Compliance Matrix: (Units=1/GPa)
#
#
# Indices 1 2 3 4 5 6 
#
# 1 0.072901 -0.003609 0.016295 0.000000 0.004376 0.000000
# 2 -0.003609 0.007423 -0.003069 0.000000 0.002404 0.000000
# 3 0.016295 -0.003069 0.016941 0.000000 0.009974 0.000000
# 4 0.000000 0.000000 0.000000 0.446164 0.000000 -0.276080
# 5 0.004376 0.002404 0.009974 0.000000 0.042598 0.000000
# 6 0.000000 0.000000 0.000000 -0.276080 0.000000 0.311517
#
#
# Mechanical properties :
#
#
# Convention : Reuss Voigt Hill
#
# Bulk Modulus (GPa) = 8.58383 34.74653 21.66518
# Shear Modulus (GPa) = 5.45170 25.09479 15.27324
#
# Velocity S-wave (km/s) = 1.57832 3.38626 2.64177
# Velocity P-wave (km/s) = 2.69142 5.58266 4.38234
#
# Compressibility (1/GPa) = 0.11649813
#
# Stress axis : x y z
#
# Youngs Moduli (GPa) = 13.71720 134.72069 59.02717
#
# Poissons Ratio (x) = 0.48625 -0.96183
# Poissons Ratio (y) = 0.04951 0.18115
# Poissons Ratio (z) = -0.22352 0.41345
#
# Static dielectric constant tensor:
#      x y z
#    x 1.872880 0.000000 0.023930 
#    y 0.000000 1.777280 0.000000 
#    z 0.023930 0.000000 1.797200 
# 
# From -- ./inp_files/355763.got.cif
#   From: 2010.05.17/outbox.cif.g08.bks.cpg/sg12_178_cif.got.tgz:355763.got - 2010.06.03 13:09:07.
