data_PCOD9200751
_publ_section_title
;
Structure prediction by ZEFSAII (Michael W. Deem and Ramdas Pophale) SiO2 
 PCOD9200751
Probable space group: C 2/M
;
_chemical_formula_sum "Si O2"
_cell_formula_units_Z 48
_cell_length_a 18.139077
_cell_length_b 17.195494
_cell_length_c 15.543117
_cell_angle_alpha 90.000000
_cell_angle_beta 149.709481
_cell_angle_gamma 90.000000
_cell_volume 2445.287355
_symmetry_space_group_name_H-M "C 2/M"
_symmetry_group_IT_number 12
_symmetry_cell_setting 'monoclinic'
loop_
_space_group_symop_operation_xyz
x,y,z
-x,y,-z
-x,-y,-z
x,-y,z
1/2+x,1/2+y,z
1/2-x,1/2+y,-z
1/2-x,1/2-y,-z
1/2+x,1/2-y,z
loop_
_atom_site_type_symbol
_atom_site_label
_atom_site_fract_x
_atom_site_fract_y
_atom_site_fract_z
Si Si1 0.908766 0.912296 0.673637
Si Si2 0.437012 0.085568 0.674204
Si Si3 0.423387 0.375362 0.331717
Si Si4 0.439781 0.691600 0.032167
Si Si5 0.154153 0.713455 0.822318
Si Si6 0.418805 0.880085 0.004736
O O1 0.735445 0.899410 0.492532
O O2 0.988390 0.908295 0.661126
O O3 0.971048 0.847623 0.800870
O O4 0.933534 0.000000 0.732635
O O5 0.528930 0.154564 0.724127
O O6 0.458190 0.000000 0.654920
O O7 0.501519 0.083580 0.834542
O O8 0.500000 0.390632 0.500000
O O9 0.414041 0.283836 0.299935
O O10 0.253164 0.399597 0.165763
O O11 0.500000 0.667731 0.000000
O O12 0.272401 0.670065 0.882409
O O13 0.438826 0.785967 0.033247
O O14 0.250000 0.750000 0.000000
O O15 0.500000 0.903632 0.000000
#
# Coordination Sequence:
#
# PCOD9200751 Si02
#       6
#     8   8   8   8   8   8
#     4  11  24  40  58  89 128 167 206 252 311 367
#     4  11  23  38  60  86 121 164 202 247 311 367
#     4  11  22  38  64  94 121 159 205 261 305 366
#     4  10  21  39  64  90 119 159 209 258 301 363
#     4  11  20  42  62  91 119 157 207 250 301 364
#     4  10  20  37  59  89 122 156 207 252 305 365
#
# _framework density 19.629594999999998
#
# number of rings (size 3 to 8) (size 9 to 14) (size 15 to 20)
#    0.000    1.333    5.000    1.000    0.000   10.333 
#    0.000    0.000    0.000    2.500    0.000    0.000 
#    0.000    0.000    0.000    0.000    0.000    0.000 
#
# Total GULP energy -133974.866707 kJ/mol
# GULP energy per Si atom -5582.286113 kJ/mol
# Density = 1.958492 g / cm^3
# Si number density = 19.629595 Si / 1000 Ang^3
#
#
#
# Elastic Constant Matrix: (Units=GPa)
#
#
# Indices 1 2 3 4 5 6 
#
# 1 141.2249 37.6868 35.7249 -0.0001 20.9206 0.0000
# 2 37.6868 60.9794 49.5207 0.0000 18.2928 0.0000
# 3 35.7249 49.5207 88.2086 -0.0001 14.3996 0.0000
# 4 -0.0001 0.0000 -0.0001 -49.4857 -0.0001 5.9437
# 5 20.9206 18.2928 14.3996 -0.0001 39.5811 0.0000
# 6 0.0000 0.0000 0.0000 5.9437 0.0000 14.5343
#
#
#
# Elastic Compliance Matrix: (Units=1/GPa)
#
#
# Indices 1 2 3 4 5 6 
#
# 1 0.008722 -0.003874 -0.000954 0.000000 -0.002473 0.000000
# 2 -0.003874 0.034638 -0.016583 0.000000 -0.007928 0.000000
# 3 -0.000954 -0.016583 0.020943 0.000000 0.000549 0.000000
# 4 0.000000 0.000000 0.000000 -0.019262 0.000000 0.007877
# 5 -0.002473 -0.007928 0.000549 0.000000 0.030036 0.000000
# 6 0.000000 0.000000 0.000000 0.007877 0.000000 0.065582
#
#
# Mechanical properties :
#
#
# Convention : Reuss Voigt Hill
#
# Bulk Modulus (GPa) = 46.55086 59.58640 53.06863
# Shear Modulus (GPa) = 26.22718 12.09131 19.15924
#
# Velocity S-wave (km/s) = 3.65924 2.48457 3.12755
# Velocity P-wave (km/s) = 6.45132 6.21708 6.33528
#
# Compressibility (1/GPa) = 0.02148188
#
# Stress axis : x y z
#
# Youngs Moduli (GPa) = 114.64779 28.86976 47.74828
#
# Poissons Ratio (x) = 0.11185 0.04555
# Poissons Ratio (y) = 0.44417 0.79180
# Poissons Ratio (z) = 0.10937 0.47874
#
# Static dielectric constant tensor:
#      x y z
#    x 1.721760 0.000000 0.010700 
#    y 0.000000 1.725150 0.000000 
#    z 0.010700 0.000000 1.666370 
# 
# From -- ./inp_files/226948.got.cif
#   From: 2010.05.17/outbox.cif.g08.bks.cpg/sg12_114_cif.got.tgz:226948.got - 2010.06.03 13:09:07.
