data_PCOD9200772
_publ_section_title
;
Structure prediction by ZEFSAII (Michael W. Deem and Ramdas Pophale) SiO2 
 PCOD9200772
Probable space group: C 2/M
;
_chemical_formula_sum "Si O2"
_cell_formula_units_Z 56
_cell_length_a 16.073849
_cell_length_b 7.488993
_cell_length_c 17.292933
_cell_angle_alpha 90.000000
_cell_angle_beta 78.807892
_cell_angle_gamma 90.000000
_cell_volume 2042.080988
_symmetry_space_group_name_H-M "C 2/M"
_symmetry_group_IT_number 12
_symmetry_cell_setting 'monoclinic'
loop_
_space_group_symop_operation_xyz
x,y,z
-x,y,-z
-x,-y,-z
x,-y,z
1/2+x,1/2+y,z
1/2-x,1/2+y,-z
1/2-x,1/2-y,-z
1/2+x,1/2-y,z
loop_
_atom_site_type_symbol
_atom_site_label
_atom_site_fract_x
_atom_site_fract_y
_atom_site_fract_z
Si Si1 0.623199 0.711010 0.024380
Si Si2 0.734828 0.705702 0.874192
Si Si3 0.315728 0.707482 0.589917
Si Si4 0.484546 0.213826 0.163255
Si Si5 0.872331 0.716356 0.739536
Si Si6 0.140732 0.281119 0.692375
Si Si7 0.941186 0.703773 0.445633
O O1 0.639669 0.500000 0.018980
O O2 0.688917 0.791214 0.075034
O O3 0.528897 0.731525 0.075304
O O4 0.654232 0.783678 0.935263
O O5 0.717743 0.500000 0.859454
O O6 0.783662 0.788060 0.792271
O O7 0.304043 0.500000 0.573848
O O8 0.380792 0.724514 0.650144
O O9 0.230660 0.782815 0.644280
O O10 0.351263 0.799688 0.507421
O O11 0.553663 0.271278 0.215613
O O12 0.396005 0.274694 0.217607
O O13 0.482610 0.000000 0.162131
O O14 0.870646 0.500000 0.740889
O O15 0.142653 0.500000 0.691873
O O16 0.076167 0.224378 0.635948
O O17 0.971972 0.500000 0.429189
O O18 0.000000 0.792976 0.500000
#
# Coordination Sequence:
#
# PCOD9200772 Si02
#       7
#     8   8   8   8   8   8   8
#     4   9  15  24  42  71 101 124 156 206 255 290
#     4   8  15  27  43  65  96 132 165 199 242 292
#     4  11  22  34  50  75 105 130 155 198 250 289
#     4   9  17  32  52  71  95 130 169 204 239 286
#     4   9  17  31  51  72  95 130 172 204 235 286
#     4   9  19  35  53  73  99 131 164 196 236 290
#     4  10  20  37  60  78  94 125 166 199 232 286
#
# _framework density 27.423007999999999
#
# number of rings (size 3 to 8) (size 9 to 14) (size 15 to 20)
#    0.000    2.714    0.000    3.000    0.000    5.429 
#    0.000    2.857    0.000    0.857    0.000    6.000 
#    0.000    0.000    0.000    0.000    0.000    0.000 
#
# Total GULP energy -156596.815551 kJ/mol
# GULP energy per Si atom -5592.743413 kJ/mol
# Density = 2.736059 g / cm^3
# Si number density = 27.423008 Si / 1000 Ang^3
#
#
#
# Elastic Constant Matrix: (Units=GPa)
#
#
# Indices 1 2 3 4 5 6 
#
# 1 94.2972 9.2282 25.0715 0.0000 -21.6813 0.0000
# 2 9.2282 104.4901 4.5426 0.0000 -2.2842 0.0000
# 3 25.0715 4.5426 213.3688 0.0000 -24.9979 0.0000
# 4 0.0000 0.0000 0.0000 21.4297 0.0000 -4.9712
# 5 -21.6813 -2.2842 -24.9979 0.0000 61.6496 0.0000
# 6 0.0000 0.0000 0.0000 -4.9712 0.0000 17.9578
#
#
#
# Elastic Compliance Matrix: (Units=1/GPa)
#
#
# Indices 1 2 3 4 5 6 
#
# 1 0.011802 -0.000920 -0.000929 0.000000 0.003740 0.000000
# 2 -0.000920 0.009656 -0.000098 0.000000 -0.000006 0.000000
# 3 -0.000929 -0.000098 0.004997 0.000000 0.001696 0.000000
# 4 0.000000 0.000000 0.000000 0.049866 0.000000 0.013804
# 5 0.003740 -0.000006 0.001696 0.000000 0.018223 0.000000
# 6 0.000000 0.000000 0.000000 0.013804 0.000000 0.059508
#
#
# Mechanical properties :
#
#
# Convention : Reuss Voigt Hill
#
# Bulk Modulus (GPa) = 44.32729 54.42676 49.37702
# Shear Modulus (GPa) = 30.21776 45.09501 37.65638
#
# Velocity S-wave (km/s) = 3.32311 4.05955 3.70965
# Velocity P-wave (km/s) = 5.56088 6.47020 6.03270
#
# Compressibility (1/GPa) = 0.02255947
#
# Stress axis : x y z
#
# Youngs Moduli (GPa) = 84.73383 103.56590 200.13469
#
# Poissons Ratio (x) = 0.09530 0.18593
# Poissons Ratio (y) = 0.07797 0.01963
# Poissons Ratio (z) = 0.07872 0.01016
#
# Static dielectric constant tensor:
#      x y z
#    x 2.305680 0.000000 -0.037030 
#    y 0.000000 2.029350 0.000000 
#    z -0.037030 0.000000 2.100200 
# 
# From -- ./inp_files/275354.got.cif
#   From: 2010.05.17/outbox.cif.g08.bks.cpg/sg12_138_cif.got.tgz:275354.got - 2010.06.03 13:09:07.
