data_PCOD9200050
_publ_section_title
;
Structure prediction by ZEFSAII (Michael W. Deem and Ramdas Pophale) SiO2 
 PCOD9200050
Probable space group: C 2/M
;
_chemical_formula_sum "Si O2"
_cell_formula_units_Z 36
_cell_length_a 8.771625
_cell_length_b 15.146748
_cell_length_c 19.371835
_cell_angle_alpha 90.000000
_cell_angle_beta 141.916601
_cell_angle_gamma 90.000000
_cell_volume 1587.523285
_symmetry_space_group_name_H-M "C 2/M"
_symmetry_group_IT_number 12
_symmetry_cell_setting 'monoclinic'
loop_
_space_group_symop_operation_xyz
x,y,z
-x,y,-z
-x,-y,-z
x,-y,z
1/2+x,1/2+y,z
1/2-x,1/2+y,-z
1/2-x,1/2-y,-z
1/2+x,1/2-y,z
loop_
_atom_site_type_symbol
_atom_site_label
_atom_site_fract_x
_atom_site_fract_y
_atom_site_fract_z
Si Si1 0.901687 0.000000 0.569901
Si Si2 0.150585 0.187326 0.231784
Si Si3 0.520584 0.000000 0.224026
Si Si4 0.836712 0.500000 0.310117
Si Si5 0.719033 0.177294 0.878932
Si Si6 0.526134 0.316385 0.429445
O O1 0.621266 0.000000 0.438087
O O2 0.915201 0.101102 0.599285
O O3 0.194637 0.000000 0.649600
O O4 0.193048 0.089845 0.277278
O O5 0.281170 0.187179 0.203990
O O6 0.286716 0.260600 0.326133
O O7 0.880785 0.229823 0.127271
O O8 0.446047 0.908708 0.160083
O O9 0.356347 0.000000 0.234382
O O10 0.000000 0.159567 0.000000
O O11 0.500000 0.347576 0.500000
O O12 0.750000 0.250000 0.500000
#
# Coordination Sequence:
#
# PCOD9200050 Si02
#       6
#     4   8   4   4   8   8
#     4  12  21  37  63  92 124 161 199 244 298 365
#     4  11  23  41  62  90 124 159 204 250 300 360
#     4  10  20  36  63  92 117 153 209 254 294 356
#     4  10  21  37  59  88 128 164 190 238 308 371
#     4  11  23  42  65  89 118 159 209 260 302 344
#     4  12  23  38  62  92 125 161 198 240 301 369
#
# _framework density 22.676832000000001
#
# number of rings (size 3 to 8) (size 9 to 14) (size 15 to 20)
#    0.000    0.889    4.444    4.333    0.000    0.000 
#    0.000    7.222    0.000    0.000    0.000    0.000 
#    0.000    0.000    0.000    0.000    0.000    0.000 
#
# Total GULP energy -100267.442039 kJ/mol
# GULP energy per Si atom -5570.413447 kJ/mol
# Density = 2.262522 g / cm^3
# Si number density = 22.676832 Si / 1000 Ang^3
#
#
#
# Elastic Constant Matrix: (Units=GPa)
#
#
# Indices 1 2 3 4 5 6 
#
# 1 52.0827 24.3022 6.0085 0.0000 5.6684 0.0000
# 2 24.3022 214.5001 51.0928 -0.0002 28.0146 0.0000
# 3 6.0085 51.0928 78.9787 -0.0005 18.5700 -0.0001
# 4 0.0000 -0.0002 -0.0005 26.8549 -0.0001 11.2137
# 5 5.6684 28.0146 18.5700 -0.0001 26.7332 0.0000
# 6 0.0000 0.0000 -0.0001 11.2137 0.0000 24.8505
#
#
#
# Elastic Compliance Matrix: (Units=1/GPa)
#
#
# Indices 1 2 3 4 5 6 
#
# 1 0.020391 -0.002084 0.000358 0.000000 -0.002389 0.000000
# 2 -0.002084 0.006095 -0.002853 0.000000 -0.003964 0.000000
# 3 0.000358 -0.002853 0.016488 0.000000 -0.008540 0.000000
# 4 0.000000 0.000000 0.000000 0.045883 0.000000 -0.020704
# 5 -0.002389 -0.003964 -0.008540 0.000000 0.047999 0.000000
# 6 0.000000 0.000000 0.000000 -0.020704 0.000000 0.049583
#
#
# Mechanical properties :
#
#
# Convention : Reuss Voigt Hill
#
# Bulk Modulus (GPa) = 29.56960 56.48537 43.02748
# Shear Modulus (GPa) = 24.17004 33.29826 28.73415
#
# Velocity S-wave (km/s) = 3.26827 3.83610 3.56352
# Velocity P-wave (km/s) = 5.22590 6.67711 5.99558
#
# Compressibility (1/GPa) = 0.03381852
#
# Stress axis : x y z
#
# Youngs Moduli (GPa) = 49.04094 164.06192 60.65137
#
# Poissons Ratio (x) = 0.34184 -0.02174
# Poissons Ratio (y) = 0.10218 0.17301
# Poissons Ratio (z) = -0.01757 0.46800
#
# Static dielectric constant tensor:
#      x y z
#    x 1.878950 0.000000 -0.026700 
#    y 0.000000 1.897470 0.000000 
#    z -0.026700 0.000000 1.938470 
# 
# From -- ./inp_files/300259.got.cif
#   From: 2010.05.17/outbox.cif.g08.bks.cpg/sg12_151_cif.got.tgz:300259.got - 2010.06.03 13:09:07.
