data_PCOD9200942
_publ_section_title
;
Structure prediction by ZEFSAII (Michael W. Deem and Ramdas Pophale) SiO2 
 PCOD9200942
Probable space group: C 2/M
;
_chemical_formula_sum "Si O2"
_cell_formula_units_Z 52
_cell_length_a 17.925718
_cell_length_b 20.238538
_cell_length_c 8.882245
_cell_angle_alpha 90.000000
_cell_angle_beta 48.261383
_cell_angle_gamma 90.000000
_cell_volume 2404.515974
_symmetry_space_group_name_H-M "C 2/M"
_symmetry_group_IT_number 12
_symmetry_cell_setting 'monoclinic'
loop_
_space_group_symop_operation_xyz
x,y,z
-x,y,-z
-x,-y,-z
x,-y,z
1/2+x,1/2+y,z
1/2-x,1/2+y,-z
1/2-x,1/2-y,-z
1/2+x,1/2-y,z
loop_
_atom_site_type_symbol
_atom_site_label
_atom_site_fract_x
_atom_site_fract_y
_atom_site_fract_z
Si Si1 0.354485 0.608668 0.284307
Si Si2 0.160014 0.000000 0.254228
Si Si3 0.325553 0.722094 0.709116
Si Si4 0.485964 0.500000 0.261762
Si Si5 0.713527 0.897461 0.744700
Si Si6 0.000000 0.635979 0.000000
Si Si7 0.547420 0.741903 0.740797
Si Si8 0.161458 0.826568 0.991379
O O1 0.446536 0.563258 0.219428
O O2 0.262333 0.586698 0.515292
O O3 0.381259 0.684757 0.287291
O O4 0.335695 0.612705 0.130344
O O5 0.230867 0.938897 0.201001
O O6 0.079903 0.000000 0.497968
O O7 0.097748 0.000000 0.181960
O O8 0.243531 0.678596 0.731666
O O9 0.416586 0.741235 0.479633
O O10 0.357236 0.674604 0.804031
O O11 0.266276 0.787642 0.837028
O O12 0.595852 0.905761 0.917622
O O13 0.954434 0.685317 0.187754
O O14 0.435771 0.716451 0.920561
#
# Coordination Sequence:
#
# PCOD9200942 Si02
#       8
#     8   4   8   4   8   4   8   8
#     4  10  20  37  60  86 120 157 204 249 303 357
#     4   9  20  39  59  90 122 152 212 249 305 362
#     4  10  22  35  57  82 123 165 195 243 310 353
#     4   9  20  38  64  87 118 165 197 253 310 363
#     4  10  21  37  59  85 117 163 201 255 298 357
#     4  12  20  35  62  87 124 158 210 248 306 352
#     4  11  20  35  56  87 119 160 197 246 298 369
#     4  11  20  36  54  87 122 155 200 248 294 371
#
# _framework density 21.625975
#
# number of rings (size 3 to 8) (size 9 to 14) (size 15 to 20)
#    0.000    1.692    3.077    1.385    2.154    2.769 
#    0.000    2.308    0.000    0.000    0.000    0.000 
#    0.000    7.692    0.000    0.000    0.000    0.000 
#
# Total GULP energy -144841.152165 kJ/mol
# GULP energy per Si atom -5570.813545 kJ/mol
# Density = 2.157675 g / cm^3
# Si number density = 21.625975 Si / 1000 Ang^3
#
#
#
# Elastic Constant Matrix: (Units=GPa)
#
#
# Indices 1 2 3 4 5 6 
#
# 1 121.9004 37.8844 52.1595 0.0000 -1.1383 0.0000
# 2 37.8844 64.9467 27.9296 0.0000 2.0585 0.0000
# 3 52.1595 27.9296 104.6928 0.0000 16.9728 0.0000
# 4 0.0000 0.0000 0.0000 7.5597 0.0000 -24.0245
# 5 -1.1383 2.0585 16.9728 0.0000 39.1487 0.0000
# 6 0.0000 0.0000 0.0000 -24.0245 0.0000 -60.4711
#
#
#
# Elastic Compliance Matrix: (Units=1/GPa)
#
#
# Indices 1 2 3 4 5 6 
#
# 1 0.011919 -0.004848 -0.005101 0.000000 0.002813 0.000000
# 2 -0.004848 0.019415 -0.002771 0.000000 0.000039 0.000000
# 3 -0.005101 -0.002771 0.013803 0.000000 -0.005987 0.000000
# 4 0.000000 0.000000 0.000000 0.058465 0.000000 -0.023227
# 5 0.002813 0.000039 -0.005987 0.000000 0.028219 0.000000
# 6 0.000000 0.000000 0.000000 -0.023227 0.000000 -0.007309
#
#
# Mechanical properties :
#
#
# Convention : Reuss Voigt Hill
#
# Bulk Modulus (GPa) = 50.76634 58.60964 54.68799
# Shear Modulus (GPa) = 31.94544 8.81857 20.38200
#
# Velocity S-wave (km/s) = 3.84758 2.02154 3.07331
# Velocity P-wave (km/s) = 6.57755 5.71044 6.15927
#
# Compressibility (1/GPa) = 0.01969809
#
# Stress axis : x y z
#
# Youngs Moduli (GPa) = 83.89980 51.50547 72.44915
#
# Poissons Ratio (x) = 0.24970 0.36955
# Poissons Ratio (y) = 0.40675 0.20073
# Poissons Ratio (z) = 0.42796 0.14270
#
# Static dielectric constant tensor:
#      x y z
#    x 1.848060 0.000000 0.063970 
#    y 0.000000 1.856200 0.000000 
#    z 0.063970 0.000000 1.826270 
# 
# From -- ./inp_files/77980.got.cif
#   From: 2010.05.17/outbox.cif.g08.bks.cpg/sg12_39_cif.got.tgz:77980.got - 2010.06.03 13:09:07.
