data_PCOD9200811
_publ_section_title
;
Structure prediction by ZEFSAII (Michael W. Deem and Ramdas Pophale) SiO2 
 PCOD9200811
Probable space group: C 2/M
;
_chemical_formula_sum "Si O2"
_cell_formula_units_Z 56
_cell_length_a 19.154434
_cell_length_b 8.854308
_cell_length_c 18.598916
_cell_angle_alpha 90.000000
_cell_angle_beta 111.165593
_cell_angle_gamma 90.000000
_cell_volume 2941.571578
_symmetry_space_group_name_H-M "C 2/M"
_symmetry_group_IT_number 12
_symmetry_cell_setting 'monoclinic'
loop_
_space_group_symop_operation_xyz
x,y,z
-x,y,-z
-x,-y,-z
x,-y,z
1/2+x,1/2+y,z
1/2-x,1/2+y,-z
1/2-x,1/2-y,-z
1/2+x,1/2-y,z
loop_
_atom_site_type_symbol
_atom_site_label
_atom_site_fract_x
_atom_site_fract_y
_atom_site_fract_z
Si Si1 0.468671 0.183619 0.132661
Si Si2 0.728670 0.181875 0.706482
Si Si3 0.362620 0.182456 0.840939
Si Si4 0.464784 0.327831 0.566213
Si Si5 0.310810 0.820249 0.470623
Si Si6 0.575579 0.817653 0.722538
Si Si7 0.677114 0.182850 0.011743
O O1 0.551402 0.233168 0.138909
O O2 0.449766 0.228165 0.207292
O O3 0.399598 0.230619 0.056722
O O4 0.469749 0.000000 0.130913
O O5 0.806147 0.253781 0.760546
O O6 0.703455 0.229498 0.617085
O O7 0.661181 0.223474 0.735602
O O8 0.735818 0.000000 0.709746
O O9 0.362317 0.000000 0.837494
O O10 0.331607 0.226804 0.907993
O O11 0.500000 0.330017 0.500000
O O12 0.447122 0.500000 0.580829
O O13 0.390302 0.231480 0.530108
O O14 0.521969 0.255710 0.643572
O O15 0.250000 0.750000 0.500000
O O16 0.306103 0.000000 0.469527
O O17 0.570154 0.000000 0.715160
O O18 0.681648 0.000000 0.009788
O O19 0.750000 0.250000 0.000000
#
# Coordination Sequence:
#
# PCOD9200811 Si02
#       7
#     8   8   8   8   8   8   8
#     4   9  19  36  59  86 114 149 190 234 284 342
#     4  10  22  39  58  83 117 154 191 239 293 346
#     4  10  21  36  58  87 116 150 192 238 287 340
#     4  11  23  39  60  87 118 154 196 247 300 347
#     4  11  24  41  61  85 118 157 200 246 298 354
#     4  10  20  37  60  83 111 153 199 239 288 350
#     4  10  20  37  61  86 117 151 190 235 282 341
#
# _framework density 19.037443
#
# number of rings (size 3 to 8) (size 9 to 14) (size 15 to 20)
#    0.000    1.857    1.429    2.143    2.000    5.714 
#    0.000    1.429    0.000    1.714    0.000    0.000 
#    0.000    0.000    0.000    0.000    0.000    0.000 
#
# Total GULP energy -156376.801530 kJ/mol
# GULP energy per Si atom -5584.885769 kJ/mol
# Density = 1.899411 g / cm^3
# Si number density = 19.037443 Si / 1000 Ang^3
#
#
#
# Elastic Constant Matrix: (Units=GPa)
#
#
# Indices 1 2 3 4 5 6 
#
# 1 135.4543 22.5589 29.8224 0.0000 11.0678 0.0000
# 2 22.5589 19.9140 13.9713 0.0000 1.3766 0.0000
# 3 29.8224 13.9713 66.5738 0.0000 18.6716 0.0000
# 4 0.0000 0.0000 0.0000 8.0710 0.0000 -3.9598
# 5 11.0678 1.3766 18.6716 0.0000 38.5095 0.0000
# 6 0.0000 0.0000 0.0000 -3.9598 0.0000 28.2887
#
#
#
# Elastic Compliance Matrix: (Units=1/GPa)
#
#
# Indices 1 2 3 4 5 6 
#
# 1 0.009466 -0.009307 -0.001872 0.000000 -0.001480 0.000000
# 2 -0.009307 0.068719 -0.011937 0.000000 0.006006 0.000000
# 3 -0.001872 -0.011937 0.020942 0.000000 -0.009189 0.000000
# 4 0.000000 0.000000 0.000000 0.133037 0.000000 0.018622
# 5 -0.001480 0.006006 -0.009189 0.000000 0.030634 0.000000
# 6 0.000000 0.000000 0.000000 0.018622 0.000000 0.037956
#
#
# Mechanical properties :
#
#
# Convention : Reuss Voigt Hill
#
# Bulk Modulus (GPa) = 18.90558 39.40528 29.15543
# Shear Modulus (GPa) = 13.71303 25.34646 19.52975
#
# Velocity S-wave (km/s) = 2.68679 3.65279 3.20638
# Velocity P-wave (km/s) = 4.42464 6.20760 5.39035
#
# Compressibility (1/GPa) = 0.05289444
#
# Stress axis : x y z
#
# Youngs Moduli (GPa) = 105.64469 14.55208 47.75167
#
# Poissons Ratio (x) = 0.13544 0.08938
# Poissons Ratio (y) = 0.98327 0.57000
# Poissons Ratio (z) = 0.19775 0.17370
#
# Static dielectric constant tensor:
#      x y z
#    x 2.022090 0.000000 0.257830 
#    y 0.000000 1.646620 0.000000 
#    z 0.257830 0.000000 1.829940 
# 
# From -- ./inp_files/275486.got.cif
#   From: 2010.05.17/outbox.cif.g08.bks.cpg/sg12_138_cif.got.tgz:275486.got - 2010.06.03 13:09:07.
