data_PCOD9200219
_publ_section_title
;
Structure prediction by ZEFSAII (Michael W. Deem and Ramdas Pophale) SiO2 
 PCOD9200219
Probable space group: C 2/M
;
_chemical_formula_sum "Si O2"
_cell_formula_units_Z 64
_cell_length_a 34.544039
_cell_length_b 8.506140
_cell_length_c 17.351608
_cell_angle_alpha 90.000000
_cell_angle_beta 51.422268
_cell_angle_gamma 90.000000
_cell_volume 3985.845100
_symmetry_space_group_name_H-M "C 2/M"
_symmetry_group_IT_number 12
_symmetry_cell_setting 'monoclinic'
loop_
_space_group_symop_operation_xyz
x,y,z
-x,y,-z
-x,-y,-z
x,-y,z
1/2+x,1/2+y,z
1/2-x,1/2+y,-z
1/2-x,1/2-y,-z
1/2+x,1/2-y,z
loop_
_atom_site_type_symbol
_atom_site_label
_atom_site_fract_x
_atom_site_fract_y
_atom_site_fract_z
Si Si1 0.087054 0.309258 0.176944
Si Si2 0.075853 0.189648 0.948727
Si Si3 0.527484 0.689360 0.847972
Si Si4 0.865309 0.310101 0.720178
Si Si5 0.756228 0.311557 0.904067
Si Si6 0.157873 0.311511 0.951444
Si Si7 0.025567 0.311673 0.687244
Si Si8 0.452032 0.687790 0.508533
O O1 0.086351 0.500000 0.174739
O O2 0.109114 0.263988 0.231232
O O3 0.031288 0.253264 0.239441
O O4 0.122422 0.255092 0.065144
O O5 0.060981 0.233097 0.879990
O O6 0.127543 0.258182 0.914083
O O7 0.077779 0.000000 0.950573
O O8 0.028833 0.241900 0.060108
O O9 0.526372 0.500000 0.845294
O O10 0.546319 0.755520 0.743561
O O11 0.866260 0.500000 0.712287
O O12 0.808269 0.260542 0.801035
O O13 0.900724 0.240847 0.611096
O O14 0.757005 0.500000 0.908494
O O15 0.711255 0.256977 0.905829
O O16 0.750000 0.250000 0.000000
O O17 0.161123 0.500000 0.948799
O O18 0.026470 0.500000 0.683831
O O19 0.046250 0.249428 0.581004
O O20 0.500000 0.745200 0.500000
O O21 0.454760 0.500000 0.504255
#
# Coordination Sequence:
#
# PCOD9200219 Si02
#       8
#     8   8   8   8   8   8   8   8
#     4   9  17  29  46  70 100 133 169 207 245 289
#     4   9  18  32  49  72 103 138 169 206 258 305
#     4   9  18  32  49  72 104 135 168 211 256 302
#     4  10  20  37  53  68  98 136 174 212 250 297
#     4  11  22  35  52  75 102 135 174 213 256 303
#     4  11  20  33  50  74 104 137 176 212 250 301
#     4  11  20  32  51  73 100 137 174 208 253 302
#     4  11  23  35  49  74 102 131 171 213 254 300
#
# _framework density 16.056820999999999
#
# number of rings (size 3 to 8) (size 9 to 14) (size 15 to 20)
#    0.000    1.875    3.750    2.250    0.000    2.000 
#    0.000    1.250    0.000    0.000    0.000    0.875 
#    0.000    0.000    0.000    0.000    0.000    0.000 
#
# Total GULP energy -178435.981833 kJ/mol
# GULP energy per Si atom -5576.124432 kJ/mol
# Density = 1.602027 g / cm^3
# Si number density = 16.056821 Si / 1000 Ang^3
#
#
#
# Elastic Constant Matrix: (Units=GPa)
#
#
# Indices 1 2 3 4 5 6 
#
# 1 110.0590 26.9630 68.2261 0.0000 7.6300 0.0000
# 2 26.9630 34.0672 30.1714 0.0000 1.8345 0.0001
# 3 68.2261 30.1714 124.1759 0.0000 5.1137 0.0000
# 4 0.0000 0.0000 0.0000 22.4201 0.0000 1.9379
# 5 7.6300 1.8345 5.1137 0.0000 24.0518 0.0000
# 6 0.0000 0.0001 0.0000 1.9379 0.0000 22.0459
#
#
#
# Elastic Compliance Matrix: (Units=1/GPa)
#
#
# Indices 1 2 3 4 5 6 
#
# 1 0.014781 -0.005679 -0.006624 0.000000 -0.002847 0.000000
# 2 -0.005679 0.039605 -0.006510 0.000000 0.000165 0.000000
# 3 -0.006624 -0.006510 0.013284 0.000000 -0.000226 0.000000
# 4 0.000000 0.000000 0.000000 0.044944 0.000000 -0.003951
# 5 -0.002847 0.000165 -0.000226 0.000000 0.042516 0.000000
# 6 0.000000 0.000000 0.000000 -0.003951 0.000000 0.045707
#
#
# Mechanical properties :
#
#
# Convention : Reuss Voigt Hill
#
# Bulk Modulus (GPa) = 33.28413 57.66921 45.47667
# Shear Modulus (GPa) = 20.12268 23.23300 21.67784
#
# Velocity S-wave (km/s) = 3.54392 3.80797 3.67832
# Velocity P-wave (km/s) = 6.12534 7.43827 6.81350
#
# Compressibility (1/GPa) = 0.03004435
#
# Stress axis : x y z
#
# Youngs Moduli (GPa) = 67.65465 25.24963 75.28115
#
# Poissons Ratio (x) = 0.14339 0.49867
# Poissons Ratio (y) = 0.38419 0.49005
# Poissons Ratio (z) = 0.44815 0.16436
#
# Static dielectric constant tensor:
#      x y z
#    x 1.549590 0.000000 0.003970 
#    y 0.000000 1.549960 0.000000 
#    z 0.003970 0.000000 1.537540 
# 
# From -- ./inp_files/249019.got.cif
#   From: 2010.05.17/outbox.cif.g08.bks.cpg/sg12_125_cif.got.tgz:249019.got - 2010.06.03 13:09:07.
