data_PCOD9200157
_publ_section_title
;
Structure prediction by ZEFSAII (Michael W. Deem and Ramdas Pophale) SiO2 
 PCOD9200157
Probable space group: C 2/M
;
_chemical_formula_sum "Si O2"
_cell_formula_units_Z 60
_cell_length_a 19.481551
_cell_length_b 13.249280
_cell_length_c 13.918178
_cell_angle_alpha 90.000000
_cell_angle_beta 137.883344
_cell_angle_gamma 90.000000
_cell_volume 2409.290271
_symmetry_space_group_name_H-M "C 2/M"
_symmetry_group_IT_number 12
_symmetry_cell_setting 'monoclinic'
loop_
_space_group_symop_operation_xyz
x,y,z
-x,y,-z
-x,-y,-z
x,-y,z
1/2+x,1/2+y,z
1/2-x,1/2+y,-z
1/2-x,1/2-y,-z
1/2+x,1/2-y,z
loop_
_atom_site_type_symbol
_atom_site_label
_atom_site_fract_x
_atom_site_fract_y
_atom_site_fract_z
Si Si1 0.749387 0.631546 0.989246
Si Si2 0.432090 0.000000 0.263806
Si Si3 0.345420 0.347866 0.296883
Si Si4 0.939972 0.111324 0.586871
Si Si5 0.552187 0.189268 0.147387
Si Si6 0.582774 0.393700 0.973355
Si Si7 0.407787 0.158379 0.602708
Si Si8 0.760214 0.819257 0.714268
O O1 0.848651 0.584676 0.138618
O O2 0.648192 0.603365 0.943858
O O3 0.750000 0.750000 0.000000
O O4 0.739309 0.612957 0.864968
O O5 0.513847 0.090643 0.376108
O O6 0.450642 0.369182 0.350274
O O7 0.359655 0.394388 0.416010
O O8 0.322653 0.231318 0.300009
O O9 0.917796 0.218850 0.614183
O O10 0.939413 0.000000 0.633821
O O11 0.564819 0.128384 0.259159
O O12 0.664649 0.229058 0.238927
O O13 0.500000 0.138950 0.000000
O O14 0.483557 0.291766 0.091476
O O15 0.525245 0.500000 0.922407
O O16 0.666879 0.387881 0.145605
O O17 0.297672 0.139016 0.439101
#
# Coordination Sequence:
#
# PCOD9200157 Si02
#       8
#     8   4   8   8   8   8   8   8
#     4  12  23  41  68 100 142 183 222 275 347 420
#     4  12  28  42  70 105 138 190 214 283 350 408
#     4  10  20  36  64  99 135 170 226 278 342 403
#     4  10  22  39  68 103 135 177 222 289 348 404
#     4  10  23  44  71  95 128 177 230 293 335 397
#     4  11  23  40  65 102 131 172 234 282 340 401
#     4  11  25  47  68  99 140 179 231 276 353 414
#     4  10  23  42  70  92 135 186 223 286 335 408
#
# _framework density 24.903599
#
# number of rings (size 3 to 8) (size 9 to 14) (size 15 to 20)
#    0.000    1.333    2.000    3.600    4.667    4.000 
#    0.000    1.000   13.200    0.000    0.000    0.000 
#    0.000    0.000    0.000    0.000    0.000    0.000 
#
# Total GULP energy -167006.836014 kJ/mol
# GULP energy per Si atom -5566.894534 kJ/mol
# Density = 2.484692 g / cm^3
# Si number density = 24.903599 Si / 1000 Ang^3
#
#
#
# Elastic Constant Matrix: (Units=GPa)
#
#
# Indices 1 2 3 4 5 6 
#
# 1 49.1377 7.2877 30.7514 0.0000 -8.7399 0.0000
# 2 7.2877 123.3053 19.3422 0.0000 1.4567 0.0000
# 3 30.7514 19.3422 173.8547 0.0000 -10.2074 0.0000
# 4 0.0000 0.0000 0.0000 -1.5130 0.0000 -11.1346
# 5 -8.7399 1.4567 -10.2074 0.0000 38.6246 0.0000
# 6 0.0000 0.0000 0.0000 -11.1346 0.0000 -24.6076
#
#
#
# Elastic Compliance Matrix: (Units=1/GPa)
#
#
# Indices 1 2 3 4 5 6 
#
# 1 0.023653 -0.000848 -0.003833 0.000000 0.004371 0.000000
# 2 -0.000848 0.008296 -0.000815 0.000000 -0.000720 0.000000
# 3 -0.003833 -0.000815 0.006573 0.000000 0.000901 0.000000
# 4 0.000000 0.000000 0.000000 0.283666 0.000000 -0.128355
# 5 0.004371 -0.000720 0.000901 0.000000 0.027145 0.000000
# 6 0.000000 0.000000 0.000000 -0.128355 0.000000 0.017441
#
#
# Mechanical properties :
#
#
# Convention : Reuss Voigt Hill
#
# Bulk Modulus (GPa) = 36.32386 51.22895 43.77640
# Shear Modulus (GPa) = 12.92177 21.76191 17.34184
#
# Velocity S-wave (km/s) = 2.28035 2.95930 2.64172
# Velocity P-wave (km/s) = 4.64228 5.68262 5.18859
#
# Compressibility (1/GPa) = 0.02753011
#
# Stress axis : x y z
#
# Youngs Moduli (GPa) = 42.27823 120.53294 152.12750
#
# Poissons Ratio (x) = 0.10226 0.58306
# Poissons Ratio (y) = 0.03587 0.12402
# Poissons Ratio (z) = 0.16204 0.09827
#
# Static dielectric constant tensor:
#      x y z
#    x 2.045980 0.000000 -0.046490 
#    y 0.000000 1.997540 0.000000 
#    z -0.046490 0.000000 1.992930 
# 
# From -- ./inp_files/233911.got.cif
#   From: 2010.05.17/outbox.cif.g08.bks.cpg/sg12_117_cif.got.tgz:233911.got - 2010.06.03 13:09:07.
