data_PCOD9200533
_publ_section_title
;
Structure prediction by ZEFSAII (Michael W. Deem and Ramdas Pophale) SiO2 
 PCOD9200533
Probable space group: C 2/M
;
_chemical_formula_sum "Si O2"
_cell_formula_units_Z 58
_cell_length_a 27.147406
_cell_length_b 9.313115
_cell_length_c 24.436784
_cell_angle_alpha 90.000000
_cell_angle_beta 152.301253
_cell_angle_gamma 90.000000
_cell_volume 2871.803146
_symmetry_space_group_name_H-M "C 2/M"
_symmetry_group_IT_number 12
_symmetry_cell_setting 'monoclinic'
loop_
_space_group_symop_operation_xyz
x,y,z
-x,y,-z
-x,-y,-z
x,-y,z
1/2+x,1/2+y,z
1/2-x,1/2+y,-z
1/2-x,1/2-y,-z
1/2+x,1/2-y,z
loop_
_atom_site_type_symbol
_atom_site_label
_atom_site_fract_x
_atom_site_fract_y
_atom_site_fract_z
Si Si1 0.101919 0.670786 0.138868
Si Si2 0.595701 0.839696 0.463293
Si Si3 0.065939 0.666314 0.302825
Si Si4 0.841016 0.832296 0.701168
Si Si5 0.500000 0.000000 0.500000
Si Si6 0.357061 0.335598 0.114784
Si Si7 0.712094 0.841341 0.736767
Si Si8 0.602600 0.661125 0.715676
O O1 0.114554 0.500000 0.159063
O O2 0.091194 0.749884 0.186666
O O3 0.206308 0.739474 0.214024
O O4 0.000000 0.694725 0.000000
O O5 0.590944 0.832753 0.392262
O O6 0.717993 0.825910 0.598200
O O7 0.516036 0.722128 0.407273
O O8 0.556021 0.000000 0.441882
O O9 0.061111 0.500000 0.281356
O O10 0.147177 0.752920 0.345117
O O11 0.954551 0.747229 0.185744
O O12 0.869004 0.000000 0.723941
O O13 0.403525 0.123363 0.402877
O O14 0.352758 0.500000 0.090537
O O15 0.376431 0.340425 0.198996
O O16 0.250000 0.250000 0.000000
O O17 0.682979 0.767950 0.765440
O O18 0.762121 0.000000 0.791859
O O19 0.612947 0.500000 0.704165
#
# Coordination Sequence:
#
# PCOD9200533 Si02
#       8
#     8   8   8   8   2   8   8   8
#     4  11  26  46  64  87 120 161 212 261 303 359
#     4   9  20  36  58  87 124 158 193 238 294 361
#     4  10  20  37  58  86 119 155 195 237 289 353
#     4  11  23  38  61  87 118 157 198 244 301 355
#     4   8  24  40  64  96 124 152 194 258 304 376
#     4  10  21  37  57  83 117 152 195 241 291 349
#     4  10  22  41  65  88 124 155 197 249 308 360
#     4  10  21  36  58  89 119 154 194 244 300 360
#
# _framework density 20.196370999999999
#
# number of rings (size 3 to 8) (size 9 to 14) (size 15 to 20)
#    0.414    1.517    0.000    2.897    1.931    5.517 
#    0.000    2.069    0.000    0.000    0.000    0.000 
#    0.000    0.000    0.000    0.000    0.000    0.000 
#
# Total GULP energy -161685.072588 kJ/mol
# GULP energy per Si atom -5575.347331 kJ/mol
# Density = 2.015040 g / cm^3
# Si number density = 20.196371 Si / 1000 Ang^3
#
#
#
# Elastic Constant Matrix: (Units=GPa)
#
#
# Indices 1 2 3 4 5 6 
#
# 1 36.3718 25.0353 -5.1938 0.0000 5.7208 0.0000
# 2 25.0353 148.9862 47.9503 0.0000 -2.1266 0.0000
# 3 -5.1938 47.9503 73.0824 0.0000 11.0444 0.0000
# 4 0.0000 0.0000 0.0000 24.7053 0.0000 6.0383
# 5 5.7208 -2.1266 11.0444 0.0000 22.6594 0.0000
# 6 0.0000 0.0000 0.0000 6.0383 0.0000 39.4264
#
#
#
# Elastic Compliance Matrix: (Units=1/GPa)
#
#
# Indices 1 2 3 4 5 6 
#
# 1 0.039501 -0.010925 0.012563 0.000000 -0.017121 0.000000
# 2 -0.010925 0.011845 -0.009859 0.000000 0.008675 0.000000
# 3 0.012563 -0.009859 0.023386 0.000000 -0.015496 0.000000
# 4 0.000000 0.000000 0.000000 0.042051 0.000000 -0.006440
# 5 -0.017121 0.008675 -0.015496 0.000000 0.056821 0.000000
# 6 0.000000 0.000000 0.000000 -0.006440 0.000000 0.026350
#
#
# Mechanical properties :
#
#
# Convention : Reuss Voigt Hill
#
# Bulk Modulus (GPa) = 17.15584 43.78045 30.46815
# Shear Modulus (GPa) = 21.20196 30.06812 25.63504
#
# Velocity S-wave (km/s) = 3.24356 3.86267 3.56657
# Velocity P-wave (km/s) = 4.74769 6.45121 5.66386
#
# Compressibility (1/GPa) = 0.05828918
#
# Stress axis : x y z
#
# Youngs Moduli (GPa) = 25.31592 84.42537 42.75994
#
# Poissons Ratio (x) = 0.92237 -0.53719
# Poissons Ratio (y) = 0.27658 0.42157
# Poissons Ratio (z) = -0.31804 0.83235
#
# Static dielectric constant tensor:
#      x y z
#    x 1.789890 0.000000 -0.010570 
#    y 0.000000 1.668640 0.000000 
#    z -0.010570 0.000000 1.717970 
# 
# From -- ./inp_files/351473.got.cif
#   From: 2010.05.17/outbox.cif.g08.bks.cpg/sg12_176_cif.got.tgz:351473.got - 2010.06.03 13:09:07.
