data_PCOD9200739
_publ_section_title
;
Structure prediction by ZEFSAII (Michael W. Deem and Ramdas Pophale) SiO2 
 PCOD9200739
Probable space group: C 2/M
;
_chemical_formula_sum "Si O2"
_cell_formula_units_Z 64
_cell_length_a 22.403157
_cell_length_b 18.264382
_cell_length_c 19.595756
_cell_angle_alpha 90.000000
_cell_angle_beta 156.054334
_cell_angle_gamma 90.000000
_cell_volume 3254.343019
_symmetry_space_group_name_H-M "C 2/M"
_symmetry_group_IT_number 12
_symmetry_cell_setting 'monoclinic'
loop_
_space_group_symop_operation_xyz
x,y,z
-x,y,-z
-x,-y,-z
x,-y,z
1/2+x,1/2+y,z
1/2-x,1/2+y,-z
1/2-x,1/2-y,-z
1/2+x,1/2-y,z
loop_
_atom_site_type_symbol
_atom_site_label
_atom_site_fract_x
_atom_site_fract_y
_atom_site_fract_z
Si Si1 0.795396 0.914560 0.473992
Si Si2 0.585987 0.580302 0.246295
Si Si3 0.829479 0.227729 0.838894
Si Si4 0.321400 0.916956 0.369665
Si Si5 0.393230 0.801876 0.660062
Si Si6 0.079993 0.817477 0.512351
Si Si7 0.361917 0.706375 0.017244
Si Si8 0.959824 0.668477 0.321923
O O1 0.864407 0.910021 0.622858
O O2 0.653105 0.862194 0.332932
O O3 0.897090 0.879193 0.521334
O O4 0.765458 0.000000 0.429360
O O5 0.517683 0.500000 0.169673
O O6 0.716537 0.582913 0.327612
O O7 0.470583 0.642097 0.107889
O O8 0.748333 0.148861 0.747569
O O9 0.739216 0.283435 0.697871
O O10 0.822409 0.253012 0.909437
O O11 0.000000 0.222011 0.000000
O O12 0.482894 0.891208 0.563834
O O13 0.319715 0.000000 0.340902
O O14 0.250000 0.750000 0.500000
O O15 0.435887 0.839773 0.634338
O O16 0.536553 0.754173 0.827668
O O17 0.000000 0.838606 0.500000
O O18 0.996427 0.747912 0.392340
O O19 0.208415 0.670182 0.878299
#
# Coordination Sequence:
#
# PCOD9200739 Si02
#       8
#     8   8   8   8   8   8   8   8
#     4  11  23  40  67  93 118 159 208 254 313 370
#     4  10  20  37  59  88 122 158 206 254 301 366
#     4  11  22  36  59  89 123 163 218 259 301 365
#     4  10  21  37  59  86 127 172 205 248 306 374
#     4  12  21  39  66  91 118 155 209 258 308 365
#     4  11  22  41  62  89 126 161 208 260 307 368
#     4  12  22  36  58  94 126 158 204 261 311 365
#     4  11  22  37  61  93 124 162 208 254 317 368
#
# _framework density 19.666028000000001
#
# number of rings (size 3 to 8) (size 9 to 14) (size 15 to 20)
#    0.000    1.000    6.250    1.125    0.000    1.500 
#    0.000    0.625    0.000    4.125    0.000    0.000 
#    0.000    0.000    0.000    0.000    0.000    0.000 
#
# Total GULP energy -178523.018235 kJ/mol
# GULP energy per Si atom -5578.844320 kJ/mol
# Density = 1.962127 g / cm^3
# Si number density = 19.666028 Si / 1000 Ang^3
#
#
#
# Elastic Constant Matrix: (Units=GPa)
#
#
# Indices 1 2 3 4 5 6 
#
# 1 72.6471 -6.8110 -2.2429 0.0011 9.0682 0.0004
# 2 -6.8110 61.2346 12.4755 0.0044 1.9142 0.0023
# 3 -2.2429 12.4755 100.1529 0.0053 11.3500 0.0033
# 4 0.0011 0.0044 0.0053 6.7654 0.0021 -10.5176
# 5 9.0682 1.9142 11.3500 0.0021 32.8875 0.0010
# 6 0.0004 0.0023 0.0033 -10.5176 0.0010 15.7196
#
#
#
# Elastic Compliance Matrix: (Units=1/GPa)
#
#
# Indices 1 2 3 4 5 6 
#
# 1 0.014472 0.001620 0.000609 0.000084 -0.004295 0.000056
# 2 0.001620 0.016939 -0.001989 0.000317 -0.000746 0.000210
# 3 0.000609 -0.001989 0.010669 0.000220 -0.003734 0.000145
# 4 0.000084 0.000317 0.000220 -3.680795 0.000186 -2.462725
# 5 -0.004295 -0.000746 -0.003734 0.000186 0.032923 0.000123
# 6 0.000056 0.000210 0.000145 -2.462725 0.000123 -1.584131
#
#
# Mechanical properties :
#
#
# Convention : Reuss Voigt Hill
#
# Bulk Modulus (GPa) = 23.49624 26.76419 25.13022
# Shear Modulus (GPa) = -0.96596 26.44870 12.74137
#
# Velocity S-wave (km/s) = -0.70160 3.67126 2.54812
# Velocity P-wave (km/s) = 3.36411 5.62225 4.63287
#
# Compressibility (1/GPa) = 0.04256000
#
# Stress axis : x y z
#
# Youngs Moduli (GPa) = 69.09913 59.03406 93.72645
#
# Poissons Ratio (x) = -0.09563 -0.05708
# Poissons Ratio (y) = -0.11193 0.18644
# Poissons Ratio (z) = -0.04208 0.11743
#
# Static dielectric constant tensor:
#      x y z
#    x 1.764000 0.000000 0.012440 
#    y 0.000000 1.682670 0.000000 
#    z 0.012440 0.000000 1.711400 
# 
# From -- ./inp_files/326141.got.cif
#   From: 2010.05.17/outbox.cif.g08.bks.cpg/sg12_164_cif.got.tgz:326141.got - 2010.06.03 13:09:07.
