data_PCOD9200159
_publ_section_title
;
Structure prediction by ZEFSAII (Michael W. Deem and Ramdas Pophale) SiO2 
 PCOD9200159
Probable space group: C 2/M
;
_chemical_formula_sum "Si O2"
_cell_formula_units_Z 58
_cell_length_a 19.898007
_cell_length_b 21.343159
_cell_length_c 13.035941
_cell_angle_alpha 90.000000
_cell_angle_beta 32.221059
_cell_angle_gamma 90.000000
_cell_volume 2951.823779
_symmetry_space_group_name_H-M "C 2/M"
_symmetry_group_IT_number 12
_symmetry_cell_setting 'monoclinic'
loop_
_space_group_symop_operation_xyz
x,y,z
-x,y,-z
-x,-y,-z
x,-y,z
1/2+x,1/2+y,z
1/2-x,1/2+y,-z
1/2-x,1/2-y,-z
1/2+x,1/2-y,z
loop_
_atom_site_type_symbol
_atom_site_label
_atom_site_fract_x
_atom_site_fract_y
_atom_site_fract_z
Si Si1 0.060091 0.783362 0.310412
Si Si2 0.500000 0.000000 0.000000
Si Si3 0.346809 0.325133 0.445770
Si Si4 0.415391 0.776539 0.191041
Si Si5 0.848486 0.425552 0.678444
Si Si6 0.183361 0.655337 0.090053
Si Si7 0.035803 0.402431 0.108244
Si Si8 0.231521 0.429503 0.451239
O O1 0.084782 0.712368 0.237394
O O2 0.000000 0.777826 0.500000
O O3 0.963119 0.826490 0.372001
O O4 0.196306 0.815268 0.121972
O O5 0.579035 0.945240 0.959722
O O6 0.381910 0.267217 0.327832
O O7 0.217581 0.306430 0.671170
O O8 0.315805 0.382309 0.409202
O O9 0.504481 0.832909 0.111626
O O10 0.500000 0.740308 0.000000
O O11 0.821794 0.500000 0.729017
O O12 0.787139 0.378783 0.840365
O O13 0.803181 0.409912 0.620838
O O14 0.000000 0.418136 0.500000
O O15 0.123478 0.603546 0.093033
O O16 0.902405 0.431185 0.316718
O O17 0.283666 0.500000 0.381183
#
# Coordination Sequence:
#
# PCOD9200159 Si02
#       8
#     8   2   8   8   8   8   8   8
#     4  11  26  42  63  93 130 180 218 266 327 392
#     4  12  24  32  60  94 142 164 210 264 328 378
#     4  10  23  40  60  92 127 164 213 267 315 391
#     4  10  21  36  62  89 123 160 208 262 318 375
#     4  10  20  36  65 100 126 160 206 279 333 384
#     4  11  24  41  66  93 133 168 220 268 330 390
#     4  11  21  37  57  99 123 168 206 264 318 384
#     4  10  21  39  65  95 130 159 211 270 335 383
#
# _framework density 19.648869000000001
#
# number of rings (size 3 to 8) (size 9 to 14) (size 15 to 20)
#    0.000    1.517    4.138    0.414    2.897    1.103 
#    0.000    0.690    0.000    2.897    0.000    0.000 
#    0.000    0.000    0.000    0.000    0.000    0.000 
#
# Total GULP energy -161461.730649 kJ/mol
# GULP energy per Si atom -5567.645884 kJ/mol
# Density = 1.960415 g / cm^3
# Si number density = 19.648869 Si / 1000 Ang^3
#
#
#
# Elastic Constant Matrix: (Units=GPa)
#
#
# Indices 1 2 3 4 5 6 
#
# 1 108.9490 38.2673 29.0467 0.0002 0.3502 -0.0001
# 2 38.2673 78.4729 21.6872 0.0001 0.1318 0.0000
# 3 29.0467 21.6872 92.4373 0.0006 10.0938 -0.0002
# 4 0.0002 0.0001 0.0006 4.4056 -0.0004 8.1470
# 5 0.3502 0.1318 10.0938 -0.0004 15.0006 0.0001
# 6 -0.0001 0.0000 -0.0002 8.1470 0.0001 30.0212
#
#
#
# Elastic Compliance Matrix: (Units=1/GPa)
#
#
# Indices 1 2 3 4 5 6 
#
# 1 0.011616 -0.004931 -0.002664 0.000000 0.001565 0.000000
# 2 -0.004931 0.015787 -0.002323 0.000001 0.001539 0.000000
# 3 -0.002664 -0.002323 0.013158 -0.000005 -0.008771 0.000001
# 4 0.000000 0.000001 -0.000005 0.455639 0.000016 -0.123650
# 5 0.001565 0.001539 -0.008771 0.000016 0.072516 -0.000005
# 6 0.000000 0.000000 0.000001 -0.123650 -0.000005 0.066865
#
#
# Mechanical properties :
#
#
# Convention : Reuss Voigt Hill
#
# Bulk Modulus (GPa) = 48.24868 50.87351 49.56109
# Shear Modulus (GPa) = 7.54917 22.60937 15.07927
#
# Velocity S-wave (km/s) = 1.96224 3.39583 2.77327
# Velocity P-wave (km/s) = 5.45368 6.42830 5.96094
#
# Compressibility (1/GPa) = 0.02072596
#
# Stress axis : x y z
#
# Youngs Moduli (GPa) = 86.09021 63.34314 75.99963
#
# Poissons Ratio (x) = 0.31233 0.20247
# Poissons Ratio (y) = 0.42449 0.17651
# Poissons Ratio (z) = 0.22935 0.14712
#
# Static dielectric constant tensor:
#      x y z
#    x 1.749690 0.000000 0.036360 
#    y 0.000000 1.702230 0.000000 
#    z 0.036360 0.000000 1.735340 
# 
# From -- ./inp_files/159734.got.cif
#   From: 2010.05.17/outbox.cif.g08.bks.cpg/sg12_80_cif.got.tgz:159734.got - 2010.06.03 13:09:07.
