data_PCOD9200255
_publ_section_title
;
Structure prediction by ZEFSAII (Michael W. Deem and Ramdas Pophale) SiO2 
 PCOD9200255
Probable space group: C 2/M
;
_chemical_formula_sum "Si O2"
_cell_formula_units_Z 64
_cell_length_a 19.660950
_cell_length_b 24.140767
_cell_length_c 10.964383
_cell_angle_alpha 90.000000
_cell_angle_beta 138.283945
_cell_angle_gamma 90.000000
_cell_volume 3462.967115
_symmetry_space_group_name_H-M "C 2/M"
_symmetry_group_IT_number 12
_symmetry_cell_setting 'monoclinic'
loop_
_space_group_symop_operation_xyz
x,y,z
-x,y,-z
-x,-y,-z
x,-y,z
1/2+x,1/2+y,z
1/2-x,1/2+y,-z
1/2-x,1/2-y,-z
1/2+x,1/2-y,z
loop_
_atom_site_type_symbol
_atom_site_label
_atom_site_fract_x
_atom_site_fract_y
_atom_site_fract_z
Si Si1 0.096592 0.642761 0.544236
Si Si2 0.483797 0.374773 0.121618
Si Si3 0.805825 0.935693 0.552009
Si Si4 0.727159 0.563876 0.202100
Si Si5 0.326829 0.847598 0.771668
Si Si6 0.595530 0.727100 0.840324
Si Si7 0.202562 0.753274 0.738480
Si Si8 0.500044 0.161020 0.185583
O O1 0.177364 0.600785 0.710163
O O2 0.153195 0.701622 0.602533
O O3 0.051859 0.622528 0.355797
O O4 0.000000 0.651091 0.500000
O O5 0.579623 0.411148 0.292384
O O6 0.470205 0.322354 0.191374
O O7 0.500000 0.358316 0.000000
O O8 0.379369 0.409974 0.984182
O O9 0.773291 0.932844 0.650719
O O10 0.734023 0.897406 0.372609
O O11 0.804306 0.000000 0.512935
O O12 0.734935 0.500000 0.176543
O O13 0.248471 0.801185 0.715166
O O14 0.408962 0.823352 0.785198
O O15 0.403111 0.863982 0.984469
O O16 0.623945 0.724229 0.735769
O O17 0.542321 0.785039 0.801952
O O18 0.702227 0.728350 0.057590
#
# Coordination Sequence:
#
# PCOD9200255 Si02
#       8
#     8   8   8   8   8   8   8   8
#     4  12  22  37  59  88 123 160 198 241 298 356
#     4  10  21  35  62  92 118 155 197 248 300 353
#     4  10  21  39  61  87 115 152 203 252 297 348
#     4  10  21  39  59  85 121 156 199 249 298 348
#     4  10  22  38  59  86 120 156 198 249 288 350
#     4  10  20  37  55  85 124 156 188 231 299 364
#     4  10  22  35  56  86 119 161 188 235 298 357
#     4  10  22  37  56  87 124 156 196 239 292 355
#
# _framework density 18.481261
#
# number of rings (size 3 to 8) (size 9 to 14) (size 15 to 20)
#    0.000    1.750    3.750    0.375    5.250    2.250 
#    0.000    1.875    0.000    3.750    0.000    0.000 
#    0.000    0.000    0.000    0.000    0.000    0.000 
#
# Total GULP energy -178540.932840 kJ/mol
# GULP energy per Si atom -5579.404151 kJ/mol
# Density = 1.843920 g / cm^3
# Si number density = 18.481261 Si / 1000 Ang^3
#
#
#
# Elastic Constant Matrix: (Units=GPa)
#
#
# Indices 1 2 3 4 5 6 
#
# 1 60.4970 18.6398 21.4346 0.0000 15.6499 0.0000
# 2 18.6398 62.9966 24.8585 0.0000 15.2803 0.0000
# 3 21.4346 24.8585 87.0051 0.0000 19.0923 0.0000
# 4 0.0000 0.0000 0.0000 20.4300 0.0000 2.9172
# 5 15.6499 15.2803 19.0923 0.0000 26.8761 0.0000
# 6 0.0000 0.0000 0.0000 2.9172 0.0000 11.0633
#
#
#
# Elastic Compliance Matrix: (Units=1/GPa)
#
#
# Indices 1 2 3 4 5 6 
#
# 1 0.020507 -0.003088 -0.002292 0.000000 -0.008557 0.000000
# 2 -0.003088 0.019830 -0.003347 0.000000 -0.007099 0.000000
# 3 -0.002292 -0.003347 0.014576 0.000000 -0.007117 0.000000
# 4 0.000000 0.000000 0.000000 0.050863 0.000000 -0.013411
# 5 -0.008557 -0.007099 -0.007117 0.000000 0.051282 0.000000
# 6 0.000000 0.000000 0.000000 -0.013411 0.000000 0.093926
#
#
# Mechanical properties :
#
#
# Convention : Reuss Voigt Hill
#
# Bulk Modulus (GPa) = 26.69561 37.81825 32.25693
# Shear Modulus (GPa) = 17.79839 21.37828 19.58833
#
# Velocity S-wave (km/s) = 3.10667 3.40480 3.25915
# Velocity P-wave (km/s) = 5.22921 5.99703 5.62623
#
# Compressibility (1/GPa) = 0.03745934
#
# Stress axis : x y z
#
# Youngs Moduli (GPa) = 48.76411 50.42830 68.60415
#
# Poissons Ratio (x) = 0.15570 0.15725
# Poissons Ratio (y) = 0.15056 0.22964
# Poissons Ratio (z) = 0.11177 0.16880
#
# Static dielectric constant tensor:
#      x y z
#    x 1.654740 0.000000 -0.009380 
#    y 0.000000 1.600250 0.000000 
#    z -0.009380 0.000000 1.668120 
# 
# From -- ./inp_files/169692.got.cif
#   From: 2010.05.17/outbox.cif.g08.bks.cpg/sg12_85_cif.got.tgz:169692.got - 2010.06.03 13:09:07.
