data_PCOD9200905
_publ_section_title
;
Structure prediction by ZEFSAII (Michael W. Deem and Ramdas Pophale) SiO2 
 PCOD9200905
Probable space group: C 2/M
;
_chemical_formula_sum "Si O2"
_cell_formula_units_Z 56
_cell_length_a 28.095379
_cell_length_b 12.842736
_cell_length_c 14.189485
_cell_angle_alpha 90.000000
_cell_angle_beta 153.409307
_cell_angle_gamma 90.000000
_cell_volume 2291.725447
_symmetry_space_group_name_H-M "C 2/M"
_symmetry_group_IT_number 12
_symmetry_cell_setting 'monoclinic'
loop_
_space_group_symop_operation_xyz
x,y,z
-x,y,-z
-x,-y,-z
x,-y,z
1/2+x,1/2+y,z
1/2-x,1/2+y,-z
1/2-x,1/2-y,-z
1/2+x,1/2-y,z
loop_
_atom_site_type_symbol
_atom_site_label
_atom_site_fract_x
_atom_site_fract_y
_atom_site_fract_z
Si Si1 0.990707 0.300987 0.591005
Si Si2 0.276190 0.114661 0.969730
Si Si3 0.591174 0.319405 0.382989
Si Si4 0.807548 0.385427 0.528527
Si Si5 0.764614 0.342953 0.163016
Si Si6 0.385804 0.339352 0.932246
Si Si7 0.323923 0.112334 0.782426
O O1 0.972748 0.210683 0.635663
O O2 0.884743 0.371127 0.402460
O O3 0.000000 0.260694 0.500000
O O4 0.097111 0.364337 0.801671
O O5 0.237699 0.120294 0.010486
O O6 0.252791 0.000000 0.890537
O O7 0.232966 0.216454 0.840872
O O8 0.632865 0.209238 0.415433
O O9 0.699672 0.381322 0.589585
O O10 0.506921 0.369958 0.162367
O O11 0.843072 0.500000 0.560673
O O12 0.683156 0.373491 0.279595
O O13 0.824007 0.378224 0.669216
O O14 0.684306 0.373882 0.102133
O O15 0.383172 0.212794 0.927083
O O16 0.369576 0.000000 0.889831
#
# Coordination Sequence:
#
# PCOD9200905 Si02
#       7
#     8   8   8   8   8   8   8
#     4  10  20  37  60  85 122 155 196 241 290 344
#     4  10  22  38  61  88 117 158 203 247 299 347
#     4  11  21  39  63  89 120 160 196 246 300 351
#     4  10  23  41  61  90 121 152 198 251 301 357
#     4  10  20  38  58  85 125 153 197 249 294 348
#     4  11  21  38  62  88 118 159 195 245 298 354
#     4  10  23  42  62  87 120 157 198 245 302 364
#
# _framework density 24.435738000000001
#
# number of rings (size 3 to 8) (size 9 to 14) (size 15 to 20)
#    0.000    1.714    4.286    1.714    0.000    7.714 
#    0.000    2.857    0.000   11.143    0.000    0.000 
#    0.000    0.000    0.000    0.000    0.000    0.000 
#
# Total GULP energy -156668.356867 kJ/mol
# GULP energy per Si atom -5595.298460 kJ/mol
# Density = 2.438012 g / cm^3
# Si number density = 24.435738 Si / 1000 Ang^3
#
#
#
# Elastic Constant Matrix: (Units=GPa)
#
#
# Indices 1 2 3 4 5 6 
#
# 1 85.3194 16.4640 -10.1384 0.0000 -10.6009 0.0000
# 2 16.4640 135.4381 1.1150 0.0000 3.2625 0.0000
# 3 -10.1384 1.1150 82.9008 0.0000 2.9786 0.0000
# 4 0.0000 0.0000 0.0000 -4.9094 0.0000 0.7208
# 5 -10.6009 3.2625 2.9786 0.0000 23.3825 0.0000
# 6 0.0000 0.0000 0.0000 0.7208 0.0000 -1.7652
#
#
#
# Elastic Compliance Matrix: (Units=1/GPa)
#
#
# Indices 1 2 3 4 5 6 
#
# 1 0.012958 -0.001730 0.001395 0.000000 0.005938 0.000000
# 2 -0.001730 0.007640 -0.000249 0.000000 -0.001818 0.000000
# 3 0.001395 -0.000249 0.012269 0.000000 -0.000896 0.000000
# 4 0.000000 0.000000 0.000000 -0.216683 0.000000 -0.088478
# 5 0.005938 -0.001818 -0.000896 0.000000 0.045827 0.000000
# 6 0.000000 0.000000 0.000000 -0.088478 0.000000 -0.602648
#
#
# Mechanical properties :
#
#
# Convention : Reuss Voigt Hill
#
# Bulk Modulus (GPa) = 31.54758 35.39326 33.47042
# Shear Modulus (GPa) = -6.85962 23.08944 8.11491
#
# Velocity S-wave (km/s) = -1.67729 3.07726 1.82432
# Velocity P-wave (km/s) = 3.03107 5.20977 4.26199
#
# Compressibility (1/GPa) = 0.03169815
#
# Stress axis : x y z
#
# Youngs Moduli (GPa) = 77.17234 130.89745 81.50819
#
# Poissons Ratio (x) = 0.22642 -0.11367
# Poissons Ratio (y) = 0.13349 0.02029
# Poissons Ratio (z) = -0.10762 0.03259
#
# Static dielectric constant tensor:
#      x y z
#    x 1.964150 0.000000 -0.007120 
#    y 0.000000 1.977000 0.000000 
#    z -0.007120 0.000000 1.930090 
# 
# From -- ./inp_files/246613.got.cif
#   From: 2010.05.17/outbox.cif.g08.bks.cpg/sg12_124_cif.got.tgz:246613.got - 2010.06.03 13:09:07.
