data_PCOD9200409
_publ_section_title
;
Structure prediction by ZEFSAII (Michael W. Deem and Ramdas Pophale) SiO2 
 PCOD9200409
Probable space group: C 2/M
;
_chemical_formula_sum "Si O2"
_cell_formula_units_Z 48
_cell_length_a 15.095774
_cell_length_b 8.023070
_cell_length_c 21.127350
_cell_angle_alpha 90.000000
_cell_angle_beta 115.551425
_cell_angle_gamma 90.000000
_cell_volume 2308.570304
_symmetry_space_group_name_H-M "C 2/M"
_symmetry_group_IT_number 12
_symmetry_cell_setting 'monoclinic'
loop_
_space_group_symop_operation_xyz
x,y,z
-x,y,-z
-x,-y,-z
x,-y,z
1/2+x,1/2+y,z
1/2-x,1/2+y,-z
1/2-x,1/2-y,-z
1/2+x,1/2-y,z
loop_
_atom_site_type_symbol
_atom_site_label
_atom_site_fract_x
_atom_site_fract_y
_atom_site_fract_z
Si Si1 0.172501 0.797422 0.625139
Si Si2 0.148765 0.700467 0.002588
Si Si3 0.486310 0.692049 0.328793
Si Si4 0.565373 0.204318 0.109997
Si Si5 0.879025 0.695476 0.735368
Si Si6 0.138495 0.693922 0.477721
O O1 0.284238 0.738457 0.668477
O O2 0.123316 0.723458 0.547446
O O3 0.113680 0.748655 0.669854
O O4 0.168554 0.000000 0.617253
O O5 0.147243 0.500000 0.002762
O O6 0.131703 0.755633 0.070319
O O7 0.250000 0.750000 0.000000
O O8 0.048064 0.755111 0.936495
O O9 0.474747 0.500000 0.307380
O O10 0.527425 0.784817 0.280690
O O11 0.565580 0.707505 0.409823
O O12 0.603658 0.265454 0.189470
O O13 0.565410 0.000000 0.110766
O O14 0.858395 0.500000 0.737328
O O15 0.127930 0.500000 0.458299
O O16 0.250000 0.750000 0.500000
#
# Coordination Sequence:
#
# PCOD9200409 Si02
#       6
#     8   8   8   8   8   8
#     4  10  22  38  56  79 109 144 184 230 280 331
#     4   9  17  33  57  83 111 143 184 226 267 321
#     4  11  23  38  56  82 113 144 182 232 282 327
#     4   8  17  34  55  79 110 149 185 219 267 329
#     4  10  20  37  58  78 107 149 189 223 271 334
#     4  12  23  37  59  82 107 142 186 234 282 330
#
# _framework density 20.792090000000002
#
# number of rings (size 3 to 8) (size 9 to 14) (size 15 to 20)
#    0.000    2.000    1.667    3.500    0.000    4.667 
#    0.000    5.000    0.000    0.000    0.000    0.000 
#    0.000    0.000    0.000    0.000    0.000    0.000 
#
# Total GULP energy -133988.296854 kJ/mol
# GULP energy per Si atom -5582.845702 kJ/mol
# Density = 2.074477 g / cm^3
# Si number density = 20.792090 Si / 1000 Ang^3
#
#
#
# Elastic Constant Matrix: (Units=GPa)
#
#
# Indices 1 2 3 4 5 6 
#
# 1 103.9740 1.4786 18.0964 0.0000 -17.4638 0.0000
# 2 1.4786 15.2485 -2.1334 0.0000 0.8599 0.0000
# 3 18.0964 -2.1334 98.5061 0.0000 -21.5807 0.0000
# 4 0.0000 0.0000 0.0000 11.7282 0.0000 -6.7431
# 5 -17.4638 0.8599 -21.5807 0.0000 16.7131 0.0000
# 6 0.0000 0.0000 0.0000 -6.7431 0.0000 28.6699
#
#
#
# Elastic Compliance Matrix: (Units=1/GPa)
#
#
# Indices 1 2 3 4 5 6 
#
# 1 0.011752 -0.001789 0.000715 0.000000 0.013295 0.000000
# 2 -0.001789 0.066108 0.000845 0.000000 -0.004180 0.000000
# 3 0.000715 0.000845 0.014214 0.000000 0.019057 0.000000
# 4 0.000000 0.000000 0.000000 0.098598 0.000000 0.023190
# 5 0.013295 -0.004180 0.019057 0.000000 0.098548 0.000000
# 6 0.000000 0.000000 0.000000 0.023190 0.000000 0.040334
#
#
# Mechanical properties :
#
#
# Convention : Reuss Voigt Hill
#
# Bulk Modulus (GPa) = 10.91537 28.06798 19.49168
# Shear Modulus (GPa) = 13.86768 24.77470 19.32119
#
# Velocity S-wave (km/s) = 2.58538 3.45562 3.05168
# Velocity P-wave (km/s) = 3.76476 5.42682 4.67032
#
# Compressibility (1/GPa) = 0.09161392
#
# Stress axis : x y z
#
# Youngs Moduli (GPa) = 85.09291 15.12681 70.35518
#
# Poissons Ratio (x) = 0.02707 -0.05031
# Poissons Ratio (y) = 0.15225 -0.05942
# Poissons Ratio (z) = -0.06084 -0.01278
#
# Static dielectric constant tensor:
#      x y z
#    x 1.766230 0.000000 -0.029450 
#    y 0.000000 1.756650 0.000000 
#    z -0.029450 0.000000 1.774080 
# 
# From -- ./inp_files/308298.got.cif
#   From: 2010.05.17/outbox.cif.g08.bks.cpg/sg12_155_cif.got.tgz:308298.got - 2010.06.03 13:09:07.
