data_PCOD9200307
_publ_section_title
;
Structure prediction by ZEFSAII (Michael W. Deem and Ramdas Pophale) SiO2 
 PCOD9200307
Probable space group: C 2/M
;
_chemical_formula_sum "Si O2"
_cell_formula_units_Z 40
_cell_length_a 17.479190
_cell_length_b 22.478889
_cell_length_c 4.973290
_cell_angle_alpha 90.000000
_cell_angle_beta 74.849869
_cell_angle_gamma 90.000000
_cell_volume 1886.154181
_symmetry_space_group_name_H-M "C 2/M"
_symmetry_group_IT_number 12
_symmetry_cell_setting 'monoclinic'
loop_
_space_group_symop_operation_xyz
x,y,z
-x,y,-z
-x,-y,-z
x,-y,z
1/2+x,1/2+y,z
1/2-x,1/2+y,-z
1/2-x,1/2-y,-z
1/2+x,1/2-y,z
loop_
_atom_site_type_symbol
_atom_site_label
_atom_site_fract_x
_atom_site_fract_y
_atom_site_fract_z
Si Si1 0.554496 0.259258 0.707240
Si Si2 0.409486 0.611357 0.097735
Si Si3 0.342680 0.146039 0.405697
Si Si4 0.308737 0.600511 0.663821
Si Si5 0.848626 0.433474 0.933639
O O1 0.500000 0.270218 0.500000
O O2 0.586970 0.322198 0.781173
O O3 0.381202 0.209454 0.417550
O O4 0.500000 0.235898 0.000000
O O5 0.355037 0.576550 0.361652
O O6 0.500000 0.589477 0.000000
O O7 0.370859 0.615135 0.839803
O O8 0.251109 0.151665 0.392683
O O9 0.385994 0.108904 0.127908
O O10 0.345677 0.103731 0.662525
O O11 0.241356 0.561487 0.869707
O O12 0.881438 0.500000 0.873951
#
# Coordination Sequence:
#
# PCOD9200307 Si02
#       5
#     8   8   8   8   8
#     4  11  23  38  57  83 121 159 181 219 282 340
#     4  11  21  36  56  82 120 155 181 219 281 341
#     4  10  21  37  59  88 107 151 190 238 271 330
#     4  10  20  37  56  89 105 150 191 236 271 325
#     4  10  20  38  61  84 110 144 189 241 295 323
#
# _framework density 21.207173000000001
#
# number of rings (size 3 to 8) (size 9 to 14) (size 15 to 20)
#    1.200    0.400    2.000    4.800    0.000    1.600 
#    0.000    0.000    0.000   15.600    0.000    0.000 
#    0.000    0.000    0.000    0.000    0.000    0.000 
#
# Total GULP energy -111429.378579 kJ/mol
# GULP energy per Si atom -5571.468929 kJ/mol
# Density = 2.115890 g / cm^3
# Si number density = 21.207173 Si / 1000 Ang^3
#
#
#
# Elastic Constant Matrix: (Units=GPa)
#
#
# Indices 1 2 3 4 5 6 
#
# 1 10.2451 4.8001 2.1369 0.0000 -1.7420 0.0000
# 2 4.8001 34.6390 2.9348 0.0000 3.7028 0.0000
# 3 2.1369 2.9348 122.1817 0.0000 12.4655 0.0000
# 4 0.0000 0.0000 0.0000 -25.1149 0.0000 3.4089
# 5 -1.7420 3.7028 12.4655 0.0000 19.4378 0.0000
# 6 0.0000 0.0000 0.0000 3.4089 0.0000 1.6482
#
#
#
# Elastic Compliance Matrix: (Units=1/GPa)
#
#
# Indices 1 2 3 4 5 6 
#
# 1 0.108402 -0.016345 -0.003009 0.000000 0.014758 0.000000
# 2 -0.016345 0.031936 0.000309 0.000000 -0.007747 0.000000
# 3 -0.003009 0.000309 0.008842 0.000000 -0.005999 0.000000
# 4 0.000000 0.000000 0.000000 -0.031089 0.000000 0.064301
# 5 0.014758 -0.007747 -0.005999 0.000000 0.058091 0.000000
# 6 0.000000 0.000000 0.000000 0.064301 0.000000 0.473735
#
#
# Mechanical properties :
#
#
# Convention : Reuss Voigt Hill
#
# Bulk Modulus (GPa) = 9.00161 20.75659 14.87910
# Shear Modulus (GPa) = 6.89621 9.67383 8.28502
#
# Velocity S-wave (km/s) = 1.80524 2.13810 1.97868
# Velocity P-wave (km/s) = 2.93241 3.98799 3.50022
#
# Compressibility (1/GPa) = 0.11109121
#
# Stress axis : x y z
#
# Youngs Moduli (GPa) = 9.22490 31.31254 113.09977
#
# Poissons Ratio (x) = 0.51179 0.34032
# Poissons Ratio (y) = 0.15078 -0.03496
# Poissons Ratio (z) = 0.02776 -0.00968
#
# Static dielectric constant tensor:
#      x y z
#    x 1.799420 0.000000 -0.042900 
#    y 0.000000 1.792620 0.000000 
#    z -0.042900 0.000000 1.780150 
# 
# From -- ./inp_files/11372.got.cif
#   From: 2010.05.17/outbox.cif.g08.bks.cpg/sg12_6_cif.got.tgz:11372.got - 2010.06.03 13:09:07.
