data_PCOD9200524
_publ_section_title
;
Structure prediction by ZEFSAII (Michael W. Deem and Ramdas Pophale) SiO2 
 PCOD9200524
Probable space group: C 2/M
;
_chemical_formula_sum "Si O2"
_cell_formula_units_Z 48
_cell_length_a 14.132994
_cell_length_b 30.136595
_cell_length_c 9.270328
_cell_angle_alpha 90.000000
_cell_angle_beta 41.849583
_cell_angle_gamma 90.000000
_cell_volume 2634.297065
_symmetry_space_group_name_H-M "C 2/M"
_symmetry_group_IT_number 12
_symmetry_cell_setting 'monoclinic'
loop_
_space_group_symop_operation_xyz
x,y,z
-x,y,-z
-x,-y,-z
x,-y,z
1/2+x,1/2+y,z
1/2-x,1/2+y,-z
1/2-x,1/2-y,-z
1/2+x,1/2-y,z
loop_
_atom_site_type_symbol
_atom_site_label
_atom_site_fract_x
_atom_site_fract_y
_atom_site_fract_z
Si Si1 0.828630 0.117395 0.368411
Si Si2 0.665874 0.708884 0.157285
Si Si3 0.337022 0.618499 0.012398
Si Si4 0.393166 0.050241 0.240261
Si Si5 0.103699 0.549476 0.265007
Si Si6 0.327754 0.712203 0.508104
O O1 0.810529 0.120642 0.215469
O O2 0.734672 0.080468 0.556265
O O3 0.793072 0.165209 0.474674
O O4 0.996528 0.109425 0.200948
O O5 0.498827 0.717470 0.316146
O O6 0.702940 0.708121 0.285668
O O7 0.750000 0.750000 0.000000
O O8 0.699631 0.663318 0.033314
O O9 0.238606 0.578395 0.074087
O O10 0.500454 0.044946 0.249541
O O11 0.347246 0.000000 0.246832
O O12 0.500000 0.070251 0.000000
O O13 0.145614 0.500000 0.270343
O O14 0.000000 0.571557 0.500000
O O15 0.250000 0.750000 0.500000
#
# Coordination Sequence:
#
# PCOD9200524 Si02
#       6
#     8   8   8   8   8   8
#     4  10  21  38  59  85 119 153 195 240 291 349
#     4  10  22  40  60  85 117 151 193 242 291 347
#     4  10  21  37  60  87 116 154 194 243 291 345
#     4  10  22  39  58  84 120 157 196 242 292 348
#     4  10  20  37  58  85 119 154 196 242 287 341
#     4  10  22  40  60  85 117 153 193 239 292 351
#
# _framework density 18.22118
#
# number of rings (size 3 to 8) (size 9 to 14) (size 15 to 20)
#    0.000    2.000    1.667    1.000    2.333    4.000 
#    3.000    1.667    0.000    3.000    0.000    0.000 
#    0.000    0.000    0.000    0.000    0.000    0.000 
#
# Total GULP energy -133661.341585 kJ/mol
# GULP energy per Si atom -5569.222566 kJ/mol
# Density = 1.817971 g / cm^3
# Si number density = 18.221180 Si / 1000 Ang^3
#
#
#
# Elastic Constant Matrix: (Units=GPa)
#
#
# Indices 1 2 3 4 5 6 
#
# 1 55.0145 42.0646 28.6355 0.0000 -4.6407 0.0000
# 2 42.0646 130.4370 78.1386 0.0000 -24.0452 0.0000
# 3 28.6355 78.1386 124.4016 0.0000 4.1736 0.0000
# 4 0.0000 0.0000 0.0000 43.2669 0.0000 -14.2849
# 5 -4.6407 -24.0452 4.1736 0.0000 17.4295 0.0000
# 6 0.0000 0.0000 0.0000 -14.2849 0.0000 45.0630
#
#
#
# Elastic Compliance Matrix: (Units=1/GPa)
#
#
# Indices 1 2 3 4 5 6 
#
# 1 0.024580 -0.009434 0.000488 0.000000 -0.006587 0.000000
# 2 -0.009434 0.028479 -0.017088 0.000000 0.040869 0.000000
# 3 0.000488 -0.017088 0.019603 0.000000 -0.028138 0.000000
# 4 0.000000 0.000000 0.000000 0.025814 0.000000 0.008183
# 5 -0.006587 0.040869 -0.028138 0.000000 0.118740 0.000000
# 6 0.000000 0.000000 0.000000 0.008183 0.000000 0.024785
#
#
# Mechanical properties :
#
#
# Convention : Reuss Voigt Hill
#
# Bulk Modulus (GPa) = 48.55211 67.50338 58.02774
# Shear Modulus (GPa) = 16.61495 31.88619 24.25057
#
# Velocity S-wave (km/s) = 3.02296 4.18778 3.65211
# Velocity P-wave (km/s) = 6.23604 7.77884 7.04977
#
# Compressibility (1/GPa) = 0.02059643
#
# Stress axis : x y z
#
# Youngs Moduli (GPa) = 40.68301 35.11318 51.01185
#
# Poissons Ratio (x) = 0.33125 -0.02491
# Poissons Ratio (y) = 0.38379 0.87169
# Poissons Ratio (z) = -0.01987 0.60001
#
# Static dielectric constant tensor:
#      x y z
#    x 1.578800 0.000000 -0.045010 
#    y 0.000000 1.610470 0.000000 
#    z -0.045010 0.000000 1.569030 
# 
# From -- ./inp_files/68028.got.cif
#   From: 2010.05.17/outbox.cif.g08.bks.cpg/sg12_35_cif.got.tgz:68028.got - 2010.06.03 13:09:07.
