data_PCOD9200606
_publ_section_title
;
Structure prediction by ZEFSAII (Michael W. Deem and Ramdas Pophale) SiO2 
 PCOD9200606
Probable space group: C 2/M
;
_chemical_formula_sum "Si O2"
_cell_formula_units_Z 64
_cell_length_a 20.894458
_cell_length_b 8.878844
_cell_length_c 22.056374
_cell_angle_alpha 90.000000
_cell_angle_beta 118.085748
_cell_angle_gamma 90.000000
_cell_volume 3610.026306
_symmetry_space_group_name_H-M "C 2/M"
_symmetry_group_IT_number 12
_symmetry_cell_setting 'monoclinic'
loop_
_space_group_symop_operation_xyz
x,y,z
-x,y,-z
-x,-y,-z
x,-y,z
1/2+x,1/2+y,z
1/2-x,1/2+y,-z
1/2-x,1/2-y,-z
1/2+x,1/2-y,z
loop_
_atom_site_type_symbol
_atom_site_label
_atom_site_fract_x
_atom_site_fract_y
_atom_site_fract_z
Si Si1 0.952119 0.679391 0.294237
Si Si2 0.909472 0.819497 0.709529
Si Si3 0.326616 0.319646 0.551574
Si Si4 0.666213 0.680282 0.838110
Si Si5 0.922644 0.320209 0.842047
Si Si6 0.165180 0.680767 0.075173
Si Si7 0.081596 0.179709 0.924813
Si Si8 0.522638 0.318305 0.441772
O O1 0.956728 0.500000 0.294926
O O2 0.875857 0.736105 0.234235
O O3 0.014260 0.749999 0.278592
O O4 0.970945 0.741482 0.369220
O O5 0.851953 0.780700 0.631243
O O6 0.891961 0.754952 0.767448
O O7 0.916947 0.000000 0.715125
O O8 0.320659 0.500000 0.545508
O O9 0.250000 0.250000 0.500000
O O10 0.394573 0.275035 0.538839
O O11 0.661307 0.500000 0.825952
O O12 0.750360 0.721104 0.881628
O O13 0.625584 0.714935 0.883048
O O14 0.924387 0.500000 0.835167
O O15 0.875629 0.284581 0.880364
O O16 0.003777 0.259114 0.887867
O O17 0.160331 0.500000 0.062955
O O18 0.126603 0.763510 0.002499
O O19 0.071396 0.000000 0.923059
O O20 0.500000 0.280350 0.500000
O O21 0.517607 0.500000 0.432203
#
# Coordination Sequence:
#
# PCOD9200606 Si02
#       8
#     8   8   8   8   8   8   8   8
#     4  11  21  34  58  88 114 146 188 236 280 326
#     4  10  20  37  59  82 111 150 192 230 274 333
#     4   9  19  35  57  84 112 145 183 225 275 327
#     4  10  21  39  59  80 112 152 190 229 280 337
#     4  11  22  37  58  84 112 146 190 235 280 330
#     4  10  23  40  56  80 115 150 186 234 284 333
#     4  11  22  36  60  85 108 147 192 233 280 338
#     4   9  19  38  61  83 112 151 191 228 273 331
#
# _framework density 17.728403
#
# number of rings (size 3 to 8) (size 9 to 14) (size 15 to 20)
#    0.000    1.875    1.250    3.750    0.000    6.250 
#    2.250    0.000    0.000    0.000    0.000    0.000 
#    0.000    0.000    0.000    0.000    0.000    0.000 
#
# Total GULP energy -178730.853692 kJ/mol
# GULP energy per Si atom -5585.339178 kJ/mol
# Density = 1.768805 g / cm^3
# Si number density = 17.728403 Si / 1000 Ang^3
#
#
#
# Elastic Constant Matrix: (Units=GPa)
#
#
# Indices 1 2 3 4 5 6 
#
# 1 110.1014 50.9029 82.4909 0.0000 3.0214 0.0000
# 2 50.9029 51.4290 62.0197 0.0000 -4.1342 0.0000
# 3 82.4909 62.0197 155.4676 0.0000 0.2387 0.0000
# 4 0.0000 0.0000 0.0000 28.3832 0.0000 0.4531
# 5 3.0214 -4.1342 0.2387 0.0000 27.7799 0.0000
# 6 0.0000 0.0000 0.0000 0.4531 0.0000 24.0673
#
#
#
# Elastic Compliance Matrix: (Units=1/GPa)
#
#
# Indices 1 2 3 4 5 6 
#
# 1 0.018875 -0.013361 -0.004679 0.000000 -0.004001 0.000000
# 2 -0.013361 0.047855 -0.012014 0.000000 0.008678 0.000000
# 3 -0.004679 -0.012014 0.013710 0.000000 -0.001397 0.000000
# 4 0.000000 0.000000 0.000000 0.035243 0.000000 -0.000664
# 5 -0.004001 0.008678 -0.001397 0.000000 0.037736 0.000000
# 6 0.000000 0.000000 0.000000 -0.000664 0.000000 0.041563
#
#
# Mechanical properties :
#
#
# Convention : Reuss Voigt Hill
#
# Bulk Modulus (GPa) = 49.18630 78.64723 63.91677
# Shear Modulus (GPa) = 19.09366 24.15172 21.62269
#
# Velocity S-wave (km/s) = 3.28534 3.69496 3.49616
# Velocity P-wave (km/s) = 6.49584 7.91595 7.24079
#
# Compressibility (1/GPa) = 0.02033086
#
# Stress axis : x y z
#
# Youngs Moduli (GPa) = 52.97962 20.89648 72.94113
#
# Poissons Ratio (x) = 0.27921 0.34128
# Poissons Ratio (y) = 0.70788 0.87633
# Poissons Ratio (z) = 0.24788 0.25106
#
# Static dielectric constant tensor:
#      x y z
#    x 1.587390 0.000000 -0.005810 
#    y 0.000000 1.594020 0.000000 
#    z -0.005810 0.000000 1.590190 
# 
# From -- ./inp_files/320075.got.cif
#   From: 2010.05.17/outbox.cif.g08.bks.cpg/sg12_161_cif.got.tgz:320075.got - 2010.06.03 13:09:07.
