data_PCOD9200238
_publ_section_title
;
Structure prediction by ZEFSAII (Michael W. Deem and Ramdas Pophale) SiO2 
 PCOD9200238
Probable space group: C 2/M
;
_chemical_formula_sum "Si O2"
_cell_formula_units_Z 58
_cell_length_a 9.459054
_cell_length_b 20.645872
_cell_length_c 24.737861
_cell_angle_alpha 90.000000
_cell_angle_beta 39.801709
_cell_angle_gamma 90.000000
_cell_volume 3092.523693
_symmetry_space_group_name_H-M "C 2/M"
_symmetry_group_IT_number 12
_symmetry_cell_setting 'monoclinic'
loop_
_space_group_symop_operation_xyz
x,y,z
-x,y,-z
-x,-y,-z
x,-y,z
1/2+x,1/2+y,z
1/2-x,1/2+y,-z
1/2-x,1/2-y,-z
1/2+x,1/2-y,z
loop_
_atom_site_type_symbol
_atom_site_label
_atom_site_fract_x
_atom_site_fract_y
_atom_site_fract_z
Si Si1 0.599286 0.629862 0.523752
Si Si2 0.253809 0.424418 0.941123
Si Si3 0.669595 0.575715 0.746374
Si Si4 0.072195 0.806604 0.040998
Si Si5 0.581066 0.142439 0.415753
Si Si6 0.500000 0.500000 0.500000
Si Si7 0.354770 0.190149 0.761033
Si Si8 0.326999 0.275842 0.663333
O O1 0.500000 0.664819 0.500000
O O2 0.510854 0.557570 0.542929
O O3 0.511552 0.669845 0.599986
O O4 0.861136 0.628796 0.445142
O O5 0.276504 0.500000 0.951052
O O6 0.418456 0.415437 0.841316
O O7 0.328800 0.373836 0.964732
O O8 0.000000 0.412753 0.000000
O O9 0.726416 0.500000 0.733611
O O10 0.726088 0.601181 0.669655
O O11 0.809574 0.620646 0.746298
O O12 0.848339 0.794602 0.140178
O O13 0.250000 0.750000 0.000000
O O14 0.000000 0.810075 0.000000
O O15 0.500000 0.127316 0.500000
O O16 0.637904 0.217323 0.389578
O O17 0.347800 0.242237 0.714926
O O18 0.587361 0.194142 0.722814
#
# Coordination Sequence:
#
# PCOD9200238 Si02
#       8
#     8   8   8   8   8   2   8   8
#     4  10  20  37  55  77 109 149 191 232 282 338
#     4   9  19  39  65  89 118 158 198 240 299 369
#     4   9  20  37  57  83 115 152 193 235 286 348
#     4  11  22  37  59  91 120 153 191 245 305 365
#     4  11  22  33  54  85 112 150 194 237 284 329
#     4   8  24  36  58  80 108 148 198 232 292 344
#     4  10  22  37  58  85 112 148 192 236 293 344
#     4  11  20  36  56  80 112 150 192 240 278 338
#
# _framework density 18.754909000000001
#
# number of rings (size 3 to 8) (size 9 to 14) (size 15 to 20)
#    0.414    1.517    0.000    4.552    0.966    2.759 
#    0.000    1.379    0.000    0.000    1.793    0.000 
#    0.000    0.000    0.000    0.000    0.000    0.000 
#
# Total GULP energy -161471.709334 kJ/mol
# GULP energy per Si atom -5567.989977 kJ/mol
# Density = 1.871222 g / cm^3
# Si number density = 18.754909 Si / 1000 Ang^3
#
#
#
# Elastic Constant Matrix: (Units=GPa)
#
#
# Indices 1 2 3 4 5 6 
#
# 1 64.9853 26.7972 46.6498 0.0007 4.2112 -0.0048
# 2 26.7972 123.4948 65.6417 -0.0099 8.5130 0.0097
# 3 46.6498 65.6417 125.9545 0.0036 13.7475 -0.0047
# 4 0.0007 -0.0099 0.0036 23.6492 -0.0081 -1.6100
# 5 4.2112 8.5130 13.7475 -0.0081 26.3405 0.0095
# 6 -0.0048 0.0097 -0.0047 -1.6100 0.0095 6.6701
#
#
#
# Elastic Compliance Matrix: (Units=1/GPa)
#
#
# Indices 1 2 3 4 5 6 
#
# 1 0.021006 -0.000596 -0.007554 0.000001 0.000777 0.000010
# 2 -0.000596 0.011226 -0.005561 0.000004 -0.000631 -0.000019
# 3 -0.007554 -0.005561 0.014111 -0.000005 -0.004360 0.000018
# 4 0.000001 0.000004 -0.000005 0.042991 0.000010 0.010377
# 5 0.000777 -0.000631 -0.004360 0.000010 0.040319 -0.000057
# 6 0.000010 -0.000019 0.000018 0.010377 -0.000057 0.152427
#
#
# Mechanical properties :
#
#
# Convention : Reuss Voigt Hill
#
# Bulk Modulus (GPa) = 52.85163 65.84576 59.34870
# Shear Modulus (GPa) = 15.83224 23.02168 19.42696
#
# Velocity S-wave (km/s) = 2.90860 3.50737 3.22193
# Velocity P-wave (km/s) = 6.28660 7.18241 6.74938
#
# Compressibility (1/GPa) = 0.01892089
#
# Stress axis : x y z
#
# Youngs Moduli (GPa) = 47.60444 89.07747 70.86615
#
# Poissons Ratio (x) = 0.05313 0.53533
# Poissons Ratio (y) = 0.02840 0.39407
# Poissons Ratio (z) = 0.35961 0.49535
#
# Static dielectric constant tensor:
#      x y z
#    x 1.534420 0.000000 0.000180 
#    y 0.000000 1.635910 0.000000 
#    z 0.000180 0.000000 1.682510 
# 
# From -- ./inp_files/333840.got.cif
#   From: 2010.05.17/outbox.cif.g08.bks.cpg/sg12_167_cif.got.tgz:333840.got - 2010.06.03 13:09:07.
