data_PCOD9200456
_publ_section_title
;
Structure prediction by ZEFSAII (Michael W. Deem and Ramdas Pophale) SiO2 
 PCOD9200456
Probable space group: C 2/M
;
_chemical_formula_sum "Si O2"
_cell_formula_units_Z 56
_cell_length_a 22.219286
_cell_length_b 7.676195
_cell_length_c 20.262032
_cell_angle_alpha 90.000000
_cell_angle_beta 134.363600
_cell_angle_gamma 90.000000
_cell_volume 2470.669978
_symmetry_space_group_name_H-M "C 2/M"
_symmetry_group_IT_number 12
_symmetry_cell_setting 'monoclinic'
loop_
_space_group_symop_operation_xyz
x,y,z
-x,y,-z
-x,-y,-z
x,-y,z
1/2+x,1/2+y,z
1/2-x,1/2+y,-z
1/2-x,1/2-y,-z
1/2+x,1/2-y,z
loop_
_atom_site_type_symbol
_atom_site_label
_atom_site_fract_x
_atom_site_fract_y
_atom_site_fract_z
Si Si1 0.488115 0.794122 0.066064
Si Si2 0.492332 0.715822 0.289136
Si Si3 0.674294 0.305977 0.895751
Si Si4 0.617265 0.703312 0.279851
Si Si5 0.251320 0.290205 0.716871
Si Si6 0.058691 0.208550 0.603705
Si Si7 0.194822 0.208932 0.102387
O O1 0.546553 0.713906 0.167406
O O2 0.505206 0.000000 0.078623
O O3 0.500000 0.723992 0.000000
O O4 0.388395 0.764922 0.000479
O O5 0.491033 0.500000 0.288219
O O6 0.414692 0.782118 0.184242
O O7 0.576330 0.774063 0.315663
O O8 0.472565 0.772705 0.348522
O O9 0.654430 0.500000 0.901727
O O10 0.721300 0.296057 0.861509
O O11 0.750000 0.250000 0.000000
O O12 0.633284 0.500000 0.305062
O O13 0.702326 0.779055 0.312931
O O14 0.254235 0.500000 0.716387
O O15 0.155648 0.242959 0.659383
O O16 0.308280 0.238234 0.823550
O O17 0.000000 0.277225 0.500000
O O18 0.049097 0.000000 0.598892
O O19 0.203565 0.000000 0.104373
#
# Coordination Sequence:
#
# PCOD9200456 Si02
#       7
#     8   8   8   8   8   8   8
#     4  11  22  33  49  78 116 157 199 244 289 337
#     4   9  19  36  58  83 112 148 189 238 289 338
#     4  11  21  34  53  80 114 154 196 242 290 340
#     4  10  20  37  58  81 114 155 196 236 285 347
#     4  10  21  36  58  85 112 147 187 235 290 345
#     4  10  21  40  66  90 112 145 190 239 295 358
#     4  11  21  34  52  77 109 152 200 239 284 341
#
# _framework density 22.665917
#
# number of rings (size 3 to 8) (size 9 to 14) (size 15 to 20)
#    0.000    1.714    2.857    2.143    0.000    3.143 
#    0.000    2.143    0.000    0.000    0.000    0.000 
#    0.000    0.000    0.000    0.000    0.000    0.000 
#
# Total GULP energy -156285.844691 kJ/mol
# GULP energy per Si atom -5581.637310 kJ/mol
# Density = 2.261433 g / cm^3
# Si number density = 22.665917 Si / 1000 Ang^3
#
#
#
# Elastic Constant Matrix: (Units=GPa)
#
#
# Indices 1 2 3 4 5 6 
#
# 1 188.8400 -7.0666 54.4222 0.0000 -14.1378 0.0000
# 2 -7.0666 45.7755 -1.7948 0.0000 -7.0836 -0.0001
# 3 54.4222 -1.7948 90.0952 0.0000 -10.0031 0.0000
# 4 0.0000 0.0000 0.0000 9.6376 0.0000 4.1486
# 5 -14.1378 -7.0836 -10.0031 0.0000 21.2444 0.0000
# 6 0.0000 -0.0001 0.0000 4.1486 0.0000 16.7394
#
#
#
# Elastic Compliance Matrix: (Units=1/GPa)
#
#
# Indices 1 2 3 4 5 6 
#
# 1 0.006628 0.001370 -0.003626 0.000000 0.003161 0.000000
# 2 0.001370 0.023482 0.000644 0.000000 0.009045 0.000000
# 3 -0.003626 0.000644 0.013779 0.000000 0.004290 0.000000
# 4 0.000000 0.000000 0.000000 0.116152 0.000000 -0.028787
# 5 0.003161 0.009045 0.004290 0.000000 0.054210 0.000000
# 6 0.000000 0.000000 0.000000 -0.028787 0.000000 0.066874
#
#
# Mechanical properties :
#
#
# Convention : Reuss Voigt Hill
#
# Bulk Modulus (GPa) = 24.58996 46.20358 35.39677
# Shear Modulus (GPa) = 16.78403 28.13430 22.45916
#
# Velocity S-wave (km/s) = 2.72416 3.52697 3.15124
# Velocity P-wave (km/s) = 4.55710 6.08399 5.37504
#
# Compressibility (1/GPa) = 0.04066701
#
# Stress axis : x y z
#
# Youngs Moduli (GPa) = 150.86919 42.58540 72.57669
#
# Poissons Ratio (x) = -0.05835 0.26313
# Poissons Ratio (y) = -0.20672 -0.04677
# Poissons Ratio (z) = 0.54699 -0.02744
#
# Static dielectric constant tensor:
#      x y z
#    x 1.955630 0.000000 -0.030590 
#    y 0.000000 1.847710 0.000000 
#    z -0.030590 0.000000 1.830390 
# 
# From -- ./inp_files/320205.got.cif
#   From: 2010.05.17/outbox.cif.g08.bks.cpg/sg12_161_cif.got.tgz:320205.got - 2010.06.03 13:09:07.
