data_PCOD9200832
_publ_section_title
;
Structure prediction by ZEFSAII (Michael W. Deem and Ramdas Pophale) SiO2 
 PCOD9200832
Probable space group: C 2/M
;
_chemical_formula_sum "Si O2"
_cell_formula_units_Z 48
_cell_length_a 9.551643
_cell_length_b 18.361992
_cell_length_c 27.420674
_cell_angle_alpha 90.000000
_cell_angle_beta 150.725316
_cell_angle_gamma 90.000000
_cell_volume 2351.701896
_symmetry_space_group_name_H-M "C 2/M"
_symmetry_group_IT_number 12
_symmetry_cell_setting 'monoclinic'
loop_
_space_group_symop_operation_xyz
x,y,z
-x,y,-z
-x,-y,-z
x,-y,z
1/2+x,1/2+y,z
1/2-x,1/2+y,-z
1/2-x,1/2-y,-z
1/2+x,1/2-y,z
loop_
_atom_site_type_symbol
_atom_site_label
_atom_site_fract_x
_atom_site_fract_y
_atom_site_fract_z
Si Si1 0.215373 0.237359 0.198964
Si Si2 0.319680 0.672096 0.710107
Si Si3 0.178017 0.584865 0.405302
Si Si4 0.655115 0.915877 0.799212
Si Si5 0.836029 0.373390 0.091908
Si Si6 0.138562 0.581693 0.090093
O O1 0.513783 0.277157 0.276849
O O2 0.236482 0.223901 0.261960
O O3 0.170849 0.160145 0.157710
O O4 0.955292 0.293642 0.114261
O O5 0.570267 0.618165 0.804148
O O6 0.027963 0.626311 0.618972
O O7 0.500000 0.614244 0.500000
O O8 0.190333 0.500000 0.423211
O O9 0.046589 0.587225 0.310292
O O10 0.532167 0.902729 0.816633
O O11 0.773052 0.000000 0.835019
O O12 0.926803 0.418110 0.071827
O O13 0.500000 0.375759 0.000000
O O14 0.214968 0.500000 0.098944
O O15 0.000000 0.617762 0.000000
#
# Coordination Sequence:
#
# PCOD9200832 Si02
#       6
#     8   8   8   8   8   8
#     4  10  21  39  59  85 121 159 207 249 301 364
#     4  10  20  37  60  83 121 159 202 251 304 360
#     4   9  19  37  65  96 123 158 204 252 310 369
#     4  10  21  39  62  86 119 160 201 252 304 361
#     4  11  24  39  62  86 124 165 207 248 307 366
#     4  10  23  38  56  86 122 160 207 253 300 359
#
# _framework density 20.41075
#
# number of rings (size 3 to 8) (size 9 to 14) (size 15 to 20)
#    0.000    2.000    1.667    1.000    4.667    3.333 
#    0.000    3.333    0.000    3.500    0.000   15.167 
#    0.000    0.000    0.000    0.000    0.000    0.000 
#
# Total GULP energy -133612.180845 kJ/mol
# GULP energy per Si atom -5567.174202 kJ/mol
# Density = 2.036429 g / cm^3
# Si number density = 20.410750 Si / 1000 Ang^3
#
#
#
# Elastic Constant Matrix: (Units=GPa)
#
#
# Indices 1 2 3 4 5 6 
#
# 1 114.8914 14.4829 28.8323 0.0002 26.6228 0.0002
# 2 14.4829 105.2426 28.7874 0.0019 16.5043 0.0005
# 3 28.8323 28.7874 59.2879 0.0069 33.3910 0.0011
# 4 0.0002 0.0019 0.0069 16.4661 -0.0008 -12.3323
# 5 26.6228 16.5043 33.3910 -0.0008 37.0618 -0.0002
# 6 0.0002 0.0005 0.0011 -12.3323 -0.0002 6.0008
#
#
#
# Elastic Compliance Matrix: (Units=1/GPa)
#
#
# Indices 1 2 3 4 5 6 
#
# 1 0.010531 -0.000037 -0.001730 0.000000 -0.005989 -0.000001
# 2 -0.000037 0.010958 -0.005216 -0.000002 -0.000154 -0.000004
# 3 -0.001730 -0.005216 0.037015 0.000041 -0.029783 0.000076
# 4 0.000000 -0.000002 0.000041 -0.112636 -0.000039 -0.231480
# 5 -0.005989 -0.000154 -0.029783 -0.000039 0.058186 -0.000073
# 6 -0.000001 -0.000004 0.000076 -0.231480 -0.000073 -0.309072
#
#
# Mechanical properties :
#
#
# Convention : Reuss Voigt Hill
#
# Bulk Modulus (GPa) = 22.45303 47.06969 34.76136
# Shear Modulus (GPa) = -18.10231 25.72702 3.81235
#
# Velocity S-wave (km/s) = -2.98132 3.55415 1.36816
# Velocity P-wave (km/s) = 0.90914 6.32091 4.42309
#
# Compressibility (1/GPa) = 0.04453742
#
# Stress axis : x y z
#
# Youngs Moduli (GPa) = 94.96197 91.25911 27.01635
#
# Poissons Ratio (x) = 0.00335 0.04674
# Poissons Ratio (y) = 0.00348 0.14092
# Poissons Ratio (z) = 0.16429 0.47601
#
# Static dielectric constant tensor:
#      x y z
#    x 1.790430 0.000000 0.065860 
#    y 0.000000 1.832220 -0.000010 
#    z 0.065860 -0.000010 1.914900 
# 
# From -- ./inp_files/373037.got.cif
#   From: 2010.05.17/outbox.cif.g08.bks.cpg/sg12_187_cif.got.tgz:373037.got - 2010.06.03 13:09:07.
