data_PCOD9200641
_publ_section_title
;
Structure prediction by ZEFSAII (Michael W. Deem and Ramdas Pophale) SiO2 
 PCOD9200641
Probable space group: C 2/M
;
_chemical_formula_sum "Si O2"
_cell_formula_units_Z 56
_cell_length_a 27.820578
_cell_length_b 9.573221
_cell_length_c 18.015530
_cell_angle_alpha 90.000000
_cell_angle_beta 141.739086
_cell_angle_gamma 90.000000
_cell_volume 2971.205935
_symmetry_space_group_name_H-M "C 2/M"
_symmetry_group_IT_number 12
_symmetry_cell_setting 'monoclinic'
loop_
_space_group_symop_operation_xyz
x,y,z
-x,y,-z
-x,-y,-z
x,-y,z
1/2+x,1/2+y,z
1/2-x,1/2+y,-z
1/2-x,1/2-y,-z
1/2+x,1/2-y,z
loop_
_atom_site_type_symbol
_atom_site_label
_atom_site_fract_x
_atom_site_fract_y
_atom_site_fract_z
Si Si1 0.346077 0.661091 0.426313
Si Si2 0.925685 0.165914 0.101735
Si Si3 0.715002 0.831447 0.386020
Si Si4 0.607948 0.159518 0.659427
Si Si5 0.262403 0.341995 0.943343
Si Si6 0.464092 0.832117 0.874917
Si Si7 0.017823 0.839405 0.665577
O O1 0.336379 0.500000 0.389880
O O2 0.273025 0.699447 0.387942
O O3 0.364473 0.758132 0.379337
O O4 0.426031 0.667876 0.569723
O O5 0.940292 0.194204 0.206680
O O6 0.982466 0.254851 0.120153
O O7 0.938286 0.000000 0.104094
O O8 0.835204 0.202486 0.981093
O O9 0.750000 0.750000 0.500000
O O10 0.626480 0.796528 0.253273
O O11 0.717933 0.000000 0.403235
O O12 0.683512 0.157311 0.802884
O O13 0.543353 0.239733 0.629584
O O14 0.586504 0.000000 0.616641
O O15 0.281364 0.500000 0.990545
O O16 0.250000 0.250000 0.000000
O O17 0.470141 0.000000 0.875022
O O18 0.500000 0.796502 0.000000
O O19 0.035987 0.000000 0.666371
#
# Coordination Sequence:
#
# PCOD9200641 Si02
#       7
#     8   8   8   8   8   8   8
#     4  10  22  38  59  84 112 152 195 232 280 344
#     4  10  21  38  61  86 114 152 195 237 285 344
#     4  10  22  42  65  89 118 155 201 248 297 354
#     4  11  23  36  54  85 120 150 187 235 287 339
#     4  10  21  37  57  84 116 151 192 233 280 343
#     4  10  23  41  61  90 123 154 194 248 305 355
#     4  10  20  37  59  83 113 152 195 232 276 342
#
# _framework density 18.847567000000002
#
# number of rings (size 3 to 8) (size 9 to 14) (size 15 to 20)
#    0.000    1.857    1.429    1.714    2.000    6.571 
#    0.000    0.000    0.000    0.000    0.000    0.000 
#    0.000    0.000    0.000    0.000    0.000    0.000 
#
# Total GULP energy -156216.482918 kJ/mol
# GULP energy per Si atom -5579.160104 kJ/mol
# Density = 1.880467 g / cm^3
# Si number density = 18.847567 Si / 1000 Ang^3
#
#
#
# Elastic Constant Matrix: (Units=GPa)
#
#
# Indices 1 2 3 4 5 6 
#
# 1 148.4168 67.0325 53.4602 0.0000 23.5252 0.0000
# 2 67.0325 62.1172 36.5717 0.0000 3.3640 0.0000
# 3 53.4602 36.5717 97.7311 0.0000 13.8864 0.0000
# 4 0.0000 0.0000 0.0000 27.0588 0.0000 -3.1509
# 5 23.5252 3.3640 13.8864 0.0000 34.5622 0.0000
# 6 0.0000 0.0000 0.0000 -3.1509 0.0000 39.3916
#
#
#
# Elastic Compliance Matrix: (Units=1/GPa)
#
#
# Indices 1 2 3 4 5 6 
#
# 1 0.015658 -0.015526 -0.001543 0.000000 -0.008526 0.000000
# 2 -0.015526 0.036087 -0.006378 0.000000 0.009618 0.000000
# 3 -0.001543 -0.006378 0.014026 0.000000 -0.003964 0.000000
# 4 0.000000 0.000000 0.000000 0.037304 0.000000 0.002984
# 5 -0.008526 0.009618 -0.003964 0.000000 0.035393 0.000000
# 6 0.000000 0.000000 0.000000 0.002984 0.000000 0.025625
#
#
# Mechanical properties :
#
#
# Convention : Reuss Voigt Hill
#
# Bulk Modulus (GPa) = 52.97568 69.15486 61.06527
# Shear Modulus (GPa) = 23.01177 30.28256 26.64717
#
# Velocity S-wave (km/s) = 3.49799 4.01273 3.76417
# Velocity P-wave (km/s) = 6.66956 7.63155 7.16672
#
# Compressibility (1/GPa) = 0.01887659
#
# Stress axis : x y z
#
# Youngs Moduli (GPa) = 63.86690 27.71057 71.29466
#
# Poissons Ratio (x) = 0.43024 0.11004
# Poissons Ratio (y) = 0.99160 0.45470
# Poissons Ratio (z) = 0.09858 0.17673
#
# Static dielectric constant tensor:
#      x y z
#    x 1.612250 0.000000 0.023930 
#    y 0.000000 1.650960 0.000000 
#    z 0.023930 0.000000 1.699800 
# 
# From -- ./inp_files/288463.got.cif
#   From: 2010.05.17/outbox.cif.g08.bks.cpg/sg12_145_cif.got.tgz:288463.got - 2010.06.03 13:09:07.
