data_PCOD9200577
_publ_section_title
;
Structure prediction by ZEFSAII (Michael W. Deem and Ramdas Pophale) SiO2 
 PCOD9200577
Probable space group: C 2/M
;
_chemical_formula_sum "Si O2"
_cell_formula_units_Z 40
_cell_length_a 28.004369
_cell_length_b 8.468085
_cell_length_c 32.790096
_cell_angle_alpha 90.000000
_cell_angle_beta 163.686682
_cell_angle_gamma 90.000000
_cell_volume 2184.186202
_symmetry_space_group_name_H-M "C 2/M"
_symmetry_group_IT_number 12
_symmetry_cell_setting 'monoclinic'
loop_
_space_group_symop_operation_xyz
x,y,z
-x,y,-z
-x,-y,-z
x,-y,z
1/2+x,1/2+y,z
1/2-x,1/2+y,-z
1/2-x,1/2-y,-z
1/2+x,1/2-y,z
loop_
_atom_site_type_symbol
_atom_site_label
_atom_site_fract_x
_atom_site_fract_y
_atom_site_fract_z
Si Si1 0.404393 0.811191 0.653970
Si Si2 0.917159 0.691948 0.757448
Si Si3 0.000547 0.811236 0.047290
Si Si4 0.191406 0.191221 0.647280
Si Si5 0.271272 0.811205 0.930488
O O1 0.250000 0.750000 0.500000
O O2 0.396228 0.751650 0.694172
O O3 0.586853 0.761014 0.786007
O O4 0.394861 0.000000 0.647115
O O5 0.921495 0.500000 0.760090
O O6 0.763801 0.736977 0.662096
O O7 0.092925 0.742719 0.923473
O O8 0.177281 0.761874 0.212855
O O9 0.981386 0.000000 0.032852
O O10 0.000000 0.758724 0.000000
O O11 0.854348 0.735940 0.955511
O O12 0.000000 0.240461 0.500000
O O13 0.199973 0.000000 0.656785
O O14 0.259388 0.000000 0.923095
#
# Coordination Sequence:
#
# PCOD9200577 Si02
#       5
#     8   8   8   8   8
#     4  11  22  36  53  78 112 144 177 220 269 317
#     4   8  17  34  55  78 105 139 179 220 261 311
#     4  10  21  36  54  80 112 142 174 214 264 321
#     4   9  18  34  56  81 107 139 181 222 261 309
#     4  10  20  37  59  80 102 136 183 225 266 316
#
# _framework density 18.313457
#
# number of rings (size 3 to 8) (size 9 to 14) (size 15 to 20)
#    0.000    2.400    0.000    3.600    0.000    3.600 
#    0.000   11.000    0.000    0.000    0.000    0.000 
#    0.000    0.000    0.000    0.000    0.000    0.000 
#
# Total GULP energy -111613.388692 kJ/mol
# GULP energy per Si atom -5580.669435 kJ/mol
# Density = 1.827177 g / cm^3
# Si number density = 18.313457 Si / 1000 Ang^3
#
#
#
# Elastic Constant Matrix: (Units=GPa)
#
#
# Indices 1 2 3 4 5 6 
#
# 1 170.5270 27.3060 106.3019 0.0007 -13.1176 -0.0011
# 2 27.3060 31.8076 26.6855 -0.0049 -1.0170 -0.0078
# 3 106.3019 26.6855 152.9756 -0.0005 16.1900 -0.0313
# 4 0.0007 -0.0049 -0.0005 27.7296 0.0028 -10.8857
# 5 -13.1176 -1.0170 16.1900 0.0028 20.7984 0.0018
# 6 -0.0011 -0.0078 -0.0313 -10.8857 0.0018 -20.2222
#
#
#
# Elastic Compliance Matrix: (Units=1/GPa)
#
#
# Indices 1 2 3 4 5 6 
#
# 1 0.015389 -0.002251 -0.012333 0.000004 0.019196 0.000018
# 2 -0.002251 0.038237 -0.005617 0.000003 0.004822 -0.000007
# 3 -0.012333 -0.005617 0.018460 -0.000007 -0.022422 -0.000024
# 4 0.000004 0.000003 -0.000007 0.029771 0.000006 -0.016026
# 5 0.019196 0.004822 -0.022422 0.000006 0.077877 0.000035
# 6 0.000018 -0.000007 -0.000024 -0.016026 0.000035 -0.040824
#
#
# Mechanical properties :
#
#
# Convention : Reuss Voigt Hill
#
# Bulk Modulus (GPa) = 31.55944 75.09966 53.32955
# Shear Modulus (GPa) = 26.33330 18.66230 22.49780
#
# Velocity S-wave (km/s) = 3.79611 3.19572 3.50878
# Velocity P-wave (km/s) = 6.04022 7.39687 6.75270
#
# Compressibility (1/GPa) = 0.03168624
#
# Stress axis : x y z
#
# Youngs Moduli (GPa) = 64.98098 26.15235 54.17172
#
# Poissons Ratio (x) = 0.05886 0.66809
# Poissons Ratio (y) = 0.14625 0.30427
# Poissons Ratio (z) = 0.80140 0.14689
#
# Static dielectric constant tensor:
#      x y z
#    x 1.634210 0.000000 -0.001180 
#    y 0.000000 1.625070 0.000000 
#    z -0.001180 0.000000 1.595290 
# 
# From -- ./inp_files/92800.got.cif
#   From: 2010.05.17/outbox.cif.g08.bks.cpg/sg12_47_cif.got.tgz:92800.got - 2010.06.03 13:09:07.
