data_PCOD9200386
_publ_section_title
;
Structure prediction by ZEFSAII (Michael W. Deem and Ramdas Pophale) SiO2 
 PCOD9200386
Probable space group: C 2/M
;
_chemical_formula_sum "Si O2"
_cell_formula_units_Z 48
_cell_length_a 8.784220
_cell_length_b 13.285871
_cell_length_c 20.701261
_cell_angle_alpha 90.000000
_cell_angle_beta 88.274489
_cell_angle_gamma 90.000000
_cell_volume 2414.866138
_symmetry_space_group_name_H-M "C 2/M"
_symmetry_group_IT_number 12
_symmetry_cell_setting 'monoclinic'
loop_
_space_group_symop_operation_xyz
x,y,z
-x,y,-z
-x,-y,-z
x,-y,z
1/2+x,1/2+y,z
1/2-x,1/2+y,-z
1/2-x,1/2-y,-z
1/2+x,1/2-y,z
loop_
_atom_site_type_symbol
_atom_site_label
_atom_site_fract_x
_atom_site_fract_y
_atom_site_fract_z
Si Si1 0.515016 0.617872 0.922599
Si Si2 0.618824 0.707894 0.548049
Si Si3 0.031236 0.692788 0.758993
Si Si4 0.224286 0.739903 0.147682
Si Si5 0.499528 0.383678 0.668538
Si Si6 0.348978 0.111207 0.369803
O O1 0.503995 0.500000 0.904097
O O2 0.673615 0.667003 0.897270
O O3 0.385458 0.686761 0.891216
O O4 0.500000 0.624020 0.000000
O O5 0.500000 0.661148 0.500000
O O6 0.750000 0.750000 0.500000
O O7 0.624683 0.635522 0.610322
O O8 0.568799 0.810604 0.584475
O O9 0.164309 0.693498 0.809690
O O10 0.024645 0.803843 0.725361
O O11 0.069255 0.619269 0.700200
O O12 0.877207 0.677495 0.800156
O O13 0.500973 0.500000 0.688967
O O14 0.329782 0.362313 0.640928
O O15 0.353216 0.000000 0.396860
#
# Coordination Sequence:
#
# PCOD9200386 Si02
#       6
#     8   8   8   8   8   8
#     4  10  22  41  64  92 127 167 209 251 298 352
#     4  11  22  38  56  79 109 142 187 240 287 349
#     4  10  20  37  57  88 120 150 190 246 299 351
#     4  10  21  37  63  91 124 161 203 249 300 358
#     4  10  21  37  60  82 109 152 192 237 298 358
#     4  10  21  36  56  81 112 148 185 238 298 349
#
# _framework density 19.876878000000001
#
# number of rings (size 3 to 8) (size 9 to 14) (size 15 to 20)
#    0.000    1.833    3.333    0.500    0.000    5.333 
#    0.000    4.167    0.000    9.000    0.000    0.000 
#    0.000    0.000    0.000    0.000    0.000    0.000 
#
# Total GULP energy -133795.113660 kJ/mol
# GULP energy per Si atom -5574.796403 kJ/mol
# Density = 1.983164 g / cm^3
# Si number density = 19.876878 Si / 1000 Ang^3
#
#
#
# Elastic Constant Matrix: (Units=GPa)
#
#
# Indices 1 2 3 4 5 6 
#
# 1 54.8587 16.8140 28.0215 0.0000 -19.2844 0.0000
# 2 16.8140 94.3874 24.4985 0.0000 3.1776 0.0000
# 3 28.0215 24.4985 112.3668 0.0000 -24.8424 0.0000
# 4 0.0000 0.0000 0.0000 5.6939 0.0000 1.2819
# 5 -19.2844 3.1776 -24.8424 0.0000 34.8651 0.0000
# 6 0.0000 0.0000 0.0000 1.2819 0.0000 17.5321
#
#
#
# Elastic Compliance Matrix: (Units=1/GPa)
#
#
# Indices 1 2 3 4 5 6 
#
# 1 0.025255 -0.004242 -0.002611 0.000000 0.012495 0.000000
# 2 -0.004242 0.012269 -0.002829 0.000000 -0.005480 0.000000
# 3 -0.002611 -0.002829 0.011757 0.000000 0.007191 0.000000
# 4 0.000000 0.000000 0.000000 0.178566 0.000000 -0.013056
# 5 0.012495 -0.005480 0.007191 0.000000 0.041216 0.000000
# 6 0.000000 0.000000 0.000000 -0.013056 0.000000 0.057993
#
#
# Mechanical properties :
#
#
# Convention : Reuss Voigt Hill
#
# Bulk Modulus (GPa) = 33.42426 44.47565 38.94995
# Shear Modulus (GPa) = 14.02954 24.43682 19.23318
#
# Velocity S-wave (km/s) = 2.65961 3.51010 3.11403
# Velocity P-wave (km/s) = 5.12675 6.23313 5.70681
#
# Compressibility (1/GPa) = 0.02991839
#
# Stress axis : x y z
#
# Youngs Moduli (GPa) = 39.59672 81.50674 85.05607
#
# Poissons Ratio (x) = 0.34574 0.22205
# Poissons Ratio (y) = 0.16796 0.24059
# Poissons Ratio (z) = 0.10337 0.23055
#
# Static dielectric constant tensor:
#      x y z
#    x 1.761850 0.000000 -0.038120 
#    y 0.000000 1.671470 0.000000 
#    z -0.038120 0.000000 1.704870 
# 
# From -- ./inp_files/255795.got.cif
#   From: 2010.05.17/outbox.cif.g08.bks.cpg/sg12_128_cif.got.tgz:255795.got - 2010.06.03 13:09:07.
