data_PCOD9200710
_publ_section_title
;
Structure prediction by ZEFSAII (Michael W. Deem and Ramdas Pophale) SiO2 
 PCOD9200710
Probable space group: C 2/M
;
_chemical_formula_sum "Si O2"
_cell_formula_units_Z 42
_cell_length_a 20.172437
_cell_length_b 19.037878
_cell_length_c 17.573906
_cell_angle_alpha 90.000000
_cell_angle_beta 160.043484
_cell_angle_gamma 90.000000
_cell_volume 2303.510750
_symmetry_space_group_name_H-M "C 2/M"
_symmetry_group_IT_number 12
_symmetry_cell_setting 'monoclinic'
loop_
_space_group_symop_operation_xyz
x,y,z
-x,y,-z
-x,-y,-z
x,-y,z
1/2+x,1/2+y,z
1/2-x,1/2+y,-z
1/2-x,1/2-y,-z
1/2+x,1/2-y,z
loop_
_atom_site_type_symbol
_atom_site_label
_atom_site_fract_x
_atom_site_fract_y
_atom_site_fract_z
Si Si1 0.329618 0.233480 0.261255
Si Si2 0.500000 0.000000 0.000000
Si Si3 0.203439 0.918293 0.941179
Si Si4 0.528100 0.192139 0.322888
Si Si5 0.526522 0.684155 0.200686
Si Si6 0.800993 0.103741 0.243262
O O1 0.500000 0.205979 0.500000
O O2 0.426352 0.233667 0.281824
O O3 0.277569 0.312520 0.228856
O O4 0.132361 0.189569 0.037583
O O5 0.624329 0.939217 0.087710
O O6 0.041180 0.876265 0.813968
O O7 0.173492 0.911221 0.818604
O O8 0.208408 0.000000 0.967031
O O9 0.403548 0.877653 0.175164
O O10 0.517550 0.241994 0.237511
O O11 0.750869 0.176052 0.582229
O O12 0.000000 0.083543 0.500000
#
# Coordination Sequence:
#
# PCOD9200710 Si02
#       6
#     8   2   8   8   8   8
#     4  10  20  37  60  84 116 147 189 246 301 341
#     4  12  26  36  48  78 128 172 206 216 264 352
#     4  11  21  38  57  81 120 159 196 241 296 344
#     4  10  20  37  59  86 111 149 205 252 288 345
#     4  10  20  37  61  86 110 150 205 254 289 344
#     4  11  23  38  52  80 122 165 199 233 278 340
#
# _framework density 18.233039000000002
#
# number of rings (size 3 to 8) (size 9 to 14) (size 15 to 20)
#    0.000    1.524    4.762    1.429    0.000    6.095 
#    0.000    0.000    0.000    9.143    0.000   10.667 
#    0.000    0.000    0.000    0.000    0.000    0.000 
#
# Total GULP energy -116940.108104 kJ/mol
# GULP energy per Si atom -5568.576576 kJ/mol
# Density = 1.819154 g / cm^3
# Si number density = 18.233039 Si / 1000 Ang^3
#
#
#
# Elastic Constant Matrix: (Units=GPa)
#
#
# Indices 1 2 3 4 5 6 
#
# 1 37.7371 26.0577 37.6877 0.0013 8.7490 -0.0004
# 2 26.0577 100.4472 36.3310 0.0009 13.0811 0.0000
# 3 37.6877 36.3310 123.3407 0.0019 6.2795 0.0001
# 4 0.0013 0.0009 0.0019 12.8704 0.0015 -3.6304
# 5 8.7490 13.0811 6.2795 0.0015 32.7168 -0.0002
# 6 -0.0004 0.0000 0.0001 -3.6304 -0.0002 31.0635
#
#
#
# Elastic Compliance Matrix: (Units=1/GPa)
#
#
# Indices 1 2 3 4 5 6 
#
# 1 0.043601 -0.006393 -0.011084 -0.000001 -0.006976 0.000000
# 2 -0.006393 0.012585 -0.001600 0.000000 -0.003015 0.000000
# 3 -0.011084 -0.001600 0.011899 -0.000001 0.001320 0.000000
# 4 -0.000001 0.000000 -0.000001 0.080347 -0.000003 0.009390
# 5 -0.006976 -0.003015 0.001320 -0.000003 0.033383 0.000000
# 6 0.000000 0.000000 0.000000 0.009390 0.000000 0.033290
#
#
# Mechanical properties :
#
#
# Convention : Reuss Voigt Hill
#
# Bulk Modulus (GPa) = 33.41171 51.29753 42.35462
# Shear Modulus (GPa) = 18.99438 26.09336 22.54387
#
# Velocity S-wave (km/s) = 3.23113 3.78710 3.52010
# Velocity P-wave (km/s) = 5.68197 6.87883 6.30885
#
# Compressibility (1/GPa) = 0.02992963
#
# Stress axis : x y z
#
# Youngs Moduli (GPa) = 22.93539 79.45706 84.04342
#
# Poissons Ratio (x) = 0.50799 0.93156
# Poissons Ratio (y) = 0.14663 0.13448
# Poissons Ratio (z) = 0.25422 0.12714
#
# Static dielectric constant tensor:
#      x y z
#    x 1.617900 0.000000 -0.024360 
#    y 0.000000 1.554750 0.000000 
#    z -0.024360 0.000000 1.663610 
# 
# From -- ./inp_files/285090.got.cif
#   From: 2010.05.17/outbox.cif.g08.bks.cpg/sg12_143_cif.got.tgz:285090.got - 2010.06.03 13:09:07.
