data_PCOD9200583
_publ_section_title
;
Structure prediction by ZEFSAII (Michael W. Deem and Ramdas Pophale) SiO2 
 PCOD9200583
Probable space group: C 2/M
;
_chemical_formula_sum "Si O2"
_cell_formula_units_Z 48
_cell_length_a 16.465293
_cell_length_b 8.325134
_cell_length_c 17.371409
_cell_angle_alpha 90.000000
_cell_angle_beta 89.114975
_cell_angle_gamma 90.000000
_cell_volume 2380.915206
_symmetry_space_group_name_H-M "C 2/M"
_symmetry_group_IT_number 12
_symmetry_cell_setting 'monoclinic'
loop_
_space_group_symop_operation_xyz
x,y,z
-x,y,-z
-x,-y,-z
x,-y,z
1/2+x,1/2+y,z
1/2-x,1/2+y,-z
1/2-x,1/2-y,-z
1/2+x,1/2-y,z
loop_
_atom_site_type_symbol
_atom_site_label
_atom_site_fract_x
_atom_site_fract_y
_atom_site_fract_z
Si Si1 0.502602 0.194284 0.088729
Si Si2 0.413407 0.805496 0.663796
Si Si3 0.341638 0.190589 0.503342
Si Si4 0.157433 0.194561 0.818912
Si Si5 0.406923 0.309946 0.341505
Si Si6 0.336242 0.804945 0.824082
O O1 0.421033 0.248082 0.133294
O O2 0.585969 0.251845 0.128230
O O3 0.503999 0.000000 0.090946
O O4 0.500000 0.245992 0.000000
O O5 0.383411 0.747520 0.580885
O O6 0.500697 0.731639 0.679908
O O7 0.353251 0.765528 0.734429
O O8 0.421654 0.000000 0.662077
O O9 0.250000 0.250000 0.500000
O O10 0.386304 0.235571 0.424083
O O11 0.341048 0.000000 0.510201
O O12 0.146828 0.246478 0.729899
O O13 0.245695 0.249730 0.847783
O O14 0.156576 0.000000 0.819648
O O15 0.395583 0.500000 0.348974
O O16 0.336072 0.000000 0.829623
#
# Coordination Sequence:
#
# PCOD9200583 Si02
#       6
#     8   8   8   8   8   8
#     4  10  21  38  61  88 116 148 190 240 292 349
#     4  10  20  37  59  80 109 155 199 232 286 354
#     4  11  23  37  55  81 113 152 199 242 288 346
#     4  10  21  38  60  85 115 156 196 233 285 352
#     4  11  22  36  56  83 115 149 195 245 291 340
#     4   9  18  36  60  82 114 155 190 230 288 347
#
# _framework density 20.160315000000001
#
# number of rings (size 3 to 8) (size 9 to 14) (size 15 to 20)
#    0.000    1.833    1.667    2.500    0.000    7.667 
#    0.000    1.667    0.000    0.000    0.000    0.000 
#    0.000    0.000    0.000    0.000    0.000    0.000 
#
# Total GULP energy -134021.100978 kJ/mol
# GULP energy per Si atom -5584.212541 kJ/mol
# Density = 2.011443 g / cm^3
# Si number density = 20.160315 Si / 1000 Ang^3
#
#
#
# Elastic Constant Matrix: (Units=GPa)
#
#
# Indices 1 2 3 4 5 6 
#
# 1 161.9035 5.4018 63.3008 0.0000 16.1982 0.0000
# 2 5.4018 7.5699 12.7749 0.0000 4.4357 0.0000
# 3 63.3008 12.7749 126.8134 0.0000 13.0700 0.0000
# 4 0.0000 0.0000 0.0000 18.0592 0.0000 -6.4960
# 5 16.1982 4.4357 13.0700 0.0000 13.3693 0.0000
# 6 0.0000 0.0000 0.0000 -6.4960 0.0000 31.2028
#
#
#
# Elastic Compliance Matrix: (Units=1/GPa)
#
#
# Indices 1 2 3 4 5 6 
#
# 1 0.008312 0.005292 -0.003851 0.000000 -0.008062 0.000000
# 2 0.005292 0.186059 -0.015971 0.000000 -0.052529 0.000000
# 3 -0.003851 -0.015971 0.011554 0.000000 -0.001330 0.000000
# 4 0.000000 0.000000 0.000000 0.059856 0.000000 0.012461
# 5 -0.008062 -0.052529 -0.001330 0.000000 0.103294 0.000000
# 6 0.000000 0.000000 0.000000 0.012461 0.000000 0.034643
#
#
# Mechanical properties :
#
#
# Convention : Reuss Voigt Hill
#
# Bulk Modulus (GPa) = 5.65405 51.02687 28.34046
# Shear Modulus (GPa) = 10.16812 26.84689 18.50750
#
# Velocity S-wave (km/s) = 2.24824 3.65316 3.03317
# Velocity P-wave (km/s) = 3.09032 6.56960 5.13370
#
# Compressibility (1/GPa) = 0.17686443
#
# Stress axis : x y z
#
# Youngs Moduli (GPa) = 120.30270 5.37465 86.54950
#
# Poissons Ratio (x) = -0.02844 0.33334
# Poissons Ratio (y) = -0.63665 1.38227
# Poissons Ratio (z) = 0.46334 0.08584
#
# Static dielectric constant tensor:
#      x y z
#    x 1.708640 0.000000 0.017190 
#    y 0.000000 1.712500 0.000000 
#    z 0.017190 0.000000 1.716230 
# 
# From -- ./inp_files/267621.got.cif
#   From: 2010.05.17/outbox.cif.g08.bks.cpg/sg12_134_cif.got.tgz:267621.got - 2010.06.03 13:09:07.
