data_PCOD9200614
_publ_section_title
;
Structure prediction by ZEFSAII (Michael W. Deem and Ramdas Pophale) SiO2 
 PCOD9200614
Probable space group: C 2/M
;
_chemical_formula_sum "Si O2"
_cell_formula_units_Z 56
_cell_length_a 26.109386
_cell_length_b 8.043737
_cell_length_c 11.822819
_cell_angle_alpha 90.000000
_cell_angle_beta 69.756361
_cell_angle_gamma 90.000000
_cell_volume 2329.618276
_symmetry_space_group_name_H-M "C 2/M"
_symmetry_group_IT_number 12
_symmetry_cell_setting 'monoclinic'
loop_
_space_group_symop_operation_xyz
x,y,z
-x,y,-z
-x,-y,-z
x,-y,z
1/2+x,1/2+y,z
1/2-x,1/2+y,-z
1/2-x,1/2-y,-z
1/2+x,1/2-y,z
loop_
_atom_site_type_symbol
_atom_site_label
_atom_site_fract_x
_atom_site_fract_y
_atom_site_fract_z
Si Si1 0.344995 0.692965 0.039181
Si Si2 0.772600 0.800998 0.632744
Si Si3 0.343433 0.699103 0.290608
Si Si4 0.818334 0.198708 0.824960
Si Si5 0.109531 0.303959 0.420417
Si Si6 0.463834 0.194424 0.916824
Si Si7 0.047057 0.802378 0.670691
O O1 0.328071 0.500000 0.062488
O O2 0.315749 0.771057 0.952125
O O3 0.408955 0.700046 0.959122
O O4 0.342303 0.771780 0.164617
O O5 0.718016 0.730273 0.620031
O O6 0.774241 0.745029 0.765446
O O7 0.834098 0.745048 0.556090
O O8 0.771090 0.000000 0.627075
O O9 0.350237 0.500000 0.282876
O O10 0.397682 0.762442 0.309656
O O11 0.875443 0.236900 0.715760
O O12 0.814307 0.000000 0.835953
O O13 0.104916 0.500000 0.418205
O O14 0.059202 0.233621 0.529811
O O15 0.497805 0.220851 0.776092
O O16 0.449476 0.000000 0.938558
O O17 0.500000 0.239882 0.000000
O O18 0.042177 0.000000 0.688610
#
# Coordination Sequence:
#
# PCOD9200614 Si02
#       7
#     8   8   8   8   8   8   8
#     4  10  20  38  61  84 115 150 190 233 279 338
#     4   9  19  36  56  81 115 152 189 228 279 333
#     4  10  21  34  55  87 114 147 191 232 279 335
#     4   8  18  37  58  82 113 150 189 231 279 332
#     4  10  20  37  59  82 113 149 189 235 282 332
#     4  11  23  38  57  86 119 148 185 231 281 334
#     4  11  22  38  60  83 114 150 190 233 282 337
#
# _framework density 24.038274000000001
#
# number of rings (size 3 to 8) (size 9 to 14) (size 15 to 20)
#    0.857    1.286    1.429    2.143    0.000    4.000 
#    0.000    0.714    0.000    4.286    0.000    0.000 
#    0.000    0.000    0.000    0.000    0.000    0.000 
#
# Total GULP energy -156266.112398 kJ/mol
# GULP energy per Si atom -5580.932586 kJ/mol
# Density = 2.398356 g / cm^3
# Si number density = 24.038274 Si / 1000 Ang^3
#
#
#
# Elastic Constant Matrix: (Units=GPa)
#
#
# Indices 1 2 3 4 5 6 
#
# 1 50.2224 -0.4710 12.4480 0.0000 -4.5066 0.0000
# 2 -0.4710 41.2431 -18.8997 0.0000 2.8229 0.0000
# 3 12.4480 -18.8997 78.3059 0.0000 -13.2371 0.0000
# 4 0.0000 0.0000 0.0000 13.9385 0.0000 -9.9208
# 5 -4.5066 2.8229 -13.2371 0.0000 31.8285 0.0000
# 6 0.0000 0.0000 0.0000 -9.9208 0.0000 14.3791
#
#
#
# Elastic Compliance Matrix: (Units=1/GPa)
#
#
# Indices 1 2 3 4 5 6 
#
# 1 0.020887 -0.001425 -0.003381 0.000000 0.001678 0.000000
# 2 -0.001425 0.027362 0.006869 0.000000 0.000228 0.000000
# 3 -0.003381 0.006869 0.015900 0.000000 0.005525 0.000000
# 4 0.000000 0.000000 0.000000 0.140971 0.000000 0.097262
# 5 0.001678 0.000228 0.005525 0.000000 0.033933 0.000000
# 6 0.000000 0.000000 0.000000 0.097262 0.000000 0.136651
#
#
# Mechanical properties :
#
#
# Convention : Reuss Voigt Hill
#
# Bulk Modulus (GPa) = 14.64665 17.32509 15.98587
# Shear Modulus (GPa) = 12.67956 23.80883 18.24420
#
# Velocity S-wave (km/s) = 2.29917 3.15056 2.75792
# Velocity P-wave (km/s) = 3.62692 4.52302 4.09953
#
# Compressibility (1/GPa) = 0.06827500
#
# Stress axis : x y z
#
# Youngs Moduli (GPa) = 47.87772 36.54640 62.89431
#
# Poissons Ratio (x) = 0.05210 0.21263
# Poissons Ratio (y) = 0.06825 -0.43204
# Poissons Ratio (z) = 0.16186 -0.25105
#
# Static dielectric constant tensor:
#      x y z
#    x 1.956660 0.000000 0.057700 
#    y 0.000000 1.826800 0.000000 
#    z 0.057700 0.000000 2.069370 
# 
# From -- ./inp_files/187270.got.cif
#   From: 2010.05.17/outbox.cif.g08.bks.cpg/sg12_94_cif.got.tgz:187270.got - 2010.06.03 13:09:07.
