data_PCOD9200435
_publ_section_title
;
Structure prediction by ZEFSAII (Michael W. Deem and Ramdas Pophale) SiO2 
 PCOD9200435
Probable space group: C 2/M
;
_chemical_formula_sum "Si O2"
_cell_formula_units_Z 44
_cell_length_a 7.083237
_cell_length_b 23.336832
_cell_length_c 11.807678
_cell_angle_alpha 90.000000
_cell_angle_beta 85.285522
_cell_angle_gamma 90.000000
_cell_volume 1945.209190
_symmetry_space_group_name_H-M "C 2/M"
_symmetry_group_IT_number 12
_symmetry_cell_setting 'monoclinic'
loop_
_space_group_symop_operation_xyz
x,y,z
-x,y,-z
-x,-y,-z
x,-y,z
1/2+x,1/2+y,z
1/2-x,1/2+y,-z
1/2-x,1/2-y,-z
1/2+x,1/2-y,z
loop_
_atom_site_type_symbol
_atom_site_label
_atom_site_fract_x
_atom_site_fract_y
_atom_site_fract_z
Si Si1 0.783910 0.000000 0.671552
Si Si2 0.361333 0.565713 0.106667
Si Si3 0.000000 0.606138 0.000000
Si Si4 0.717276 0.816238 0.528800
Si Si5 0.736701 0.500000 0.588213
Si Si6 0.149463 0.373770 0.759396
Si Si7 0.251566 0.380624 0.318233
O O1 0.713837 0.059221 0.735439
O O2 0.712564 0.000000 0.545670
O O3 0.010653 0.000000 0.630102
O O4 0.397727 0.500000 0.137502
O O5 0.395143 0.607861 0.209501
O O6 0.500000 0.580403 0.000000
O O7 0.148678 0.570731 0.068781
O O8 0.131274 0.636365 0.896335
O O9 0.500000 0.829503 0.500000
O O10 0.750000 0.750000 0.500000
O O11 0.754031 0.836767 0.655212
O O12 0.827813 0.850733 0.425835
O O13 0.814643 0.443289 0.640129
O O14 0.934398 0.356350 0.731859
#
# Coordination Sequence:
#
# PCOD9200435 Si02
#       7
#     4   8   4   8   4   8   8
#     4  11  23  30  52  89 121 154 187 227 296 343
#     4  10  21  34  54  84 122 162 191 230 283 346
#     4  10  23  36  54  84 126 152 200 227 280 356
#     4  10  22  41  63  84 107 145 198 248 296 344
#     4  11  21  33  49  89 125 144 187 244 284 346
#     4  10  22  37  58  82 115 159 189 230 288 350
#     4  10  20  37  58  80 113 154 193 234 290 350
#
# _framework density 22.619675000000001
#
# number of rings (size 3 to 8) (size 9 to 14) (size 15 to 20)
#    0.000    1.818    2.727    0.818    7.636    2.182 
#    0.000    0.000    2.000    3.273    0.000    0.000 
#    0.000    0.000    0.000    0.000    0.000    0.000 
#
# Total GULP energy -122574.419623 kJ/mol
# GULP energy per Si atom -5571.564528 kJ/mol
# Density = 2.256819 g / cm^3
# Si number density = 22.619675 Si / 1000 Ang^3
#
#
#
# Elastic Constant Matrix: (Units=GPa)
#
#
# Indices 1 2 3 4 5 6 
#
# 1 67.0446 -10.2972 17.4233 0.0000 -13.4019 0.0000
# 2 -10.2972 83.1359 66.3612 0.0000 -6.9547 0.0000
# 3 17.4233 66.3612 232.6849 0.0000 -13.6739 0.0000
# 4 0.0000 0.0000 0.0000 11.9270 0.0000 -5.1869
# 5 -13.4019 -6.9547 -13.6739 0.0000 34.0583 0.0000
# 6 0.0000 0.0000 0.0000 -5.1869 0.0000 15.9470
#
#
#
# Elastic Compliance Matrix: (Units=1/GPa)
#
#
# Indices 1 2 3 4 5 6 
#
# 1 0.017567 0.004508 -0.002192 0.000000 0.006953 0.000000
# 2 0.004508 0.016799 -0.004939 0.000000 0.003221 0.000000
# 3 -0.002192 -0.004939 0.005900 0.000000 0.000497 0.000000
# 4 0.000000 0.000000 0.000000 0.097657 0.000000 0.031764
# 5 0.006953 0.003221 0.000497 0.000000 0.032955 0.000000
# 6 0.000000 0.000000 0.000000 0.031764 0.000000 0.073039
#
#
# Mechanical properties :
#
#
# Convention : Reuss Voigt Hill
#
# Bulk Modulus (GPa) = 28.55689 58.87110 43.71399
# Shear Modulus (GPa) = 19.16904 33.01168 26.09036
#
# Velocity S-wave (km/s) = 2.91426 3.82438 3.39991
# Velocity P-wave (km/s) = 4.89654 6.75161 5.89747
#
# Compressibility (1/GPa) = 0.03501782
#
# Stress axis : x y z
#
# Youngs Moduli (GPa) = 56.92378 59.52775 169.49988
#
# Poissons Ratio (x) = -0.26832 0.37161
# Poissons Ratio (y) = -0.25659 0.83720
# Poissons Ratio (z) = 0.12480 0.29402
#
# Static dielectric constant tensor:
#      x y z
#    x 2.005660 0.000000 -0.054170 
#    y 0.000000 1.779620 0.000000 
#    z -0.054170 0.000000 1.938240 
# 
# From -- ./inp_files/120774.got.cif
#   From: 2010.05.17/outbox.cif.g08.bks.cpg/sg12_61_cif.got.tgz:120774.got - 2010.06.03 13:09:07.
