data_PCOD9200971
_publ_section_title
;
Structure prediction by ZEFSAII (Michael W. Deem and Ramdas Pophale) SiO2 
 PCOD9200971
Probable space group: C 2/M
;
_chemical_formula_sum "Si O2"
_cell_formula_units_Z 56
_cell_length_a 27.042719
_cell_length_b 11.831927
_cell_length_c 11.433103
_cell_angle_alpha 90.000000
_cell_angle_beta 132.451385
_cell_angle_gamma 90.000000
_cell_volume 2699.219568
_symmetry_space_group_name_H-M "C 2/M"
_symmetry_group_IT_number 12
_symmetry_cell_setting 'monoclinic'
loop_
_space_group_symop_operation_xyz
x,y,z
-x,y,-z
-x,-y,-z
x,-y,z
1/2+x,1/2+y,z
1/2-x,1/2+y,-z
1/2-x,1/2-y,-z
1/2+x,1/2-y,z
loop_
_atom_site_type_symbol
_atom_site_label
_atom_site_fract_x
_atom_site_fract_y
_atom_site_fract_z
Si Si1 0.723771 0.125829 0.051402
Si Si2 0.643451 0.253427 0.742179
Si Si3 0.577162 0.872031 0.160388
Si Si4 0.652957 0.703473 0.109627
Si Si5 0.400079 0.718766 0.586697
Si Si6 0.786185 0.874640 0.565625
Si Si7 0.545623 0.628685 0.750389
O O1 0.801879 0.146709 0.150649
O O2 0.702305 0.223905 0.106828
O O3 0.712403 0.000000 0.078268
O O4 0.678569 0.149118 0.864643
O O5 0.631123 0.242070 0.585603
O O6 0.575380 0.288768 0.698851
O O7 0.616101 0.794644 0.131953
O O8 0.586605 0.821935 0.304216
O O9 0.599999 0.000000 0.190567
O O10 0.500000 0.867181 0.000000
O O11 0.689634 0.624968 0.261271
O O12 0.597802 0.643381 0.941040
O O13 0.348097 0.639105 0.573838
O O14 0.471181 0.660566 0.672666
O O15 0.750000 0.750000 0.500000
O O16 0.754986 0.000000 0.492484
O O17 0.546341 0.500000 0.709474
#
# Coordination Sequence:
#
# PCOD9200971 Si02
#       7
#     8   8   8   8   8   8   8
#     4  10  21  40  64  87 120 165 207 256 312 370
#     4  10  23  39  58  90 122 155 204 255 302 372
#     4  10  20  37  60  87 121 162 204 247 302 369
#     4  10  21  39  62  91 121 157 206 255 311 370
#     4  11  23  40  61  92 125 159 204 255 314 369
#     4  11  25  42  64  93 128 165 211 262 317 378
#     4  11  22  38  62  87 118 157 198 250 310 369
#
# _framework density 20.746737
#
# number of rings (size 3 to 8) (size 9 to 14) (size 15 to 20)
#    0.000    1.571    1.429    3.000    0.000    7.429 
#    0.000    7.143    0.000    2.571    0.000    0.000 
#    0.000    0.000    0.000    0.000    0.000    0.000 
#
# Total GULP energy -156349.216355 kJ/mol
# GULP energy per Si atom -5583.900584 kJ/mol
# Density = 2.069952 g / cm^3
# Si number density = 20.746737 Si / 1000 Ang^3
#
#
#
# Elastic Constant Matrix: (Units=GPa)
#
#
# Indices 1 2 3 4 5 6 
#
# 1 97.3467 21.2283 35.1576 0.0000 5.0996 0.0000
# 2 21.2283 105.4930 15.1939 0.0000 7.3402 0.0000
# 3 35.1576 15.1939 97.9082 0.0000 -15.4770 0.0000
# 4 0.0000 0.0000 0.0000 2.3529 0.0000 2.7827
# 5 5.0996 7.3402 -15.4770 0.0000 42.5663 0.0000
# 6 0.0000 0.0000 0.0000 2.7827 0.0000 -8.8569
#
#
#
# Elastic Compliance Matrix: (Units=1/GPa)
#
#
# Indices 1 2 3 4 5 6 
#
# 1 0.012474 -0.001632 -0.004687 0.000000 -0.002917 0.000000
# 2 -0.001632 0.010137 -0.001308 0.000000 -0.002028 0.000000
# 3 -0.004687 -0.001308 0.012970 0.000000 0.005503 0.000000
# 4 0.000000 0.000000 0.000000 0.309864 0.000000 0.097355
# 5 -0.002917 -0.002028 0.005503 0.000000 0.026193 0.000000
# 6 0.000000 0.000000 0.000000 0.097355 0.000000 -0.082318
#
#
# Mechanical properties :
#
#
# Convention : Reuss Voigt Hill
#
# Bulk Modulus (GPa) = 49.19569 49.32305 49.25937
# Shear Modulus (GPa) = 16.05914 22.49035 19.27474
#
# Velocity S-wave (km/s) = 2.78521 3.29605 3.05134
# Velocity P-wave (km/s) = 5.84013 6.18957 6.01739
#
# Compressibility (1/GPa) = 0.02032698
#
# Stress axis : x y z
#
# Youngs Moduli (GPa) = 80.16613 98.64690 77.10387
#
# Poissons Ratio (x) = 0.16100 0.36140
# Poissons Ratio (y) = 0.13084 0.10082
# Poissons Ratio (z) = 0.37575 0.12900
#
# Static dielectric constant tensor:
#      x y z
#    x 1.760770 0.000000 0.040300 
#    y 0.000000 1.720810 0.000000 
#    z 0.040300 0.000000 1.819250 
# 
# From -- ./inp_files/182603.got.cif
#   From: 2010.05.17/outbox.cif.g08.bks.cpg/sg12_92_cif.got.tgz:182603.got - 2010.06.03 13:09:07.
