data_PCOD9200122
_publ_section_title
;
Structure prediction by ZEFSAII (Michael W. Deem and Ramdas Pophale) SiO2 
 PCOD9200122
Probable space group: C 2/M
;
_chemical_formula_sum "Si O2"
_cell_formula_units_Z 54
_cell_length_a 26.340831
_cell_length_b 11.982611
_cell_length_c 10.347942
_cell_angle_alpha 90.000000
_cell_angle_beta 51.790567
_cell_angle_gamma 90.000000
_cell_volume 2566.386785
_symmetry_space_group_name_H-M "C 2/M"
_symmetry_group_IT_number 12
_symmetry_cell_setting 'monoclinic'
loop_
_space_group_symop_operation_xyz
x,y,z
-x,y,-z
-x,-y,-z
x,-y,z
1/2+x,1/2+y,z
1/2-x,1/2+y,-z
1/2-x,1/2-y,-z
1/2+x,1/2-y,z
loop_
_atom_site_type_symbol
_atom_site_label
_atom_site_fract_x
_atom_site_fract_y
_atom_site_fract_z
Si Si1 0.476562 0.874252 0.750385
Si Si2 0.785741 0.710506 0.754542
Si Si3 0.741696 0.377699 0.564853
Si Si4 0.500000 0.188153 0.000000
Si Si5 0.000000 0.000000 0.500000
Si Si6 0.589121 0.619378 0.795349
Si Si7 0.824774 0.630587 0.973795
Si Si8 0.424077 0.313491 0.478119
O O1 0.497009 0.875277 0.869889
O O2 0.401078 0.838355 0.859731
O O3 0.527198 0.791658 0.603373
O O4 0.480742 0.000000 0.692482
O O5 0.772894 0.628182 0.656841
O O6 0.799527 0.648765 0.867488
O O7 0.850681 0.778340 0.619019
O O8 0.723337 0.791500 0.867553
O O9 0.762452 0.500000 0.471758
O O10 0.750000 0.250000 0.500000
O O11 0.665023 0.382718 0.690776
O O12 0.439934 0.273193 0.091059
O O13 0.052209 0.902677 0.456978
O O14 0.565973 0.500000 0.882673
O O15 0.571517 0.632699 0.672104
O O16 0.819953 0.500000 0.018043
#
# Coordination Sequence:
#
# PCOD9200122 Si02
#       8
#     8   8   8   4   2   8   8   8
#     4  10  22  42  62  94 128 170 213 266 324 396
#     4  11  23  42  64  95 127 171 224 272 334 400
#     4  11  23  40  64  95 132 171 220 274 333 395
#     4  10  20  36  64  90 126 167 213 256 326 390
#     4  12  24  40  62  94 128 168 212 278 332 400
#     4  10  20  38  59  91 129 168 210 268 323 385
#     4  10  23  41  64  89 129 169 216 270 334 395
#     4  11  23  39  65  93 129 165 223 271 329 389
#
# _framework density 21.041255
#
# number of rings (size 3 to 8) (size 9 to 14) (size 15 to 20)
#    0.000    1.481    2.222    2.667    1.037    1.778 
#    0.000    2.593    8.148    0.000    0.000    0.000 
#    0.000    0.000    0.000    0.000    0.000    0.000 
#
# Total GULP energy -150350.022619 kJ/mol
# GULP energy per Si atom -5568.519356 kJ/mol
# Density = 2.099336 g / cm^3
# Si number density = 21.041255 Si / 1000 Ang^3
#
#
#
# Elastic Constant Matrix: (Units=GPa)
#
#
# Indices 1 2 3 4 5 6 
#
# 1 81.2887 30.5254 3.3927 0.0000 -23.0899 0.0000
# 2 30.5254 141.8504 39.8744 0.0000 -23.3203 0.0000
# 3 3.3927 39.8744 45.9077 0.0000 -21.1585 0.0000
# 4 0.0000 0.0000 0.0000 175.3007 0.0000 102.0335
# 5 -23.0899 -23.3203 -21.1585 0.0000 42.7592 0.0000
# 6 0.0000 0.0000 0.0000 102.0335 0.0000 215.0565
#
#
#
# Elastic Compliance Matrix: (Units=1/GPa)
#
#
# Indices 1 2 3 4 5 6 
#
# 1 0.016279 -0.003724 0.006667 0.000000 0.010059 0.000000
# 2 -0.003724 0.010244 -0.009034 0.000000 -0.000895 0.000000
# 3 0.006667 -0.009034 0.036953 0.000000 0.016959 0.000000
# 4 0.000000 0.000000 0.000000 0.007881 0.000000 -0.003739
# 5 0.010059 -0.000895 0.016959 0.000000 0.036722 0.000000
# 6 0.000000 0.000000 0.000000 -0.003739 0.000000 0.006424
#
#
# Mechanical properties :
#
#
# Convention : Reuss Voigt Hill
#
# Bulk Modulus (GPa) = 19.49523 46.29243 32.89383
# Shear Modulus (GPa) = 34.77471 99.64026 67.20748
#
# Velocity S-wave (km/s) = 4.06974 6.88894 5.65775
# Velocity P-wave (km/s) = 5.60081 9.23717 7.63853
#
# Compressibility (1/GPa) = 0.05129459
#
# Stress axis : x y z
#
# Youngs Moduli (GPa) = 61.42833 97.62284 27.06117
#
# Poissons Ratio (x) = 0.36352 -0.18043
# Poissons Ratio (y) = 0.22874 0.24448
# Poissons Ratio (z) = -0.40957 0.88196
#
# Static dielectric constant tensor:
#      x y z
#    x 1.735850 0.000000 0.020200 
#    y 0.000000 1.781630 0.000000 
#    z 0.020200 0.000000 1.765500 
# 
# From -- ./inp_files/182498.got.cif
#   From: 2010.05.17/outbox.cif.g08.bks.cpg/sg12_92_cif.got.tgz:182498.got - 2010.06.03 13:09:07.
