data_PCOD9200492
_publ_section_title
;
Structure prediction by ZEFSAII (Michael W. Deem and Ramdas Pophale) SiO2 
 PCOD9200492
Probable space group: C 2/M
;
_chemical_formula_sum "Si O2"
_cell_formula_units_Z 56
_cell_length_a 11.438203
_cell_length_b 29.560679
_cell_length_c 9.621800
_cell_angle_alpha 90.000000
_cell_angle_beta 115.653120
_cell_angle_gamma 90.000000
_cell_volume 2932.657072
_symmetry_space_group_name_H-M "C 2/M"
_symmetry_group_IT_number 12
_symmetry_cell_setting 'monoclinic'
loop_
_space_group_symop_operation_xyz
x,y,z
-x,y,-z
-x,-y,-z
x,-y,z
1/2+x,1/2+y,z
1/2-x,1/2+y,-z
1/2-x,1/2-y,-z
1/2+x,1/2-y,z
loop_
_atom_site_type_symbol
_atom_site_label
_atom_site_fract_x
_atom_site_fract_y
_atom_site_fract_z
Si Si1 0.019148 0.123197 0.674291
Si Si2 0.292263 0.282207 0.811602
Si Si3 0.564818 0.278410 0.816981
Si Si4 0.877297 0.551590 0.582598
Si Si5 0.266948 0.449256 0.203156
Si Si6 0.160269 0.550629 0.862669
Si Si7 0.244656 0.883838 0.302351
O O1 0.053002 0.174179 0.732739
O O2 0.130369 0.088936 0.773898
O O3 0.000000 0.119898 0.500000
O O4 0.890665 0.109926 0.690063
O O5 0.414363 0.264136 0.778201
O O6 0.161916 0.253115 0.775971
O O7 0.246713 0.330500 0.726188
O O8 0.361696 0.286653 0.998184
O O9 0.861800 0.500000 0.516962
O O10 0.784749 0.556018 0.668086
O O11 0.845971 0.590913 0.457163
O O12 0.019555 0.554575 0.721726
O O13 0.322268 0.500000 0.220581
O O14 0.158259 0.445339 0.027916
O O15 0.210074 0.500000 0.857705
O O16 0.247074 0.588752 0.836712
#
# Coordination Sequence:
#
# PCOD9200492 Si02
#       7
#     8   8   8   8   8   8   8
#     4  11  22  39  58  84 119 156 190 237 300 355
#     4   9  19  38  63  89 116 154 198 243 296 360
#     4   9  19  39  63  85 118 156 195 244 300 354
#     4  10  20  37  58  83 121 161 195 241 296 347
#     4  10  21  37  59  84 114 158 205 243 285 349
#     4  10  21  37  57  85 118 155 202 249 292 339
#     4  11  21  36  59  89 120 152 192 241 296 353
#
# _framework density 19.095310999999999
#
# number of rings (size 3 to 8) (size 9 to 14) (size 15 to 20)
#    0.000    2.000    1.429    2.143    0.000    6.000 
#    2.571    5.714    0.000    0.000    0.000    0.000 
#    0.000    0.000    0.000    0.000    0.000    0.000 
#
# Total GULP energy -156046.443840 kJ/mol
# GULP energy per Si atom -5573.087280 kJ/mol
# Density = 1.905185 g / cm^3
# Si number density = 19.095311 Si / 1000 Ang^3
#
#
#
# Elastic Constant Matrix: (Units=GPa)
#
#
# Indices 1 2 3 4 5 6 
#
# 1 109.2878 71.2439 26.3129 0.0000 -1.7174 0.0000
# 2 71.2439 81.9486 36.0092 0.0000 4.2243 0.0000
# 3 26.3129 36.0092 67.0892 0.0000 -0.6826 0.0000
# 4 0.0000 0.0000 0.0000 29.9601 0.0000 -5.4564
# 5 -1.7174 4.2243 -0.6826 0.0000 17.7482 0.0000
# 6 0.0000 0.0000 0.0000 -5.4564 0.0000 29.5022
#
#
#
# Elastic Compliance Matrix: (Units=1/GPa)
#
#
# Indices 1 2 3 4 5 6 
#
# 1 0.022203 -0.020780 0.002518 0.000000 0.007191 0.000000
# 2 -0.020780 0.035726 -0.011137 0.000000 -0.010942 0.000000
# 3 0.002518 -0.011137 0.019933 0.000000 0.003661 0.000000
# 4 0.000000 0.000000 0.000000 0.034541 0.000000 0.006388
# 5 0.007191 -0.010942 0.003661 0.000000 0.059785 0.000000
# 6 0.000000 0.000000 0.000000 0.006388 0.000000 0.035077
#
#
# Mechanical properties :
#
#
# Convention : Reuss Voigt Hill
#
# Bulk Modulus (GPa) = 52.45246 58.38416 55.41831
# Shear Modulus (GPa) = 18.35420 23.75941 21.05681
#
# Velocity S-wave (km/s) = 3.10367 3.53123 3.32433
# Velocity P-wave (km/s) = 6.35390 6.87514 6.61965
#
# Compressibility (1/GPa) = 0.01906488
#
# Stress axis : x y z
#
# Youngs Moduli (GPa) = 45.03843 27.99072 50.16927
#
# Poissons Ratio (x) = 0.58165 -0.12634
# Poissons Ratio (y) = 0.93591 0.55872
# Poissons Ratio (z) = -0.11342 0.31172
#
# Static dielectric constant tensor:
#      x y z
#    x 1.684690 0.000000 -0.003300 
#    y 0.000000 1.644940 0.000000 
#    z -0.003300 0.000000 1.675940 
# 
# From -- ./inp_files/54309.got.cif
#   From: 2010.05.17/outbox.cif.g08.bks.cpg/sg12_28_cif.got.tgz:54309.got - 2010.06.03 13:09:07.
