data_PCOD9200601
_publ_section_title
;
Structure prediction by ZEFSAII (Michael W. Deem and Ramdas Pophale) SiO2 
 PCOD9200601
Probable space group: C 2/M
;
_chemical_formula_sum "Si O2"
_cell_formula_units_Z 56
_cell_length_a 20.981641
_cell_length_b 7.649615
_cell_length_c 18.340291
_cell_angle_alpha 90.000000
_cell_angle_beta 61.603814
_cell_angle_gamma 90.000000
_cell_volume 2589.465234
_symmetry_space_group_name_H-M "C 2/M"
_symmetry_group_IT_number 12
_symmetry_cell_setting 'monoclinic'
loop_
_space_group_symop_operation_xyz
x,y,z
-x,y,-z
-x,-y,-z
x,-y,z
1/2+x,1/2+y,z
1/2-x,1/2+y,-z
1/2-x,1/2-y,-z
1/2+x,1/2-y,z
loop_
_atom_site_type_symbol
_atom_site_label
_atom_site_fract_x
_atom_site_fract_y
_atom_site_fract_z
Si Si1 0.332910 0.710554 0.937702
Si Si2 0.581327 0.710247 0.968568
Si Si3 0.313405 0.714298 0.652705
Si Si4 0.668190 0.291190 0.520368
Si Si5 0.891555 0.796895 0.753936
Si Si6 0.150363 0.290312 0.777786
Si Si7 0.051367 0.701513 0.703153
O O1 0.341762 0.500000 0.931164
O O2 0.355788 0.780649 0.846204
O O3 0.250000 0.750000 0.000000
O O4 0.383094 0.777113 0.976255
O O5 0.577218 0.500000 0.976419
O O6 0.630085 0.750774 0.871732
O O7 0.500000 0.777289 0.000000
O O8 0.313408 0.500000 0.650464
O O9 0.339878 0.770336 0.558623
O O10 0.362706 0.775557 0.693146
O O11 0.230471 0.771133 0.712035
O O12 0.657909 0.500000 0.528482
O O13 0.750000 0.250000 0.500000
O O14 0.611681 0.210864 0.607462
O O15 0.977552 0.789004 0.717478
O O16 0.869140 0.000000 0.764433
O O17 0.151377 0.500000 0.768230
O O18 0.088885 0.222578 0.755606
O O19 0.032544 0.500000 0.727780
#
# Coordination Sequence:
#
# PCOD9200601 Si02
#       7
#     8   8   8   8   8   8   8
#     4  10  21  37  59  84 115 153 193 236 286 345
#     4  10  21  36  54  81 114 145 185 238 286 334
#     4   9  19  37  60  84 112 147 191 236 276 338
#     4  11  21  38  62  88 118 152 192 237 287 342
#     4  10  21  39  61  84 113 155 197 233 285 346
#     4  10  20  37  59  82 109 147 193 236 281 339
#     4  11  23  39  59  86 120 152 190 242 292 343
#
# _framework density 21.626086000000001
#
# number of rings (size 3 to 8) (size 9 to 14) (size 15 to 20)
#    0.000    1.857    1.429    2.571    0.000    5.429 
#    0.000    5.000    0.000    0.000    0.000    0.000 
#    0.000    0.000    0.000    0.000    0.000    0.000 
#
# Total GULP energy -156506.653772 kJ/mol
# GULP energy per Si atom -5589.523349 kJ/mol
# Density = 2.157686 g / cm^3
# Si number density = 21.626086 Si / 1000 Ang^3
#
#
#
# Elastic Constant Matrix: (Units=GPa)
#
#
# Indices 1 2 3 4 5 6 
#
# 1 125.9225 -5.0880 33.1187 0.0000 32.9523 0.0000
# 2 -5.0880 42.9674 -11.0710 0.0000 8.5574 0.0003
# 3 33.1187 -11.0710 104.9705 -0.0001 28.1989 -0.0001
# 4 0.0000 0.0000 -0.0001 25.0570 0.0000 -5.0843
# 5 32.9523 8.5574 28.1989 0.0000 46.4053 0.0000
# 6 0.0000 0.0003 -0.0001 -5.0843 0.0000 19.8294
#
#
#
# Elastic Compliance Matrix: (Units=1/GPa)
#
#
# Indices 1 2 3 4 5 6 
#
# 1 0.010144 0.002310 -0.001084 0.000000 -0.006970 0.000000
# 2 0.002310 0.026585 0.004580 0.000000 -0.009326 0.000000
# 3 -0.001084 0.004580 0.012395 0.000000 -0.007607 0.000000
# 4 0.000000 0.000000 0.000000 0.042099 0.000000 0.010794
# 5 -0.006970 -0.009326 -0.007607 0.000000 0.032841 0.000000
# 6 0.000000 0.000000 0.000000 0.010794 0.000000 0.053198
#
#
# Mechanical properties :
#
#
# Convention : Reuss Voigt Hill
#
# Bulk Modulus (GPa) = 16.46483 34.19775 25.33129
# Shear Modulus (GPa) = 26.89691 35.38507 31.14099
#
# Velocity S-wave (km/s) = 3.53048 4.04941 3.79881
# Velocity P-wave (km/s) = 4.92432 6.14094 5.56597
#
# Compressibility (1/GPa) = 0.06073551
#
# Stress axis : x y z
#
# Youngs Moduli (GPa) = 98.58091 37.61583 80.67679
#
# Poissons Ratio (x) = -0.08689 0.08748
# Poissons Ratio (y) = -0.22772 -0.36952
# Poissons Ratio (z) = 0.10690 -0.17229
#
# Static dielectric constant tensor:
#      x y z
#    x 1.701330 0.000000 0.110400 
#    y 0.000000 1.771530 0.000000 
#    z 0.110400 0.000000 1.653470 
# 
# From -- ./inp_files/280954.got.cif
#   From: 2010.05.17/outbox.cif.g08.bks.cpg/sg12_141_cif.got.tgz:280954.got - 2010.06.03 13:09:07.
