data_PCOD9200839
_publ_section_title
;
Structure prediction by ZEFSAII (Michael W. Deem and Ramdas Pophale) SiO2 
 PCOD9200839
Probable space group: C 2/M
;
_chemical_formula_sum "Si O2"
_cell_formula_units_Z 48
_cell_length_a 18.124392
_cell_length_b 15.162946
_cell_length_c 16.321499
_cell_angle_alpha 90.000000
_cell_angle_beta 143.997692
_cell_angle_gamma 90.000000
_cell_volume 2636.633956
_symmetry_space_group_name_H-M "C 2/M"
_symmetry_group_IT_number 12
_symmetry_cell_setting 'monoclinic'
loop_
_space_group_symop_operation_xyz
x,y,z
-x,y,-z
-x,-y,-z
x,-y,z
1/2+x,1/2+y,z
1/2-x,1/2+y,-z
1/2-x,1/2-y,-z
1/2+x,1/2-y,z
loop_
_atom_site_type_symbol
_atom_site_label
_atom_site_fract_x
_atom_site_fract_y
_atom_site_fract_z
Si Si1 0.949912 0.230111 0.171595
Si Si2 0.814457 0.896198 0.642363
Si Si3 0.885387 0.398232 0.679884
Si Si4 0.145192 0.601627 0.155732
Si Si5 0.646624 0.102491 0.653340
Si Si6 0.270614 0.742938 0.155051
O O1 0.064656 0.165667 0.254277
O O2 0.005017 0.328120 0.233774
O O3 0.875852 0.206602 0.187704
O O4 0.849997 0.233135 0.008513
O O5 0.725401 0.880230 0.483848
O O6 0.731871 0.879829 0.649621
O O7 0.849068 0.000000 0.673381
O O8 0.926122 0.500000 0.704559
O O9 0.842512 0.388687 0.735519
O O10 0.173237 0.500000 0.159173
O O11 0.230637 0.669604 0.184346
O O12 0.000000 0.617737 0.000000
O O13 0.500000 0.112836 0.500000
O O14 0.683030 0.170539 0.756264
O O15 0.666174 0.000000 0.694567
#
# Coordination Sequence:
#
# PCOD9200839 Si02
#       6
#     8   8   8   8   8   8
#     4  11  23  38  56  86 121 154 191 237 295 347
#     4  10  22  39  60  85 116 155 193 239 294 346
#     4  10  20  37  62  85 110 150 198 238 284 344
#     4  10  20  37  60  84 111 148 193 239 285 338
#     4  10  22  41  63  87 116 153 200 244 289 349
#     4  11  24  37  58  88 118 154 194 240 293 346
#
# _framework density 18.205030000000001
#
# number of rings (size 3 to 8) (size 9 to 14) (size 15 to 20)
#    0.000    1.667    1.667    2.500    0.000    4.667 
#    0.000    5.000    0.000    3.500    0.000    0.000 
#    0.000    0.000    0.000    0.000    0.000    0.000 
#
# Total GULP energy -134086.805803 kJ/mol
# GULP energy per Si atom -5586.950242 kJ/mol
# Density = 1.816359 g / cm^3
# Si number density = 18.205030 Si / 1000 Ang^3
#
#
#
# Elastic Constant Matrix: (Units=GPa)
#
#
# Indices 1 2 3 4 5 6 
#
# 1 63.7326 35.6985 30.8497 0.0000 12.0604 0.0000
# 2 35.6985 67.4154 38.6644 0.0000 18.1376 0.0000
# 3 30.8497 38.6644 67.1057 0.0000 14.0889 0.0000
# 4 0.0000 0.0000 0.0000 7.9117 0.0000 -4.4222
# 5 12.0604 18.1376 14.0889 0.0000 23.3836 0.0000
# 6 0.0000 0.0000 0.0000 -4.4222 0.0000 17.4067
#
#
#
# Elastic Compliance Matrix: (Units=1/GPa)
#
#
# Indices 1 2 3 4 5 6 
#
# 1 0.023645 -0.008927 -0.005289 0.000000 -0.002085 0.000000
# 2 -0.008927 0.028232 -0.009767 0.000000 -0.011409 0.000000
# 3 -0.005289 -0.009767 0.023810 0.000000 -0.004042 0.000000
# 4 0.000000 0.000000 0.000000 0.147313 0.000000 0.037425
# 5 -0.002085 -0.011409 -0.004042 0.000000 0.055125 0.000000
# 6 0.000000 0.000000 0.000000 0.037425 0.000000 0.066957
#
#
# Mechanical properties :
#
#
# Convention : Reuss Voigt Hill
#
# Bulk Modulus (GPa) = 36.07454 45.40878 40.74166
# Shear Modulus (GPa) = 12.42892 15.94315 14.18603
#
# Velocity S-wave (km/s) = 2.61572 2.96253 2.79451
# Velocity P-wave (km/s) = 5.38344 6.05799 5.73065
#
# Compressibility (1/GPa) = 0.02772038
#
# Stress axis : x y z
#
# Youngs Moduli (GPa) = 42.29164 35.42139 42.00000
#
# Poissons Ratio (x) = 0.31619 0.22215
# Poissons Ratio (y) = 0.37752 0.41022
# Poissons Ratio (z) = 0.22369 0.34597
#
# Static dielectric constant tensor:
#      x y z
#    x 1.615920 0.000000 -0.006610 
#    y 0.000000 1.614630 0.000000 
#    z -0.006610 0.000000 1.592710 
# 
# From -- ./inp_files/167518.got.cif
#   From: 2010.05.17/outbox.cif.g08.bks.cpg/sg12_84_cif.got.tgz:167518.got - 2010.06.03 13:09:07.
