data_PCOD9200495
_publ_section_title
;
Structure prediction by ZEFSAII (Michael W. Deem and Ramdas Pophale) SiO2 
 PCOD9200495
Probable space group: C 2/M
;
_chemical_formula_sum "Si O2"
_cell_formula_units_Z 48
_cell_length_a 28.095093
_cell_length_b 11.487080
_cell_length_c 9.087885
_cell_angle_alpha 90.000000
_cell_angle_beta 52.374717
_cell_angle_gamma 90.000000
_cell_volume 2322.946833
_symmetry_space_group_name_H-M "C 2/M"
_symmetry_group_IT_number 12
_symmetry_cell_setting 'monoclinic'
loop_
_space_group_symop_operation_xyz
x,y,z
-x,y,-z
-x,-y,-z
x,-y,z
1/2+x,1/2+y,z
1/2-x,1/2+y,-z
1/2-x,1/2-y,-z
1/2+x,1/2-y,z
loop_
_atom_site_type_symbol
_atom_site_label
_atom_site_fract_x
_atom_site_fract_y
_atom_site_fract_z
Si Si1 0.486092 0.869592 0.699972
Si Si2 0.878099 0.633434 0.457082
Si Si3 0.751726 0.618755 0.318454
Si Si4 0.315004 0.287174 0.815038
Si Si5 0.089584 0.131384 0.123098
Si Si6 0.166276 0.198406 0.719757
O O1 0.500000 0.870332 0.500000
O O2 0.550198 0.863119 0.659961
O O3 0.450632 0.749367 0.796694
O O4 0.459284 0.000000 0.785068
O O5 0.858999 0.500000 0.470467
O O6 0.848403 0.682920 0.663670
O O7 0.859390 0.713669 0.355021
O O8 0.787264 0.500000 0.238110
O O9 0.703133 0.626978 0.282419
O O10 0.796295 0.725823 0.234105
O O11 0.715419 0.624896 0.539088
O O12 0.358920 0.344436 0.851242
O O13 0.250000 0.250000 0.000000
O O14 0.063921 0.000000 0.198646
O O15 0.117860 0.131726 0.906224
#
# Coordination Sequence:
#
# PCOD9200495 Si02
#       6
#     8   8   8   8   8   8
#     4  10  22  44  69  94 124 166 218 271 321 374
#     4  10  22  42  68  92 124 168 219 271 321 377
#     4  10  20  37  58  83 124 171 209 251 310 375
#     4  11  22  40  60  96 128 166 213 260 316 381
#     4  12  25  42  65  98 134 170 213 266 322 383
#     4  10  22  39  58  90 128 165 210 257 316 382
#
# _framework density 20.663408
#
# number of rings (size 3 to 8) (size 9 to 14) (size 15 to 20)
#    0.000    1.500    3.333    1.500    0.000    3.667 
#    0.000    4.167    0.000    0.000    0.000    0.000 
#    0.000    0.000    0.000    0.000    0.000    0.000 
#
# Total GULP energy -133766.985536 kJ/mol
# GULP energy per Si atom -5573.624397 kJ/mol
# Density = 2.061638 g / cm^3
# Si number density = 20.663408 Si / 1000 Ang^3
#
#
#
# Elastic Constant Matrix: (Units=GPa)
#
#
# Indices 1 2 3 4 5 6 
#
# 1 72.1789 35.3305 8.1398 0.0000 3.3717 0.0000
# 2 35.3305 172.6962 37.2915 0.0000 -11.3300 0.0000
# 3 8.1398 37.2915 57.8733 0.0000 2.0603 0.0000
# 4 0.0000 0.0000 0.0000 0.4644 0.0000 8.2883
# 5 3.3717 -11.3300 2.0603 0.0000 27.3527 0.0000
# 6 0.0000 0.0000 0.0000 8.2883 0.0000 -2.9880
#
#
#
# Elastic Compliance Matrix: (Units=1/GPa)
#
#
# Indices 1 2 3 4 5 6 
#
# 1 0.015691 -0.003463 0.000145 0.000000 -0.003380 0.000000
# 2 -0.003463 0.007767 -0.004660 0.000000 0.003995 0.000000
# 3 0.000145 -0.004660 0.020386 0.000000 -0.003484 0.000000
# 4 0.000000 0.000000 0.000000 0.042635 0.000000 0.118264
# 5 -0.003380 0.003995 -0.003484 0.000000 0.038893 0.000000
# 6 0.000000 0.000000 0.000000 0.118264 0.000000 -0.006626
#
#
# Mechanical properties :
#
#
# Convention : Reuss Voigt Hill
#
# Bulk Modulus (GPa) = 35.85855 51.58576 43.72216
# Shear Modulus (GPa) = 34.72234 19.76491 27.24362
#
# Velocity S-wave (km/s) = 4.10369 3.09612 3.63498
# Velocity P-wave (km/s) = 6.31229 6.14819 6.23078
#
# Compressibility (1/GPa) = 0.02788735
#
# Stress axis : x y z
#
# Youngs Moduli (GPa) = 63.73013 128.74238 49.05406
#
# Poissons Ratio (x) = 0.44585 -0.00711
# Poissons Ratio (y) = 0.22071 0.22860
# Poissons Ratio (z) = -0.00923 0.59997
#
# Static dielectric constant tensor:
#      x y z
#    x 1.746920 0.000000 0.001900 
#    y 0.000000 1.782230 0.000000 
#    z 0.001900 0.000000 1.752240 
# 
# From -- ./inp_files/94436.got.cif
#   From: 2010.05.17/outbox.cif.g08.bks.cpg/sg12_48_cif.got.tgz:94436.got - 2010.06.03 13:09:07.
