data_PCOD9200408
_publ_section_title
;
Structure prediction by ZEFSAII (Michael W. Deem and Ramdas Pophale) SiO2 
 PCOD9200408
Probable space group: C 2/M
;
_chemical_formula_sum "Si O2"
_cell_formula_units_Z 64
_cell_length_a 19.820780
_cell_length_b 7.606460
_cell_length_c 19.411987
_cell_angle_alpha 90.000000
_cell_angle_beta 61.224397
_cell_angle_gamma 90.000000
_cell_volume 2565.258018
_symmetry_space_group_name_H-M "C 2/M"
_symmetry_group_IT_number 12
_symmetry_cell_setting 'monoclinic'
loop_
_space_group_symop_operation_xyz
x,y,z
-x,y,-z
-x,-y,-z
x,-y,z
1/2+x,1/2+y,z
1/2-x,1/2+y,-z
1/2-x,1/2-y,-z
1/2+x,1/2-y,z
loop_
_atom_site_type_symbol
_atom_site_label
_atom_site_fract_x
_atom_site_fract_y
_atom_site_fract_z
Si Si1 0.632215 0.213942 0.419968
Si Si2 0.199975 0.201919 0.679035
Si Si3 0.305614 0.285407 0.826503
Si Si4 0.136738 0.705846 0.906618
Si Si5 0.949452 0.200732 0.176172
Si Si6 0.545833 0.705382 0.330001
Si Si7 0.625109 0.202490 0.580122
Si Si8 0.382293 0.713013 0.924988
O O1 0.715420 0.278379 0.351701
O O2 0.566162 0.272079 0.400455
O O3 0.625570 0.273443 0.502110
O O4 0.631297 0.000000 0.421116
O O5 0.125250 0.285281 0.751583
O O6 0.179868 0.204424 0.607817
O O7 0.204296 0.000000 0.700394
O O8 0.304435 0.500000 0.824335
O O9 0.221624 0.226475 0.844018
O O10 0.379053 0.224652 0.746819
O O11 0.319997 0.233817 0.898832
O O12 0.130515 0.500000 0.893573
O O13 0.071448 0.798875 0.894395
O O14 0.130341 0.725543 0.991505
O O15 0.034073 0.276753 0.142485
O O16 0.953823 0.000000 0.200271
O O17 0.538946 0.500000 0.316852
O O18 0.463970 0.787883 0.352707
O O19 0.649594 0.000000 0.566264
O O20 0.384448 0.500000 0.925545
#
# Coordination Sequence:
#
# PCOD9200408 Si02
#       8
#     8   8   8   8   8   8   8   8
#     4  10  22  39  58  84 118 151 185 232 286 335
#     4  10  21  39  62  85 111 148 194 235 275 334
#     4   9  20  38  58  81 109 142 182 230 278 322
#     4  11  22  36  56  83 113 142 178 227 277 326
#     4  10  21  37  58  82 109 145 185 225 271 325
#     4  11  22  38  61  85 111 149 195 235 276 334
#     4  11  23  38  57  84 119 152 184 231 288 337
#     4  10  20  37  58  78 107 146 184 222 269 326
#
# _framework density 24.948755999999999
#
# number of rings (size 3 to 8) (size 9 to 14) (size 15 to 20)
#    0.000    1.750    0.000    4.125    0.000    7.500 
#    0.000    5.000    0.000    0.000    0.000    0.000 
#    0.000    0.000    0.000    0.000    0.000    0.000 
#
# Total GULP energy -179112.075949 kJ/mol
# GULP energy per Si atom -5597.252373 kJ/mol
# Density = 2.489197 g / cm^3
# Si number density = 24.948756 Si / 1000 Ang^3
#
#
#
# Elastic Constant Matrix: (Units=GPa)
#
#
# Indices 1 2 3 4 5 6 
#
# 1 111.3839 -0.9712 -9.8819 -0.0001 -0.0915 -0.0009
# 2 -0.9712 69.3695 -1.2490 -0.0002 -0.5981 -0.0021
# 3 -9.8819 -1.2490 66.3893 0.0001 0.8882 -0.0003
# 4 -0.0001 -0.0002 0.0001 19.1069 0.0000 4.5286
# 5 -0.0915 -0.5981 0.8882 0.0000 47.1971 0.0000
# 6 -0.0009 -0.0021 -0.0003 4.5286 0.0000 13.2368
#
#
#
# Elastic Compliance Matrix: (Units=1/GPa)
#
#
# Indices 1 2 3 4 5 6 
#
# 1 0.009100 0.000152 0.001357 0.000000 -0.000006 0.000001
# 2 0.000152 0.014424 0.000292 0.000000 0.000178 0.000002
# 3 0.001357 0.000292 0.015274 0.000000 -0.000281 0.000001
# 4 0.000000 0.000000 0.000000 0.056956 0.000000 -0.019486
# 5 -0.000006 0.000178 -0.000281 0.000000 0.021195 0.000000
# 6 0.000001 0.000002 0.000001 -0.019486 0.000000 0.082214
#
#
# Mechanical properties :
#
#
# Convention : Reuss Voigt Hill
#
# Bulk Modulus (GPa) = 23.58508 24.77095 24.17802
# Shear Modulus (GPa) = 23.84423 33.19113 28.51768
#
# Velocity S-wave (km/s) = 3.09484 3.65138 3.38457
# Velocity P-wave (km/s) = 4.71642 5.26565 4.99859
#
# Compressibility (1/GPa) = 0.04239968
#
# Stress axis : x y z
#
# Youngs Moduli (GPa) = 109.89371 69.32665 65.47094
#
# Poissons Ratio (x) = -0.01052 -0.08887
# Poissons Ratio (y) = -0.01668 -0.01909
# Poissons Ratio (z) = -0.14917 -0.02021
#
# Static dielectric constant tensor:
#      x y z
#    x 1.895190 0.000000 -0.014530 
#    y 0.000000 1.940740 0.000000 
#    z -0.014530 0.000000 2.031550 
# 
# From -- ./inp_files/319782.got.cif
#   From: 2010.05.17/outbox.cif.g08.bks.cpg/sg12_160_cif.got.tgz:319782.got - 2010.06.03 13:09:07.
