data_PCOD9200201
_publ_section_title
;
Structure prediction by ZEFSAII (Michael W. Deem and Ramdas Pophale) SiO2 
 PCOD9200201
Probable space group: C 2/M
;
_chemical_formula_sum "Si O2"
_cell_formula_units_Z 44
_cell_length_a 22.935778
_cell_length_b 15.557562
_cell_length_c 17.467630
_cell_angle_alpha 90.000000
_cell_angle_beta 161.068734
_cell_angle_gamma 90.000000
_cell_volume 2022.157064
_symmetry_space_group_name_H-M "C 2/M"
_symmetry_group_IT_number 12
_symmetry_cell_setting 'monoclinic'
loop_
_space_group_symop_operation_xyz
x,y,z
-x,y,-z
-x,-y,-z
x,-y,z
1/2+x,1/2+y,z
1/2-x,1/2+y,-z
1/2-x,1/2-y,-z
1/2+x,1/2-y,z
loop_
_atom_site_type_symbol
_atom_site_label
_atom_site_fract_x
_atom_site_fract_y
_atom_site_fract_z
Si Si1 0.155534 0.195372 0.978921
Si Si2 0.926060 0.841114 0.294166
Si Si3 0.696118 0.000000 0.039501
Si Si4 0.610034 0.145779 0.342657
Si Si5 0.961874 0.897032 0.867129
Si Si6 0.302565 0.103369 0.721608
O O1 0.337603 0.251252 0.209666
O O2 0.138306 0.149317 0.875223
O O3 0.994800 0.265103 0.781937
O O4 0.115591 0.133016 0.999333
O O5 0.140871 0.846841 0.561137
O O6 0.844682 0.922926 0.235585
O O7 0.540470 0.073866 0.833238
O O8 0.770980 0.138496 0.601957
O O9 0.691383 0.128213 0.359752
O O10 0.951145 0.000000 0.852444
O O11 0.000000 0.866845 0.000000
O O12 0.273296 0.000000 0.692555
O O13 0.500000 0.121466 0.000000
#
# Coordination Sequence:
#
# PCOD9200201 Si02
#       6
#     8   8   4   8   8   8
#     4  10  23  40  67  98 132 174 229 279 346 399
#     4  10  21  40  65 100 132 177 217 278 346 407
#     4  10  20  36  68  87 131 182 211 268 347 407
#     4  11  21  42  65  96 131 176 228 282 335 406
#     4  11  23  40  70 102 132 181 238 281 332 403
#     4  11  22  38  67 101 129 174 223 269 335 416
#
# _framework density 21.758944
#
# number of rings (size 3 to 8) (size 9 to 14) (size 15 to 20)
#    0.000    1.455    4.545    0.545    1.273    0.727 
#    0.000    4.545    8.000    1.091    0.000    0.000 
#    0.000    0.727    0.000    0.000    0.000    0.000 
#
# Total GULP energy -122595.872100 kJ/mol
# GULP energy per Si atom -5572.539641 kJ/mol
# Density = 2.170942 g / cm^3
# Si number density = 21.758944 Si / 1000 Ang^3
#
#
#
# Elastic Constant Matrix: (Units=GPa)
#
#
# Indices 1 2 3 4 5 6 
#
# 1 57.7994 4.3173 44.9699 0.0110 1.6179 0.0073
# 2 4.3173 47.9500 28.4623 0.0115 -2.6199 0.0087
# 3 44.9699 28.4623 152.3490 0.0153 21.3427 0.0118
# 4 0.0110 0.0115 0.0153 87.3840 0.0059 47.9223
# 5 1.6179 -2.6199 21.3427 0.0059 30.1042 0.0044
# 6 0.0073 0.0087 0.0118 47.9223 0.0044 42.5862
#
#
#
# Elastic Compliance Matrix: (Units=1/GPa)
#
#
# Indices 1 2 3 4 5 6 
#
# 1 0.023228 0.002959 -0.008072 -0.000002 0.004732 -0.000001
# 2 0.002959 0.024754 -0.006414 -0.000001 0.006543 -0.000003
# 3 -0.008072 -0.006414 0.011283 0.000001 -0.008124 0.000000
# 4 -0.000002 -0.000001 0.000001 0.029889 -0.000001 -0.033634
# 5 0.004732 0.006543 -0.008124 -0.000001 0.039292 -0.000002
# 6 -0.000001 -0.000003 0.000000 -0.033634 -0.000002 0.061330
#
#
# Mechanical properties :
#
#
# Convention : Reuss Voigt Hill
#
# Bulk Modulus (GPa) = 27.61752 45.95525 36.78638
# Shear Modulus (GPa) = 22.23192 44.03815 33.13504
#
# Velocity S-wave (km/s) = 3.19993 4.50367 3.90657
# Velocity P-wave (km/s) = 5.13544 6.94335 6.10667
#
# Compressibility (1/GPa) = 0.03620890
#
# Stress axis : x y z
#
# Youngs Moduli (GPa) = 43.05137 40.39802 88.62937
#
# Poissons Ratio (x) = -0.11952 0.71542
# Poissons Ratio (y) = -0.12737 0.56851
# Poissons Ratio (z) = 0.34751 0.25913
#
# Static dielectric constant tensor:
#      x y z
#    x 1.851050 0.000000 -0.001510 
#    y 0.000000 1.792310 0.000000 
#    z -0.001510 0.000000 1.807970 
# 
# From -- ./inp_files/290183.got.cif
#   From: 2010.05.17/outbox.cif.g08.bks.cpg/sg12_146_cif.got.tgz:290183.got - 2010.06.03 13:09:07.
