data_PCOD9200522
_publ_section_title
;
Structure prediction by ZEFSAII (Michael W. Deem and Ramdas Pophale) SiO2 
 PCOD9200522
Probable space group: C 2/M
;
_chemical_formula_sum "Si O2"
_cell_formula_units_Z 56
_cell_length_a 20.885863
_cell_length_b 8.842485
_cell_length_c 30.709403
_cell_angle_alpha 90.000000
_cell_angle_beta 146.088741
_cell_angle_gamma 90.000000
_cell_volume 3164.177776
_symmetry_space_group_name_H-M "C 2/M"
_symmetry_group_IT_number 12
_symmetry_cell_setting 'monoclinic'
loop_
_space_group_symop_operation_xyz
x,y,z
-x,y,-z
-x,-y,-z
x,-y,z
1/2+x,1/2+y,z
1/2-x,1/2+y,-z
1/2-x,1/2-y,-z
1/2+x,1/2-y,z
loop_
_atom_site_type_symbol
_atom_site_label
_atom_site_fract_x
_atom_site_fract_y
_atom_site_fract_z
Si Si1 0.671673 0.182486 0.238143
Si Si2 0.911817 0.819102 0.329114
Si Si3 0.678054 0.681142 0.338385
Si Si4 0.936660 0.318487 0.509464
Si Si5 0.290167 0.818428 0.089452
Si Si6 0.042778 0.318203 0.739518
Si Si7 0.419715 0.818487 0.073317
O O1 0.785129 0.222303 0.275294
O O2 0.675545 0.257588 0.287715
O O3 0.552742 0.226345 0.147573
O O4 0.669574 0.000000 0.242779
O O5 0.936135 0.744160 0.296552
O O6 0.002340 0.762954 0.416125
O O7 0.917562 0.000000 0.328376
O O8 0.665665 0.500000 0.331033
O O9 0.802470 0.717928 0.428828
O O10 0.575190 0.754976 0.307241
O O11 0.948402 0.500000 0.521422
O O12 0.000000 0.277300 0.500000
O O13 0.355144 0.770886 0.169840
O O14 0.368301 0.774278 0.091740
O O15 0.282726 0.000000 0.085132
O O16 0.164835 0.751397 0.010020
O O17 0.038237 0.500000 0.736603
O O18 0.413229 0.000000 0.066620
#
# Coordination Sequence:
#
# PCOD9200522 Si02
#       7
#     8   8   8   8   8   8   8
#     4  10  20  37  58  85 118 151 189 235 287 338
#     4  11  24  39  60  87 116 152 196 237 283 345
#     4  11  22  36  61  89 114 147 194 239 279 340
#     4  10  21  39  60  86 118 150 188 236 289 339
#     4   9  18  33  54  82 112 147 188 231 282 337
#     4  11  23  41  60  81 119 158 189 235 293 342
#     4   9  17  32  55  83 113 145 186 233 282 334
#
# _framework density 17.698121
#
# number of rings (size 3 to 8) (size 9 to 14) (size 15 to 20)
#    0.000    1.857    2.857    1.286    0.000    4.286 
#    0.000    0.714    0.000    4.286    0.000    0.000 
#    0.000    0.000    0.000    0.000    0.000    0.000 
#
# Total GULP energy -156348.421158 kJ/mol
# GULP energy per Si atom -5583.872184 kJ/mol
# Density = 1.765784 g / cm^3
# Si number density = 17.698121 Si / 1000 Ang^3
#
#
#
# Elastic Constant Matrix: (Units=GPa)
#
#
# Indices 1 2 3 4 5 6 
#
# 1 142.1991 54.1514 100.3132 0.0000 -1.7512 0.0000
# 2 54.1514 36.9786 61.0598 0.0000 2.4798 0.0001
# 3 100.3132 61.0598 191.0590 0.0000 5.8048 0.0000
# 4 0.0000 0.0000 0.0000 31.2912 0.0000 -3.3525
# 5 -1.7512 2.4798 5.8048 0.0000 26.9494 0.0000
# 6 0.0000 0.0001 0.0000 -3.3525 0.0000 23.8609
#
#
#
# Elastic Compliance Matrix: (Units=1/GPa)
#
#
# Indices 1 2 3 4 5 6 
#
# 1 0.016552 -0.021062 -0.002064 0.000000 0.003458 0.000000
# 2 -0.021062 0.084106 -0.015647 0.000000 -0.005737 0.000000
# 3 -0.002064 -0.015647 0.011353 0.000000 -0.001140 0.000000
# 4 0.000000 0.000000 0.000000 0.032446 0.000000 0.004559
# 5 0.003458 -0.005737 -0.001140 0.000000 0.038105 0.000000
# 6 0.000000 0.000000 0.000000 0.004559 0.000000 0.042550
#
#
# Mechanical properties :
#
#
# Convention : Reuss Voigt Hill
#
# Bulk Modulus (GPa) = 29.01458 89.03171 59.02315
# Shear Modulus (GPa) = 15.91619 26.73444 21.32531
#
# Velocity S-wave (km/s) = 3.00211 3.89084 3.47500
# Velocity P-wave (km/s) = 5.33354 8.40237 7.03727
#
# Compressibility (1/GPa) = 0.03446543
#
# Stress axis : x y z
#
# Youngs Moduli (GPa) = 60.41618 11.88978 88.08262
#
# Poissons Ratio (x) = 0.25042 0.18184
# Poissons Ratio (y) = 1.27246 1.37820
# Poissons Ratio (z) = 0.12473 0.18604
#
# Static dielectric constant tensor:
#      x y z
#    x 1.572590 0.000000 0.013440 
#    y 0.000000 1.594910 0.000000 
#    z 0.013440 0.000000 1.596890 
# 
# From -- ./inp_files/275549.got.cif
#   From: 2010.05.17/outbox.cif.g08.bks.cpg/sg12_138_cif.got.tgz:275549.got - 2010.06.03 13:09:07.
