data_PCOD9200061
_publ_section_title
;
Structure prediction by ZEFSAII (Michael W. Deem and Ramdas Pophale) SiO2 
 PCOD9200061
Probable space group: C 2/M
;
_chemical_formula_sum "Si O2"
_cell_formula_units_Z 44
_cell_length_a 10.249828
_cell_length_b 14.400471
_cell_length_c 21.868213
_cell_angle_alpha 90.000000
_cell_angle_beta 35.393533
_cell_angle_gamma 90.000000
_cell_volume 1869.506582
_symmetry_space_group_name_H-M "C 2/M"
_symmetry_group_IT_number 12
_symmetry_cell_setting 'monoclinic'
loop_
_space_group_symop_operation_xyz
x,y,z
-x,y,-z
-x,-y,-z
x,-y,z
1/2+x,1/2+y,z
1/2-x,1/2+y,-z
1/2-x,1/2-y,-z
1/2+x,1/2-y,z
loop_
_atom_site_type_symbol
_atom_site_label
_atom_site_fract_x
_atom_site_fract_y
_atom_site_fract_z
Si Si1 0.031706 0.145364 0.248018
Si Si2 0.454960 0.869227 0.764143
Si Si3 0.403620 0.000000 0.393911
Si Si4 0.996522 0.138211 0.877550
Si Si5 0.319620 0.165377 0.517981
Si Si6 0.510808 0.863175 0.109942
O O1 0.027809 0.257979 0.247247
O O2 0.946811 0.113257 0.214114
O O3 0.288113 0.112646 0.157837
O O4 0.887903 0.124628 0.362890
O O5 0.505309 0.894971 0.814199
O O6 0.197566 0.894042 0.844103
O O7 0.606126 0.919994 0.657042
O O8 0.415268 0.082277 0.441117
O O9 0.989077 0.250263 0.886605
O O10 0.747274 0.106974 0.990881
O O11 0.500000 0.197528 0.500000
O O12 0.250000 0.250000 0.500000
#
# Coordination Sequence:
#
# PCOD9200061 Si02
#       6
#     8   8   4   8   8   8
#     4  10  20  37  64  93 132 172 225 284 338 402
#     4  10  20  36  63  92 133 172 224 277 337 407
#     4  12  25  46  68 100 136 188 233 288 354 418
#     4   9  17  33  60  93 129 173 217 268 335 408
#     4  12  27  46  72  99 135 183 239 294 353 412
#     4   9  18  33  59  95 130 169 219 272 336 401
#
# _framework density 23.535623999999999
#
# number of rings (size 3 to 8) (size 9 to 14) (size 15 to 20)
#    0.000    1.818    1.818    2.455    5.091    4.364 
#    0.000    5.909    0.000    0.000    0.000    5.091 
#    0.000    0.000    0.000    0.000    0.000    0.000 
#
# Total GULP energy -122551.860586 kJ/mol
# GULP energy per Si atom -5570.539118 kJ/mol
# Density = 2.348206 g / cm^3
# Si number density = 23.535624 Si / 1000 Ang^3
#
#
#
# Elastic Constant Matrix: (Units=GPa)
#
#
# Indices 1 2 3 4 5 6 
#
# 1 71.9484 28.9206 -5.5772 -0.0015 10.6757 0.0008
# 2 28.9206 131.1714 0.3147 -0.0001 11.9920 0.0005
# 3 -5.5772 0.3147 62.8949 -0.0018 19.8933 0.0017
# 4 -0.0015 -0.0001 -0.0018 -23.5033 0.0005 16.5035
# 5 10.6757 11.9920 19.8933 0.0005 31.3852 -0.0006
# 6 0.0008 0.0005 0.0017 16.5035 -0.0006 -10.4761
#
#
#
# Elastic Compliance Matrix: (Units=1/GPa)
#
#
# Indices 1 2 3 4 5 6 
#
# 1 0.016379 -0.003008 0.003585 0.000000 -0.006694 0.000002
# 2 -0.003008 0.008518 0.000496 -0.000003 -0.002546 -0.000004
# 3 0.003585 0.000496 0.020838 -0.000010 -0.014617 -0.000011
# 4 0.000000 -0.000003 -0.000010 0.400731 0.000012 0.631290
# 5 -0.006694 -0.002546 -0.014617 0.000012 0.044377 0.000014
# 6 0.000002 -0.000004 -0.000011 0.631290 0.000014 0.899045
#
#
# Mechanical properties :
#
#
# Convention : Reuss Voigt Hill
#
# Bulk Modulus (GPa) = 20.88487 34.81454 27.84970
# Shear Modulus (GPa) = 3.56201 15.63827 9.60014
#
# Velocity S-wave (km/s) = 1.23156 2.58049 2.02184
# Velocity P-wave (km/s) = 3.30383 4.86857 4.16043
#
# Compressibility (1/GPa) = 0.04788156
#
# Stress axis : x y z
#
# Youngs Moduli (GPa) = 61.05348 117.39360 47.98870
#
# Poissons Ratio (x) = 0.35310 -0.17203
# Poissons Ratio (y) = 0.18364 -0.02380
# Poissons Ratio (z) = -0.21887 -0.05822
#
# Static dielectric constant tensor:
#      x y z
#    x 1.841140 0.000000 -0.049420 
#    y 0.000000 1.739070 0.000010 
#    z -0.049420 0.000010 1.902300 
# 
# From -- ./inp_files/256851.got.cif
#   From: 2010.05.17/outbox.cif.g08.bks.cpg/sg12_129_cif.got.tgz:256851.got - 2010.06.03 13:09:07.
