data_PCOD9200095
_publ_section_title
;
Structure prediction by ZEFSAII (Michael W. Deem and Ramdas Pophale) SiO2 
 PCOD9200095
Probable space group: C 2/M
;
_chemical_formula_sum "Si O2"
_cell_formula_units_Z 48
_cell_length_a 14.894961
_cell_length_b 27.092494
_cell_length_c 11.848022
_cell_angle_alpha 90.000000
_cell_angle_beta 28.268699
_cell_angle_gamma 90.000000
_cell_volume 2264.396312
_symmetry_space_group_name_H-M "C 2/M"
_symmetry_group_IT_number 12
_symmetry_cell_setting 'monoclinic'
loop_
_space_group_symop_operation_xyz
x,y,z
-x,y,-z
-x,-y,-z
x,-y,z
1/2+x,1/2+y,z
1/2-x,1/2+y,-z
1/2-x,1/2-y,-z
1/2+x,1/2-y,z
loop_
_atom_site_type_symbol
_atom_site_label
_atom_site_fract_x
_atom_site_fract_y
_atom_site_fract_z
Si Si1 0.716181 0.848074 0.571982
Si Si2 0.220505 0.130062 0.246644
Si Si3 0.846154 0.696844 0.897784
Si Si4 0.804281 0.555851 0.780682
Si Si5 0.413564 0.651240 0.982332
Si Si6 0.971167 0.443456 0.844988
O O1 0.718241 0.843742 0.705045
O O2 0.569335 0.810512 0.674786
O O3 0.638926 0.904020 0.638517
O O4 0.923789 0.843351 0.291191
O O5 0.000000 0.117855 0.500000
O O6 0.258053 0.165645 0.099117
O O7 0.341772 0.081101 0.085328
O O8 0.750000 0.750000 0.000000
O O9 0.779594 0.673281 0.853770
O O10 0.754497 0.500000 0.803246
O O11 0.849439 0.557056 0.864254
O O12 0.000000 0.568439 0.500000
O O13 0.642656 0.594783 0.933945
O O14 0.500000 0.673760 0.000000
O O15 0.027875 0.500000 0.804401
#
# Coordination Sequence:
#
# PCOD9200095 Si02
#       6
#     8   8   8   8   8   8
#     4  11  23  43  69  93 133 174 210 267 331 385
#     4  11  21  43  68  93 133 170 209 264 331 386
#     4  11  25  46  67  97 126 167 218 270 327 387
#     4  10  20  38  63  92 134 180 219 263 318 383
#     4  12  25  41  66  97 131 173 218 268 322 384
#     4  10  20  36  63  96 128 168 216 261 313 382
#
# _framework density 21.197703000000001
#
# number of rings (size 3 to 8) (size 9 to 14) (size 15 to 20)
#    0.000    1.167    5.000    3.000    0.000    4.667 
#    3.000    0.000    0.000    0.000    0.000    0.000 
#    0.000    0.000    0.000    0.000    0.000    0.000 
#
# Total GULP energy -134057.597929 kJ/mol
# GULP energy per Si atom -5585.733247 kJ/mol
# Density = 2.114946 g / cm^3
# Si number density = 21.197703 Si / 1000 Ang^3
#
#
#
# Elastic Constant Matrix: (Units=GPa)
#
#
# Indices 1 2 3 4 5 6 
#
# 1 131.4466 14.6707 6.5771 0.0008 -4.9643 -0.0002
# 2 14.6707 78.3254 -4.0263 0.0003 -6.3670 -0.0003
# 3 6.5771 -4.0263 62.8799 0.0010 -4.0036 0.0005
# 4 0.0008 0.0003 0.0010 12.2413 -0.0006 -9.2619
# 5 -4.9643 -6.3670 -4.0036 -0.0006 32.5980 0.0002
# 6 -0.0002 -0.0003 0.0005 -9.2619 0.0002 11.4896
#
#
#
# Elastic Compliance Matrix: (Units=1/GPa)
#
#
# Indices 1 2 3 4 5 6 
#
# 1 0.007843 -0.001448 -0.000862 -0.000001 0.000806 0.000000
# 2 -0.001448 0.013303 0.001164 0.000000 0.002521 0.000000
# 3 -0.000862 0.001164 0.016201 -0.000004 0.002086 -0.000004
# 4 -0.000001 0.000000 -0.000004 0.209417 0.000002 0.168813
# 5 0.000806 0.002521 0.002086 0.000002 0.031548 0.000001
# 6 0.000000 0.000000 -0.000004 0.168813 0.000001 0.223117
#
#
# Mechanical properties :
#
#
# Convention : Reuss Voigt Hill
#
# Bulk Modulus (GPa) = 28.52645 34.12167 31.32406
# Shear Modulus (GPa) = 9.70109 28.29446 18.99778
#
# Velocity S-wave (km/s) = 2.14159 3.65744 2.99694
# Velocity P-wave (km/s) = 4.42739 5.82818 5.17539
#
# Compressibility (1/GPa) = 0.03505519
#
# Stress axis : x y z
#
# Youngs Moduli (GPa) = 127.50571 75.17009 61.72541
#
# Poissons Ratio (x) = 0.10883 0.05319
# Poissons Ratio (y) = 0.18460 -0.07183
# Poissons Ratio (z) = 0.10988 -0.08748
#
# Static dielectric constant tensor:
#      x y z
#    x 1.814840 0.000000 -0.000940 
#    y 0.000000 1.802670 0.000000 
#    z -0.000940 0.000000 1.737440 
# 
# From -- ./inp_files/149624.got.cif
#   From: 2010.05.17/outbox.cif.g08.bks.cpg/sg12_75_cif.got.tgz:149624.got - 2010.06.03 13:09:07.
