data_PCOD9200434
_publ_section_title
;
Structure prediction by ZEFSAII (Michael W. Deem and Ramdas Pophale) SiO2 
 PCOD9200434
Probable space group: C 2/M
;
_chemical_formula_sum "Si O2"
_cell_formula_units_Z 40
_cell_length_a 6.850589
_cell_length_b 14.093353
_cell_length_c 22.435843
_cell_angle_alpha 90.000000
_cell_angle_beta 46.559354
_cell_angle_gamma 90.000000
_cell_volume 1572.799399
_symmetry_space_group_name_H-M "C 2/M"
_symmetry_group_IT_number 12
_symmetry_cell_setting 'monoclinic'
loop_
_space_group_symop_operation_xyz
x,y,z
-x,y,-z
-x,-y,-z
x,-y,z
1/2+x,1/2+y,z
1/2-x,1/2+y,-z
1/2-x,1/2-y,-z
1/2+x,1/2-y,z
loop_
_atom_site_type_symbol
_atom_site_label
_atom_site_fract_x
_atom_site_fract_y
_atom_site_fract_z
Si Si1 0.673949 0.634835 0.209302
Si Si2 0.177121 0.606781 0.391872
Si Si3 0.940235 0.500000 0.929634
Si Si4 0.555825 0.852823 0.239479
Si Si5 0.929131 0.000000 0.113020
Si Si6 0.556031 0.671959 0.420436
O O1 0.380436 0.603251 0.292887
O O2 0.640445 0.746005 0.209073
O O3 0.855587 0.587770 0.120690
O O4 0.853257 0.615939 0.230262
O O5 0.053390 0.500000 0.420565
O O6 0.357382 0.623007 0.414363
O O7 0.037658 0.712124 0.418161
O O8 0.742949 0.500000 0.912719
O O9 0.734841 0.500000 0.027420
O O10 0.361499 0.855229 0.337452
O O11 0.823132 0.912917 0.174796
O O12 0.500000 0.644017 0.500000
#
# Coordination Sequence:
#
# PCOD9200434 Si02
#       6
#     8   8   4   8   4   8
#     4   9  17  33  54  75 101 139 170 212 264 316
#     4  10  20  37  58  80 113 148 181 228 278 320
#     4   9  16  30  55  75 100 133 177 205 251 333
#     4   9  19  33  54  73 105 136 170 218 263 308
#     4   9  18  32  50  79 101 131 173 217 255 314
#     4  10  21  36  57  81 112 144 187 230 266 329
#
# _framework density 25.432357
#
# number of rings (size 3 to 8) (size 9 to 14) (size 15 to 20)
#    0.000    2.600    1.000    0.600    4.200    1.600 
#    0.000    2.000   15.400    1.200    0.000    0.000 
#    0.000    0.000    0.000    0.000    0.000    0.000 
#
# Total GULP energy -111815.327128 kJ/mol
# GULP energy per Si atom -5590.766356 kJ/mol
# Density = 2.537447 g / cm^3
# Si number density = 25.432357 Si / 1000 Ang^3
#
#
#
# Elastic Constant Matrix: (Units=GPa)
#
#
# Indices 1 2 3 4 5 6 
#
# 1 95.9064 -8.6932 27.8895 0.0027 -0.1410 -0.0010
# 2 -8.6932 168.6224 70.4653 0.0030 -12.0792 -0.0018
# 3 27.8895 70.4653 234.6317 0.0017 2.6734 -0.0001
# 4 0.0027 0.0030 0.0017 29.4456 -0.0006 -2.0990
# 5 -0.1410 -12.0792 2.6734 -0.0006 48.1323 -0.0001
# 6 -0.0010 -0.0018 -0.0001 -2.0990 -0.0001 33.3404
#
#
#
# Elastic Compliance Matrix: (Units=1/GPa)
#
#
# Indices 1 2 3 4 5 6 
#
# 1 0.011046 0.001319 -0.001714 -0.000001 0.000458 0.000000
# 2 0.001319 0.007101 -0.002311 -0.000001 0.001914 0.000000
# 3 -0.001714 -0.002311 0.005170 0.000000 -0.000872 0.000000
# 4 -0.000001 -0.000001 0.000000 0.034114 0.000000 0.002148
# 5 0.000458 0.001914 -0.000872 0.000000 0.021306 0.000000
# 6 0.000000 0.000000 0.000000 0.002148 0.000000 0.030129
#
#
# Mechanical properties :
#
#
# Convention : Reuss Voigt Hill
#
# Bulk Modulus (GPa) = 55.85627 75.38708 65.62167
# Shear Modulus (GPa) = 41.58101 49.48358 45.53230
#
# Velocity S-wave (km/s) = 4.04786 4.41579 4.23582
# Velocity P-wave (km/s) = 6.62248 7.46361 7.05559
#
# Compressibility (1/GPa) = 0.01790309
#
# Stress axis : x y z
#
# Youngs Moduli (GPa) = 90.53455 140.81774 193.43046
#
# Poissons Ratio (x) = -0.18568 0.33157
# Poissons Ratio (y) = -0.11938 0.44707
# Poissons Ratio (z) = 0.15519 0.32547
#
# Static dielectric constant tensor:
#      x y z
#    x 2.137190 0.000000 -0.008670 
#    y 0.000000 1.990730 0.000000 
#    z -0.008670 0.000000 1.975360 
# 
# From -- ./inp_files/255576.got.cif
#   From: 2010.05.17/outbox.cif.g08.bks.cpg/sg12_128_cif.got.tgz:255576.got - 2010.06.03 13:09:07.
