data_PCOD9200981
_publ_section_title
;
Structure prediction by ZEFSAII (Michael W. Deem and Ramdas Pophale) SiO2 
 PCOD9200981
Probable space group: C 2/M
;
_chemical_formula_sum "Si O2"
_cell_formula_units_Z 48
_cell_length_a 30.099283
_cell_length_b 10.313820
_cell_length_c 27.033251
_cell_angle_alpha 90.000000
_cell_angle_beta 161.938602
_cell_angle_gamma 90.000000
_cell_volume 2601.872750
_symmetry_space_group_name_H-M "C 2/M"
_symmetry_group_IT_number 12
_symmetry_cell_setting 'monoclinic'
loop_
_space_group_symop_operation_xyz
x,y,z
-x,y,-z
-x,-y,-z
x,-y,z
1/2+x,1/2+y,z
1/2-x,1/2+y,-z
1/2-x,1/2-y,-z
1/2+x,1/2-y,z
loop_
_atom_site_type_symbol
_atom_site_label
_atom_site_fract_x
_atom_site_fract_y
_atom_site_fract_z
Si Si1 0.886919 0.767736 0.751471
Si Si2 0.778494 0.734596 0.913856
Si Si3 0.857182 0.500000 0.066480
Si Si4 0.164241 0.147102 0.192100
Si Si5 0.163770 0.853016 0.690324
Si Si6 0.895074 0.000000 0.684703
Si Si7 0.738366 0.500000 0.049806
Si Si8 0.179164 0.500000 0.366562
O O1 0.833719 0.817694 0.747861
O O2 0.821786 0.629680 0.667277
O O3 0.858673 0.873684 0.678967
O O4 0.059826 0.752126 0.936179
O O5 0.791905 0.626423 0.970602
O O6 0.681488 0.686485 0.766265
O O7 0.730782 0.870828 0.886270
O O8 0.821561 0.500000 0.086339
O O9 0.027159 0.500000 0.235078
O O10 0.250700 0.251050 0.252148
O O11 0.217458 0.000000 0.240853
O O12 0.000000 0.150624 0.000000
O O13 0.000000 0.851543 0.500000
O O14 0.220483 0.000000 0.744447
O O15 0.807213 0.000000 0.541238
O O16 0.066526 0.000000 0.857711
#
# Coordination Sequence:
#
# PCOD9200981 Si02
#       8
#     8   8   4   8   8   4   4   4
#     4  10  20  37  60  88 119 156 195 245 305 355
#     4  10  20  39  62  84 119 159 198 245 300 359
#     4  10  20  40  58  84 114 156 206 246 287 354
#     4  11  23  39  67  94 121 156 208 254 295 373
#     4  11  25  44  62  89 128 162 199 251 310 359
#     4  10  20  40  56  83 122 152 190 251 305 350
#     4  10  22  36  64  84 112 158 202 242 293 360
#     4  10  22  36  60  83 120 156 194 247 303 350
#
# _framework density 18.448250999999999
#
# number of rings (size 3 to 8) (size 9 to 14) (size 15 to 20)
#    0.000    1.667    3.333    1.000    2.333    0.667 
#    6.000    0.000    0.000    0.000    0.000    0.000 
#    0.000    0.000    0.000    0.000    0.000    0.000 
#
# Total GULP energy -134084.659769 kJ/mol
# GULP energy per Si atom -5586.860824 kJ/mol
# Density = 1.840626 g / cm^3
# Si number density = 18.448251 Si / 1000 Ang^3
#
#
#
# Elastic Constant Matrix: (Units=GPa)
#
#
# Indices 1 2 3 4 5 6 
#
# 1 80.9254 53.1146 18.5891 -0.0001 -8.1401 -0.0011
# 2 53.1146 176.4548 35.3839 -0.0007 -3.1382 -0.0019
# 3 18.5891 35.3839 56.5811 -0.0007 -23.8582 -0.0012
# 4 -0.0001 -0.0007 -0.0007 15.9159 -0.0005 -4.3023
# 5 -8.1401 -3.1382 -23.8582 -0.0005 21.2286 -0.0008
# 6 -0.0011 -0.0019 -0.0012 -4.3023 -0.0008 21.7883
#
#
#
# Elastic Compliance Matrix: (Units=1/GPa)
#
#
# Indices 1 2 3 4 5 6 
#
# 1 0.016002 -0.004715 -0.000029 0.000000 0.005406 0.000001
# 2 -0.004715 0.008436 -0.007533 0.000000 -0.009027 0.000000
# 3 -0.000029 -0.007533 0.041665 0.000004 0.045701 0.000004
# 4 0.000000 0.000000 0.000004 0.066373 0.000007 0.013106
# 5 0.005406 -0.009027 0.045701 0.000007 0.099206 0.000007
# 6 0.000001 0.000000 0.000004 0.013106 0.000007 0.048484
#
#
# Mechanical properties :
#
#
# Convention : Reuss Voigt Hill
#
# Bulk Modulus (GPa) = 24.06818 58.68183 41.37500
# Shear Modulus (GPa) = 15.69506 25.57814 20.63660
#
# Velocity S-wave (km/s) = 2.91995 3.72759 3.34821
# Velocity P-wave (km/s) = 4.94396 7.09961 6.11748
#
# Compressibility (1/GPa) = 0.04154864
#
# Stress axis : x y z
#
# Youngs Moduli (GPa) = 62.49201 118.53342 24.00101
#
# Poissons Ratio (x) = 0.55885 0.00070
# Poissons Ratio (y) = 0.29463 0.18081
# Poissons Ratio (z) = 0.00183 0.89295
#
# Static dielectric constant tensor:
#      x y z
#    x 1.598020 0.000000 0.002730 
#    y 0.000000 1.633590 0.000000 
#    z 0.002730 0.000000 1.616470 
# 
# From -- ./inp_files/351966.got.cif
#   From: 2010.05.17/outbox.cif.g08.bks.cpg/sg12_176_cif.got.tgz:351966.got - 2010.06.03 13:09:07.
