data_PCOD9200718
_publ_section_title
;
Structure prediction by ZEFSAII (Michael W. Deem and Ramdas Pophale) SiO2 
 PCOD9200718
Probable space group: C 2/M
;
_chemical_formula_sum "Si O2"
_cell_formula_units_Z 44
_cell_length_a 10.913805
_cell_length_b 25.186871
_cell_length_c 9.658850
_cell_angle_alpha 90.000000
_cell_angle_beta 111.906004
_cell_angle_gamma 90.000000
_cell_volume 2463.365585
_symmetry_space_group_name_H-M "C 2/M"
_symmetry_group_IT_number 12
_symmetry_cell_setting 'monoclinic'
loop_
_space_group_symop_operation_xyz
x,y,z
-x,y,-z
-x,-y,-z
x,-y,z
1/2+x,1/2+y,z
1/2-x,1/2+y,-z
1/2-x,1/2-y,-z
1/2+x,1/2-y,z
loop_
_atom_site_type_symbol
_atom_site_label
_atom_site_fract_x
_atom_site_fract_y
_atom_site_fract_z
Si Si1 0.159208 0.277706 0.580695
Si Si2 0.862745 0.500000 0.022281
Si Si3 0.259566 0.886449 0.255492
Si Si4 0.178658 0.790039 0.866315
Si Si5 0.500000 0.652071 0.000000
Si Si6 0.367069 0.000000 0.351978
Si Si7 0.354650 0.886210 0.999625
O O1 0.250000 0.250000 0.500000
O O2 0.219533 0.336114 0.636741
O O3 0.166660 0.240026 0.718274
O O4 0.000000 0.284213 0.500000
O O5 0.895504 0.500000 0.198992
O O6 0.793488 0.444978 0.957095
O O7 0.000000 0.500000 0.000000
O O8 0.118433 0.881861 0.117367
O O9 0.288821 0.943870 0.335892
O O10 0.358528 0.877240 0.166703
O O11 0.250000 0.750000 0.000000
O O12 0.051506 0.810835 0.896519
O O13 0.268754 0.841884 0.890890
O O14 0.500000 0.000000 0.500000
O O15 0.500000 0.885319 0.000000
#
# Coordination Sequence:
#
# PCOD9200718 Si02
#       7
#     8   4   8   8   4   4   8
#     4  12  26  40  58  89 128 161 201 255 312 371
#     4   8  16  34  53  84 112 140 187 248 282 339
#     4  10  21  38  59  87 118 158 197 253 293 364
#     4  11  22  36  62  82 113 160 197 247 294 366
#     4  10  20  39  62  90 116 149 216 248 302 356
#     4  10  20  37  59  86 122 155 196 238 304 363
#     4   9  18  31  60  85 112 142 197 242 295 341
#
# _framework density 17.861742
#
# number of rings (size 3 to 8) (size 9 to 14) (size 15 to 20)
#    0.000    1.818    3.636    1.636    3.818    0.364 
#    3.273    0.909    0.000    0.000    0.000    2.545 
#    0.000    0.000    0.000    0.000    0.000    0.000 
#
# Total GULP energy -122481.883902 kJ/mol
# GULP energy per Si atom -5567.358359 kJ/mol
# Density = 1.782109 g / cm^3
# Si number density = 17.861742 Si / 1000 Ang^3
#
#
#
# Elastic Constant Matrix: (Units=GPa)
#
#
# Indices 1 2 3 4 5 6 
#
# 1 97.2164 46.7051 42.1550 0.0000 -3.0987 0.0000
# 2 46.7051 177.8171 67.6256 0.0000 12.0729 0.0000
# 3 42.1550 67.6256 82.6945 0.0000 12.8600 0.0000
# 4 0.0000 0.0000 0.0000 5.4019 0.0000 120.5891
# 5 -3.0987 12.0729 12.8600 0.0000 28.3988 0.0000
# 6 0.0000 0.0000 0.0000 120.5891 0.0000 -515.4468
#
#
#
# Elastic Compliance Matrix: (Units=1/GPa)
#
#
# Indices 1 2 3 4 5 6 
#
# 1 0.014113 -0.001476 -0.006804 0.000000 0.005248 0.000000
# 2 -0.001476 0.008323 -0.005894 0.000000 -0.001030 0.000000
# 3 -0.006804 -0.005894 0.021630 0.000000 -0.008032 0.000000
# 4 0.000000 0.000000 0.000000 0.029750 0.000000 0.006960
# 5 0.005248 -0.001030 -0.008032 0.000000 0.039860 0.000000
# 6 0.000000 0.000000 0.000000 0.006960 0.000000 -0.000312
#
#
# Mechanical properties :
#
#
# Convention : Reuss Voigt Hill
#
# Bulk Modulus (GPa) = 63.61617 74.52215 69.06916
# Shear Modulus (GPa) = 34.02540 -82.91306 -24.44383
#
# Velocity S-wave (km/s) = 4.36929 -6.82057 -3.70334
# Velocity P-wave (km/s) = 7.81968 4.49607 4.52398
#
# Compressibility (1/GPa) = 0.01571927
#
# Stress axis : x y z
#
# Youngs Moduli (GPa) = 70.85796 120.15296 46.23282
#
# Poissons Ratio (x) = 0.17731 0.31455
# Poissons Ratio (y) = 0.10456 0.27248
# Poissons Ratio (z) = 0.48209 0.70814
#
# Static dielectric constant tensor:
#      x y z
#    x 1.647360 0.000000 -0.008270 
#    y 0.000000 1.647900 0.000000 
#    z -0.008270 0.000000 1.593290 
# 
# From -- ./inp_files/50896.got.cif
#   From: 2010.05.17/outbox.cif.g08.bks.cpg/sg12_26_cif.got.tgz:50896.got - 2010.06.03 13:09:07.
