data_PCOD9200124
_publ_section_title
;
Structure prediction by ZEFSAII (Michael W. Deem and Ramdas Pophale) SiO2 
 PCOD9200124
Probable space group: C 2/M
;
_chemical_formula_sum "Si O2"
_cell_formula_units_Z 64
_cell_length_a 9.545574
_cell_length_b 17.917673
_cell_length_c 30.139742
_cell_angle_alpha 90.000000
_cell_angle_beta 140.955198
_cell_angle_gamma 90.000000
_cell_volume 3247.237227
_symmetry_space_group_name_H-M "C 2/M"
_symmetry_group_IT_number 12
_symmetry_cell_setting 'monoclinic'
loop_
_space_group_symop_operation_xyz
x,y,z
-x,y,-z
-x,-y,-z
x,-y,z
1/2+x,1/2+y,z
1/2-x,1/2+y,-z
1/2-x,1/2-y,-z
1/2+x,1/2-y,z
loop_
_atom_site_type_symbol
_atom_site_label
_atom_site_fract_x
_atom_site_fract_y
_atom_site_fract_z
Si Si1 0.926463 0.198446 0.202627
Si Si2 0.632614 0.665371 0.165715
Si Si3 0.531040 0.089776 0.317098
Si Si4 0.320404 0.088903 0.798578
Si Si5 0.730552 0.811976 0.532625
Si Si6 0.266602 0.411665 0.462090
Si Si7 0.843973 0.089376 0.921864
Si Si8 0.798956 0.812292 0.315766
O O1 0.755695 0.260327 0.178855
O O2 0.840968 0.122046 0.203400
O O3 0.941825 0.188566 0.153386
O O4 0.161440 0.235499 0.275848
O O5 0.802811 0.616418 0.237938
O O6 0.587276 0.621555 0.109149
O O7 0.569939 0.106030 0.378751
O O8 0.713473 0.140579 0.336940
O O9 0.560358 0.000000 0.317402
O O10 0.584439 0.104719 0.869147
O O11 0.257395 0.134763 0.739309
O O12 0.293775 0.000000 0.787001
O O13 0.500000 0.805669 0.500000
O O14 0.750000 0.750000 0.500000
O O15 0.736179 0.886416 0.504710
O O16 0.939144 0.802399 0.616069
O O17 0.500000 0.380966 0.500000
O O18 0.284798 0.500000 0.466244
O O19 0.864889 0.000000 0.924328
O O20 0.000000 0.117072 0.000000
#
# Coordination Sequence:
#
# PCOD9200124 Si02
#       8
#     8   8   8   8   8   8   8   8
#     4  11  23  40  65  97 126 172 223 281 320 379
#     4  11  21  38  64  90 131 167 224 261 328 382
#     4  10  20  36  64  91 116 161 212 262 320 392
#     4  11  23  42  68 101 135 174 222 274 327 387
#     4  12  29  42  63  88 121 167 215 269 336 397
#     4  10  21  40  61  86 120 156 202 261 325 388
#     4  10  21  41  69 102 140 179 216 262 325 398
#     4  11  23  40  69  88 128 168 220 274 329 395
#
# _framework density 19.709061999999999
#
# number of rings (size 3 to 8) (size 9 to 14) (size 15 to 20)
#    0.000    1.250    5.000    1.125    3.500    1.750 
#    0.000    4.375    0.000    2.250    0.000    0.000 
#    0.000    0.000    0.000    0.000    0.000    0.000 
#
# Total GULP energy -178632.285477 kJ/mol
# GULP energy per Si atom -5582.258921 kJ/mol
# Density = 1.966420 g / cm^3
# Si number density = 19.709062 Si / 1000 Ang^3
#
#
#
# Elastic Constant Matrix: (Units=GPa)
#
#
# Indices 1 2 3 4 5 6 
#
# 1 125.3663 34.2137 43.5669 0.0000 -0.0135 0.0000
# 2 34.2137 74.1896 39.7441 0.0000 2.1816 0.0000
# 3 43.5669 39.7441 124.1576 -0.0002 -9.2727 0.0000
# 4 0.0000 0.0000 -0.0002 23.7796 0.0000 -7.0790
# 5 -0.0135 2.1816 -9.2727 0.0000 16.8756 0.0000
# 6 0.0000 0.0000 0.0000 -7.0790 0.0000 35.8318
#
#
#
# Elastic Compliance Matrix: (Units=1/GPa)
#
#
# Indices 1 2 3 4 5 6 
#
# 1 0.009686 -0.003114 -0.002473 0.000000 -0.000948 0.000000
# 2 -0.003114 0.017716 -0.004953 0.000000 -0.005014 0.000000
# 3 -0.002473 -0.004953 0.011007 0.000000 0.006686 0.000000
# 4 0.000000 0.000000 0.000000 0.044681 0.000000 0.008827
# 5 -0.000948 -0.005014 0.006686 0.000000 0.063579 0.000000
# 6 0.000000 0.000000 0.000000 0.008827 0.000000 0.029652
#
#
# Mechanical properties :
#
#
# Convention : Reuss Voigt Hill
#
# Bulk Modulus (GPa) = 57.70649 62.08479 59.89564
# Shear Modulus (GPa) = 24.60933 29.04331 26.82632
#
# Velocity S-wave (km/s) = 3.53743 3.84292 3.69333
# Velocity P-wave (km/s) = 6.78434 7.15959 6.97449
#
# Compressibility (1/GPa) = 0.01732907
#
# Stress axis : x y z
#
# Youngs Moduli (GPa) = 103.24492 56.44675 90.85369
#
# Poissons Ratio (x) = 0.17579 0.22465
# Poissons Ratio (y) = 0.32153 0.44997
# Poissons Ratio (z) = 0.25529 0.27956
#
# Static dielectric constant tensor:
#      x y z
#    x 1.688520 0.000000 0.011060 
#    y 0.000000 1.583150 0.000000 
#    z 0.011060 0.000000 1.704620 
# 
# From -- ./inp_files/373007.got.cif
#   From: 2010.05.17/outbox.cif.g08.bks.cpg/sg12_187_cif.got.tgz:373007.got - 2010.06.03 13:09:07.
