data_PCOD9200560
_publ_section_title
;
Structure prediction by ZEFSAII (Michael W. Deem and Ramdas Pophale) SiO2 
 PCOD9200560
Probable space group: C 2/M
;
_chemical_formula_sum "Si O2"
_cell_formula_units_Z 44
_cell_length_a 9.442687
_cell_length_b 18.911507
_cell_length_c 11.722914
_cell_angle_alpha 90.000000
_cell_angle_beta 98.113347
_cell_angle_gamma 90.000000
_cell_volume 2072.471053
_symmetry_space_group_name_H-M "C 2/M"
_symmetry_group_IT_number 12
_symmetry_cell_setting 'monoclinic'
loop_
_space_group_symop_operation_xyz
x,y,z
-x,y,-z
-x,-y,-z
x,-y,z
1/2+x,1/2+y,z
1/2-x,1/2+y,-z
1/2-x,1/2-y,-z
1/2+x,1/2-y,z
loop_
_atom_site_type_symbol
_atom_site_label
_atom_site_fract_x
_atom_site_fract_y
_atom_site_fract_z
Si Si1 0.516843 0.500000 0.139307
Si Si2 0.003147 0.500000 0.640212
Si Si3 0.324272 0.500000 0.329737
Si Si4 0.653341 0.645154 0.541618
Si Si5 0.281236 0.733434 0.245886
Si Si6 0.470446 0.338303 0.862406
Si Si7 0.612793 0.142128 0.615280
O O1 0.377428 0.500000 0.206045
O O2 0.576723 0.419912 0.171865
O O3 0.500000 0.500000 0.000000
O O4 0.082835 0.570905 0.679730
O O5 0.000000 0.500000 0.500000
O O6 0.845929 0.500000 0.672929
O O7 0.374810 0.570085 0.401496
O O8 0.500000 0.679436 0.500000
O O9 0.748201 0.689765 0.641390
O O10 0.736645 0.637666 0.433383
O O11 0.377156 0.681806 0.178840
O O12 0.389690 0.793594 0.300281
O O13 0.147868 0.778260 0.182148
O O14 0.500000 0.335851 0.000000
O O15 0.500000 0.148291 0.500000
#
# Coordination Sequence:
#
# PCOD9200560 Si02
#       7
#     4   4   4   8   8   8   8
#     4  10  24  46  71  95 127 172 232 290 333 390
#     4  10  20  37  58  90 128 182 219 262 318 396
#     4  12  21  41  66  93 136 179 232 271 335 390
#     4  12  23  38  61  99 138 180 222 265 324 407
#     4  12  24  40  66  96 131 177 215 276 340 396
#     4  11  25  46  70  97 127 169 229 288 342 393
#     4  11  21  38  58  90 138 173 216 260 323 403
#
# _framework density 21.230695000000001
#
# number of rings (size 3 to 8) (size 9 to 14) (size 15 to 20)
#    0.000    0.727    5.455    4.091    0.000    0.727 
#    0.000    0.000    0.000    0.000    0.000    8.909 
#    0.000    0.000    0.000    0.000    0.000    0.000 
#
# Total GULP energy -122776.069629 kJ/mol
# GULP energy per Si atom -5580.730438 kJ/mol
# Density = 2.118237 g / cm^3
# Si number density = 21.230695 Si / 1000 Ang^3
#
#
#
# Elastic Constant Matrix: (Units=GPa)
#
#
# Indices 1 2 3 4 5 6 
#
# 1 107.5037 12.8027 39.5054 0.0000 -3.5652 0.0000
# 2 12.8027 143.4547 38.2259 0.0000 6.5877 0.0000
# 3 39.5054 38.2259 78.0362 0.0000 -12.5517 0.0000
# 4 0.0000 0.0000 0.0000 29.5728 0.0000 -2.8256
# 5 -3.5652 6.5877 -12.5517 0.0000 35.3917 0.0000
# 6 0.0000 0.0000 0.0000 -2.8256 0.0000 30.0417
#
#
#
# Elastic Compliance Matrix: (Units=1/GPa)
#
#
# Indices 1 2 3 4 5 6 
#
# 1 0.011522 0.000732 -0.006391 0.000000 -0.001242 0.000000
# 2 0.000732 0.008389 -0.005005 0.000000 -0.003263 0.000000
# 3 -0.006391 -0.005005 0.019670 0.000000 0.007264 0.000000
# 4 0.000000 0.000000 0.000000 0.034122 0.000000 0.003209
# 5 -0.001242 -0.003263 0.007264 0.000000 0.031313 0.000000
# 6 0.000000 0.000000 0.000000 0.003209 0.000000 0.033589
#
#
# Mechanical properties :
#
#
# Convention : Reuss Voigt Hill
#
# Bulk Modulus (GPa) = 54.78564 56.67361 55.72962
# Shear Modulus (GPa) = 30.11724 34.89859 32.50792
#
# Velocity S-wave (km/s) = 3.77048 4.05875 3.91727
# Velocity P-wave (km/s) = 6.69450 6.97974 6.83861
#
# Compressibility (1/GPa) = 0.01825296
#
# Stress axis : x y z
#
# Youngs Moduli (GPa) = 86.78766 119.20513 50.83887
#
# Poissons Ratio (x) = -0.08724 0.32493
# Poissons Ratio (y) = -0.06351 0.25443
# Poissons Ratio (z) = 0.55470 0.59657
#
# Static dielectric constant tensor:
#      x y z
#    x 2.024710 0.000000 -0.007250 
#    y 0.000000 1.843300 0.000000 
#    z -0.007250 0.000000 1.756000 
# 
# From -- ./inp_files/120888.got.cif
#   From: 2010.05.17/outbox.cif.g08.bks.cpg/sg12_61_cif.got.tgz:120888.got - 2010.06.03 13:09:07.
