data_PCOD9200963
_publ_section_title
;
Structure prediction by ZEFSAII (Michael W. Deem and Ramdas Pophale) SiO2 
 PCOD9200963
Probable space group: C 2/M
;
_chemical_formula_sum "Si O2"
_cell_formula_units_Z 64
_cell_length_a 31.438798
_cell_length_b 7.819174
_cell_length_c 14.796864
_cell_angle_alpha 90.000000
_cell_angle_beta 53.277091
_cell_angle_gamma 90.000000
_cell_volume 2915.545785
_symmetry_space_group_name_H-M "C 2/M"
_symmetry_group_IT_number 12
_symmetry_cell_setting 'monoclinic'
loop_
_space_group_symop_operation_xyz
x,y,z
-x,y,-z
-x,-y,-z
x,-y,z
1/2+x,1/2+y,z
1/2-x,1/2+y,-z
1/2-x,1/2-y,-z
1/2+x,1/2-y,z
loop_
_atom_site_type_symbol
_atom_site_label
_atom_site_fract_x
_atom_site_fract_y
_atom_site_fract_z
Si Si1 0.051598 0.292829 0.876938
Si Si2 0.953270 0.197073 0.499869
Si Si3 0.114091 0.208123 0.088390
Si Si4 0.165870 0.792974 0.357720
Si Si5 0.247382 0.298840 0.398704
Si Si6 0.008673 0.298230 0.740022
Si Si7 0.158105 0.798901 0.843093
Si Si8 0.801020 0.205157 0.876086
O O1 0.054776 0.500000 0.876472
O O2 0.104647 0.220317 0.852855
O O3 0.040836 0.241698 0.787640
O O4 0.000000 0.240945 0.000000
O O5 0.894254 0.270993 0.578239
O O6 0.000000 0.278490 0.500000
O O7 0.972858 0.202062 0.372419
O O8 0.947718 0.000000 0.538999
O O9 0.053875 0.271290 0.164010
O O10 0.146725 0.262647 0.135449
O O11 0.112280 0.000000 0.089247
O O12 0.145189 0.270542 0.959339
O O13 0.192634 0.739004 0.417071
O O14 0.198750 0.733121 0.227689
O O15 0.164974 0.000000 0.359775
O O16 0.255673 0.500000 0.387673
O O17 0.250000 0.250000 0.500000
O O18 0.293722 0.221205 0.275982
O O19 0.018188 0.500000 0.714528
O O20 0.169072 0.000000 0.843104
O O21 0.803618 0.000000 0.868835
O O22 0.750000 0.250000 0.000000
#
# Coordination Sequence:
#
# PCOD9200963 Si02
#       8
#     8   8   8   8   8   8   8   8
#     4  10  21  38  57  84 123 159 191 239 302 360
#     4  10  22  42  66  89 120 163 206 251 300 357
#     4  10  20  37  60  87 119 156 195 241 295 356
#     4  10  22  41  64  91 122 161 208 252 303 364
#     4  11  25  44  64  89 121 159 206 257 307 361
#     4  11  23  37  57  88 121 154 196 244 301 360
#     4  10  22  38  60  87 116 154 203 250 294 351
#     4  10  21  38  62  90 121 155 197 246 301 361
#
# _framework density 21.951291999999999
#
# number of rings (size 3 to 8) (size 9 to 14) (size 15 to 20)
#    0.000    1.750    1.250    2.250    1.750    7.000 
#    0.000    1.250    0.000    0.000    0.000    0.000 
#    0.000    0.000    0.000    0.000    0.000    0.000 
#
# Total GULP energy -178854.296188 kJ/mol
# GULP energy per Si atom -5589.196756 kJ/mol
# Density = 2.190133 g / cm^3
# Si number density = 21.951292 Si / 1000 Ang^3
#
#
#
# Elastic Constant Matrix: (Units=GPa)
#
#
# Indices 1 2 3 4 5 6 
#
# 1 109.1687 -5.9564 36.2770 0.0000 19.1841 0.0002
# 2 -5.9564 27.0173 0.2222 0.0000 4.1546 0.0003
# 3 36.2770 0.2222 107.3109 0.0000 9.4961 0.0000
# 4 0.0000 0.0000 0.0000 22.0491 0.0000 -1.4873
# 5 19.1841 4.1546 9.4961 0.0000 41.0954 0.0000
# 6 0.0002 0.0003 0.0000 -1.4873 0.0000 14.9006
#
#
#
# Elastic Compliance Matrix: (Units=1/GPa)
#
#
# Indices 1 2 3 4 5 6 
#
# 1 0.011318 0.003266 -0.003406 0.000000 -0.004827 0.000000
# 2 0.003266 0.038547 -0.000719 0.000000 -0.005255 -0.000001
# 3 -0.003406 -0.000719 0.010540 0.000000 -0.000773 0.000000
# 4 0.000000 0.000000 0.000000 0.045661 0.000000 0.004558
# 5 -0.004827 -0.005255 -0.000773 0.000000 0.027297 0.000000
# 6 0.000000 -0.000001 0.000000 0.004558 0.000000 0.067566
#
#
# Mechanical properties :
#
#
# Convention : Reuss Voigt Hill
#
# Bulk Modulus (GPa) = 17.03940 33.84250 25.44095
# Shear Modulus (GPa) = 22.50126 29.80597 26.15361
#
# Velocity S-wave (km/s) = 3.20512 3.68886 3.45547
# Velocity P-wave (km/s) = 4.63425 5.79605 5.24740
#
# Compressibility (1/GPa) = 0.05868752
#
# Stress axis : x y z
#
# Youngs Moduli (GPa) = 88.35276 25.94216 94.87702
#
# Poissons Ratio (x) = -0.08471 0.32314
# Poissons Ratio (y) = -0.28852 0.06819
# Poissons Ratio (z) = 0.30091 0.01864
#
# Static dielectric constant tensor:
#      x y z
#    x 1.784770 0.000000 0.005720 
#    y 0.000000 1.804550 0.000000 
#    z 0.005720 0.000000 1.819940 
# 
# From -- ./inp_files/249863.got.cif
#   From: 2010.05.17/outbox.cif.g08.bks.cpg/sg12_125_cif.got.tgz:249863.got - 2010.06.03 13:09:07.
