data_PCOD9200280
_publ_section_title
;
Structure prediction by ZEFSAII (Michael W. Deem and Ramdas Pophale) SiO2 
 PCOD9200280
Probable space group: C 2/M
;
_chemical_formula_sum "Si O2"
_cell_formula_units_Z 56
_cell_length_a 11.580208
_cell_length_b 30.178265
_cell_length_c 9.826176
_cell_angle_alpha 90.000000
_cell_angle_beta 115.365602
_cell_angle_gamma 90.000000
_cell_volume 3102.900531
_symmetry_space_group_name_H-M "C 2/M"
_symmetry_group_IT_number 12
_symmetry_cell_setting 'monoclinic'
loop_
_space_group_symop_operation_xyz
x,y,z
-x,y,-z
-x,-y,-z
x,-y,z
1/2+x,1/2+y,z
1/2-x,1/2+y,-z
1/2-x,1/2-y,-z
1/2+x,1/2-y,z
loop_
_atom_site_type_symbol
_atom_site_label
_atom_site_fract_x
_atom_site_fract_y
_atom_site_fract_z
Si Si1 0.396947 0.948931 0.069191
Si Si2 0.762960 0.318375 0.148927
Si Si3 0.603532 0.735890 0.660879
Si Si4 0.515692 0.116730 0.660964
Si Si5 0.439870 0.661170 0.734251
Si Si6 0.194336 0.878097 0.872529
Si Si7 0.751031 0.658263 0.607560
O O1 0.464064 0.924037 0.228016
O O2 0.365779 0.000000 0.081462
O O3 0.500000 0.947127 0.000000
O O4 0.272982 0.920162 0.964594
O O5 0.828563 0.271388 0.209171
O O6 0.632947 0.322072 0.169244
O O7 0.858745 0.353488 0.264732
O O8 0.744984 0.335802 0.986472
O O9 0.500000 0.755207 0.500000
O O10 0.522760 0.700536 0.707549
O O11 0.711121 0.708236 0.631460
O O12 0.500000 0.101235 0.500000
O O13 0.396295 0.147586 0.643934
O O14 0.542110 0.622810 0.817313
O O15 0.338536 0.647634 0.566747
O O16 0.219089 0.870339 0.725574
#
# Coordination Sequence:
#
# PCOD9200280 Si02
#       7
#     8   8   8   8   8   8   8
#     4  10  21  39  65  91 114 145 182 235 298 352
#     4  11  22  33  56  84 113 156 198 241 284 326
#     4   9  21  34  54  80 116 157 201 245 278 325
#     4  11  21  36  60  89 115 152 191 239 288 341
#     4  10  21  37  55  80 113 159 197 233 282 337
#     4  10  21  39  59  80 114 147 189 232 287 348
#     4  10  20  37  56  81 112 157 195 231 283 336
#
# _framework density 18.047629000000001
#
# number of rings (size 3 to 8) (size 9 to 14) (size 15 to 20)
#    0.000    1.857    2.857    2.143    2.000    3.714 
#    0.000    0.000    0.000    9.429    0.000    0.000 
#    0.000    0.000    0.000    0.000    0.000    0.000 
#
# Total GULP energy -156215.344015 kJ/mol
# GULP energy per Si atom -5579.119429 kJ/mol
# Density = 1.800655 g / cm^3
# Si number density = 18.047629 Si / 1000 Ang^3
#
#
#
# Elastic Constant Matrix: (Units=GPa)
#
#
# Indices 1 2 3 4 5 6 
#
# 1 82.4929 21.7144 15.4237 0.0000 -1.2180 0.0000
# 2 21.7144 75.4701 32.9905 0.0000 5.1571 0.0000
# 3 15.4237 32.9905 72.0924 0.0000 8.9073 0.0000
# 4 0.0000 0.0000 0.0000 -6.5131 0.0000 2.6782
# 5 -1.2180 5.1571 8.9073 0.0000 25.9674 0.0000
# 6 0.0000 0.0000 0.0000 2.6782 0.0000 16.5990
#
#
#
# Elastic Compliance Matrix: (Units=1/GPa)
#
#
# Indices 1 2 3 4 5 6 
#
# 1 0.013303 -0.003262 -0.001577 0.000000 0.001813 0.000000
# 2 -0.003262 0.017376 -0.007110 0.000000 -0.001165 0.000000
# 3 -0.001577 -0.007110 0.018062 0.000000 -0.004858 0.000000
# 4 0.000000 0.000000 0.000000 -0.143983 0.000000 0.023231
# 5 0.001813 -0.001165 -0.004858 0.000000 0.040493 0.000000
# 6 0.000000 0.000000 0.000000 0.023231 0.000000 0.056496
#
#
# Mechanical properties :
#
#
# Convention : Reuss Voigt Hill
#
# Bulk Modulus (GPa) = 40.25246 41.14585 40.69915
# Shear Modulus (GPa) = 147.38120 17.87244 82.62682
#
# Velocity S-wave (km/s) = 9.04653 3.15031 6.77363
# Velocity P-wave (km/s) = 11.46610 6.00671 9.15292
#
# Compressibility (1/GPa) = 0.02484320
#
# Stress axis : x y z
#
# Youngs Moduli (GPa) = 75.17364 57.54952 55.36394
#
# Poissons Ratio (x) = 0.18772 0.08733
# Poissons Ratio (y) = 0.24520 0.39363
# Poissons Ratio (z) = 0.11857 0.40917
#
# Static dielectric constant tensor:
#      x y z
#    x 1.621840 0.000000 0.005010 
#    y 0.000000 1.600030 0.000000 
#    z 0.005010 0.000000 1.650030 
# 
# From -- ./inp_files/54578.got.cif
#   From: 2010.05.17/outbox.cif.g08.bks.cpg/sg12_28_cif.got.tgz:54578.got - 2010.06.03 13:09:07.
