data_PCOD9201057
_publ_section_title
;
Structure prediction by ZEFSAII (Michael W. Deem and Ramdas Pophale) SiO2 
 PCOD9201057
Probable space group: C 2/M
;
_chemical_formula_sum "Si O2"
_cell_formula_units_Z 64
_cell_length_a 9.300685
_cell_length_b 13.472547
_cell_length_c 23.330472
_cell_angle_alpha 90.000000
_cell_angle_beta 92.719496
_cell_angle_gamma 90.000000
_cell_volume 2920.107132
_symmetry_space_group_name_H-M "C 2/M"
_symmetry_group_IT_number 12
_symmetry_cell_setting 'monoclinic'
loop_
_space_group_symop_operation_xyz
x,y,z
-x,y,-z
-x,-y,-z
x,-y,z
1/2+x,1/2+y,z
1/2-x,1/2+y,-z
1/2-x,1/2-y,-z
1/2+x,1/2-y,z
loop_
_atom_site_type_symbol
_atom_site_label
_atom_site_fract_x
_atom_site_fract_y
_atom_site_fract_z
Si Si1 0.341646 0.890135 0.973487
Si Si2 0.894883 0.880060 0.947488
Si Si3 0.558866 0.739303 0.667348
Si Si4 0.300201 0.691582 0.590663
Si Si5 0.338343 0.889340 0.521294
Si Si6 0.449196 0.883063 0.858605
Si Si7 0.684081 0.201676 0.253594
Si Si8 0.771772 0.880699 0.827036
O O1 0.365698 0.840682 0.912549
O O2 0.275645 0.000000 0.961014
O O3 0.500000 0.901216 0.000000
O O4 0.254833 0.850639 0.025757
O O5 0.887677 0.858681 0.879687
O O6 0.908875 0.000000 0.947074
O O7 0.000000 0.841761 0.000000
O O8 0.451854 0.675627 0.625152
O O9 0.665189 0.807862 0.631456
O O10 0.448410 0.800326 0.704833
O O11 0.668319 0.680330 0.710469
O O12 0.307118 0.803995 0.566182
O O13 0.266816 0.624979 0.535069
O O14 0.500000 0.874538 0.500000
O O15 0.327213 0.000000 0.544662
O O16 0.352856 0.865671 0.801134
O O17 0.612221 0.850188 0.847222
O O18 0.465746 0.000000 0.871435
O O19 0.695870 0.313193 0.227260
O O20 0.770051 0.000000 0.816344
#
# Coordination Sequence:
#
# PCOD9201057 Si02
#       8
#     8   8   8   8   8   8   8   8
#     4   9  15  28  53  79 104 138 182 229 289 368
#     4   9  17  30  51  81 111 139 177 234 302 365
#     4  10  22  39  62  82 125 164 200 235 300 325
#     4  10  20  41  62  92 125 168 189 243 283 346
#     4  10  20  37  66  99 128 160 198 233 283 348
#     4  10  20  37  61  83 108 150 196 240 298 360
#     4  11  22  41  59  87 113 156 201 257 279 342
#     4  10  20  38  61  81 110 152 193 238 303 363
#
# _framework density 21.917003999999999
#
# number of rings (size 3 to 8) (size 9 to 14) (size 15 to 20)
#    0.000    2.125    3.750    0.000    0.000    1.000 
#    0.000   11.875    0.000    0.000    0.000    0.000 
#    0.000    0.000    0.000    0.000    0.000    0.000 
#
# Total GULP energy -178447.523711 kJ/mol
# GULP energy per Si atom -5576.485116 kJ/mol
# Density = 2.186712 g / cm^3
# Si number density = 21.917004 Si / 1000 Ang^3
#
#
#
# Elastic Constant Matrix: (Units=GPa)
#
#
# Indices 1 2 3 4 5 6 
#
# 1 103.7655 -4.3575 37.8632 0.0000 17.9043 0.0000
# 2 -4.3575 67.1510 8.0741 0.0000 -9.5904 0.0000
# 3 37.8632 8.0741 107.3805 0.0000 16.0910 0.0000
# 4 0.0000 0.0000 0.0000 11.4498 0.0000 0.0456
# 5 17.9043 -9.5904 16.0910 0.0000 45.5352 0.0000
# 6 0.0000 0.0000 0.0000 0.0456 0.0000 10.4257
#
#
#
# Elastic Compliance Matrix: (Units=1/GPa)
#
#
# Indices 1 2 3 4 5 6 
#
# 1 0.011537 0.000748 -0.003662 0.000000 -0.003085 0.000000
# 2 0.000748 0.015713 -0.002003 0.000000 0.003723 0.000000
# 3 -0.003662 -0.002003 0.011195 0.000000 -0.002938 0.000000
# 4 0.000000 0.000000 0.000000 0.087339 0.000000 -0.000382
# 5 -0.003085 0.003723 -0.002938 0.000000 0.024996 0.000000
# 6 0.000000 0.000000 0.000000 -0.000382 0.000000 0.095919
#
#
# Mechanical properties :
#
#
# Convention : Reuss Voigt Hill
#
# Bulk Modulus (GPa) = 34.95162 40.16185 37.55674
# Shear Modulus (GPa) = 18.79204 29.26328 24.02766
#
# Velocity S-wave (km/s) = 2.93135 3.65798 3.31464
# Velocity P-wave (km/s) = 5.23822 6.01709 5.64112
#
# Compressibility (1/GPa) = 0.02861098
#
# Stress axis : x y z
#
# Youngs Moduli (GPa) = 86.67725 63.64168 89.32683
#
# Poissons Ratio (x) = -0.04763 0.32712
# Poissons Ratio (y) = -0.06487 0.17895
# Poissons Ratio (z) = 0.31742 0.12749
#
# Static dielectric constant tensor:
#      x y z
#    x 1.739100 0.000000 0.000650 
#    y 0.000000 1.836870 0.000000 
#    z 0.000650 0.000000 1.808530 
# 
# From -- ./inp_files/332964.got.cif
#   From: 2010.05.17/outbox.cif.g08.bks.cpg/sg12_167_cif.got.tgz:332964.got - 2010.06.03 13:09:07.
