data_PCOD9201885
_publ_section_title
;
Structure prediction by ZEFSAII (Michael W. Deem and Ramdas Pophale) SiO2 
 PCOD9201885
Probable space group: C 2/M
;
_chemical_formula_sum "Si O2"
_cell_formula_units_Z 40
_cell_length_a 14.286677
_cell_length_b 18.345292
_cell_length_c 19.583434
_cell_angle_alpha 90.000000
_cell_angle_beta 21.449361
_cell_angle_gamma 90.000000
_cell_volume 1876.914306
_symmetry_space_group_name_H-M "C 2/M"
_symmetry_group_IT_number 12
_symmetry_cell_setting 'monoclinic'
loop_
_space_group_symop_operation_xyz
x,y,z
-x,y,-z
-x,-y,-z
x,-y,z
1/2+x,1/2+y,z
1/2-x,1/2+y,-z
1/2-x,1/2-y,-z
1/2+x,1/2-y,z
loop_
_atom_site_type_symbol
_atom_site_label
_atom_site_fract_x
_atom_site_fract_y
_atom_site_fract_z
Si Si1 0.653352 0.086287 0.074630
Si Si2 0.457276 0.585799 0.742701
Si Si3 0.080328 0.313202 0.524475
Si Si4 0.355864 0.420412 0.167724
Si Si5 0.871258 0.145205 0.513391
O O1 0.424720 0.125580 0.270001
O O2 0.601591 0.000000 0.116228
O O3 0.701415 0.102694 0.961261
O O4 0.927617 0.100239 0.924294
O O5 0.510340 0.500000 0.719794
O O6 0.671891 0.639672 0.626817
O O7 0.484165 0.598882 0.643148
O O8 0.109600 0.229127 0.523354
O O9 0.000000 0.313699 0.500000
O O10 0.847054 0.358888 0.712590
O O11 0.241519 0.500000 0.265979
O O12 0.500000 0.430909 0.000000
O O13 0.000000 0.136269 0.500000
#
# Coordination Sequence:
#
# PCOD9201885 Si02
#       5
#     8   8   8   8   8
#     4  10  22  41  67  96 125 166 220 269 316 377
#     4  11  23  41  69  96 125 171 218 270 321 373
#     4  11  22  41  63  98 135 167 203 261 337 394
#     4  10  20  37  65  99 131 165 208 265 327 385
#     4  11  26  45  61  94 133 177 218 260 320 380
#
# _framework density 21.311575000000001
#
# number of rings (size 3 to 8) (size 9 to 14) (size 15 to 20)
#    0.000    1.400    2.000    3.000    0.000    5.600 
#    7.200    2.000    0.000    0.000    0.000    0.000 
#    0.000    0.000    0.000    0.000    0.000    0.000 
#
# Total GULP energy -111523.649512 kJ/mol
# GULP energy per Si atom -5576.182476 kJ/mol
# Density = 2.126307 g / cm^3
# Si number density = 21.311575 Si / 1000 Ang^3
#
#
#
# Elastic Constant Matrix: (Units=GPa)
#
#
# Indices 1 2 3 4 5 6 
#
# 1 86.7340 11.0225 16.8663 -0.0847 21.5883 -0.0346
# 2 11.0225 107.7795 56.7372 -0.2104 1.8748 -0.1409
# 3 16.8663 56.7372 106.6193 -0.2942 19.0008 -0.2176
# 4 -0.0847 -0.2104 -0.2942 54.9529 -0.0010 11.4451
# 5 21.5883 1.8748 19.0008 -0.0010 32.1455 0.0487
# 6 -0.0346 -0.1409 -0.2176 11.4451 0.0487 40.7545
#
#
#
# Elastic Compliance Matrix: (Units=1/GPa)
#
#
# Indices 1 2 3 4 5 6 
#
# 1 0.014018 -0.001373 0.000198 0.000014 -0.009451 0.000016
# 2 -0.001373 0.013427 -0.007772 0.000009 0.004733 -0.000004
# 3 0.000198 -0.007772 0.015007 0.000040 -0.008550 0.000052
# 4 0.000014 0.000009 0.000040 0.019328 -0.000025 -0.005428
# 5 -0.009451 0.004733 -0.008550 -0.000025 0.042234 -0.000081
# 6 0.000016 -0.000004 0.000052 -0.005428 -0.000081 0.026062
#
#
# Mechanical properties :
#
#
# Convention : Reuss Voigt Hill
#
# Bulk Modulus (GPa) = 40.71909 52.26497 46.49203
# Shear Modulus (GPa) = 32.01910 40.00435 36.01172
#
# Velocity S-wave (km/s) = 3.88032 4.33727 4.11514
# Velocity P-wave (km/s) = 6.26290 7.04699 6.66648
#
# Compressibility (1/GPa) = 0.02455851
#
# Stress axis : x y z
#
# Youngs Moduli (GPa) = 71.33706 74.47453 66.63338
#
# Poissons Ratio (x) = 0.10226 -0.01316
# Poissons Ratio (y) = 0.09796 0.51784
# Poissons Ratio (z) = -0.01409 0.57878
#
# Static dielectric constant tensor:
#      x y z
#    x 1.851490 0.000280 0.014410 
#    y 0.000280 2.013540 0.000080 
#    z 0.014410 0.000080 1.776150 
# 
# From -- ./inp_files/60839.got.cif
#   From: 2010.05.17/outbox.cif.g08.bks.cpg/sg12_31_cif.got.tgz:60839.got - 2010.06.03 13:09:07.
