data_PCOD9201989
_publ_section_title
;
Structure prediction by ZEFSAII (Michael W. Deem and Ramdas Pophale) SiO2 
 PCOD9201989
Probable space group: C 2/M
;
_chemical_formula_sum "Si O2"
_cell_formula_units_Z 36
_cell_length_a 9.317116
_cell_length_b 24.580164
_cell_length_c 10.183067
_cell_angle_alpha 90.000000
_cell_angle_beta 44.291171
_cell_angle_gamma 90.000000
_cell_volume 1628.508490
_symmetry_space_group_name_H-M "C 2/M"
_symmetry_group_IT_number 12
_symmetry_cell_setting 'monoclinic'
loop_
_space_group_symop_operation_xyz
x,y,z
-x,y,-z
-x,-y,-z
x,-y,z
1/2+x,1/2+y,z
1/2-x,1/2+y,-z
1/2-x,1/2-y,-z
1/2+x,1/2-y,z
loop_
_atom_site_type_symbol
_atom_site_label
_atom_site_fract_x
_atom_site_fract_y
_atom_site_fract_z
Si Si1 0.751453 0.937031 0.697724
Si Si2 0.094958 0.860778 0.202999
Si Si3 0.385033 0.136386 0.438892
Si Si4 0.000000 0.176722 0.000000
Si Si5 0.646314 0.758595 0.213038
O O1 0.757163 0.904331 0.829900
O O2 0.608524 0.905050 0.687931
O O3 0.000000 0.934711 0.500000
O O4 0.696000 0.000000 0.742824
O O5 0.112280 0.803709 0.270648
O O6 0.853596 0.870703 0.370150
O O7 0.125293 0.855512 0.026535
O O8 0.500000 0.122883 0.500000
O O9 0.464488 0.197149 0.344399
O O10 0.830672 0.215422 0.177890
O O11 0.750000 0.750000 0.000000
#
# Coordination Sequence:
#
# PCOD9201989 Si02
#       5
#     8   8   8   4   8
#     4   9  21  40  61  89 121 160 205 259 311 354
#     4  10  21  37  62  87 124 164 202 251 303 371
#     4  11  21  37  63  91 120 157 209 254 301 373
#     4  10  20  38  55  90 123 168 196 248 308 368
#     4  10  22  35  57  89 128 158 196 245 311 364
#
# _framework density 22.106119
#
# number of rings (size 3 to 8) (size 9 to 14) (size 15 to 20)
#    0.000    2.000    2.222    0.667    6.222    3.111 
#    0.000    0.556    0.000   10.667    0.000    0.000 
#    0.000    0.000    0.000    0.000    0.000    0.000 
#
# Total GULP energy -100240.443150 kJ/mol
# GULP energy per Si atom -5568.913508 kJ/mol
# Density = 2.205580 g / cm^3
# Si number density = 22.106119 Si / 1000 Ang^3
#
#
#
# Elastic Constant Matrix: (Units=GPa)
#
#
# Indices 1 2 3 4 5 6 
#
# 1 133.2504 70.0850 19.0202 0.0000 26.8789 0.0000
# 2 70.0850 115.5220 -5.1148 0.0000 20.1901 0.0000
# 3 19.0202 -5.1148 38.6245 0.0000 1.5053 0.0000
# 4 0.0000 0.0000 0.0000 6.5889 0.0000 5.3542
# 5 26.8789 20.1901 1.5053 0.0000 36.5113 0.0000
# 6 0.0000 0.0000 0.0000 5.3542 0.0000 31.1132
#
#
#
# Elastic Compliance Matrix: (Units=1/GPa)
#
#
# Indices 1 2 3 4 5 6 
#
# 1 0.013767 -0.007717 -0.007585 0.000000 -0.005555 0.000000
# 2 -0.007717 0.013993 0.005743 0.000000 -0.002294 0.000000
# 3 -0.007585 0.005743 0.030341 0.000000 0.001157 0.000000
# 4 0.000000 0.000000 0.000000 0.176445 0.000000 -0.030364
# 5 -0.005555 -0.002294 0.001157 0.000000 0.032699 0.000000
# 6 0.000000 0.000000 0.000000 -0.030364 0.000000 0.037366
#
#
# Mechanical properties :
#
#
# Convention : Reuss Voigt Hill
#
# Bulk Modulus (GPa) = 25.65261 50.59750 38.12506
# Shear Modulus (GPa) = 14.84903 28.40311 21.62607
#
# Velocity S-wave (km/s) = 2.59456 3.58837 3.13115
# Velocity P-wave (km/s) = 4.53929 6.33299 5.50962
#
# Compressibility (1/GPa) = 0.03898239
#
# Stress axis : x y z
#
# Youngs Moduli (GPa) = 72.63949 71.46324 32.95910
#
# Poissons Ratio (x) = 0.55148 0.24998
# Poissons Ratio (y) = 0.56056 -0.18927
# Poissons Ratio (z) = 0.55094 -0.41038
#
# Static dielectric constant tensor:
#      x y z
#    x 1.843890 0.000000 0.064980 
#    y 0.000000 1.862150 0.000000 
#    z 0.064980 0.000000 2.043460 
# 
# From -- ./inp_files/121614.got.cif
#   From: 2010.05.17/outbox.cif.g08.bks.cpg/sg12_61_cif.got.tgz:121614.got - 2010.06.03 13:09:07.
