data_PCOD9201190
_publ_section_title
;
Structure prediction by ZEFSAII (Michael W. Deem and Ramdas Pophale) SiO2 
 PCOD9201190
Probable space group: C 2/M
;
_chemical_formula_sum "Si O2"
_cell_formula_units_Z 48
_cell_length_a 20.575363
_cell_length_b 7.680057
_cell_length_c 13.936119
_cell_angle_alpha 90.000000
_cell_angle_beta 89.364914
_cell_angle_gamma 90.000000
_cell_volume 2202.049694
_symmetry_space_group_name_H-M "C 2/M"
_symmetry_group_IT_number 12
_symmetry_cell_setting 'monoclinic'
loop_
_space_group_symop_operation_xyz
x,y,z
-x,y,-z
-x,-y,-z
x,-y,z
1/2+x,1/2+y,z
1/2-x,1/2+y,-z
1/2-x,1/2-y,-z
1/2+x,1/2-y,z
loop_
_atom_site_type_symbol
_atom_site_label
_atom_site_fract_x
_atom_site_fract_y
_atom_site_fract_z
Si Si1 0.298476 0.792037 0.085607
Si Si2 0.555835 0.204263 0.931006
Si Si3 0.893219 0.797955 0.625259
Si Si4 0.526213 0.711567 0.714430
Si Si5 0.350964 0.712692 0.418652
Si Si6 0.735926 0.203948 0.289526
O O1 0.371091 0.722188 0.063930
O O2 0.270470 0.724502 0.186679
O O3 0.302789 0.000000 0.095570
O O4 0.250000 0.750000 0.000000
O O5 0.533738 0.220435 0.821590
O O6 0.561603 0.000000 0.956918
O O7 0.500000 0.281237 0.000000
O O8 0.960077 0.724350 0.665418
O O9 0.866258 0.724075 0.525467
O O10 0.834716 0.788092 0.701795
O O11 0.907916 0.000000 0.604093
O O12 0.524635 0.500000 0.719688
O O13 0.588838 0.760118 0.650612
O O14 0.347205 0.500000 0.419633
O O15 0.284410 0.774953 0.370865
O O16 0.725849 0.000000 0.306830
#
# Coordination Sequence:
#
# PCOD9201190 Si02
#       6
#     8   8   8   8   8   8
#     4  11  24  42  64  89 118 154 193 240 293 352
#     4  10  23  42  62  86 117 153 188 236 298 351
#     4  10  21  36  58  89 121 157 199 243 289 343
#     4  10  20  37  61  88 117 154 197 243 290 344
#     4   9  18  36  60  85 117 157 200 242 289 344
#     4  11  22  38  60  86 120 159 197 244 292 344
#
# _framework density 21.797874
#
# number of rings (size 3 to 8) (size 9 to 14) (size 15 to 20)
#    0.000    1.833    1.667    2.000    2.333    3.667 
#    0.000    1.667    0.000    2.000    0.000    0.000 
#    0.000    0.000    0.000    0.000    0.000    0.000 
#
# Total GULP energy -134141.009885 kJ/mol
# GULP energy per Si atom -5589.208745 kJ/mol
# Density = 2.174826 g / cm^3
# Si number density = 21.797874 Si / 1000 Ang^3
#
#
#
# Elastic Constant Matrix: (Units=GPa)
#
#
# Indices 1 2 3 4 5 6 
#
# 1 70.8342 -9.3445 14.1597 0.0000 9.6093 0.0000
# 2 -9.3445 37.1897 -14.3771 0.0000 1.5997 0.0000
# 3 14.1597 -14.3771 79.6174 0.0000 1.5279 0.0000
# 4 0.0000 0.0000 0.0000 13.3923 0.0000 6.8692
# 5 9.6093 1.5997 1.5279 0.0000 44.5187 0.0000
# 6 0.0000 0.0000 0.0000 6.8692 0.0000 4.1205
#
#
#
# Elastic Compliance Matrix: (Units=1/GPa)
#
#
# Indices 1 2 3 4 5 6 
#
# 1 0.015417 0.003208 -0.002098 0.000000 -0.003371 0.000000
# 2 0.003208 0.029641 0.004819 0.000000 -0.001923 0.000000
# 3 -0.002098 0.004819 0.013807 0.000000 -0.000194 0.000000
# 4 0.000000 0.000000 0.000000 0.515194 0.000000 -0.858858
# 5 -0.003371 -0.001923 -0.000194 0.000000 0.023266 0.000000
# 6 0.000000 0.000000 0.000000 -0.858858 0.000000 1.674452
#
#
# Mechanical properties :
#
#
# Convention : Reuss Voigt Hill
#
# Bulk Modulus (GPa) = 14.13977 18.72419 16.43198
# Shear Modulus (GPa) = 2.18963 25.55318 13.87140
#
# Velocity S-wave (km/s) = 1.00334 3.42757 2.52536
# Velocity P-wave (km/s) = 2.80056 4.92675 4.00724
#
# Compressibility (1/GPa) = 0.07072249
#
# Stress axis : x y z
#
# Youngs Moduli (GPa) = 64.86200 33.73733 72.42653
#
# Poissons Ratio (x) = -0.10822 0.15195
# Poissons Ratio (y) = -0.20806 -0.34901
# Poissons Ratio (z) = 0.13608 -0.16257
#
# Static dielectric constant tensor:
#      x y z
#    x 1.786530 0.000000 -0.001500 
#    y 0.000000 1.817980 0.000000 
#    z -0.001500 0.000000 1.726080 
# 
# From -- ./inp_files/221511.got.cif
#   From: 2010.05.17/outbox.cif.g08.bks.cpg/sg12_111_cif.got.tgz:221511.got - 2010.06.03 13:09:07.
