data_PCOD9201409
_publ_section_title
;
Structure prediction by ZEFSAII (Michael W. Deem and Ramdas Pophale) SiO2 
 PCOD9201409
Probable space group: C 2/M
;
_chemical_formula_sum "Si O2"
_cell_formula_units_Z 48
_cell_length_a 12.157562
_cell_length_b 14.362804
_cell_length_c 20.370742
_cell_angle_alpha 90.000000
_cell_angle_beta 32.313123
_cell_angle_gamma 90.000000
_cell_volume 1901.418021
_symmetry_space_group_name_H-M "C 2/M"
_symmetry_group_IT_number 12
_symmetry_cell_setting 'monoclinic'
loop_
_space_group_symop_operation_xyz
x,y,z
-x,y,-z
-x,-y,-z
x,-y,z
1/2+x,1/2+y,z
1/2-x,1/2+y,-z
1/2-x,1/2-y,-z
1/2+x,1/2-y,z
loop_
_atom_site_type_symbol
_atom_site_label
_atom_site_fract_x
_atom_site_fract_y
_atom_site_fract_z
Si Si1 0.679134 0.856942 0.075765
Si Si2 0.769955 0.391741 0.606726
Si Si3 0.259302 0.699162 0.758786
Si Si4 0.340778 0.660429 0.864601
Si Si5 0.606178 0.896259 0.255089
Si Si6 0.847272 0.106464 0.486859
O O1 0.445198 0.837730 0.171928
O O2 0.761173 0.756456 0.059788
O O3 0.688695 0.907229 0.140104
O O4 0.789576 0.897595 0.955806
O O5 0.758206 0.500000 0.633829
O O6 0.586423 0.336787 0.733403
O O7 0.724223 0.390893 0.552788
O O8 0.000000 0.357446 0.500000
O O9 0.270084 0.645742 0.825145
O O10 0.285024 0.808887 0.764203
O O11 0.452269 0.670132 0.615759
O O12 0.364055 0.868085 0.370368
O O13 0.613013 0.000000 0.283321
O O14 0.902670 0.000000 0.476051
#
# Coordination Sequence:
#
# PCOD9201409 Si02
#       6
#     8   8   8   8   8   8
#     4  10  21  37  59  84 117 165 205 248 312 373
#     4   9  18  33  57  85 113 152 198 253 316 367
#     4  10  20  37  62  88 116 169 213 256 310 377
#     4   9  20  38  56  83 119 153 206 262 299 364
#     4  10  22  39  59  91 131 164 204 262 316 377
#     4   9  19  36  56  86 126 157 203 266 311 366
#
# _framework density 25.244318
#
# number of rings (size 3 to 8) (size 9 to 14) (size 15 to 20)
#    0.000    2.500    0.000    1.000    2.333    2.000 
#    0.000    1.667    0.000   18.000    0.000    0.000 
#    0.000    0.000    0.000    0.000    0.000    0.000 
#
# Total GULP energy -133970.811660 kJ/mol
# GULP energy per Si atom -5582.117153 kJ/mol
# Density = 2.518686 g / cm^3
# Si number density = 25.244318 Si / 1000 Ang^3
#
#
#
# Elastic Constant Matrix: (Units=GPa)
#
#
# Indices 1 2 3 4 5 6 
#
# 1 71.3456 -4.7591 2.2879 0.0021 1.2151 -0.0014
# 2 -4.7591 86.0439 15.7836 -0.0048 3.6209 0.0018
# 3 2.2879 15.7836 76.6071 -0.0176 20.1161 0.0072
# 4 0.0021 -0.0048 -0.0176 236.9552 0.0003 -124.7529
# 5 1.2151 3.6209 20.1161 0.0003 39.2427 0.0005
# 6 -0.0014 0.0018 0.0072 -124.7529 0.0005 67.5629
#
#
#
# Elastic Compliance Matrix: (Units=1/GPa)
#
#
# Indices 1 2 3 4 5 6 
#
# 1 0.014097 0.000889 -0.000541 0.000001 -0.000241 0.000002
# 2 0.000889 0.012136 -0.002572 0.000001 0.000171 0.000002
# 3 -0.000541 -0.002572 0.015638 0.000011 -0.007762 0.000019
# 4 0.000001 0.000001 0.000011 0.151457 -0.000010 0.279661
# 5 -0.000241 0.000171 -0.007762 -0.000010 0.029453 -0.000019
# 6 0.000002 0.000002 0.000019 0.279661 -0.000019 0.531187
#
#
# Mechanical properties :
#
#
# Convention : Reuss Voigt Hill
#
# Bulk Modulus (GPa) = 26.72120 28.95792 27.83956
# Shear Modulus (GPa) = 6.48602 83.46444 44.97523
#
# Velocity S-wave (km/s) = 1.60464 5.75625 4.22548
# Velocity P-wave (km/s) = 3.74716 7.46158 5.90408
#
# Compressibility (1/GPa) = 0.03742347
#
# Stress axis : x y z
#
# Youngs Moduli (GPa) = 70.93685 82.40137 63.94736
#
# Poissons Ratio (x) = -0.07326 0.03458
# Poissons Ratio (y) = -0.06307 0.16446
# Poissons Ratio (z) = 0.03836 0.21192
#
# Static dielectric constant tensor:
#      x y z
#    x 2.001650 0.000000 0.042730 
#    y 0.000000 2.103280 0.000000 
#    z 0.042730 0.000000 2.019210 
# 
# From -- ./inp_files/340070.got.cif
#   From: 2010.05.17/outbox.cif.g08.bks.cpg/sg12_171_cif.got.tgz:340070.got - 2010.06.03 13:09:07.
