data_PCOD9201316
_publ_section_title
;
Structure prediction by ZEFSAII (Michael W. Deem and Ramdas Pophale) SiO2 
 PCOD9201316
Probable space group: C 2/M
;
_chemical_formula_sum "Si O2"
_cell_formula_units_Z 42
_cell_length_a 13.718390
_cell_length_b 19.434222
_cell_length_c 10.418890
_cell_angle_alpha 90.000000
_cell_angle_beta 49.172099
_cell_angle_gamma 90.000000
_cell_volume 2101.852138
_symmetry_space_group_name_H-M "C 2/M"
_symmetry_group_IT_number 12
_symmetry_cell_setting 'monoclinic'
loop_
_space_group_symop_operation_xyz
x,y,z
-x,y,-z
-x,-y,-z
x,-y,z
1/2+x,1/2+y,z
1/2-x,1/2+y,-z
1/2-x,1/2-y,-z
1/2+x,1/2-y,z
loop_
_atom_site_type_symbol
_atom_site_label
_atom_site_fract_x
_atom_site_fract_y
_atom_site_fract_z
Si Si1 0.879726 0.577212 0.198733
Si Si2 0.000000 0.000000 0.500000
Si Si3 0.129278 0.114618 0.255637
Si Si4 0.077537 0.814306 0.050024
Si Si5 0.830258 0.732955 0.697014
Si Si6 0.437642 0.199642 0.340535
O O1 0.883879 0.500000 0.251057
O O2 0.752454 0.581830 0.220206
O O3 0.888823 0.636936 0.296181
O O4 0.000000 0.586174 0.000000
O O5 0.984482 0.061424 0.621190
O O6 0.137026 0.132471 0.099411
O O7 0.120062 0.189562 0.327438
O O8 0.983125 0.762236 0.208791
O O9 0.193488 0.772147 0.884361
O O10 0.000000 0.847329 0.000000
O O11 0.836530 0.716810 0.540891
O O12 0.930886 0.686120 0.690735
#
# Coordination Sequence:
#
# PCOD9201316 Si02
#       6
#     8   2   8   8   8   8
#     4  11  22  38  61  87 117 159 205 255 304 365
#     4  12  24  40  60  84 124 168 214 232 302 380
#     4  11  22  40  60  88 123 164 202 252 299 371
#     4  11  22  38  63  94 125 160 204 262 313 363
#     4  10  21  38  65  93 124 160 201 263 313 362
#     4  10  20  37  61  94 122 155 204 256 314 357
#
# _framework density 19.982375999999999
#
# number of rings (size 3 to 8) (size 9 to 14) (size 15 to 20)
#    0.000    1.333    0.952    8.571    0.000    4.571 
#    0.000    2.381    2.095    0.000    0.000    0.000 
#    0.000    0.000    0.000    0.000    0.000    0.000 
#
# Total GULP energy -116918.827479 kJ/mol
# GULP energy per Si atom -5567.563213 kJ/mol
# Density = 1.993690 g / cm^3
# Si number density = 19.982376 Si / 1000 Ang^3
#
#
#
# Elastic Constant Matrix: (Units=GPa)
#
#
# Indices 1 2 3 4 5 6 
#
# 1 62.6501 18.9675 25.6594 0.0000 25.8654 0.0000
# 2 18.9675 105.5687 42.5406 0.0000 23.3892 0.0000
# 3 25.6594 42.5406 126.7439 0.0000 16.5575 0.0000
# 4 0.0000 0.0000 0.0000 20.8440 0.0000 -5.1804
# 5 25.8654 23.3892 16.5575 0.0000 33.4005 0.0000
# 6 0.0000 0.0000 0.0000 -5.1804 0.0000 18.3085
#
#
#
# Elastic Compliance Matrix: (Units=1/GPa)
#
#
# Indices 1 2 3 4 5 6 
#
# 1 0.024300 0.000748 -0.002827 0.000000 -0.017940 0.000000
# 2 0.000748 0.012352 -0.003306 0.000000 -0.007590 0.000000
# 3 -0.002827 -0.003306 0.009605 0.000000 -0.000258 0.000000
# 4 0.000000 0.000000 0.000000 0.051604 0.000000 0.014602
# 5 -0.017940 -0.007590 -0.000258 0.000000 0.049275 0.000000
# 6 0.000000 0.000000 0.000000 0.014602 0.000000 0.058751
#
#
# Mechanical properties :
#
#
# Convention : Reuss Voigt Hill
#
# Bulk Modulus (GPa) = 28.17880 52.14421 40.16151
# Shear Modulus (GPa) = 21.88317 28.36361 25.12339
#
# Velocity S-wave (km/s) = 3.31286 3.77162 3.54966
# Velocity P-wave (km/s) = 5.36337 6.71704 6.07801
#
# Compressibility (1/GPa) = 0.03548767
#
# Stress axis : x y z
#
# Youngs Moduli (GPa) = 41.15281 80.95989 104.10800
#
# Poissons Ratio (x) = -0.06055 0.29430
# Poissons Ratio (y) = -0.03078 0.34415
# Poissons Ratio (z) = 0.11633 0.26763
#
# Static dielectric constant tensor:
#      x y z
#    x 1.813720 0.000000 -0.049200 
#    y 0.000000 1.688320 0.000000 
#    z -0.049200 0.000000 1.769170 
# 
# From -- ./inp_files/61604.got.cif
#   From: 2010.05.17/outbox.cif.g08.bks.cpg/sg12_31_cif.got.tgz:61604.got - 2010.06.03 13:09:07.
