data_PCOD9201085
_publ_section_title
;
Structure prediction by ZEFSAII (Michael W. Deem and Ramdas Pophale) SiO2 
 PCOD9201085
Probable space group: C 2/M
;
_chemical_formula_sum "Si O2"
_cell_formula_units_Z 56
_cell_length_a 16.273996
_cell_length_b 7.971966
_cell_length_c 21.202485
_cell_angle_alpha 90.000000
_cell_angle_beta 53.192331
_cell_angle_gamma 90.000000
_cell_volume 2202.367340
_symmetry_space_group_name_H-M "C 2/M"
_symmetry_group_IT_number 12
_symmetry_cell_setting 'monoclinic'
loop_
_space_group_symop_operation_xyz
x,y,z
-x,y,-z
-x,-y,-z
x,-y,z
1/2+x,1/2+y,z
1/2-x,1/2+y,-z
1/2-x,1/2-y,-z
1/2+x,1/2-y,z
loop_
_atom_site_type_symbol
_atom_site_label
_atom_site_fract_x
_atom_site_fract_y
_atom_site_fract_z
Si Si1 0.830885 0.702081 0.243046
Si Si2 0.618251 0.300826 0.191299
Si Si3 0.085930 0.196519 0.661066
Si Si4 0.383878 0.185997 0.484242
Si Si5 0.353653 0.794317 0.095663
Si Si6 0.389316 0.691628 0.614919
Si Si7 0.370413 0.798887 0.950625
O O1 0.843206 0.500000 0.242099
O O2 0.867451 0.779154 0.291444
O O3 0.882323 0.756886 0.153485
O O4 0.708439 0.735503 0.298057
O O5 0.624166 0.500000 0.199072
O O6 0.529861 0.232959 0.277161
O O7 0.734187 0.238731 0.144764
O O8 0.583591 0.271760 0.134881
O O9 0.143856 0.273798 0.574972
O O10 0.080234 0.000000 0.650405
O O11 0.508683 0.199547 0.425949
O O12 0.355000 0.299200 0.557182
O O13 0.348967 0.000000 0.516536
O O14 0.358114 0.000000 0.093336
O O15 0.403327 0.742798 0.005915
O O16 0.418972 0.500000 0.615217
O O17 0.381020 0.000000 0.943636
O O18 0.250000 0.750000 0.000000
#
# Coordination Sequence:
#
# PCOD9201085 Si02
#       7
#     8   8   8   8   8   8   8
#     4  10  21  37  56  78 107 144 183 221 264 319
#     4   9  18  34  55  77 103 138 179 223 270 320
#     4  11  23  38  55  77 109 146 182 223 272 323
#     4  11  22  37  59  85 111 139 177 224 268 319
#     4   8  15  31  54  77 102 134 174 217 263 315
#     4  10  20  37  61  85 110 142 178 219 270 321
#     4   9  16  28  50  79 107 136 173 220 269 317
#
# _framework density 25.427185000000001
#
# number of rings (size 3 to 8) (size 9 to 14) (size 15 to 20)
#    0.000    2.286    0.000    5.143    0.000    5.143 
#    0.000    4.286    0.000    4.286    0.000    0.000 
#    0.000    0.000    0.000    0.000    0.000    0.000 
#
# Total GULP energy -156525.432421 kJ/mol
# GULP energy per Si atom -5590.194015 kJ/mol
# Density = 2.536931 g / cm^3
# Si number density = 25.427185 Si / 1000 Ang^3
#
#
#
# Elastic Constant Matrix: (Units=GPa)
#
#
# Indices 1 2 3 4 5 6 
#
# 1 85.4796 -3.5547 27.3669 0.0001 30.6820 0.0003
# 2 -3.5547 23.7557 1.4935 0.0002 -3.2416 0.0007
# 3 27.3669 1.4935 186.1342 0.0000 28.0116 0.0000
# 4 0.0001 0.0002 0.0000 6.3620 0.0000 0.0393
# 5 30.6820 -3.2416 28.0116 0.0000 53.8773 0.0001
# 6 0.0003 0.0007 0.0000 0.0393 0.0001 7.8809
#
#
#
# Elastic Compliance Matrix: (Units=1/GPa)
#
#
# Indices 1 2 3 4 5 6 
#
# 1 0.014905 0.001218 -0.001014 0.000000 -0.007888 -0.000001
# 2 0.001218 0.042650 -0.000871 -0.000001 0.002326 -0.000004
# 3 -0.001014 -0.000871 0.005912 0.000000 -0.002549 0.000000
# 4 0.000000 -0.000001 0.000000 0.157188 0.000000 -0.000783
# 5 -0.007888 0.002326 -0.002549 0.000000 0.024518 0.000000
# 6 -0.000001 -0.000004 0.000000 -0.000783 0.000000 0.126893
#
#
# Mechanical properties :
#
#
# Convention : Reuss Voigt Hill
#
# Bulk Modulus (GPa) = 16.09488 38.44231 27.26859
# Shear Modulus (GPa) = 12.68677 31.62830 22.15754
#
# Velocity S-wave (km/s) = 2.23613 3.53069 2.95517
# Velocity P-wave (km/s) = 3.60702 5.63671 4.73197
#
# Compressibility (1/GPa) = 0.06213158
#
# Stress axis : x y z
#
# Youngs Moduli (GPa) = 67.09050 23.44690 169.14387
#
# Poissons Ratio (x) = -0.02855 0.17155
# Poissons Ratio (y) = -0.08170 0.14736
# Poissons Ratio (z) = 0.06805 0.02043
#
# Static dielectric constant tensor:
#      x y z
#    x 2.122330 0.000000 0.011630 
#    y 0.000000 1.899210 0.000000 
#    z 0.011630 0.000000 1.986120 
# 
# From -- ./inp_files/313811.got.cif
#   From: 2010.05.17/outbox.cif.g08.bks.cpg/sg12_157_cif.got.tgz:313811.got - 2010.06.03 13:09:07.
