data_PCOD9201723
_publ_section_title
;
Structure prediction by ZEFSAII (Michael W. Deem and Ramdas Pophale) SiO2 
 PCOD9201723
Probable space group: C 2/M
;
_chemical_formula_sum "Si O2"
_cell_formula_units_Z 64
_cell_length_a 15.824038
_cell_length_b 25.398953
_cell_length_c 12.264100
_cell_angle_alpha 90.000000
_cell_angle_beta 35.797207
_cell_angle_gamma 90.000000
_cell_volume 2883.127861
_symmetry_space_group_name_H-M "C 2/M"
_symmetry_group_IT_number 12
_symmetry_cell_setting 'monoclinic'
loop_
_space_group_symop_operation_xyz
x,y,z
-x,y,-z
-x,-y,-z
x,-y,z
1/2+x,1/2+y,z
1/2-x,1/2+y,-z
1/2-x,1/2-y,-z
1/2+x,1/2-y,z
loop_
_atom_site_type_symbol
_atom_site_label
_atom_site_fract_x
_atom_site_fract_y
_atom_site_fract_z
Si Si1 0.561414 0.559054 0.695479
Si Si2 0.799187 0.938969 0.823077
Si Si3 0.064336 0.370479 0.137532
Si Si4 0.401476 0.173684 0.499595
Si Si5 0.108378 0.790703 0.472953
Si Si6 0.418246 0.330077 0.254847
Si Si7 0.833914 0.438599 0.265898
Si Si8 0.615910 0.766227 0.966332
O O1 0.534565 0.500000 0.768008
O O2 0.462816 0.564211 0.690217
O O3 0.530386 0.609581 0.801939
O O4 0.724434 0.562264 0.481925
O O5 0.755281 0.921104 0.747998
O O6 0.758213 0.000000 0.872410
O O7 0.705041 0.905526 0.005397
O O8 0.958606 0.364718 0.348138
O O9 0.967765 0.401044 0.149632
O O10 0.118123 0.312083 0.052679
O O11 0.500000 0.159216 0.500000
O O12 0.449748 0.233932 0.427107
O O13 0.225990 0.174410 0.669727
O O14 0.130138 0.819388 0.566683
O O15 0.000000 0.817600 0.500000
O O16 0.238559 0.772131 0.256938
O O17 0.543763 0.288163 0.088337
O O18 0.877119 0.500000 0.208196
O O19 0.500000 0.784811 0.000000
#
# Coordination Sequence:
#
# PCOD9201723 Si02
#       8
#     8   8   8   8   8   8   8   8
#     4  10  23  40  64  94 134 181 225 277 339 405
#     4  10  22  39  60  98 141 175 222 276 338 417
#     4  12  23  39  66  97 135 176 226 280 337 406
#     4  11  24  46  66  93 135 178 226 284 335 397
#     4  11  26  44  67 102 143 178 222 275 336 419
#     4  12  24  46  72  97 141 185 225 287 344 403
#     4  10  20  37  63  95 135 183 220 268 346 414
#     4  12  25  41  68 102 138 180 230 275 343 407
#
# _framework density 22.198115000000001
#
# number of rings (size 3 to 8) (size 9 to 14) (size 15 to 20)
#    0.000    1.000    3.750    3.000    3.500    5.000 
#    0.000    0.000    0.000    3.750    0.000    0.000 
#    0.000    0.500    0.000    0.000    0.000    0.000 
#
# Total GULP energy -178412.205493 kJ/mol
# GULP energy per Si atom -5575.381422 kJ/mol
# Density = 2.214759 g / cm^3
# Si number density = 22.198115 Si / 1000 Ang^3
#
#
#
# Elastic Constant Matrix: (Units=GPa)
#
#
# Indices 1 2 3 4 5 6 
#
# 1 97.3892 43.4258 24.0172 0.0002 -5.4880 0.0001
# 2 43.4258 109.2926 42.7317 -0.0002 -2.3827 -0.0001
# 3 24.0172 42.7317 105.2895 -0.0005 -11.7974 0.0000
# 4 0.0002 -0.0002 -0.0005 -416.7644 -0.0004 -260.6074
# 5 -5.4880 -2.3827 -11.7974 -0.0004 17.8323 -0.0003
# 6 0.0001 -0.0001 0.0000 -260.6074 -0.0003 -119.6953
#
#
#
# Elastic Compliance Matrix: (Units=1/GPa)
#
#
# Indices 1 2 3 4 5 6 
#
# 1 0.012698 -0.004725 -0.000661 0.000000 0.002839 0.000000
# 2 -0.004725 0.012675 -0.004363 0.000000 -0.002647 0.000000
# 3 -0.000661 -0.004363 0.012238 0.000000 0.007310 0.000000
# 4 0.000000 0.000000 0.000000 0.006638 0.000000 -0.014453
# 5 0.002839 -0.002647 0.007310 0.000000 0.061434 0.000000
# 6 0.000000 0.000000 0.000000 -0.014453 0.000000 0.023113
#
#
# Mechanical properties :
#
#
# Convention : Reuss Voigt Hill
#
# Bulk Modulus (GPa) = 55.20646 59.14673 57.17659
# Shear Modulus (GPa) = 32.39755 -90.27236 -28.93741
#
# Velocity S-wave (km/s) = 3.82445 -6.38396 -3.61445
# Velocity P-wave (km/s) = 6.66527 5.25711 2.89729
#
# Compressibility (1/GPa) = 0.01811382
#
# Stress axis : x y z
#
# Youngs Moduli (GPa) = 78.75288 78.89299 81.71176
#
# Poissons Ratio (x) = 0.37278 0.05398
# Poissons Ratio (y) = 0.37212 0.35651
# Poissons Ratio (z) = 0.05203 0.34422
#
# Static dielectric constant tensor:
#      x y z
#    x 1.869320 0.000000 0.011470 
#    y 0.000000 1.839930 0.000000 
#    z 0.011470 0.000000 1.734200 
# 
# From -- ./inp_files/149717.got.cif
#   From: 2010.05.17/outbox.cif.g08.bks.cpg/sg12_75_cif.got.tgz:149717.got - 2010.06.03 13:09:07.
