data_PCOD9201845
_publ_section_title
;
Structure prediction by ZEFSAII (Michael W. Deem and Ramdas Pophale) SiO2 
 PCOD9201845
Probable space group: C 2/M
;
_chemical_formula_sum "Si O2"
_cell_formula_units_Z 64
_cell_length_a 11.481159
_cell_length_b 34.027774
_cell_length_c 8.529508
_cell_angle_alpha 90.000000
_cell_angle_beta 83.386636
_cell_angle_gamma 90.000000
_cell_volume 3310.120232
_symmetry_space_group_name_H-M "C 2/M"
_symmetry_group_IT_number 12
_symmetry_cell_setting 'monoclinic'
loop_
_space_group_symop_operation_xyz
x,y,z
-x,y,-z
-x,-y,-z
x,-y,z
1/2+x,1/2+y,z
1/2-x,1/2+y,-z
1/2-x,1/2-y,-z
1/2+x,1/2-y,z
loop_
_atom_site_type_symbol
_atom_site_label
_atom_site_fract_x
_atom_site_fract_y
_atom_site_fract_z
Si Si1 0.411830 0.638077 0.836625
Si Si2 0.648536 0.151121 0.332516
Si Si3 0.776880 0.786454 0.879645
Si Si4 0.635687 0.239271 0.413596
Si Si5 0.743349 0.891410 0.626437
Si Si6 0.424579 0.846931 0.167858
Si Si7 0.150438 0.106505 0.848344
Si Si8 0.875696 0.046172 0.429642
O O1 0.353466 0.676357 0.924133
O O2 0.358611 0.630374 0.674444
O O3 0.550823 0.637205 0.805903
O O4 0.376991 0.602751 0.962710
O O5 0.672684 0.197007 0.340031
O O6 0.686717 0.131644 0.489880
O O7 0.514969 0.151994 0.297228
O O8 0.723901 0.126194 0.197039
O O9 0.856816 0.769779 0.728650
O O10 0.658291 0.808088 0.833193
O O11 0.750000 0.750000 0.000000
O O12 0.500000 0.238081 0.500000
O O13 0.750000 0.250000 0.500000
O O14 0.657108 0.884488 0.785933
O O15 0.779443 0.933704 0.558109
O O16 0.500000 0.848710 0.000000
O O17 0.132959 0.069632 0.734322
O O18 0.000000 0.051771 0.500000
O O19 0.857571 0.000000 0.409783
#
# Coordination Sequence:
#
# PCOD9201845 Si02
#       8
#     8   8   8   8   8   8   8   8
#     4  10  20  38  56  90 117 161 214 257 309 371
#     4  11  22  38  59  83 114 163 212 252 317 377
#     4  11  24  41  62  86 121 166 217 276 329 373
#     4  12  25  40  56  84 121 161 211 274 335 381
#     4  10  20  37  65  88 122 159 206 256 306 383
#     4  11  22  41  62  85 119 161 217 261 310 383
#     4  10  21  37  62  85 126 157 207 255 307 386
#     4  10  20  38  64  98 130 159 197 253 322 386
#
# _framework density 19.334644999999998
#
# number of rings (size 3 to 8) (size 9 to 14) (size 15 to 20)
#    0.000    1.375    1.250    6.375    1.750    0.000 
#    6.750    1.875    0.000    6.375    0.000    0.000 
#    0.000    0.000    0.000    0.000    0.000    0.000 
#
# Total GULP energy -178191.503820 kJ/mol
# GULP energy per Si atom -5568.484494 kJ/mol
# Density = 1.929064 g / cm^3
# Si number density = 19.334645 Si / 1000 Ang^3
#
#
#
# Elastic Constant Matrix: (Units=GPa)
#
#
# Indices 1 2 3 4 5 6 
#
# 1 91.5742 44.9489 19.7444 0.0000 15.5808 0.0000
# 2 44.9489 121.6922 38.6875 0.0000 -1.2434 0.0000
# 3 19.7444 38.6875 68.0497 0.0000 -1.7587 0.0000
# 4 0.0000 0.0000 0.0000 22.4404 0.0000 6.2031
# 5 15.5808 -1.2434 -1.7587 0.0000 38.8637 0.0000
# 6 0.0000 0.0000 0.0000 6.2031 0.0000 21.0950
#
#
#
# Elastic Compliance Matrix: (Units=1/GPa)
#
#
# Indices 1 2 3 4 5 6 
#
# 1 0.014771 -0.005012 -0.001596 0.000000 -0.006154 0.000000
# 2 -0.005012 0.011731 -0.005159 0.000000 0.002151 0.000000
# 3 -0.001596 -0.005159 0.018125 0.000000 0.001295 0.000000
# 4 0.000000 0.000000 0.000000 0.048505 0.000000 -0.014263
# 5 -0.006154 0.002151 0.001295 0.000000 0.028326 0.000000
# 6 0.000000 0.000000 0.000000 -0.014263 0.000000 0.051599
#
#
# Mechanical properties :
#
#
# Convention : Reuss Voigt Hill
#
# Bulk Modulus (GPa) = 47.40832 54.23086 50.81959
# Shear Modulus (GPa) = 24.55540 28.34217 26.44879
#
# Velocity S-wave (km/s) = 3.56760 3.83283 3.70259
# Velocity P-wave (km/s) = 6.44542 6.90629 6.67983
#
# Compressibility (1/GPa) = 0.02109334
#
# Stress axis : x y z
#
# Youngs Moduli (GPa) = 67.69928 85.24568 55.17279
#
# Poissons Ratio (x) = 0.42721 0.08804
# Poissons Ratio (y) = 0.33928 0.28466
# Poissons Ratio (z) = 0.10803 0.43982
#
# Static dielectric constant tensor:
#      x y z
#    x 1.697380 0.000000 0.020570 
#    y 0.000000 1.637800 0.000000 
#    z 0.020570 0.000000 1.775340 
# 
# From -- ./inp_files/54730.got.cif
#   From: 2010.05.17/outbox.cif.g08.bks.cpg/sg12_28_cif.got.tgz:54730.got - 2010.06.03 13:09:07.
