data_PCOD9201378
_publ_section_title
;
Structure prediction by ZEFSAII (Michael W. Deem and Ramdas Pophale) SiO2 
 PCOD9201378
Probable space group: C 2/M
;
_chemical_formula_sum "Si O2"
_cell_formula_units_Z 60
_cell_length_a 20.854931
_cell_length_b 9.695941
_cell_length_c 22.558906
_cell_angle_alpha 90.000000
_cell_angle_beta 43.901979
_cell_angle_gamma 90.000000
_cell_volume 3163.132073
_symmetry_space_group_name_H-M "C 2/M"
_symmetry_group_IT_number 12
_symmetry_cell_setting 'monoclinic'
loop_
_space_group_symop_operation_xyz
x,y,z
-x,y,-z
-x,-y,-z
x,-y,z
1/2+x,1/2+y,z
1/2-x,1/2+y,-z
1/2-x,1/2-y,-z
1/2+x,1/2-y,z
loop_
_atom_site_type_symbol
_atom_site_label
_atom_site_fract_x
_atom_site_fract_y
_atom_site_fract_z
Si Si1 0.187167 0.160530 0.621624
Si Si2 0.967116 0.341132 0.953903
Si Si3 0.112046 0.337646 0.565687
Si Si4 0.750749 0.778343 0.914885
Si Si5 0.229357 0.840249 0.230676
Si Si6 0.877962 0.836683 0.200552
Si Si7 0.528144 0.659088 0.413435
Si Si8 0.230206 0.000000 0.997572
O O1 0.134800 0.262139 0.612117
O O2 0.296328 0.180296 0.536416
O O3 0.158673 0.184117 0.708350
O O4 0.166351 0.000000 0.620940
O O5 0.987324 0.500000 0.924000
O O6 0.023405 0.234985 0.875980
O O7 0.858042 0.317739 0.020203
O O8 0.000000 0.321465 0.000000
O O9 0.097074 0.500000 0.583914
O O10 0.027204 0.263444 0.590777
O O11 0.793610 0.805106 0.821924
O O12 0.755887 0.622182 0.932686
O O13 0.790626 0.879491 0.938099
O O14 0.307873 0.739726 0.202926
O O15 0.137395 0.826205 0.330918
O O16 0.261514 0.000000 0.211800
O O17 0.883068 0.000000 0.185501
O O18 0.500000 0.682620 0.500000
O O19 0.503729 0.500000 0.414583
#
# Coordination Sequence:
#
# PCOD9201378 Si02
#       8
#     8   8   8   8   8   8   8   4
#     4   9  20  40  59  84 121 156 195 240 300 362
#     4  11  22  39  63  87 121 154 198 250 303 358
#     4  10  20  37  62  87 116 157 198 247 298 348
#     4  11  22  44  63  91 118 166 206 251 306 360
#     4  11  22  40  63  85 121 159 202 247 303 363
#     4  11  24  38  60  93 119 155 195 251 304 356
#     4  10  22  39  60  90 121 161 201 243 296 359
#     4  10  24  42  66  86 122 160 210 250 302 370
#
# _framework density 18.968541999999999
#
# number of rings (size 3 to 8) (size 9 to 14) (size 15 to 20)
#    0.000    1.600    2.667    1.600    1.867    2.667 
#    4.800    0.000    0.000    0.000    0.000    0.000 
#    0.000    0.000    0.000    0.000    0.000    0.000 
#
# Total GULP energy -167072.098890 kJ/mol
# GULP energy per Si atom -5569.069963 kJ/mol
# Density = 1.892537 g / cm^3
# Si number density = 18.968542 Si / 1000 Ang^3
#
#
#
# Elastic Constant Matrix: (Units=GPa)
#
#
# Indices 1 2 3 4 5 6 
#
# 1 13.8271 18.2433 -1.9751 0.0000 -1.7998 0.0001
# 2 18.2433 119.9120 31.9958 -0.0001 6.4900 0.0003
# 3 -1.9751 31.9958 85.9202 0.0000 11.7646 0.0000
# 4 0.0000 -0.0001 0.0000 27.9005 0.0000 2.7787
# 5 -1.7998 6.4900 11.7646 0.0000 16.0770 0.0000
# 6 0.0001 0.0003 0.0000 2.7787 0.0000 4.7231
#
#
#
# Elastic Compliance Matrix: (Units=1/GPa)
#
#
# Indices 1 2 3 4 5 6 
#
# 1 0.098075 -0.017487 0.006998 0.000000 0.012918 -0.000002
# 2 -0.017487 0.012404 -0.004520 0.000000 -0.003657 0.000000
# 3 0.006998 -0.004520 0.014587 0.000000 -0.008066 0.000000
# 4 0.000000 0.000000 0.000000 0.038072 0.000000 -0.022399
# 5 0.012918 -0.003657 -0.008066 0.000000 0.071026 0.000000
# 6 -0.000002 0.000000 0.000000 -0.022399 0.000000 0.224901
#
#
# Mechanical properties :
#
#
# Convention : Reuss Voigt Hill
#
# Bulk Modulus (GPa) = 10.52113 35.13190 22.82652
# Shear Modulus (GPa) = 9.60120 21.16649 15.38384
#
# Velocity S-wave (km/s) = 2.25225 3.34409 2.85093
# Velocity P-wave (km/s) = 3.51030 5.78550 4.78509
#
# Compressibility (1/GPa) = 0.09504681
#
# Stress axis : x y z
#
# Youngs Moduli (GPa) = 10.19626 80.61869 68.55228
#
# Poissons Ratio (x) = 1.40981 -0.47972
# Poissons Ratio (y) = 0.17831 0.30988
# Poissons Ratio (z) = -0.07135 0.36443
#
# Static dielectric constant tensor:
#      x y z
#    x 1.661210 0.000000 -0.013270 
#    y 0.000000 1.637120 0.000000 
#    z -0.013270 0.000000 1.658410 
# 
# From -- ./inp_files/320494.got.cif
#   From: 2010.05.17/outbox.cif.g08.bks.cpg/sg12_161_cif.got.tgz:320494.got - 2010.06.03 13:09:07.
