data_PCOD9201460
_publ_section_title
;
Structure prediction by ZEFSAII (Michael W. Deem and Ramdas Pophale) SiO2 
 PCOD9201460
Probable space group: C 2/M
;
_chemical_formula_sum "Si O2"
_cell_formula_units_Z 64
_cell_length_a 16.899654
_cell_length_b 29.383095
_cell_length_c 11.126971
_cell_angle_alpha 90.000000
_cell_angle_beta 33.400568
_cell_angle_gamma 90.000000
_cell_volume 3041.592065
_symmetry_space_group_name_H-M "C 2/M"
_symmetry_group_IT_number 12
_symmetry_cell_setting 'monoclinic'
loop_
_space_group_symop_operation_xyz
x,y,z
-x,y,-z
-x,-y,-z
x,-y,z
1/2+x,1/2+y,z
1/2-x,1/2+y,-z
1/2-x,1/2-y,-z
1/2+x,1/2-y,z
loop_
_atom_site_type_symbol
_atom_site_label
_atom_site_fract_x
_atom_site_fract_y
_atom_site_fract_z
Si Si1 0.116618 0.551360 0.599373
Si Si2 0.929380 0.911243 0.761315
Si Si3 0.202238 0.786581 0.345649
Si Si4 0.734731 0.887511 0.659049
Si Si5 0.342331 0.305880 0.141493
Si Si6 0.125477 0.192505 0.186078
Si Si7 0.316204 0.050033 0.065088
Si Si8 0.840618 0.910188 0.145816
O O1 0.145155 0.500000 0.610242
O O2 0.165362 0.590601 0.629545
O O3 0.217409 0.558648 0.357043
O O4 0.944144 0.554684 0.805402
O O5 0.881703 0.861205 0.779935
O O6 0.843180 0.945259 0.786355
O O7 0.100900 0.906791 0.547322
O O8 0.868176 0.918014 0.971393
O O9 0.264407 0.832658 0.328271
O O10 0.261763 0.736985 0.301562
O O11 0.219978 0.790076 0.177656
O O12 0.033906 0.788053 0.590922
O O13 0.661488 0.910757 0.866231
O O14 0.293243 0.357603 0.228055
O O15 0.500000 0.304175 0.000000
O O16 0.339558 0.301834 0.998978
O O17 0.331693 0.000000 0.101198
O O18 0.000000 0.916575 0.000000
#
# Coordination Sequence:
#
# PCOD9201460 Si02
#       8
#     8   8   8   8   8   8   8   8
#     4  11  25  43  63  91 128 166 201 257 325 375
#     4  10  20  39  66  90 119 165 209 258 303 363
#     4  10  20  37  62  89 120 162 202 249 304 360
#     4  11  21  40  66  92 124 164 211 254 305 373
#     4  10  22  37  59  92 124 160 202 256 304 361
#     4   9  19  39  60  83 124 160 201 253 303 351
#     4  11  24  40  59  92 131 160 199 261 322 368
#     4  10  21  44  65  87 123 162 212 260 309 364
#
# _framework density 21.041613000000002
#
# number of rings (size 3 to 8) (size 9 to 14) (size 15 to 20)
#    0.000    1.750    2.500    1.500    1.750    5.250 
#    2.250    3.750    0.000    0.000    0.000    0.000 
#    0.000    0.000    0.000    0.000    0.000    0.000 
#
# Total GULP energy -178436.478504 kJ/mol
# GULP energy per Si atom -5576.139953 kJ/mol
# Density = 2.099372 g / cm^3
# Si number density = 21.041613 Si / 1000 Ang^3
#
#
#
# Elastic Constant Matrix: (Units=GPa)
#
#
# Indices 1 2 3 4 5 6 
#
# 1 34.4916 4.1917 -2.5400 0.0000 0.2001 -0.0003
# 2 4.1917 80.2280 26.3400 0.0000 -1.5072 0.0000
# 3 -2.5400 26.3400 78.6792 0.0000 3.0001 -0.0005
# 4 0.0000 0.0000 0.0000 23.8923 0.0000 0.5721
# 5 0.2001 -1.5072 3.0001 0.0000 15.0959 0.0003
# 6 -0.0003 0.0000 -0.0005 0.5721 0.0003 -33.6829
#
#
#
# Elastic Compliance Matrix: (Units=1/GPa)
#
#
# Indices 1 2 3 4 5 6 
#
# 1 0.029378 -0.002107 0.001690 0.000000 -0.000935 0.000000
# 2 -0.002107 0.014238 -0.004927 0.000000 0.002429 0.000000
# 3 0.001690 -0.004927 0.014544 0.000000 -0.003405 0.000000
# 4 0.000000 0.000000 0.000000 0.041838 0.000000 0.000711
# 5 -0.000935 0.002429 -0.003405 0.000000 0.067175 0.000001
# 6 0.000000 0.000000 0.000000 0.000711 0.000001 -0.029677
#
#
# Mechanical properties :
#
#
# Convention : Reuss Voigt Hill
#
# Bulk Modulus (GPa) = 21.06577 27.70914 24.38746
# Shear Modulus (GPa) = 30.48617 12.08819 21.28718
#
# Velocity S-wave (km/s) = 3.81051 2.39945 3.18413
# Velocity P-wave (km/s) = 5.42155 4.56879 5.01333
#
# Compressibility (1/GPa) = 0.04747036
#
# Stress axis : x y z
#
# Youngs Moduli (GPa) = 34.03851 70.23533 68.75832
#
# Poissons Ratio (x) = 0.14800 -0.11617
# Poissons Ratio (y) = 0.07173 0.33878
# Poissons Ratio (z) = -0.05751 0.34606
#
# Static dielectric constant tensor:
#      x y z
#    x 1.796290 0.000000 -0.013050 
#    y 0.000000 1.756570 0.000000 
#    z -0.013050 0.000000 1.778040 
# 
# From -- ./inp_files/161204.got.cif
#   From: 2010.05.17/outbox.cif.g08.bks.cpg/sg12_81_cif.got.tgz:161204.got - 2010.06.03 13:09:07.
