data_PCOD9201944
_publ_section_title
;
Structure prediction by ZEFSAII (Michael W. Deem and Ramdas Pophale) SiO2 
 PCOD9201944
Probable space group: C 2/M
;
_chemical_formula_sum "Si O2"
_cell_formula_units_Z 48
_cell_length_a 8.891569
_cell_length_b 14.226938
_cell_length_c 18.377166
_cell_angle_alpha 90.000000
_cell_angle_beta 100.388212
_cell_angle_gamma 90.000000
_cell_volume 2286.602600
_symmetry_space_group_name_H-M "C 2/M"
_symmetry_group_IT_number 12
_symmetry_cell_setting 'monoclinic'
loop_
_space_group_symop_operation_xyz
x,y,z
-x,y,-z
-x,-y,-z
x,-y,z
1/2+x,1/2+y,z
1/2-x,1/2+y,-z
1/2-x,1/2-y,-z
1/2+x,1/2-y,z
loop_
_atom_site_type_symbol
_atom_site_label
_atom_site_fract_x
_atom_site_fract_y
_atom_site_fract_z
Si Si1 0.998147 0.777302 0.289769
Si Si2 0.342767 0.811578 0.947950
Si Si3 0.312785 0.500000 0.895453
Si Si4 0.826849 0.000000 0.070626
Si Si5 0.682267 0.893995 0.529747
Si Si6 0.286494 0.681895 0.813253
Si Si7 0.728587 0.696675 0.610891
O O1 0.860457 0.732679 0.232189
O O2 0.914944 0.826369 0.350600
O O3 0.100088 0.838117 0.243849
O O4 0.112658 0.697157 0.330816
O O5 0.251053 0.902906 0.913422
O O6 0.370196 0.746921 0.880123
O O7 0.500000 0.840025 0.000000
O O8 0.250000 0.750000 0.000000
O O9 0.494686 0.500000 0.895072
O O10 0.240022 0.590544 0.853309
O O11 0.305439 0.500000 0.981285
O O12 0.500000 0.893017 0.500000
O O13 0.714296 0.806803 0.586036
O O14 0.761078 0.865491 0.460245
O O15 0.724834 0.000000 0.556604
#
# Coordination Sequence:
#
# PCOD9201944 Si02
#       7
#     8   8   4   4   8   8   8
#     4  10  22  41  60  83 126 166 203 236 310 364
#     4  12  23  40  66  91 120 160 211 268 317 368
#     4  11  22  40  62  94 120 158 209 259 322 371
#     4  11  23  38  64  94 122 150 207 278 320 368
#     4  10  20  37  68  97 120 157 205 250 299 354
#     4  11  23  41  63  87 120 168 203 253 310 379
#     4  10  20  41  63  92 125 162 195 261 294 359
#
# _framework density 20.991842999999999
#
# number of rings (size 3 to 8) (size 9 to 14) (size 15 to 20)
#    0.000    1.333    3.333    3.250    0.000    0.000 
#    9.000    0.833    3.667    0.000    0.000    0.000 
#    0.000    0.000    0.000    0.000    0.000    0.000 
#
# Total GULP energy -134093.650319 kJ/mol
# GULP energy per Si atom -5587.235430 kJ/mol
# Density = 2.094406 g / cm^3
# Si number density = 20.991843 Si / 1000 Ang^3
#
#
#
# Elastic Constant Matrix: (Units=GPa)
#
#
# Indices 1 2 3 4 5 6 
#
# 1 54.7783 -18.2347 1.1858 0.0000 -9.2769 0.0000
# 2 -18.2347 78.6896 0.7563 0.0000 -3.8478 0.0000
# 3 1.1858 0.7563 70.0965 0.0000 -13.4820 0.0000
# 4 0.0000 0.0000 0.0000 -25.2330 0.0000 26.3663
# 5 -9.2769 -3.8478 -13.4820 0.0000 38.7397 0.0000
# 6 0.0000 0.0000 0.0000 26.3663 0.0000 -15.1724
#
#
#
# Elastic Compliance Matrix: (Units=1/GPa)
#
#
# Indices 1 2 3 4 5 6 
#
# 1 0.020922 0.005123 0.000699 0.000000 0.005762 0.000000
# 2 0.005123 0.014026 0.000285 0.000000 0.002719 0.000000
# 3 0.000699 0.000285 0.015314 0.000000 0.005525 0.000000
# 4 0.000000 0.000000 0.000000 0.048577 0.000000 0.084416
# 5 0.005762 0.002719 0.005525 0.000000 0.029386 0.000000
# 6 0.000000 0.000000 0.000000 0.084416 0.000000 0.080788
#
#
# Mechanical properties :
#
#
# Convention : Reuss Voigt Hill
#
# Bulk Modulus (GPa) = 16.00630 18.99769 17.50199
# Shear Modulus (GPa) = 22.97555 14.32398 18.64977
#
# Velocity S-wave (km/s) = 3.31191 2.61504 2.98389
# Velocity P-wave (km/s) = 4.71875 4.26469 4.49745
#
# Compressibility (1/GPa) = 0.06247541
#
# Stress axis : x y z
#
# Youngs Moduli (GPa) = 47.79765 71.29832 65.30047
#
# Poissons Ratio (x) = -0.36527 -0.04565
# Poissons Ratio (y) = -0.24488 -0.01861
# Poissons Ratio (z) = -0.03341 -0.02032
#
# Static dielectric constant tensor:
#      x y z
#    x 1.760260 0.000000 -0.015210 
#    y 0.000000 1.719610 0.000000 
#    z -0.015210 0.000000 1.752800 
# 
# From -- ./inp_files/255804.got.cif
#   From: 2010.05.17/outbox.cif.g08.bks.cpg/sg12_128_cif.got.tgz:255804.got - 2010.06.03 13:09:07.
