data_PCOD9201210
_publ_section_title
;
Structure prediction by ZEFSAII (Michael W. Deem and Ramdas Pophale) SiO2 
 PCOD9201210
Probable space group: C 2/M
;
_chemical_formula_sum "Si O2"
_cell_formula_units_Z 40
_cell_length_a 8.502857
_cell_length_b 28.515335
_cell_length_c 10.711646
_cell_angle_alpha 90.000000
_cell_angle_beta 44.646323
_cell_angle_gamma 90.000000
_cell_volume 1825.101933
_symmetry_space_group_name_H-M "C 2/M"
_symmetry_group_IT_number 12
_symmetry_cell_setting 'monoclinic'
loop_
_space_group_symop_operation_xyz
x,y,z
-x,y,-z
-x,-y,-z
x,-y,z
1/2+x,1/2+y,z
1/2-x,1/2+y,-z
1/2-x,1/2-y,-z
1/2+x,1/2-y,z
loop_
_atom_site_type_symbol
_atom_site_label
_atom_site_fract_x
_atom_site_fract_y
_atom_site_fract_z
Si Si1 0.827467 0.085233 0.771324
Si Si2 0.502463 0.728603 0.130015
Si Si3 0.856896 0.811325 0.704391
Si Si4 0.204713 0.554131 0.569193
Si Si5 0.740284 0.443569 0.910934
O O1 0.099507 0.081970 0.611308
O O2 0.751059 0.138434 0.793084
O O3 0.757646 0.055974 0.688366
O O4 0.741887 0.067899 0.952456
O O5 0.323816 0.770424 0.217210
O O6 0.482797 0.700882 0.269260
O O7 0.500000 0.701020 0.000000
O O8 0.750000 0.750000 0.000000
O O9 0.000000 0.816501 0.500000
O O10 0.214372 0.500000 0.520764
O O11 0.951620 0.573197 0.709666
O O12 0.744586 0.500000 0.896826
O O13 0.500000 0.426348 0.000000
#
# Coordination Sequence:
#
# PCOD9201210 Si02
#       5
#     8   8   8   8   8
#     4  11  21  37  61  92 121 157 206 258 299 355
#     4   9  21  39  62  88 115 155 198 247 312 368
#     4  11  21  40  63  89 121 159 201 253 311 373
#     4  10  20  37  61  88 121 161 207 249 298 358
#     4  10  22  38  59  88 126 169 204 247 306 362
#
# _framework density 21.916585000000001
#
# number of rings (size 3 to 8) (size 9 to 14) (size 15 to 20)
#    0.000    1.800    2.000    3.600    0.000    8.000 
#    0.000    5.000    8.800    0.000    0.000    0.000 
#    0.000    0.000    0.000    0.000    0.000    0.000 
#
# Total GULP energy -111667.622139 kJ/mol
# GULP energy per Si atom -5583.381107 kJ/mol
# Density = 2.186670 g / cm^3
# Si number density = 21.916585 Si / 1000 Ang^3
#
#
#
# Elastic Constant Matrix: (Units=GPa)
#
#
# Indices 1 2 3 4 5 6 
#
# 1 69.6976 4.5632 13.6245 0.0000 3.0546 0.0000
# 2 4.5632 56.6737 6.4696 0.0000 -0.4913 0.0000
# 3 13.6245 6.4696 107.6443 0.0000 -15.8335 0.0000
# 4 0.0000 0.0000 0.0000 14.8228 0.0000 4.4149
# 5 3.0546 -0.4913 -15.8335 0.0000 38.9351 0.0000
# 6 0.0000 0.0000 0.0000 4.4149 0.0000 -1.2450
#
#
#
# Elastic Compliance Matrix: (Units=1/GPa)
#
#
# Indices 1 2 3 4 5 6 
#
# 1 0.014918 -0.000976 -0.002131 0.000000 -0.002049 0.000000
# 2 -0.000976 0.017832 -0.000961 0.000000 -0.000089 0.000000
# 3 -0.002131 -0.000961 0.010253 0.000000 0.004325 0.000000
# 4 0.000000 0.000000 0.000000 0.032811 0.000000 0.116347
# 5 -0.002049 -0.000089 0.004325 0.000000 0.027602 0.000000
# 6 0.000000 0.000000 0.000000 0.116347 0.000000 -0.390633
#
#
# Mechanical properties :
#
#
# Convention : Reuss Voigt Hill
#
# Bulk Modulus (GPa) = 28.67976 31.48112 30.08044
# Shear Modulus (GPa) = -18.69450 24.45980 2.88265
#
# Velocity S-wave (km/s) = -2.92376 3.34434 1.14810
# Velocity P-wave (km/s) = 1.31014 5.41369 3.93856
#
# Compressibility (1/GPa) = 0.03486780
#
# Stress axis : x y z
#
# Youngs Moduli (GPa) = 67.03338 56.07769 97.52775
#
# Poissons Ratio (x) = 0.05471 0.20783
# Poissons Ratio (y) = 0.06540 0.09377
# Poissons Ratio (z) = 0.14284 0.05391
#
# Static dielectric constant tensor:
#      x y z
#    x 1.872110 0.000000 -0.043650 
#    y 0.000000 1.650650 0.000000 
#    z -0.043650 0.000000 1.869030 
# 
# From -- ./inp_files/124990.got.cif
#   From: 2010.05.17/outbox.cif.g08.bks.cpg/sg12_63_cif.got.tgz:124990.got - 2010.06.03 13:09:07.
