data_PCOD9201230
_publ_section_title
;
Structure prediction by ZEFSAII (Michael W. Deem and Ramdas Pophale) SiO2 
 PCOD9201230
Probable space group: C 2/M
;
_chemical_formula_sum "Si O2"
_cell_formula_units_Z 56
_cell_length_a 18.951119
_cell_length_b 17.336832
_cell_length_c 14.788102
_cell_angle_alpha 90.000000
_cell_angle_beta 37.838671
_cell_angle_gamma 90.000000
_cell_volume 2980.501074
_symmetry_space_group_name_H-M "C 2/M"
_symmetry_group_IT_number 12
_symmetry_cell_setting 'monoclinic'
loop_
_space_group_symop_operation_xyz
x,y,z
-x,y,-z
-x,-y,-z
x,-y,z
1/2+x,1/2+y,z
1/2-x,1/2+y,-z
1/2-x,1/2-y,-z
1/2+x,1/2-y,z
loop_
_atom_site_type_symbol
_atom_site_label
_atom_site_fract_x
_atom_site_fract_y
_atom_site_fract_z
Si Si1 0.154887 0.811170 0.060464
Si Si2 0.264542 0.200177 0.629680
Si Si3 0.949125 0.089811 0.685814
Si Si4 0.670398 0.358203 0.376301
Si Si5 0.074827 0.410831 0.841264
Si Si6 0.634041 0.407226 0.895278
Si Si7 0.424975 0.212395 0.302200
O O1 0.134480 0.879354 0.152703
O O2 0.037685 0.763180 0.187503
O O3 0.250000 0.750000 0.000000
O O4 0.161147 0.853611 0.956132
O O5 0.302911 0.267654 0.659866
O O6 0.213423 0.127468 0.734355
O O7 0.369645 0.189663 0.453960
O O8 0.166971 0.240145 0.665703
O O9 0.885056 0.106835 0.656744
O O10 0.074455 0.130429 0.551498
O O11 0.971723 0.000000 0.673361
O O12 0.789920 0.399558 0.276827
O O13 0.046930 0.500000 0.860438
O O14 0.047145 0.365042 0.779647
O O15 0.000000 0.378107 0.000000
O O16 0.651351 0.500000 0.892509
O O17 0.500000 0.397034 0.000000
#
# Coordination Sequence:
#
# PCOD9201230 Si02
#       7
#     8   8   8   8   8   8   8
#     4  12  25  42  62  95 127 168 210 260 320 383
#     4  10  20  40  64  88 124 158 214 260 305 379
#     4  11  22  38  61  90 125 158 207 260 314 369
#     4  10  20  37  61  89 120 162 202 254 311 373
#     4  10  22  36  57  88 122 156 198 253 313 368
#     4  11  24  42  67  97 131 169 218 274 322 371
#     4  10  22  38  60  90 118 165 209 253 312 373
#
# _framework density 18.788786999999999
#
# number of rings (size 3 to 8) (size 9 to 14) (size 15 to 20)
#    0.000    1.429    2.857    3.000    6.000    0.571 
#    0.000    0.714    0.000    0.857    0.000    0.000 
#    0.000    0.000    0.000    0.000    0.000    0.000 
#
# Total GULP energy -156156.517057 kJ/mol
# GULP energy per Si atom -5577.018466 kJ/mol
# Density = 1.874602 g / cm^3
# Si number density = 18.788787 Si / 1000 Ang^3
#
#
#
# Elastic Constant Matrix: (Units=GPa)
#
#
# Indices 1 2 3 4 5 6 
#
# 1 38.9264 33.4563 24.8724 0.0000 8.8265 0.0000
# 2 33.4563 110.1588 57.2716 0.0000 5.4282 0.0000
# 3 24.8724 57.2716 100.7655 0.0000 19.6034 0.0000
# 4 0.0000 0.0000 0.0000 -40.9403 0.0000 -64.4644
# 5 8.8265 5.4282 19.6034 0.0000 28.7524 0.0000
# 6 0.0000 0.0000 0.0000 -64.4644 0.0000 -34.4025
#
#
#
# Elastic Compliance Matrix: (Units=1/GPa)
#
#
# Indices 1 2 3 4 5 6 
#
# 1 0.037336 -0.009901 -0.001986 0.000000 -0.008239 0.000000
# 2 -0.009901 0.015732 -0.007507 0.000000 0.005188 0.000000
# 3 -0.001986 -0.007507 0.016471 0.000000 -0.009203 0.000000
# 4 0.000000 0.000000 0.000000 0.012523 0.000000 -0.023465
# 5 -0.008239 0.005188 -0.009203 0.000000 0.042604 0.000000
# 6 0.000000 0.000000 0.000000 -0.023465 0.000000 0.014902
#
#
# Mechanical properties :
#
#
# Convention : Reuss Voigt Hill
#
# Bulk Modulus (GPa) = 32.51793 53.45013 42.98403
# Shear Modulus (GPa) = 26.51023 -0.36805 13.07109
#
# Velocity S-wave (km/s) = 3.76035 -0.44307 2.64045
# Velocity P-wave (km/s) = 6.01650 5.31487 5.67654
#
# Compressibility (1/GPa) = 0.03075227
#
# Stress axis : x y z
#
# Youngs Moduli (GPa) = 26.78377 63.56464 60.71190
#
# Poissons Ratio (x) = 0.62935 0.12055
# Poissons Ratio (y) = 0.26519 0.45575
# Poissons Ratio (z) = 0.05318 0.47717
#
# Static dielectric constant tensor:
#      x y z
#    x 1.647140 0.000000 0.003960 
#    y 0.000000 1.651300 0.000000 
#    z 0.003960 0.000000 1.680760 
# 
# From -- ./inp_files/234663.got.cif
#   From: 2010.05.17/outbox.cif.g08.bks.cpg/sg12_118_cif.got.tgz:234663.got - 2010.06.03 13:09:07.
