data_PCOD9201453
_publ_section_title
;
Structure prediction by ZEFSAII (Michael W. Deem and Ramdas Pophale) SiO2 
 PCOD9201453
Probable space group: C 2/M
;
_chemical_formula_sum "Si O2"
_cell_formula_units_Z 48
_cell_length_a 15.965353
_cell_length_b 15.764864
_cell_length_c 8.888390
_cell_angle_alpha 90.000000
_cell_angle_beta 91.036952
_cell_angle_gamma 90.000000
_cell_volume 2236.766895
_symmetry_space_group_name_H-M "C 2/M"
_symmetry_group_IT_number 12
_symmetry_cell_setting 'monoclinic'
loop_
_space_group_symop_operation_xyz
x,y,z
-x,y,-z
-x,-y,-z
x,-y,z
1/2+x,1/2+y,z
1/2-x,1/2+y,-z
1/2-x,1/2-y,-z
1/2+x,1/2-y,z
loop_
_atom_site_type_symbol
_atom_site_label
_atom_site_fract_x
_atom_site_fract_y
_atom_site_fract_z
Si Si1 0.084589 0.363910 0.945383
Si Si2 0.417857 0.896876 0.398335
Si Si3 0.244553 0.602994 0.419556
Si Si4 0.759395 0.903992 0.082688
Si Si5 0.915272 0.177214 0.921691
Si Si6 0.583211 0.398348 0.405373
O O1 0.078893 0.355328 0.765741
O O2 0.172327 0.405596 0.990790
O O3 0.085514 0.275875 0.036455
O O4 0.000000 0.408251 0.000000
O O5 0.500000 0.878609 0.500000
O O6 0.335069 0.868718 0.485775
O O7 0.414672 0.000000 0.376072
O O8 0.237059 0.500000 0.413865
O O9 0.244169 0.634314 0.247828
O O10 0.332820 0.622793 0.499668
O O11 0.789342 0.000000 0.106463
O O12 0.830933 0.858078 0.992377
O O13 0.918084 0.154407 0.747483
O O14 0.000000 0.140704 0.000000
O O15 0.500000 0.382766 0.500000
O O16 0.585919 0.500000 0.370969
#
# Coordination Sequence:
#
# PCOD9201453 Si02
#       6
#     8   8   8   8   8   8
#     4  11  24  41  59  88 128 166 203 250 313 379
#     4  10  20  37  62  89 119 158 207 258 304 359
#     4   9  19  35  56  86 116 147 196 254 307 353
#     4  11  22  39  65  92 121 161 211 262 308 363
#     4  11  24  41  59  88 128 166 203 250 313 379
#     4  10  20  37  62  89 119 158 207 258 304 359
#
# _framework density 21.459544999999999
#
# number of rings (size 3 to 8) (size 9 to 14) (size 15 to 20)
#    0.000    1.667    0.000    4.500    0.000    6.667 
#    0.000   13.333    0.000    0.000    0.000    0.000 
#    0.000    0.000    0.000    0.000    0.000    0.000 
#
# Total GULP energy -134196.644870 kJ/mol
# GULP energy per Si atom -5591.526870 kJ/mol
# Density = 2.141070 g / cm^3
# Si number density = 21.459545 Si / 1000 Ang^3
#
#
#
# Elastic Constant Matrix: (Units=GPa)
#
#
# Indices 1 2 3 4 5 6 
#
# 1 184.6508 32.6747 75.8152 0.0000 -11.2967 0.0000
# 2 32.6747 57.3997 44.2163 0.0000 -8.8110 0.0000
# 3 75.8152 44.2163 193.3807 0.0000 -4.0340 0.0000
# 4 0.0000 0.0000 0.0000 25.4628 0.0000 15.6924
# 5 -11.2967 -8.8110 -4.0340 0.0000 42.3121 0.0000
# 6 0.0000 0.0000 0.0000 15.6924 0.0000 12.4755
#
#
#
# Elastic Compliance Matrix: (Units=1/GPa)
#
#
# Indices 1 2 3 4 5 6 
#
# 1 0.006725 -0.001985 -0.002158 0.000000 0.001176 0.000000
# 2 -0.001985 0.022412 -0.004268 0.000000 0.003730 0.000000
# 3 -0.002158 -0.004268 0.006977 0.000000 -0.000800 0.000000
# 4 0.000000 0.000000 0.000000 0.174705 0.000000 -0.219754
# 5 0.001176 0.003730 -0.000800 0.000000 0.024648 0.000000
# 6 0.000000 0.000000 0.000000 -0.219754 0.000000 0.356578
#
#
# Mechanical properties :
#
#
# Convention : Reuss Voigt Hill
#
# Bulk Modulus (GPa) = 51.83911 82.31594 67.07752
# Shear Modulus (GPa) = 8.12613 34.89840 21.51227
#
# Velocity S-wave (km/s) = 1.94806 4.03704 3.16959
# Velocity P-wave (km/s) = 5.41009 7.75708 6.68735
#
# Compressibility (1/GPa) = 0.01929046
#
# Stress axis : x y z
#
# Youngs Moduli (GPa) = 148.69969 44.61803 143.33790
#
# Poissons Ratio (x) = 0.08858 0.30933
# Poissons Ratio (y) = 0.29520 0.61183
# Poissons Ratio (z) = 0.32091 0.19045
#
# Static dielectric constant tensor:
#      x y z
#    x 1.771770 0.000000 0.003600 
#    y 0.000000 1.810310 0.000000 
#    z 0.003600 0.000000 1.735590 
# 
# From -- ./inp_files/61756.got.cif
#   From: 2010.05.17/outbox.cif.g08.bks.cpg/sg12_31_cif.got.tgz:61756.got - 2010.06.03 13:09:07.
