data_PCOD9201534
_publ_section_title
;
Structure prediction by ZEFSAII (Michael W. Deem and Ramdas Pophale) SiO2 
 PCOD9201534
Probable space group: C 2/M
;
_chemical_formula_sum "Si O2"
_cell_formula_units_Z 42
_cell_length_a 7.405708
_cell_length_b 12.488166
_cell_length_c 20.077754
_cell_angle_alpha 90.000000
_cell_angle_beta 72.619120
_cell_angle_gamma 90.000000
_cell_volume 1772.080856
_symmetry_space_group_name_H-M "C 2/M"
_symmetry_group_IT_number 12
_symmetry_cell_setting 'monoclinic'
loop_
_space_group_symop_operation_xyz
x,y,z
-x,y,-z
-x,-y,-z
x,-y,z
1/2+x,1/2+y,z
1/2-x,1/2+y,-z
1/2-x,1/2-y,-z
1/2+x,1/2-y,z
loop_
_atom_site_type_symbol
_atom_site_label
_atom_site_fract_x
_atom_site_fract_y
_atom_site_fract_z
Si Si1 0.146024 0.115780 0.422561
Si Si2 0.634217 0.617872 0.763295
Si Si3 0.342873 0.118990 0.074515
Si Si4 0.215473 0.844863 0.611646
Si Si5 0.000000 0.500000 0.500000
Si Si6 0.602653 0.799447 0.155876
O O1 0.000312 0.117962 0.377185
O O2 0.000000 0.124557 0.500000
O O3 0.275226 0.218787 0.404900
O O4 0.247063 0.000000 0.418347
O O5 0.546411 0.500000 0.770732
O O6 0.759885 0.631666 0.683563
O O7 0.491484 0.716987 0.781812
O O8 0.751451 0.630902 0.818492
O O9 0.451102 0.131204 0.133066
O O10 0.200363 0.218664 0.092069
O O11 0.256709 0.000000 0.077514
O O12 0.500000 0.128535 0.000000
O O13 0.358951 0.907156 0.548264
#
# Coordination Sequence:
#
# PCOD9201534 Si02
#       6
#     8   8   8   8   2   8
#     4  11  24  41  60  86 114 148 191 248 309 374
#     4  11  22  40  60  84 119 160 199 245 298 358
#     4  10  20  37  62  91 123 158 195 240 289 339
#     4  12  24  42  63  88 118 156 201 255 315 360
#     4  12  24  40  68  88 120 152 204 266 312 358
#     4  10  22  38  59  89 122 158 200 240 286 354
#
# _framework density 23.700948
#
# number of rings (size 3 to 8) (size 9 to 14) (size 15 to 20)
#    0.000    1.143    2.857    3.429    0.000    0.000 
#    0.000    4.762    0.000    9.143    0.000    0.000 
#    0.000    0.000    0.000    0.000    0.000    0.000 
#
# Total GULP energy -117265.131943 kJ/mol
# GULP energy per Si atom -5584.053902 kJ/mol
# Density = 2.364700 g / cm^3
# Si number density = 23.700948 Si / 1000 Ang^3
#
#
#
# Elastic Constant Matrix: (Units=GPa)
#
#
# Indices 1 2 3 4 5 6 
#
# 1 22.4063 1.6880 -1.5387 0.0000 -1.7578 0.0000
# 2 1.6880 170.5650 30.8717 0.0000 -7.7105 0.0000
# 3 -1.5387 30.8717 79.6396 0.0000 -11.3016 0.0000
# 4 0.0000 0.0000 0.0000 5.3705 0.0000 1.0412
# 5 -1.7578 -7.7105 -11.3016 0.0000 30.4956 0.0000
# 6 0.0000 0.0000 0.0000 1.0412 0.0000 -2.6849
#
#
#
# Elastic Compliance Matrix: (Units=1/GPa)
#
#
# Indices 1 2 3 4 5 6 
#
# 1 0.045015 -0.000585 0.001524 0.000000 0.003012 0.000000
# 2 -0.000585 0.006328 -0.002367 0.000000 0.000689 0.000000
# 3 0.001524 -0.002367 0.014177 0.000000 0.004743 0.000000
# 4 0.000000 0.000000 0.000000 0.173181 0.000000 0.067162
# 5 0.003012 0.000689 0.004743 0.000000 0.034897 0.000000
# 6 0.000000 0.000000 0.000000 0.067162 0.000000 -0.346411
#
#
# Mechanical properties :
#
#
# Convention : Reuss Voigt Hill
#
# Bulk Modulus (GPa) = 15.95803 37.18365 26.57084
# Shear Modulus (GPa) = -101.89819 22.74223 -39.57798
#
# Velocity S-wave (km/s) = -6.56404 3.10102 -4.09086
# Velocity P-wave (km/s) = 7.12047 5.34271 3.32841
#
# Compressibility (1/GPa) = 0.06266439
#
# Stress axis : x y z
#
# Youngs Moduli (GPa) = 22.21464 158.02391 70.53924
#
# Poissons Ratio (x) = 0.09247 -0.10750
# Poissons Ratio (y) = 0.01300 0.16694
# Poissons Ratio (z) = -0.03385 0.37397
#
# Static dielectric constant tensor:
#      x y z
#    x 1.972890 0.000000 0.060000 
#    y 0.000000 1.857420 0.000000 
#    z 0.060000 0.000000 1.936400 
# 
# From -- ./inp_files/299184.got.cif
#   From: 2010.05.17/outbox.cif.g08.bks.cpg/sg12_150_cif.got.tgz:299184.got - 2010.06.03 13:09:07.
