data_PCOD9201237
_publ_section_title
;
Structure prediction by ZEFSAII (Michael W. Deem and Ramdas Pophale) SiO2 
 PCOD9201237
Probable space group: C 2/M
;
_chemical_formula_sum "Si O2"
_cell_formula_units_Z 56
_cell_length_a 20.807589
_cell_length_b 8.389374
_cell_length_c 21.345865
_cell_angle_alpha 90.000000
_cell_angle_beta 136.072084
_cell_angle_gamma 90.000000
_cell_volume 2585.055281
_symmetry_space_group_name_H-M "C 2/M"
_symmetry_group_IT_number 12
_symmetry_cell_setting 'monoclinic'
loop_
_space_group_symop_operation_xyz
x,y,z
-x,y,-z
-x,-y,-z
x,-y,z
1/2+x,1/2+y,z
1/2-x,1/2+y,-z
1/2-x,1/2-y,-z
1/2+x,1/2-y,z
loop_
_atom_site_type_symbol
_atom_site_label
_atom_site_fract_x
_atom_site_fract_y
_atom_site_fract_z
Si Si1 0.508062 0.179913 0.196519
Si Si2 0.703476 0.179344 0.907102
Si Si3 0.461551 0.809444 0.649553
Si Si4 0.089219 0.188736 0.517511
Si Si5 0.156691 0.175866 0.754577
Si Si6 0.945162 0.188661 0.899654
Si Si7 0.748060 0.819440 0.711882
O O1 0.405162 0.173262 0.152766
O O2 0.569474 0.230465 0.300435
O O3 0.503547 0.283233 0.130515
O O4 0.535406 0.000000 0.197370
O O5 0.717717 0.294428 0.858571
O O6 0.735127 0.000000 0.914727
O O7 0.750000 0.250000 0.000000
O O8 0.406838 0.774575 0.547283
O O9 0.551434 0.700730 0.700384
O O10 0.481566 0.000000 0.665360
O O11 0.187543 0.224286 0.619399
O O12 0.000000 0.238264 0.500000
O O13 0.077588 0.000000 0.500154
O O14 0.179695 0.314480 0.722950
O O15 0.170009 0.000000 0.736909
O O16 0.842647 0.250905 0.808001
O O17 0.932792 0.000000 0.902461
O O18 0.000000 0.251487 0.000000
O O19 0.765692 0.000000 0.702636
#
# Coordination Sequence:
#
# PCOD9201237 Si02
#       7
#     8   8   8   8   8   8   8
#     4   9  21  40  60  86 117 154 201 248 299 362
#     4  10  21  36  55  84 117 152 197 248 306 366
#     4  10  20  37  61  89 123 160 197 241 301 364
#     4  11  22  36  59  94 128 159 202 248 302 367
#     4  11  21  34  54  85 121 157 196 242 299 359
#     4  10  24  44  64  88 117 159 209 256 304 359
#     4  11  23  39  60  87 122 161 205 252 304 362
#
# _framework density 21.662980000000001
#
# number of rings (size 3 to 8) (size 9 to 14) (size 15 to 20)
#    0.000    1.714    1.429    3.857    2.000    5.429 
#    0.000    0.714    0.000    0.000    0.000    0.000 
#    0.000    0.000    0.000    0.000    0.000    0.000 
#
# Total GULP energy -155921.064305 kJ/mol
# GULP energy per Si atom -5568.609439 kJ/mol
# Density = 2.161367 g / cm^3
# Si number density = 21.662980 Si / 1000 Ang^3
#
#
#
# Elastic Constant Matrix: (Units=GPa)
#
#
# Indices 1 2 3 4 5 6 
#
# 1 19.6516 7.7823 23.6579 0.0000 -11.6315 0.0000
# 2 7.7823 56.4587 30.2474 0.0000 1.0094 0.0000
# 3 23.6579 30.2474 182.3804 0.0000 -25.4299 0.0000
# 4 0.0000 0.0000 0.0000 21.6740 0.0000 -2.1456
# 5 -11.6315 1.0094 -25.4299 0.0000 31.2169 0.0000
# 6 0.0000 0.0000 0.0000 -2.1456 0.0000 19.5237
#
#
#
# Elastic Compliance Matrix: (Units=1/GPa)
#
#
# Indices 1 2 3 4 5 6 
#
# 1 0.074137 -0.007983 -0.004970 0.000000 0.023833 0.000000
# 2 -0.007983 0.020679 -0.003274 0.000000 -0.006310 0.000000
# 3 -0.004970 -0.003274 0.007251 0.000000 0.004161 0.000000
# 4 0.000000 0.000000 0.000000 0.046646 0.000000 0.005126
# 5 0.023833 -0.006310 0.004161 0.000000 0.044508 0.000000
# 6 0.000000 0.000000 0.000000 0.005126 0.000000 0.051783
#
#
# Mechanical properties :
#
#
# Convention : Reuss Voigt Hill
#
# Bulk Modulus (GPa) = 14.36484 42.42953 28.39719
# Shear Modulus (GPa) = 16.62999 27.60313 22.11656
#
# Velocity S-wave (km/s) = 2.77369 3.57348 3.19868
# Velocity P-wave (km/s) = 4.11136 6.05434 5.17486
#
# Compressibility (1/GPa) = 0.06961441
#
# Stress axis : x y z
#
# Youngs Moduli (GPa) = 13.48851 48.35771 137.91504
#
# Poissons Ratio (x) = 0.38602 0.68541
# Poissons Ratio (y) = 0.10767 0.45153
# Poissons Ratio (z) = 0.06703 0.15832
#
# Static dielectric constant tensor:
#      x y z
#    x 1.904590 0.000000 0.080420 
#    y 0.000000 1.764560 0.000000 
#    z 0.080420 0.000000 1.986700 
# 
# From -- ./inp_files/320263.got.cif
#   From: 2010.05.17/outbox.cif.g08.bks.cpg/sg12_161_cif.got.tgz:320263.got - 2010.06.03 13:09:07.
