data_PCOD9201383
_publ_section_title
;
Structure prediction by ZEFSAII (Michael W. Deem and Ramdas Pophale) SiO2 
 PCOD9201383
Probable space group: C 2/M
;
_chemical_formula_sum "Si O2"
_cell_formula_units_Z 56
_cell_length_a 9.957992
_cell_length_b 17.403761
_cell_length_c 16.089717
_cell_angle_alpha 90.000000
_cell_angle_beta 105.060455
_cell_angle_gamma 90.000000
_cell_volume 2692.675524
_symmetry_space_group_name_H-M "C 2/M"
_symmetry_group_IT_number 12
_symmetry_cell_setting 'monoclinic'
loop_
_space_group_symop_operation_xyz
x,y,z
-x,y,-z
-x,-y,-z
x,-y,z
1/2+x,1/2+y,z
1/2-x,1/2+y,-z
1/2-x,1/2-y,-z
1/2+x,1/2-y,z
loop_
_atom_site_type_symbol
_atom_site_label
_atom_site_fract_x
_atom_site_fract_y
_atom_site_fract_z
Si Si1 0.999841 0.625965 0.196868
Si Si2 0.269248 0.798704 0.239909
Si Si3 0.908773 0.088994 0.680424
Si Si4 0.842149 0.174361 0.499895
Si Si5 0.847890 0.581089 0.019298
Si Si6 0.870950 0.728360 0.927742
Si Si7 0.780730 0.126991 0.312721
O O1 0.053259 0.688406 0.138720
O O2 0.142868 0.589594 0.251756
O O3 0.920876 0.663202 0.261661
O O4 0.887774 0.581561 0.122822
O O5 0.156967 0.855934 0.260516
O O6 0.234515 0.782118 0.137447
O O7 0.274063 0.718116 0.288830
O O8 0.852873 0.123366 0.584360
O O9 0.076093 0.096160 0.702394
O O10 0.750000 0.250000 0.500000
O O11 0.786301 0.125004 0.413072
O O12 0.000000 0.197124 0.500000
O O13 0.774402 0.500000 0.987152
O O14 0.795882 0.661395 0.970654
O O15 0.000000 0.577823 0.000000
O O16 0.870674 0.000000 0.685480
O O17 0.000000 0.762451 0.000000
#
# Coordination Sequence:
#
# PCOD9201383 Si02
#       7
#     8   8   8   8   8   8   8
#     4   9  19  31  55  86 113 151 206 249 296 355
#     4  11  20  36  61  88 123 158 204 252 308 363
#     4  11  25  42  60  91 129 162 197 252 313 358
#     4  10  21  37  64  91 117 161 210 246 296 361
#     4   8  15  30  49  76 114 153 195 250 307 350
#     4   8  17  32  53  84 116 155 202 251 300 363
#     4  10  20  37  62  87 116 163 209 247 290 372
#
# _framework density 20.797158
#
# number of rings (size 3 to 8) (size 9 to 14) (size 15 to 20)
#    0.000    2.714    1.429    1.714    2.000    6.000 
#    0.000    5.000    0.000    3.429    0.000    0.000 
#    0.000    0.000    0.000    0.000    0.000    0.000 
#
# Total GULP energy -155983.329931 kJ/mol
# GULP energy per Si atom -5570.833212 kJ/mol
# Density = 2.074982 g / cm^3
# Si number density = 20.797158 Si / 1000 Ang^3
#
#
#
# Elastic Constant Matrix: (Units=GPa)
#
#
# Indices 1 2 3 4 5 6 
#
# 1 49.9187 25.6644 29.1330 0.0000 3.7392 0.0000
# 2 25.6644 115.2927 27.6669 0.0000 -0.8731 0.0000
# 3 29.1330 27.6669 99.4693 0.0000 7.2893 0.0000
# 4 0.0000 0.0000 0.0000 4.9650 0.0000 -0.3468
# 5 3.7392 -0.8731 7.2893 0.0000 24.2864 0.0000
# 6 0.0000 0.0000 0.0000 -0.3468 0.0000 -3.3159
#
#
#
# Elastic Compliance Matrix: (Units=1/GPa)
#
#
# Indices 1 2 3 4 5 6 
#
# 1 0.026084 -0.004319 -0.006271 0.000000 -0.002289 0.000000
# 2 -0.004319 0.010040 -0.001639 0.000000 0.001518 0.000000
# 3 -0.006271 -0.001639 0.012555 0.000000 -0.002862 0.000000
# 4 0.000000 0.000000 0.000000 0.199948 0.000000 -0.020911
# 5 -0.002289 0.001518 -0.002862 0.000000 0.042441 0.000000
# 6 0.000000 0.000000 0.000000 -0.020911 0.000000 -0.299386
#
#
# Mechanical properties :
#
#
# Convention : Reuss Voigt Hill
#
# Bulk Modulus (GPa) = 41.28363 47.73437 44.50900
# Shear Modulus (GPa) = 206.49865 17.33486 111.91675
#
# Velocity S-wave (km/s) = 9.97534 2.89021 7.34373
# Velocity P-wave (km/s) = 12.35193 5.84294 9.66204
#
# Compressibility (1/GPa) = 0.02422268
#
# Stress axis : x y z
#
# Youngs Moduli (GPa) = 38.33757 99.60429 79.64677
#
# Poissons Ratio (x) = 0.43018 0.49943
# Poissons Ratio (y) = 0.16558 0.13052
# Poissons Ratio (z) = 0.24040 0.16323
#
# Static dielectric constant tensor:
#      x y z
#    x 1.733160 0.000000 0.036960 
#    y 0.000000 1.837450 0.000000 
#    z 0.036960 0.000000 1.794660 
# 
# From -- ./inp_files/206233.got.cif
#   From: 2010.05.17/outbox.cif.g08.bks.cpg/sg12_104_cif.got.tgz:206233.got - 2010.06.03 13:09:07.
