data_PCOD9201387
_publ_section_title
;
Structure prediction by ZEFSAII (Michael W. Deem and Ramdas Pophale) SiO2 
 PCOD9201387
Probable space group: C 2/M
;
_chemical_formula_sum "Si O2"
_cell_formula_units_Z 40
_cell_length_a 9.661032
_cell_length_b 12.515027
_cell_length_c 14.393220
_cell_angle_alpha 90.000000
_cell_angle_beta 72.118862
_cell_angle_gamma 90.000000
_cell_volume 1656.194382
_symmetry_space_group_name_H-M "C 2/M"
_symmetry_group_IT_number 12
_symmetry_cell_setting 'monoclinic'
loop_
_space_group_symop_operation_xyz
x,y,z
-x,y,-z
-x,-y,-z
x,-y,z
1/2+x,1/2+y,z
1/2-x,1/2+y,-z
1/2-x,1/2-y,-z
1/2+x,1/2-y,z
loop_
_atom_site_type_symbol
_atom_site_label
_atom_site_fract_x
_atom_site_fract_y
_atom_site_fract_z
Si Si1 0.877867 0.382904 0.736612
Si Si2 0.044200 0.113428 0.823642
Si Si3 0.904318 0.693562 0.941687
Si Si4 0.775704 0.879557 0.513494
Si Si5 0.565784 0.341283 0.344568
O O1 0.932802 0.500000 0.701597
O O2 0.705984 0.377553 0.749897
O O3 0.887128 0.365662 0.846149
O O4 0.947353 0.287057 0.664391
O O5 0.013371 0.209949 0.895913
O O6 0.932605 0.119642 0.761193
O O7 0.031820 0.000000 0.874490
O O8 0.750000 0.750000 0.000000
O O9 0.000000 0.632449 0.000000
O O10 0.750000 0.750000 0.500000
O O11 0.800265 0.875020 0.619612
O O12 0.926707 0.886137 0.425767
O O13 0.706307 0.000000 0.507221
#
# Coordination Sequence:
#
# PCOD9201387 Si02
#       5
#     8   8   8   8   8
#     4  10  22  39  62  92 127 167 214 277 339 399
#     4  10  20  37  62  87 118 162 213 265 326 400
#     4  11  22  39  62  90 126 166 218 273 335 402
#     4  11  23  40  64  93 129 171 220 274 331 399
#     4  10  21  38  62  89 122 165 215 268 327 397
#
# _framework density 24.151754
#
# number of rings (size 3 to 8) (size 9 to 14) (size 15 to 20)
#    0.000    1.600    2.000    3.600    0.000    4.800 
#    0.000    2.000    0.000    0.000    0.000    0.000 
#    0.000    0.000    0.000    0.000    0.000    0.000 
#
# Total GULP energy -111383.221772 kJ/mol
# GULP energy per Si atom -5569.161089 kJ/mol
# Density = 2.409678 g / cm^3
# Si number density = 24.151754 Si / 1000 Ang^3
#
#
#
# Elastic Constant Matrix: (Units=GPa)
#
#
# Indices 1 2 3 4 5 6 
#
# 1 62.6000 18.3295 15.3483 0.0000 18.8861 0.0000
# 2 18.3295 214.0067 15.5093 0.0000 -9.9986 0.0000
# 3 15.3483 15.5093 67.9272 0.0000 21.0720 0.0000
# 4 0.0000 0.0000 0.0000 -2.3038 0.0000 -11.4476
# 5 18.8861 -9.9986 21.0720 0.0000 44.4768 0.0000
# 6 0.0000 0.0000 0.0000 -11.4476 0.0000 16.9239
#
#
#
# Elastic Compliance Matrix: (Units=1/GPa)
#
#
# Indices 1 2 3 4 5 6 
#
# 1 0.019285 -0.001916 -0.001461 0.000000 -0.007928 0.000000
# 2 -0.001916 0.005076 -0.001562 0.000000 0.002695 0.000000
# 3 -0.001461 -0.001562 0.017965 0.000000 -0.008242 0.000000
# 4 0.000000 0.000000 0.000000 -0.099530 0.000000 -0.067324
# 5 -0.007928 0.002695 -0.008242 0.000000 0.030361 0.000000
# 6 0.000000 0.000000 0.000000 -0.067324 0.000000 0.013549
#
#
# Mechanical properties :
#
#
# Convention : Reuss Voigt Hill
#
# Bulk Modulus (GPa) = 30.81783 49.21202 40.01492
# Shear Modulus (GPa) = 675.65846 31.50918 353.58382
#
# Velocity S-wave (km/s) = 16.74404 3.61589 12.11275
# Velocity P-wave (km/s) = 19.66227 6.15250 14.56808
#
# Compressibility (1/GPa) = 0.03244875
#
# Stress axis : x y z
#
# Youngs Moduli (GPa) = 51.85244 197.00615 55.66312
#
# Poissons Ratio (x) = 0.37753 0.08131
# Poissons Ratio (y) = 0.09937 0.08694
# Poissons Ratio (z) = 0.07574 0.30771
#
# Static dielectric constant tensor:
#      x y z
#    x 1.998340 0.000000 0.065560 
#    y 0.000000 2.071650 0.000000 
#    z 0.065560 0.000000 1.916470 
# 
# From -- ./inp_files/202885.got.cif
#   From: 2010.05.17/outbox.cif.g08.bks.cpg/sg12_102_cif.got.tgz:202885.got - 2010.06.03 13:09:07.
