data_PCOD9201601
_publ_section_title
;
Structure prediction by ZEFSAII (Michael W. Deem and Ramdas Pophale) SiO2 
 PCOD9201601
Probable space group: C 2/M
;
_chemical_formula_sum "Si O2"
_cell_formula_units_Z 64
_cell_length_a 27.746952
_cell_length_b 14.218204
_cell_length_c 11.857036
_cell_angle_alpha 90.000000
_cell_angle_beta 139.375871
_cell_angle_gamma 90.000000
_cell_volume 3045.648620
_symmetry_space_group_name_H-M "C 2/M"
_symmetry_group_IT_number 12
_symmetry_cell_setting 'monoclinic'
loop_
_space_group_symop_operation_xyz
x,y,z
-x,y,-z
-x,-y,-z
x,-y,z
1/2+x,1/2+y,z
1/2-x,1/2+y,-z
1/2-x,1/2-y,-z
1/2+x,1/2-y,z
loop_
_atom_site_type_symbol
_atom_site_label
_atom_site_fract_x
_atom_site_fract_y
_atom_site_fract_z
Si Si1 0.432430 0.891603 0.968802
Si Si2 0.870721 0.258373 0.164842
Si Si3 0.775626 0.786498 0.212858
Si Si4 0.006545 0.390526 0.669980
Si Si5 0.839794 0.610558 0.432500
Si Si6 0.875192 0.110062 0.563990
Si Si7 0.519376 0.609281 0.665287
Si Si8 0.663929 0.775222 0.351841
O O1 0.371028 0.816275 0.823516
O O2 0.405366 0.000000 0.913357
O O3 0.500000 0.882027 0.000000
O O4 0.464122 0.877143 0.149775
O O5 0.830545 0.215994 0.203064
O O6 0.936833 0.331329 0.303922
O O7 0.912653 0.173533 0.177876
O O8 0.805952 0.306003 0.977266
O O9 0.781056 0.680637 0.272015
O O10 0.807617 0.856263 0.363680
O O11 0.012568 0.500000 0.652797
O O12 0.919997 0.366329 0.521479
O O13 0.825385 0.500000 0.394853
O O14 0.845289 0.641931 0.572126
O O15 0.948574 0.124005 0.618732
O O16 0.875752 0.182237 0.669158
O O17 0.868883 0.000000 0.582341
O O18 0.500000 0.631927 0.500000
O O19 0.539172 0.500000 0.703746
O O20 0.750000 0.750000 0.500000
#
# Coordination Sequence:
#
# PCOD9201601 Si02
#       8
#     8   8   8   8   8   8   8   8
#     4  10  20  38  62  88 115 148 192 242 291 347
#     4  11  22  37  58  86 123 150 196 243 289 347
#     4  10  23  37  56  88 120 161 186 233 301 352
#     4  10  22  37  61  90 114 151 196 241 293 347
#     4  10  21  40  59  83 118 152 190 235 292 357
#     4  10  22  41  62  87 118 155 204 250 287 346
#     4  10  20  37  63  86 109 155 206 242 282 339
#     4  11  23  37  60  88 117 154 195 238 302 351
#
# _framework density 21.013586
#
# number of rings (size 3 to 8) (size 9 to 14) (size 15 to 20)
#    0.000    1.750    2.500    1.875    3.500    2.500 
#    0.000    3.750    0.000    0.375    0.000    0.000 
#    0.000    0.000    0.000    0.000    0.000    0.000 
#
# Total GULP energy -178869.212789 kJ/mol
# GULP energy per Si atom -5589.662900 kJ/mol
# Density = 2.096576 g / cm^3
# Si number density = 21.013586 Si / 1000 Ang^3
#
#
#
# Elastic Constant Matrix: (Units=GPa)
#
#
# Indices 1 2 3 4 5 6 
#
# 1 67.3773 15.6483 8.4166 0.0000 0.4449 0.0000
# 2 15.6483 75.1683 6.7411 0.0000 3.9976 0.0000
# 3 8.4166 6.7411 44.1476 0.0000 0.5628 0.0000
# 4 0.0000 0.0000 0.0000 25.1287 0.0000 -2.9456
# 5 0.4449 3.9976 0.5628 0.0000 30.8365 0.0000
# 6 0.0000 0.0000 0.0000 -2.9456 0.0000 -11.8092
#
#
#
# Elastic Compliance Matrix: (Units=1/GPa)
#
#
# Indices 1 2 3 4 5 6 
#
# 1 0.015877 -0.003087 -0.002558 0.000000 0.000218 0.000000
# 2 -0.003087 0.014179 -0.001554 0.000000 -0.001765 0.000000
# 3 -0.002558 -0.001554 0.023379 0.000000 -0.000188 0.000000
# 4 0.000000 0.000000 0.000000 0.038665 0.000000 -0.009644
# 5 0.000218 -0.001765 -0.000188 0.000000 0.032658 0.000000
# 6 0.000000 0.000000 0.000000 -0.009644 0.000000 -0.082274
#
#
# Mechanical properties :
#
#
# Convention : Reuss Voigt Hill
#
# Bulk Modulus (GPa) = 25.61750 27.58947 26.60348
# Shear Modulus (GPa) = 71.53565 19.22367 45.37966
#
# Velocity S-wave (km/s) = 5.84093 3.02788 4.65213
# Velocity P-wave (km/s) = 7.59645 5.03805 6.44546
#
# Compressibility (1/GPa) = 0.03903582
#
# Stress axis : x y z
#
# Youngs Moduli (GPa) = 62.98433 70.52462 42.77393
#
# Poissons Ratio (x) = 0.21774 0.10943
# Poissons Ratio (y) = 0.19446 0.06647
# Poissons Ratio (z) = 0.16113 0.10960
#
# Static dielectric constant tensor:
#      x y z
#    x 1.780840 0.000000 -0.021670 
#    y 0.000000 1.740840 0.000000 
#    z -0.021670 0.000000 1.773120 
# 
# From -- ./inp_files/183822.got.cif
#   From: 2010.05.17/outbox.cif.g08.bks.cpg/sg12_92_cif.got.tgz:183822.got - 2010.06.03 13:09:07.
