data_PCOD9201245
_publ_section_title
;
Structure prediction by ZEFSAII (Michael W. Deem and Ramdas Pophale) SiO2 
 PCOD9201245
Probable space group: C 2/M
;
_chemical_formula_sum "Si O2"
_cell_formula_units_Z 64
_cell_length_a 14.961225
_cell_length_b 16.936267
_cell_length_c 12.969322
_cell_angle_alpha 90.000000
_cell_angle_beta 95.202358
_cell_angle_gamma 90.000000
_cell_volume 3272.724298
_symmetry_space_group_name_H-M "C 2/M"
_symmetry_group_IT_number 12
_symmetry_cell_setting 'monoclinic'
loop_
_space_group_symop_operation_xyz
x,y,z
-x,y,-z
-x,-y,-z
x,-y,z
1/2+x,1/2+y,z
1/2-x,1/2+y,-z
1/2-x,1/2-y,-z
1/2+x,1/2-y,z
loop_
_atom_site_type_symbol
_atom_site_label
_atom_site_fract_x
_atom_site_fract_y
_atom_site_fract_z
Si Si1 0.476890 0.242138 0.707582
Si Si2 0.439053 0.812615 0.911067
Si Si3 0.838804 0.189098 0.343397
Si Si4 0.246270 0.593440 0.150585
Si Si5 0.291953 0.667019 0.725751
Si Si6 0.426498 0.914817 0.581556
Si Si7 0.313064 0.680117 0.964408
Si Si8 0.223276 0.913298 0.481675
O O1 0.502175 0.209148 0.822347
O O2 0.558298 0.288573 0.665378
O O3 0.389882 0.295541 0.717273
O O4 0.446557 0.164242 0.644589
O O5 0.350177 0.861099 0.867555
O O6 0.403937 0.729451 0.954973
O O7 0.500000 0.856691 0.000000
O O8 0.799075 0.127331 0.255450
O O9 0.780721 0.267651 0.316486
O O10 0.824589 0.154057 0.455865
O O11 0.233434 0.500000 0.157393
O O12 0.303115 0.615699 0.053277
O O13 0.283381 0.651139 0.847185
O O14 0.283358 0.598403 0.641319
O O15 0.500000 0.917492 0.500000
O O16 0.327446 0.909290 0.524281
O O17 0.431483 0.000000 0.639273
O O18 0.250000 0.750000 0.000000
O O19 0.188433 0.000000 0.507279
#
# Coordination Sequence:
#
# PCOD9201245 Si02
#       8
#     8   8   8   8   8   8   8   8
#     4  11  23  36  64  95 116 168 211 261 304 373
#     4  10  20  37  61  89 125 156 202 256 315 372
#     4  12  22  40  65  91 124 167 217 257 307 377
#     4  11  22  39  64  93 128 166 206 258 323 377
#     4  11  22  40  63  93 123 165 220 255 309 379
#     4  10  21  39  60  90 128 160 200 255 320 379
#     4   9  18  38  59  87 121 161 204 255 300 365
#     4  11  24  41  62  91 133 169 204 264 322 369
#
# _framework density 19.555574
#
# number of rings (size 3 to 8) (size 9 to 14) (size 15 to 20)
#    0.000    1.375    5.000    2.250    3.500    2.250 
#    0.000    1.875    0.000    7.875    0.000    0.000 
#    0.000    0.000    0.000    0.000    0.000    0.000 
#
# Total GULP energy -178521.517743 kJ/mol
# GULP energy per Si atom -5578.797429 kJ/mol
# Density = 1.951106 g / cm^3
# Si number density = 19.555574 Si / 1000 Ang^3
#
#
#
# Elastic Constant Matrix: (Units=GPa)
#
#
# Indices 1 2 3 4 5 6 
#
# 1 50.0166 -0.6127 8.3096 0.0000 -20.0901 0.0000
# 2 -0.6127 57.0141 15.4909 0.0000 -5.4563 0.0000
# 3 8.3096 15.4909 97.9093 0.0000 -4.8476 0.0000
# 4 0.0000 0.0000 0.0000 26.3168 0.0000 2.5134
# 5 -20.0901 -5.4563 -4.8476 0.0000 22.3514 0.0000
# 6 0.0000 0.0000 0.0000 2.5134 0.0000 14.6969
#
#
#
# Elastic Compliance Matrix: (Units=1/GPa)
#
#
# Indices 1 2 3 4 5 6 
#
# 1 0.032151 0.003662 -0.001853 0.000000 0.029391 0.000000
# 2 0.003662 0.019085 -0.002969 0.000000 0.007306 0.000000
# 3 -0.001853 -0.002969 0.010839 0.000000 -0.000039 0.000000
# 4 0.000000 0.000000 0.000000 0.038629 0.000000 -0.006606
# 5 0.029391 0.007306 -0.000039 0.000000 0.072932 0.000000
# 6 0.000000 0.000000 0.000000 -0.006606 0.000000 0.069171
#
#
# Mechanical properties :
#
#
# Convention : Reuss Voigt Hill
#
# Bulk Modulus (GPa) = 16.73500 27.92396 22.32948
# Shear Modulus (GPa) = 18.86471 24.78984 21.82727
#
# Velocity S-wave (km/s) = 3.10929 3.56429 3.34453
# Velocity P-wave (km/s) = 4.63319 5.59009 5.13398
#
# Compressibility (1/GPa) = 0.05975500
#
# Stress axis : x y z
#
# Youngs Moduli (GPa) = 31.10288 52.39814 92.26361
#
# Poissons Ratio (x) = -0.19186 0.17095
# Poissons Ratio (y) = -0.11389 0.27389
# Poissons Ratio (z) = 0.05763 0.15555
#
# Static dielectric constant tensor:
#      x y z
#    x 1.658320 0.000000 0.008630 
#    y 0.000000 1.696720 0.000000 
#    z 0.008630 0.000000 1.741950 
# 
# From -- ./inp_files/146122.got.cif
#   From: 2010.05.17/outbox.cif.g08.bks.cpg/sg12_74_cif.got.tgz:146122.got - 2010.06.03 13:09:07.
