data_PCOD9201020
_publ_section_title
;
Structure prediction by ZEFSAII (Michael W. Deem and Ramdas Pophale) SiO2 
 PCOD9201020
Probable space group: C 2/M
;
_chemical_formula_sum "Si O2"
_cell_formula_units_Z 64
_cell_length_a 8.960877
_cell_length_b 26.460912
_cell_length_c 15.271563
_cell_angle_alpha 90.000000
_cell_angle_beta 113.950139
_cell_angle_gamma 90.000000
_cell_volume 3309.306923
_symmetry_space_group_name_H-M "C 2/M"
_symmetry_group_IT_number 12
_symmetry_cell_setting 'monoclinic'
loop_
_space_group_symop_operation_xyz
x,y,z
-x,y,-z
-x,-y,-z
x,-y,z
1/2+x,1/2+y,z
1/2-x,1/2+y,-z
1/2-x,1/2-y,-z
1/2+x,1/2-y,z
loop_
_atom_site_type_symbol
_atom_site_label
_atom_site_fract_x
_atom_site_fract_y
_atom_site_fract_z
Si Si1 0.590782 0.102200 0.195007
Si Si2 0.264963 0.940001 0.069722
Si Si3 0.818794 0.904061 0.761544
Si Si4 0.534781 0.059641 0.371922
Si Si5 0.354898 0.555361 0.149378
Si Si6 0.666195 0.154796 0.488564
Si Si7 0.938064 0.190552 0.688737
Si Si8 0.805762 0.299910 0.699414
O O1 0.448495 0.079797 0.100766
O O2 0.592159 0.069931 0.285463
O O3 0.756743 0.094558 0.183073
O O4 0.580193 0.160515 0.220643
O O5 0.212328 0.909125 0.142520
O O6 0.263492 0.000000 0.090769
O O7 0.160720 0.933194 0.957479
O O8 0.649277 0.917320 0.673593
O O9 0.898993 0.851511 0.752670
O O10 0.959359 0.944303 0.776440
O O11 0.642188 0.095145 0.460717
O O12 0.536045 0.000000 0.391412
O O13 0.279851 0.500000 0.144079
O O14 0.500000 0.170943 0.500000
O O15 0.820832 0.171216 0.582192
O O16 0.686318 0.180743 0.398954
O O17 0.874165 0.243581 0.711325
O O18 0.122682 0.196382 0.696082
#
# Coordination Sequence:
#
# PCOD9201020 Si02
#       8
#     8   8   8   8   8   8   8   8
#     4  10  20  37  60  90 120 158 196 247 293 354
#     4  10  21  36  60  91 124 163 199 237 290 355
#     4  11  21  37  58  87 126 153 205 243 295 346
#     4  10  21  38  60  87 126 168 199 232 289 359
#     4  11  20  35  60  92 124 157 198 244 293 348
#     4  11  22  41  63  92 121 153 198 245 291 349
#     4  12  24  42  62  90 113 159 197 254 306 349
#     4  11  25  41  67  86 120 150 200 251 306 356
#
# _framework density 19.339397000000002
#
# number of rings (size 3 to 8) (size 9 to 14) (size 15 to 20)
#    0.000    1.250    2.500    5.250    3.500    2.250 
#    0.000    0.000    0.000    6.000    0.000    0.000 
#    0.000    0.000    0.000    0.000    0.000    0.000 
#
# Total GULP energy -178562.461692 kJ/mol
# GULP energy per Si atom -5580.076928 kJ/mol
# Density = 1.929538 g / cm^3
# Si number density = 19.339397 Si / 1000 Ang^3
#
#
#
# Elastic Constant Matrix: (Units=GPa)
#
#
# Indices 1 2 3 4 5 6 
#
# 1 87.8387 46.4372 13.4028 0.0000 -13.5757 0.0000
# 2 46.4372 133.9914 33.1219 0.0000 -17.5993 0.0000
# 3 13.4028 33.1219 54.0644 0.0000 -8.7113 0.0000
# 4 0.0000 0.0000 0.0000 16.3286 0.0000 -1.6378
# 5 -13.5757 -17.5993 -8.7113 0.0000 23.8858 0.0000
# 6 0.0000 0.0000 0.0000 -1.6378 0.0000 27.6844
#
#
#
# Elastic Compliance Matrix: (Units=1/GPa)
#
#
# Indices 1 2 3 4 5 6 
#
# 1 0.014461 -0.004324 -0.000133 0.000000 0.004985 0.000000
# 2 -0.004324 0.010638 -0.004864 0.000000 0.003606 0.000000
# 3 -0.000133 -0.004864 0.022226 0.000000 0.004447 0.000000
# 4 0.000000 0.000000 0.000000 0.061608 0.000000 0.003645
# 5 0.004985 0.003606 0.004447 0.000000 0.048978 0.000000
# 6 0.000000 0.000000 0.000000 0.003645 0.000000 0.036337
#
#
# Mechanical properties :
#
#
# Convention : Reuss Voigt Hill
#
# Bulk Modulus (GPa) = 34.86404 51.31314 43.08859
# Shear Modulus (GPa) = 22.47692 25.77528 24.12610
#
# Velocity S-wave (km/s) = 3.41286 3.65469 3.53584
# Velocity P-wave (km/s) = 5.79627 6.66330 6.24485
#
# Compressibility (1/GPa) = 0.02868285
#
# Stress axis : x y z
#
# Youngs Moduli (GPa) = 69.15043 94.00362 44.99297
#
# Poissons Ratio (x) = 0.40650 0.00597
# Poissons Ratio (y) = 0.29903 0.21885
# Poissons Ratio (z) = 0.00917 0.45724
#
# Static dielectric constant tensor:
#      x y z
#    x 1.716800 0.000000 0.009470 
#    y 0.000000 1.671680 0.000000 
#    z 0.009470 0.000000 1.678320 
# 
# From -- ./inp_files/199889.got.cif
#   From: 2010.05.17/outbox.cif.g08.bks.cpg/sg12_100_cif.got.tgz:199889.got - 2010.06.03 13:09:07.
