data_PCOD9201024
_publ_section_title
;
Structure prediction by ZEFSAII (Michael W. Deem and Ramdas Pophale) SiO2 
 PCOD9201024
Probable space group: C 2/M
;
_chemical_formula_sum "Si O2"
_cell_formula_units_Z 58
_cell_length_a 28.241810
_cell_length_b 7.643053
_cell_length_c 23.373377
_cell_angle_alpha 90.000000
_cell_angle_beta 30.205535
_cell_angle_gamma 90.000000
_cell_volume 2538.271925
_symmetry_space_group_name_H-M "C 2/M"
_symmetry_group_IT_number 12
_symmetry_cell_setting 'monoclinic'
loop_
_space_group_symop_operation_xyz
x,y,z
-x,y,-z
-x,-y,-z
x,-y,z
1/2+x,1/2+y,z
1/2-x,1/2+y,-z
1/2-x,1/2-y,-z
1/2+x,1/2-y,z
loop_
_atom_site_type_symbol
_atom_site_label
_atom_site_fract_x
_atom_site_fract_y
_atom_site_fract_z
Si Si1 0.648272 0.297583 0.234041
Si Si2 0.535229 0.286352 0.240794
Si Si3 0.867774 0.311343 0.621893
Si Si4 0.676534 0.709625 0.527107
Si Si5 0.002398 0.793268 0.933309
Si Si6 0.715307 0.789980 0.697608
Si Si7 0.500000 0.500000 0.500000
Si Si8 0.640561 0.713714 0.015072
O O1 0.622246 0.500000 0.276904
O O2 0.583437 0.235079 0.250004
O O3 0.640418 0.195914 0.301161
O O4 0.755346 0.287715 0.101030
O O5 0.536073 0.500000 0.239529
O O6 0.427841 0.224498 0.350620
O O7 0.594116 0.232526 0.123703
O O8 0.902554 0.500000 0.566155
O O9 0.764550 0.278969 0.703460
O O10 0.936633 0.154060 0.534365
O O11 0.669174 0.500000 0.530211
O O12 0.750000 0.750000 0.500000
O O13 0.719469 0.772891 0.422573
O O14 0.108698 0.770378 0.800674
O O15 0.926513 0.726576 0.967041
O O16 0.982585 0.000000 0.958789
O O17 0.000000 0.717347 0.000000
O O18 0.714916 0.000000 0.699727
O O19 0.646116 0.500000 0.008563
#
# Coordination Sequence:
#
# PCOD9201024 Si02
#       8
#     8   8   8   8   8   8   2   8
#     4  11  22  39  64  91 129 169 218 275 332 393
#     4   9  20  37  61  86 121 173 215 264 332 390
#     4  12  26  44  70  99 133 177 220 271 332 397
#     4  10  22  40  63  89 125 167 211 267 329 389
#     4  10  21  37  61  90 123 166 217 270 327 394
#     4  11  23  40  65  95 133 170 215 274 330 390
#     4  12  26  48  68  98 142 168 226 272 330 390
#     4  10  20  37  60  90 126 168 223 276 328 396
#
# _framework density 22.850190999999999
#
# number of rings (size 3 to 8) (size 9 to 14) (size 15 to 20)
#    0.000    1.517    1.379    3.103    1.931    4.138 
#    0.000    2.759    0.000    0.000    0.000    0.000 
#    0.000    0.000    0.000    0.000    0.000    0.000 
#
# Total GULP energy -162078.829080 kJ/mol
# GULP energy per Si atom -5588.925141 kJ/mol
# Density = 2.279818 g / cm^3
# Si number density = 22.850191 Si / 1000 Ang^3
#
#
#
# Elastic Constant Matrix: (Units=GPa)
#
#
# Indices 1 2 3 4 5 6 
#
# 1 150.4309 12.7148 31.4611 0.0111 -15.1294 -0.0093
# 2 12.7148 68.1544 -1.6573 0.0500 3.0267 -0.0790
# 3 31.4611 -1.6573 93.6930 0.0158 -13.4437 -0.0335
# 4 0.0111 0.0500 0.0158 46.4368 -0.0111 -35.1040
# 5 -15.1294 3.0267 -13.4437 -0.0111 48.3823 0.0248
# 6 -0.0093 -0.0790 -0.0335 -35.1040 0.0248 45.0417
#
#
#
# Elastic Compliance Matrix: (Units=1/GPa)
#
#
# Indices 1 2 3 4 5 6 
#
# 1 0.007430 -0.001521 -0.002265 -0.000004 0.001789 -0.000007
# 2 -0.001521 0.015026 0.000597 0.000010 -0.001250 0.000035
# 3 -0.002265 0.000597 0.011808 0.000006 0.002535 0.000013
# 4 -0.000004 0.000010 0.000006 0.052417 -0.000009 0.040852
# 5 0.001789 -0.001250 0.002535 -0.000009 0.022011 -0.000019
# 6 -0.000007 0.000035 0.000013 0.040852 -0.000019 0.054040
#
#
# Mechanical properties :
#
#
# Convention : Reuss Voigt Hill
#
# Bulk Modulus (GPa) = 35.85890 44.14618 40.00254
# Shear Modulus (GPa) = 28.02612 45.95613 36.99112
#
# Velocity S-wave (km/s) = 3.50596 4.48950 4.02786
# Velocity P-wave (km/s) = 5.66711 6.79970 6.25908
#
# Compressibility (1/GPa) = 0.02788708
#
# Stress axis : x y z
#
# Youngs Moduli (GPa) = 134.59424 66.54995 84.68767
#
# Poissons Ratio (x) = 0.10120 0.19182
# Poissons Ratio (y) = 0.20467 -0.05057
# Poissons Ratio (z) = 0.30486 -0.03974
#
# Static dielectric constant tensor:
#      x y z
#    x 1.844290 0.000010 0.065750 
#    y 0.000010 1.863300 0.000030 
#    z 0.065750 0.000030 1.969480 
# 
# From -- ./inp_files/351435.got.cif
#   From: 2010.05.17/outbox.cif.g08.bks.cpg/sg12_176_cif.got.tgz:351435.got - 2010.06.03 13:09:07.
