data_PCOD9201902
_publ_section_title
;
Structure prediction by ZEFSAII (Michael W. Deem and Ramdas Pophale) SiO2 
 PCOD9201902
Probable space group: C 2/M
;
_chemical_formula_sum "Si O2"
_cell_formula_units_Z 42
_cell_length_a 16.823266
_cell_length_b 17.225719
_cell_length_c 9.217326
_cell_angle_alpha 90.000000
_cell_angle_beta 121.513980
_cell_angle_gamma 90.000000
_cell_volume 2277.159497
_symmetry_space_group_name_H-M "C 2/M"
_symmetry_group_IT_number 12
_symmetry_cell_setting 'monoclinic'
loop_
_space_group_symop_operation_xyz
x,y,z
-x,y,-z
-x,-y,-z
x,-y,z
1/2+x,1/2+y,z
1/2-x,1/2+y,-z
1/2-x,1/2-y,-z
1/2+x,1/2-y,z
loop_
_atom_site_type_symbol
_atom_site_label
_atom_site_fract_x
_atom_site_fract_y
_atom_site_fract_z
Si Si1 0.111989 0.409467 0.123102
Si Si2 0.348082 0.768330 0.020811
Si Si3 0.366993 0.639679 0.790481
Si Si4 0.474828 0.282883 0.628602
Si Si5 0.186871 0.325316 0.482587
Si Si6 0.500000 0.500000 0.000000
O O1 0.135978 0.500000 0.138044
O O2 0.149725 0.372169 0.308441
O O3 0.152894 0.356417 0.035073
O O4 0.000000 0.401714 0.000000
O O5 0.432998 0.750658 0.209079
O O6 0.250000 0.750000 0.000000
O O7 0.366370 0.713184 0.898554
O O8 0.423891 0.662680 0.698258
O O9 0.259237 0.625156 0.645612
O O10 0.419443 0.568132 0.910766
O O11 0.500000 0.322178 0.500000
O O12 0.402687 0.212832 0.527345
O O13 0.250000 0.250000 0.500000
#
# Coordination Sequence:
#
# PCOD9201902 Si02
#       6
#     8   8   8   8   8   2
#     4  11  22  41  67  97 131 171 223 280 330 383
#     4  12  22  41  67  94 132 180 221 264 329 409
#     4  11  23  43  64  94 130 176 222 257 340 394
#     4  11  21  38  66  96 123 165 227 273 319 397
#     4  10  20  37  66  92 126 168 219 267 318 399
#     4  12  24  44  70  92 138 180 204 292 328 412
#
# _framework density 18.444030999999999
#
# number of rings (size 3 to 8) (size 9 to 14) (size 15 to 20)
#    0.000    0.952    7.619    1.143    4.000    0.000 
#    1.714    0.476    0.000    1.143    0.000    0.000 
#    0.000    0.000    0.000    0.000    0.000    0.000 
#
# Total GULP energy -116907.512720 kJ/mol
# GULP energy per Si atom -5567.024415 kJ/mol
# Density = 1.840205 g / cm^3
# Si number density = 18.444031 Si / 1000 Ang^3
#
#
#
# Elastic Constant Matrix: (Units=GPa)
#
#
# Indices 1 2 3 4 5 6 
#
# 1 101.3113 35.4588 28.8376 0.0000 2.2871 0.0000
# 2 35.4588 117.5208 27.7197 0.0000 1.4224 0.0000
# 3 28.8376 27.7197 104.2988 0.0000 19.8130 0.0000
# 4 0.0000 0.0000 0.0000 19.0987 0.0000 10.0275
# 5 2.2871 1.4224 19.8130 0.0000 47.7875 0.0000
# 6 0.0000 0.0000 0.0000 10.0275 0.0000 18.4056
#
#
#
# Elastic Compliance Matrix: (Units=1/GPa)
#
#
# Indices 1 2 3 4 5 6 
#
# 1 0.011599 -0.002906 -0.002546 0.000000 0.000587 0.000000
# 2 -0.002906 0.009834 -0.001933 0.000000 0.000648 0.000000
# 3 -0.002546 -0.001933 0.011692 0.000000 -0.004668 0.000000
# 4 0.000000 0.000000 0.000000 0.073337 0.000000 -0.039955
# 5 0.000587 0.000648 -0.004668 0.000000 0.022814 0.000000
# 6 0.000000 0.000000 0.000000 -0.039955 0.000000 0.076099
#
#
# Mechanical properties :
#
#
# Convention : Reuss Voigt Hill
#
# Bulk Modulus (GPa) = 54.48234 56.35146 55.41690
# Shear Modulus (GPa) = 22.09793 32.46601 27.28197
#
# Velocity S-wave (km/s) = 3.46512 4.20008 3.85018
# Velocity P-wave (km/s) = 6.75373 7.35798 7.06232
#
# Compressibility (1/GPa) = 0.01835457
#
# Stress axis : x y z
#
# Youngs Moduli (GPa) = 86.21226 101.68628 85.52545
#
# Poissons Ratio (x) = 0.29553 0.21776
# Poissons Ratio (y) = 0.25056 0.16533
# Poissons Ratio (z) = 0.21951 0.19657
#
# Static dielectric constant tensor:
#      x y z
#    x 1.660630 0.000000 0.000060 
#    y 0.000000 1.620910 0.000000 
#    z 0.000060 0.000000 1.682470 
# 
# From -- ./inp_files/61587.got.cif
#   From: 2010.05.17/outbox.cif.g08.bks.cpg/sg12_31_cif.got.tgz:61587.got - 2010.06.03 13:09:07.
