data_PCOD9201869
_publ_section_title
;
Structure prediction by ZEFSAII (Michael W. Deem and Ramdas Pophale) SiO2 
 PCOD9201869
Probable space group: C 2/M
;
_chemical_formula_sum "Si O2"
_cell_formula_units_Z 48
_cell_length_a 21.080491
_cell_length_b 15.190251
_cell_length_c 24.550398
_cell_angle_alpha 90.000000
_cell_angle_beta 162.411082
_cell_angle_gamma 90.000000
_cell_volume 2375.624861
_symmetry_space_group_name_H-M "C 2/M"
_symmetry_group_IT_number 12
_symmetry_cell_setting 'monoclinic'
loop_
_space_group_symop_operation_xyz
x,y,z
-x,y,-z
-x,-y,-z
x,-y,z
1/2+x,1/2+y,z
1/2-x,1/2+y,-z
1/2-x,1/2-y,-z
1/2+x,1/2-y,z
loop_
_atom_site_type_symbol
_atom_site_label
_atom_site_fract_x
_atom_site_fract_y
_atom_site_fract_z
Si Si1 0.154787 0.221520 0.853944
Si Si2 0.144404 0.103231 0.315625
Si Si3 0.561700 0.904562 0.342310
Si Si4 0.195926 0.595872 0.201838
Si Si5 0.062204 0.858317 0.425852
Si Si6 0.644958 0.239389 0.251244
O O1 0.032673 0.157738 0.795703
O O2 0.073943 0.322116 0.788514
O O3 0.090566 0.189473 0.741458
O O4 0.402345 0.215938 0.063344
O O5 0.347459 0.108887 0.522109
O O6 0.165996 0.155144 0.275990
O O7 0.095137 0.000000 0.269666
O O8 0.768900 0.906798 0.473813
O O9 0.455540 0.000000 0.251995
O O10 0.172468 0.500000 0.211757
O O11 0.409670 0.592953 0.342392
O O12 0.202497 0.681789 0.245446
O O13 0.000000 0.603180 0.000000
O O14 0.204144 0.794350 0.577779
#
# Coordination Sequence:
#
# PCOD9201869 Si02
#       6
#     8   8   8   8   8   8
#     4  11  21  40  61  94 130 165 197 258 313 369
#     4  10  21  38  60  90 125 163 207 254 306 364
#     4  10  20  37  65  95 129 166 201 253 316 372
#     4  11  25  44  65  93 127 165 207 257 314 371
#     4  11  21  41  64  90 130 162 205 254 305 373
#     4  12  23  39  65  90 126 167 208 253 310 369
#
# _framework density 20.205209
#
# number of rings (size 3 to 8) (size 9 to 14) (size 15 to 20)
#    0.000    1.167    5.000    2.500    0.000    4.000 
#    0.000    0.000    0.000    3.500    0.000    0.000 
#    0.000    0.000    0.000    0.000    0.000    0.000 
#
# Total GULP energy -133850.244748 kJ/mol
# GULP energy per Si atom -5577.093531 kJ/mol
# Density = 2.015922 g / cm^3
# Si number density = 20.205209 Si / 1000 Ang^3
#
#
#
# Elastic Constant Matrix: (Units=GPa)
#
#
# Indices 1 2 3 4 5 6 
#
# 1 70.7847 58.4267 16.1890 -0.0036 -7.9126 -0.0048
# 2 58.4267 172.2641 32.4254 -0.0495 -8.1019 -0.0262
# 3 16.1890 32.4254 82.9487 0.0400 -3.8085 -0.0144
# 4 -0.0036 -0.0495 0.0400 8.7244 0.0111 -1.6540
# 5 -7.9126 -8.1019 -3.8085 0.0111 29.1394 0.0056
# 6 -0.0048 -0.0262 -0.0144 -1.6540 0.0056 12.5082
#
#
#
# Elastic Compliance Matrix: (Units=1/GPa)
#
#
# Indices 1 2 3 4 5 6 
#
# 1 0.020104 -0.006417 -0.001254 -0.000029 0.003511 -0.000013
# 2 -0.006417 0.008375 -0.002006 0.000057 0.000324 0.000020
# 3 -0.001254 -0.002006 0.013122 -0.000073 0.000817 0.000000
# 4 -0.000029 0.000057 -0.000073 0.117569 -0.000049 0.015547
# 5 0.003511 0.000324 0.000817 -0.000049 0.035468 -0.000020
# 6 -0.000013 0.000020 0.000000 0.015547 -0.000020 0.082003
#
#
# Mechanical properties :
#
#
# Convention : Reuss Voigt Hill
#
# Bulk Modulus (GPa) = 44.95347 60.00884 52.48115
# Shear Modulus (GPa) = 16.47935 24.67152 20.57544
#
# Velocity S-wave (km/s) = 2.85897 3.49814 3.19458
# Velocity P-wave (km/s) = 5.76151 6.78824 6.29584
#
# Compressibility (1/GPa) = 0.02224523
#
# Stress axis : x y z
#
# Youngs Moduli (GPa) = 49.74245 119.40979 76.20681
#
# Poissons Ratio (x) = 0.76630 0.09554
# Poissons Ratio (y) = 0.31922 0.15290
# Poissons Ratio (z) = 0.06236 0.23958
#
# Static dielectric constant tensor:
#      x y z
#    x 1.746960 -0.000010 -0.015520 
#    y -0.000010 1.780750 -0.000030 
#    z -0.015520 -0.000030 1.704240 
# 
# From -- ./inp_files/111775.got.cif
#   From: 2010.05.17/outbox.cif.g08.bks.cpg/sg12_56_cif.got.tgz:111775.got - 2010.06.03 13:09:07.
