data_PCOD9201801
_publ_section_title
;
Structure prediction by ZEFSAII (Michael W. Deem and Ramdas Pophale) SiO2 
 PCOD9201801
Probable space group: C 2/M
;
_chemical_formula_sum "Si O2"
_cell_formula_units_Z 56
_cell_length_a 13.897786
_cell_length_b 9.992590
_cell_length_c 22.122321
_cell_angle_alpha 90.000000
_cell_angle_beta 124.293160
_cell_angle_gamma 90.000000
_cell_volume 2538.174441
_symmetry_space_group_name_H-M "C 2/M"
_symmetry_group_IT_number 12
_symmetry_cell_setting 'monoclinic'
loop_
_space_group_symop_operation_xyz
x,y,z
-x,y,-z
-x,-y,-z
x,-y,z
1/2+x,1/2+y,z
1/2-x,1/2+y,-z
1/2-x,1/2-y,-z
1/2+x,1/2-y,z
loop_
_atom_site_type_symbol
_atom_site_label
_atom_site_fract_x
_atom_site_fract_y
_atom_site_fract_z
Si Si1 0.500000 0.213678 0.500000
Si Si2 0.748992 0.841441 0.940426
Si Si3 0.556228 0.350974 0.329925
Si Si4 0.366141 0.344713 0.865516
Si Si5 0.256451 0.648888 0.403514
Si Si6 0.056829 0.848873 0.837028
Si Si7 0.903483 0.500000 0.373506
Si Si8 0.196579 0.769916 0.712756
O O1 0.616170 0.300669 0.531831
O O2 0.476405 0.117410 0.435355
O O3 0.857315 0.819950 0.933675
O O4 0.642440 0.776781 0.864484
O O5 0.736218 0.000000 0.948583
O O6 0.750000 0.750000 0.000000
O O7 0.599053 0.500000 0.358583
O O8 0.652469 0.246768 0.385258
O O9 0.535378 0.339618 0.250311
O O10 0.427920 0.329195 0.311345
O O11 0.324774 0.500000 0.844563
O O12 0.490374 0.341351 0.877137
O O13 0.286452 0.240791 0.799791
O O14 0.233191 0.500000 0.417020
O O15 0.259733 0.653983 0.331334
O O16 0.109552 0.000000 0.850706
O O17 0.825259 0.617759 0.314743
#
# Coordination Sequence:
#
# PCOD9201801 Si02
#       8
#     4   8   8   8   8   8   4   8
#     4   9  21  40  64  88 126 168 214 252 324 378
#     4  11  24  43  64  91 127 169 209 255 310 372
#     4  11  24  38  63  96 129 161 208 266 319 374
#     4  10  20  37  64  94 124 163 206 255 305 374
#     4  11  24  40  64  89 127 169 210 261 318 379
#     4  10  21  39  63  94 124 160 209 256 308 368
#     4   9  20  34  68  92 118 164 209 259 309 383
#     4  11  20  38  63  95 129 155 211 258 327 360
#
# _framework density 22.063103000000002
#
# number of rings (size 3 to 8) (size 9 to 14) (size 15 to 20)
#    0.000    1.571    3.571    1.071    6.000    1.143 
#    0.000    7.143    3.143    0.000    0.000    0.000 
#    0.000    0.000    0.000    0.000    0.000    0.000 
#
# Total GULP energy -155903.210153 kJ/mol
# GULP energy per Si atom -5567.971791 kJ/mol
# Density = 2.201289 g / cm^3
# Si number density = 22.063103 Si / 1000 Ang^3
#
#
#
# Elastic Constant Matrix: (Units=GPa)
#
#
# Indices 1 2 3 4 5 6 
#
# 1 66.6538 16.8898 -8.5786 0.0000 2.9900 0.0000
# 2 16.8898 146.3973 11.2005 0.0000 16.0980 0.0000
# 3 -8.5786 11.2005 36.0096 0.0000 5.9228 0.0000
# 4 0.0000 0.0000 0.0000 29.0768 0.0000 -0.9261
# 5 2.9900 16.0980 5.9228 0.0000 27.2388 0.0000
# 6 0.0000 0.0000 0.0000 -0.9261 0.0000 16.8759
#
#
#
# Elastic Compliance Matrix: (Units=1/GPa)
#
#
# Indices 1 2 3 4 5 6 
#
# 1 0.016210 -0.002059 0.004765 0.000000 -0.001599 0.000000
# 2 -0.002059 0.007659 -0.002246 0.000000 -0.003812 0.000000
# 3 0.004765 -0.002246 0.030565 0.000000 -0.005842 0.000000
# 4 0.000000 0.000000 0.000000 0.034452 0.000000 0.001891
# 5 -0.001599 -0.003812 -0.005842 0.000000 0.040411 0.000000
# 6 0.000000 0.000000 0.000000 0.001891 0.000000 0.059360
#
#
# Mechanical properties :
#
#
# Convention : Reuss Voigt Hill
#
# Bulk Modulus (GPa) = 18.06542 32.00934 25.03738
# Shear Modulus (GPa) = 24.24975 29.94156 27.09565
#
# Velocity S-wave (km/s) = 3.31888 3.68786 3.50822
# Velocity P-wave (km/s) = 4.78460 5.71606 5.27095
#
# Compressibility (1/GPa) = 0.05535439
#
# Stress axis : x y z
#
# Youngs Moduli (GPa) = 61.69186 130.56061 32.71726
#
# Poissons Ratio (x) = 0.26881 -0.15590
# Poissons Ratio (y) = 0.12701 0.07348
# Poissons Ratio (z) = -0.29396 0.29321
#
# Static dielectric constant tensor:
#      x y z
#    x 1.847480 0.000000 -0.027510 
#    y 0.000000 1.766620 0.000000 
#    z -0.027510 0.000000 1.844610 
# 
# From -- ./inp_files/339125.got.cif
#   From: 2010.05.17/outbox.cif.g08.bks.cpg/sg12_170_cif.got.tgz:339125.got - 2010.06.03 13:09:07.
