data_PCOD9201852
_publ_section_title
;
Structure prediction by ZEFSAII (Michael W. Deem and Ramdas Pophale) SiO2 
 PCOD9201852
Probable space group: C 2/M
;
_chemical_formula_sum "Si O2"
_cell_formula_units_Z 64
_cell_length_a 30.254885
_cell_length_b 17.876054
_cell_length_c 9.386332
_cell_angle_alpha 90.000000
_cell_angle_beta 140.885221
_cell_angle_gamma 90.000000
_cell_volume 3202.632124
_symmetry_space_group_name_H-M "C 2/M"
_symmetry_group_IT_number 12
_symmetry_cell_setting 'monoclinic'
loop_
_space_group_symop_operation_xyz
x,y,z
-x,y,-z
-x,-y,-z
x,-y,z
1/2+x,1/2+y,z
1/2-x,1/2+y,-z
1/2-x,1/2-y,-z
1/2+x,1/2-y,z
loop_
_atom_site_type_symbol
_atom_site_label
_atom_site_fract_x
_atom_site_fract_y
_atom_site_fract_z
Si Si1 0.655448 0.080455 0.960569
Si Si2 0.765973 0.915873 0.001237
Si Si3 0.944166 0.410286 0.731780
Si Si4 0.424407 0.583563 0.737531
Si Si5 0.062211 0.314044 0.571845
Si Si6 0.271437 0.413870 0.495046
Si Si7 0.705101 0.165165 0.584041
Si Si8 0.645672 0.700904 0.600738
O O1 0.692059 0.077533 0.897452
O O2 0.718171 0.092966 0.228442
O O3 0.624090 0.000000 0.919015
O O4 0.595813 0.139297 0.785441
O O5 0.810989 0.864102 0.216433
O O6 0.793637 0.000000 0.052379
O O7 0.752974 0.873122 0.823673
O O8 0.941026 0.500000 0.699442
O O9 0.957664 0.366025 0.615699
O O10 0.869186 0.378831 0.598977
O O11 0.000000 0.396638 0.000000
O O12 0.416967 0.500000 0.651812
O O13 0.353087 0.591439 0.654000
O O14 0.419677 0.656810 0.628722
O O15 0.500000 0.583825 0.000000
O O16 0.119907 0.258720 0.653868
O O17 0.000000 0.273154 0.500000
O O18 0.261817 0.500000 0.526140
O O19 0.245514 0.351844 0.540292
O O20 0.687682 0.249710 0.589697
#
# Coordination Sequence:
#
# PCOD9201852 Si02
#       8
#     8   8   8   8   8   8   8   8
#     4  10  20  37  65  91 120 163 211 254 298 368
#     4  11  20  39  67  89 116 159 207 257 309 370
#     4  10  21  37  59  88 126 172 212 249 302 370
#     4  10  22  44  69  90 120 165 213 257 307 370
#     4  11  25  41  58  86 130 169 211 255 308 368
#     4  10  21  39  64  97 125 156 209 262 308 367
#     4  11  23  37  62  95 133 158 197 257 326 367
#     4  11  23  41  63  90 124 163 205 254 313 378
#
# _framework density 19.983564000000001
#
# number of rings (size 3 to 8) (size 9 to 14) (size 15 to 20)
#    0.000    1.500    3.750    2.250    1.750    3.500 
#    2.250    0.000    0.000    0.750    0.000    0.000 
#    0.000    0.000    0.000    0.000    0.000    0.000 
#
# Total GULP energy -178365.067706 kJ/mol
# GULP energy per Si atom -5573.908366 kJ/mol
# Density = 1.993808 g / cm^3
# Si number density = 19.983564 Si / 1000 Ang^3
#
#
#
# Elastic Constant Matrix: (Units=GPa)
#
#
# Indices 1 2 3 4 5 6 
#
# 1 38.4170 -2.9117 3.5764 0.0000 0.4928 0.0000
# 2 -2.9117 106.3152 36.5537 0.0000 -7.3712 0.0000
# 3 3.5764 36.5537 76.1539 0.0000 -3.9588 0.0000
# 4 0.0000 0.0000 0.0000 18.9521 0.0000 -2.5526
# 5 0.4928 -7.3712 -3.9588 0.0000 13.9971 0.0000
# 6 0.0000 0.0000 0.0000 -2.5526 0.0000 -0.9188
#
#
#
# Elastic Compliance Matrix: (Units=1/GPa)
#
#
# Indices 1 2 3 4 5 6 
#
# 1 0.026318 0.001325 -0.001912 0.000000 -0.000770 0.000000
# 2 0.001325 0.011614 -0.005401 0.000000 0.004542 0.000000
# 3 -0.001912 -0.005401 0.015903 0.000000 0.001721 0.000000
# 4 0.000000 0.000000 0.000000 0.038397 0.000000 -0.106674
# 5 -0.000770 0.004542 0.001721 0.000000 0.074349 0.000000
# 6 0.000000 0.000000 0.000000 -0.106674 0.000000 -0.792027
#
#
# Mechanical properties :
#
#
# Convention : Reuss Voigt Hill
#
# Bulk Modulus (GPa) = 23.88941 32.81366 28.35153
# Shear Modulus (GPa) = -8.34006 18.65059 5.15526
#
# Velocity S-wave (km/s) = -2.04512 3.05830 1.60790
# Velocity P-wave (km/s) = 2.53057 5.37838 4.20302
#
# Compressibility (1/GPa) = 0.04185956
#
# Stress axis : x y z
#
# Youngs Moduli (GPa) = 37.99622 86.10199 62.88143
#
# Poissons Ratio (x) = -0.11406 0.12022
# Poissons Ratio (y) = -0.05034 0.33961
# Poissons Ratio (z) = 0.07264 0.46502
#
# Static dielectric constant tensor:
#      x y z
#    x 1.699790 0.000000 -0.016110 
#    y 0.000000 1.748200 0.000000 
#    z -0.016110 0.000000 1.762610 
# 
# From -- ./inp_files/112885.got.cif
#   From: 2010.05.17/outbox.cif.g08.bks.cpg/sg12_57_cif.got.tgz:112885.got - 2010.06.03 13:09:07.
