data_PCOD9201923
_publ_section_title
;
Structure prediction by ZEFSAII (Michael W. Deem and Ramdas Pophale) SiO2 
 PCOD9201923
Probable space group: C 2/M
;
_chemical_formula_sum "Si O2"
_cell_formula_units_Z 64
_cell_length_a 8.807268
_cell_length_b 14.615833
_cell_length_c 24.224930
_cell_angle_alpha 90.000000
_cell_angle_beta 99.758468
_cell_angle_gamma 90.000000
_cell_volume 3073.248037
_symmetry_space_group_name_H-M "C 2/M"
_symmetry_group_IT_number 12
_symmetry_cell_setting 'monoclinic'
loop_
_space_group_symop_operation_xyz
x,y,z
-x,y,-z
-x,-y,-z
x,-y,z
1/2+x,1/2+y,z
1/2-x,1/2+y,-z
1/2-x,1/2-y,-z
1/2+x,1/2-y,z
loop_
_atom_site_type_symbol
_atom_site_label
_atom_site_fract_x
_atom_site_fract_y
_atom_site_fract_z
Si Si1 0.411540 0.853673 0.940182
Si Si2 0.047232 0.851552 0.943701
Si Si3 0.638021 0.761480 0.660560
Si Si4 0.350301 0.799604 0.582697
Si Si5 0.836860 0.894535 0.522391
Si Si6 0.493134 0.894368 0.818923
Si Si7 0.580763 0.276597 0.256330
Si Si8 0.849704 0.899969 0.831400
O O1 0.229499 0.853449 0.942935
O O2 0.484806 0.752622 0.939323
O O3 0.436008 0.890966 0.879284
O O4 0.500000 0.894010 0.000000
O O5 0.944459 0.901967 0.892889
O O6 0.000000 0.889011 0.000000
O O7 0.521162 0.818285 0.615288
O O8 0.731977 0.694327 0.626263
O O9 0.536011 0.714896 0.700948
O O10 0.762136 0.811575 0.705974
O O11 0.294078 0.861937 0.529126
O O12 0.345893 0.691379 0.565125
O O13 0.000000 0.893017 0.500000
O O14 0.812768 0.000000 0.540008
O O15 0.413128 0.825205 0.770290
O O16 0.674927 0.866118 0.830191
O O17 0.479670 0.000000 0.800188
O O18 0.550172 0.337684 0.202156
O O19 0.835646 0.000000 0.805838
#
# Coordination Sequence:
#
# PCOD9201923 Si02
#       8
#     8   8   8   8   8   8   8   8
#     4  11  22  38  63  92 122 159 202 255 321 390
#     4  11  22  38  63  92 122 159 202 255 321 390
#     4  10  22  39  66  88 125 170 214 256 314 346
#     4  10  20  41  62  96 131 170 204 260 300 372
#     4  10  20  37  66  99 134 169 205 252 308 366
#     4  11  24  42  64  91 123 161 207 262 322 384
#     4  11  22  43  63  87 119 170 211 264 308 366
#     4  11  24  42  64  91 123 161 207 262 322 384
#
# _framework density 20.824871999999999
#
# number of rings (size 3 to 8) (size 9 to 14) (size 15 to 20)
#    0.000    1.375    3.750    3.000    1.750    1.000 
#    0.000    8.750    0.000    0.000    0.000    0.000 
#    0.000    0.000    0.000    0.000    0.000    0.000 
#
# Total GULP energy -178370.984818 kJ/mol
# GULP energy per Si atom -5574.093276 kJ/mol
# Density = 2.077747 g / cm^3
# Si number density = 20.824872 Si / 1000 Ang^3
#
#
#
# Elastic Constant Matrix: (Units=GPa)
#
#
# Indices 1 2 3 4 5 6 
#
# 1 92.8795 2.2378 12.7954 0.0000 0.3781 0.0000
# 2 2.2378 92.2340 24.2615 0.0000 -1.0074 0.0000
# 3 12.7954 24.2615 90.0267 0.0000 4.6638 0.0000
# 4 0.0000 0.0000 0.0000 94.6370 0.0000 32.9459
# 5 0.3781 -1.0074 4.6638 0.0000 38.5441 0.0000
# 6 0.0000 0.0000 0.0000 32.9459 0.0000 19.0238
#
#
#
# Elastic Compliance Matrix: (Units=1/GPa)
#
#
# Indices 1 2 3 4 5 6 
#
# 1 0.010984 0.000158 -0.001608 0.000000 0.000091 0.000000
# 2 0.000158 0.011690 -0.003209 0.000000 0.000692 0.000000
# 3 -0.001608 -0.003209 0.012282 0.000000 -0.001554 0.000000
# 4 0.000000 0.000000 0.000000 0.026610 0.000000 -0.046084
# 5 0.000091 0.000692 -0.001554 0.000000 0.026150 0.000000
# 6 0.000000 0.000000 0.000000 -0.046084 0.000000 0.132375
#
#
# Mechanical properties :
#
#
# Convention : Reuss Voigt Hill
#
# Bulk Modulus (GPa) = 39.00653 39.30329 39.15491
# Shear Modulus (GPa) = 21.01249 46.16401 33.58825
#
# Velocity S-wave (km/s) = 3.17994 4.71337 4.02044
# Velocity P-wave (km/s) = 5.67927 6.96673 6.35568
#
# Compressibility (1/GPa) = 0.02563673
#
# Stress axis : x y z
#
# Youngs Moduli (GPa) = 91.04120 85.54533 81.42263
#
# Poissons Ratio (x) = -0.01348 0.13095
# Poissons Ratio (y) = -0.01434 0.26125
# Poissons Ratio (z) = 0.14642 0.27448
#
# Static dielectric constant tensor:
#      x y z
#    x 1.802400 0.000000 0.008400 
#    y 0.000000 1.822110 0.000000 
#    z 0.008400 0.000000 1.747570 
# 
# From -- ./inp_files/332963.got.cif
#   From: 2010.05.17/outbox.cif.g08.bks.cpg/sg12_167_cif.got.tgz:332963.got - 2010.06.03 13:09:07.
