data_PCOD9201371
_publ_section_title
;
Structure prediction by ZEFSAII (Michael W. Deem and Ramdas Pophale) SiO2 
 PCOD9201371
Probable space group: C 2/M
;
_chemical_formula_sum "Si O2"
_cell_formula_units_Z 48
_cell_length_a 29.085001
_cell_length_b 8.219888
_cell_length_c 10.381963
_cell_angle_alpha 90.000000
_cell_angle_beta 90.944129
_cell_angle_gamma 90.000000
_cell_volume 2481.735513
_symmetry_space_group_name_H-M "C 2/M"
_symmetry_group_IT_number 12
_symmetry_cell_setting 'monoclinic'
loop_
_space_group_symop_operation_xyz
x,y,z
-x,y,-z
-x,-y,-z
x,-y,z
1/2+x,1/2+y,z
1/2-x,1/2+y,-z
1/2-x,1/2-y,-z
1/2+x,1/2-y,z
loop_
_atom_site_type_symbol
_atom_site_label
_atom_site_fract_x
_atom_site_fract_y
_atom_site_fract_z
Si Si1 0.028218 0.692949 0.379624
Si Si2 0.525007 0.307084 0.870314
Si Si3 0.779869 0.305294 0.122526
Si Si4 0.125073 0.699264 0.275040
Si Si5 0.878768 0.697021 0.027085
Si Si6 0.774637 0.307052 0.630762
O O1 0.033900 0.500000 0.402590
O O2 0.079551 0.755984 0.349337
O O3 0.000000 0.761911 0.500000
O O4 0.997469 0.719813 0.251962
O O5 0.517838 0.500000 0.855037
O O6 0.578077 0.268403 0.895900
O O7 0.500000 0.252130 0.000000
O O8 0.779397 0.500000 0.130052
O O9 0.831814 0.253134 0.094743
O O10 0.757315 0.237113 0.250044
O O11 0.750000 0.250000 0.000000
O O12 0.124999 0.500000 0.275652
O O13 0.173449 0.755707 0.338348
O O14 0.121887 0.747244 0.123889
O O15 0.881690 0.500000 0.028606
O O16 0.778904 0.500000 0.623609
O O17 0.750000 0.250000 0.500000
#
# Coordination Sequence:
#
# PCOD9201371 Si02
#       6
#     8   8   8   8   8   8
#     4  10  21  38  62  88 114 154 202 245 290 349
#     4  11  23  37  56  88 122 153 191 244 299 349
#     4  11  22  38  61  90 118 152 200 253 303 356
#     4   9  18  36  60  84 115 154 199 244 291 352
#     4  10  20  37  62  87 114 157 202 244 292 350
#     4  11  23  41  61  88 124 163 203 248 302 361
#
# _framework density 19.341304000000001
#
# number of rings (size 3 to 8) (size 9 to 14) (size 15 to 20)
#    0.000    1.667    3.333    1.500    0.000    3.667 
#    0.000    5.000    0.000    0.000    0.000    0.000 
#    0.000    0.000    0.000    0.000    0.000    0.000 
#
# Total GULP energy -134033.786293 kJ/mol
# GULP energy per Si atom -5584.741096 kJ/mol
# Density = 1.929728 g / cm^3
# Si number density = 19.341304 Si / 1000 Ang^3
#
#
#
# Elastic Constant Matrix: (Units=GPa)
#
#
# Indices 1 2 3 4 5 6 
#
# 1 177.8225 3.8011 72.8423 0.0000 -16.8703 0.0000
# 2 3.8011 5.3076 0.7229 0.0000 -5.8506 0.0000
# 3 72.8423 0.7229 135.6330 0.0000 -18.8229 0.0000
# 4 0.0000 0.0000 0.0000 26.8944 0.0000 1.4640
# 5 -16.8703 -5.8506 -18.8229 0.0000 26.8152 0.0000
# 6 0.0000 0.0000 0.0000 1.4640 0.0000 8.8274
#
#
#
# Elastic Compliance Matrix: (Units=1/GPa)
#
#
# Indices 1 2 3 4 5 6 
#
# 1 0.007354 -0.003374 -0.003758 0.000000 0.001253 0.000000
# 2 -0.003374 0.255510 0.008744 0.000000 0.059763 0.000000
# 3 -0.003758 0.008744 0.010283 0.000000 0.006762 0.000000
# 4 0.000000 0.000000 0.000000 0.037521 0.000000 -0.006223
# 5 0.001253 0.059763 0.006762 0.000000 0.055866 0.000000
# 6 0.000000 0.000000 0.000000 -0.006223 0.000000 0.114315
#
#
# Mechanical properties :
#
#
# Convention : Reuss Voigt Hill
#
# Bulk Modulus (GPa) = 3.61832 52.61064 28.11448
# Shear Modulus (GPa) = 8.77582 28.60055 18.68818
#
# Velocity S-wave (km/s) = 2.13242 3.84960 3.11180
# Velocity P-wave (km/s) = 2.81740 6.85707 5.24200
#
# Compressibility (1/GPa) = 0.27637148
#
# Stress axis : x y z
#
# Youngs Moduli (GPa) = 135.98464 3.91374 97.25170
#
# Poissons Ratio (x) = 0.01320 0.36543
# Poissons Ratio (y) = 0.45878 -0.85035
# Poissons Ratio (z) = 0.51097 -0.03422
#
# Static dielectric constant tensor:
#      x y z
#    x 1.651280 0.000000 -0.005530 
#    y 0.000000 1.697200 0.000000 
#    z -0.005530 0.000000 1.631030 
# 
# From -- ./inp_files/108722.got.cif
#   From: 2010.05.17/outbox.cif.g08.bks.cpg/sg12_55_cif.got.tgz:108722.got - 2010.06.03 13:09:07.
