data_PCOD9201626
_publ_section_title
;
Structure prediction by ZEFSAII (Michael W. Deem and Ramdas Pophale) SiO2 
 PCOD9201626
Probable space group: C 2/M
;
_chemical_formula_sum "Si O2"
_cell_formula_units_Z 48
_cell_length_a 11.500285
_cell_length_b 25.298752
_cell_length_c 9.280840
_cell_angle_alpha 90.000000
_cell_angle_beta 106.470400
_cell_angle_gamma 90.000000
_cell_volume 2589.395253
_symmetry_space_group_name_H-M "C 2/M"
_symmetry_group_IT_number 12
_symmetry_cell_setting 'monoclinic'
loop_
_space_group_symop_operation_xyz
x,y,z
-x,y,-z
-x,-y,-z
x,-y,z
1/2+x,1/2+y,z
1/2-x,1/2+y,-z
1/2-x,1/2-y,-z
1/2+x,1/2-y,z
loop_
_atom_site_type_symbol
_atom_site_label
_atom_site_fract_x
_atom_site_fract_y
_atom_site_fract_z
Si Si1 0.487967 0.436942 0.165686
Si Si2 0.238243 0.561150 0.244840
Si Si3 0.825374 0.119362 0.553780
Si Si4 0.059812 0.345326 0.164227
Si Si5 0.389839 0.177780 0.350591
Si Si6 0.214267 0.782504 0.629208
O O1 0.515478 0.500000 0.187982
O O2 0.352221 0.429113 0.178861
O O3 0.575975 0.404124 0.302760
O O4 0.500000 0.422856 0.000000
O O5 0.205653 0.500000 0.225302
O O6 0.279124 0.575971 0.422606
O O7 0.128526 0.599509 0.165872
O O8 0.715379 0.143624 0.610689
O O9 0.861198 0.168002 0.459535
O O10 0.164890 0.306770 0.259673
O O11 0.951309 0.351085 0.239069
O O12 0.000000 0.323987 0.000000
O O13 0.500000 0.185204 0.500000
O O14 0.346950 0.237288 0.296061
O O15 0.250000 0.750000 0.500000
#
# Coordination Sequence:
#
# PCOD9201626 Si02
#       6
#     8   8   8   8   8   8
#     4  10  22  39  59  88 126 157 197 251 299 350
#     4  10  21  40  62  88 120 160 204 244 293 356
#     4  10  20  37  63  90 113 163 203 245 290 354
#     4  11  24  40  61  91 123 155 198 249 304 358
#     4  11  20  40  63  85 124 153 198 252 297 353
#     4   9  19  38  59  84 113 160 192 240 293 345
#
# _framework density 18.537147000000001
#
# number of rings (size 3 to 8) (size 9 to 14) (size 15 to 20)
#    0.000    1.833    5.000    1.000    2.333    5.000 
#    0.000    5.833    0.000    0.000    0.000    0.000 
#    0.000    0.000    0.000    0.000    0.000    0.000 
#
# Total GULP energy -133778.563302 kJ/mol
# GULP energy per Si atom -5574.106804 kJ/mol
# Density = 1.849496 g / cm^3
# Si number density = 18.537147 Si / 1000 Ang^3
#
#
#
# Elastic Constant Matrix: (Units=GPa)
#
#
# Indices 1 2 3 4 5 6 
#
# 1 108.7482 51.5103 36.0562 0.0000 -7.8061 0.0000
# 2 51.5103 94.1313 29.7321 0.0000 4.2045 0.0000
# 3 36.0562 29.7321 98.4466 0.0000 4.3482 0.0000
# 4 0.0000 0.0000 0.0000 -8.6500 0.0000 1.4873
# 5 -7.8061 4.2045 4.3482 0.0000 23.3097 0.0000
# 6 0.0000 0.0000 0.0000 1.4873 0.0000 25.3321
#
#
#
# Elastic Compliance Matrix: (Units=1/GPa)
#
#
# Indices 1 2 3 4 5 6 
#
# 1 0.014061 -0.006931 -0.003347 0.000000 0.006583 0.000000
# 2 -0.006931 0.015210 -0.001847 0.000000 -0.004720 0.000000
# 3 -0.003347 -0.001847 0.012076 0.000000 -0.003041 0.000000
# 4 0.000000 0.000000 0.000000 -0.114451 0.000000 0.006720
# 5 0.006583 -0.004720 -0.003041 0.000000 0.046524 0.000000
# 6 0.000000 0.000000 0.000000 0.006720 0.000000 0.039081
#
#
# Mechanical properties :
#
#
# Convention : Reuss Voigt Hill
#
# Bulk Modulus (GPa) = 58.49058 59.54705 59.01881
# Shear Modulus (GPa) = 117.78365 20.26686 69.02526
#
# Velocity S-wave (km/s) = 7.97980 3.31011 6.10877
# Velocity P-wave (km/s) = 10.79466 6.84120 9.03677
#
# Compressibility (1/GPa) = 0.01709677
#
# Stress axis : x y z
#
# Youngs Moduli (GPa) = 71.11851 65.74418 82.81031
#
# Poissons Ratio (x) = 0.45569 0.27719
# Poissons Ratio (y) = 0.49294 0.15293
# Poissons Ratio (z) = 0.23806 0.12141
#
# Static dielectric constant tensor:
#      x y z
#    x 1.680370 0.000000 -0.084060 
#    y 0.000000 1.674640 0.000000 
#    z -0.084060 0.000000 1.770520 
# 
# From -- ./inp_files/51469.got.cif
#   From: 2010.05.17/outbox.cif.g08.bks.cpg/sg12_26_cif.got.tgz:51469.got - 2010.06.03 13:09:07.
