data_PCOD9201192
_publ_section_title
;
Structure prediction by ZEFSAII (Michael W. Deem and Ramdas Pophale) SiO2 
 PCOD9201192
Probable space group: C 2/M
;
_chemical_formula_sum "Si O2"
_cell_formula_units_Z 48
_cell_length_a 17.006367
_cell_length_b 16.613198
_cell_length_c 12.440451
_cell_angle_alpha 90.000000
_cell_angle_beta 143.230908
_cell_angle_gamma 90.000000
_cell_volume 2103.931045
_symmetry_space_group_name_H-M "C 2/M"
_symmetry_group_IT_number 12
_symmetry_cell_setting 'monoclinic'
loop_
_space_group_symop_operation_xyz
x,y,z
-x,y,-z
-x,-y,-z
x,-y,z
1/2+x,1/2+y,z
1/2-x,1/2+y,-z
1/2-x,1/2-y,-z
1/2+x,1/2-y,z
loop_
_atom_site_type_symbol
_atom_site_label
_atom_site_fract_x
_atom_site_fract_y
_atom_site_fract_z
Si Si1 0.862225 0.592741 0.309166
Si Si2 0.966655 0.590666 0.089516
Si Si3 0.083762 0.093241 0.406828
Si Si4 0.711902 0.597213 0.932154
Si Si5 0.128466 0.125165 0.204506
Si Si6 0.810727 0.704686 0.666828
O O1 0.892684 0.500000 0.311332
O O2 0.781914 0.627513 0.118715
O O3 0.760092 0.593000 0.294911
O O4 0.000000 0.629969 0.500000
O O5 0.990314 0.500000 0.155250
O O6 0.070110 0.652483 0.248980
O O7 0.818461 0.611785 0.956458
O O8 0.000000 0.592134 0.000000
O O9 0.113476 0.098525 0.311382
O O10 0.196756 0.146384 0.585670
O O11 0.091871 0.000000 0.451079
O O12 0.935033 0.125986 0.254010
O O13 0.695240 0.500000 0.926295
O O14 0.138634 0.222505 0.205112
O O15 0.000000 0.097484 0.000000
O O16 0.750000 0.750000 0.500000
#
# Coordination Sequence:
#
# PCOD9201192 Si02
#       6
#     8   8   8   8   8   8
#     4  10  21  35  58  94 127 155 194 244 297 359
#     4  10  21  41  67  86 109 155 208 254 294 340
#     4  10  20  37  61  88 118 154 198 247 296 350
#     4   9  19  36  61  92 118 146 195 253 302 346
#     4  11  21  37  58  85 127 162 191 235 296 363
#     4  10  23  38  57  85 121 160 199 237 291 357
#
# _framework density 22.814433999999999
#
# number of rings (size 3 to 8) (size 9 to 14) (size 15 to 20)
#    0.000    2.000    1.667    1.500    4.667    0.667 
#    0.000    7.500    0.000    4.000    0.000    0.000 
#    0.000    0.000    0.000    0.000    0.000    0.000 
#
# Total GULP energy -134039.072448 kJ/mol
# GULP energy per Si atom -5584.961352 kJ/mol
# Density = 2.276251 g / cm^3
# Si number density = 22.814434 Si / 1000 Ang^3
#
#
#
# Elastic Constant Matrix: (Units=GPa)
#
#
# Indices 1 2 3 4 5 6 
#
# 1 91.1479 5.7758 20.5967 0.0000 29.4712 0.0000
# 2 5.7758 71.9115 34.5358 0.0000 9.9846 0.0000
# 3 20.5967 34.5358 96.7151 0.0000 30.0825 0.0000
# 4 0.0000 0.0000 0.0000 243.5487 0.0000 -69.0233
# 5 29.4712 9.9846 30.0825 0.0000 38.9260 0.0000
# 6 0.0000 0.0000 0.0000 -69.0233 0.0000 8.5865
#
#
#
# Elastic Compliance Matrix: (Units=1/GPa)
#
#
# Indices 1 2 3 4 5 6 
#
# 1 0.014545 0.000241 0.000343 0.000000 -0.011339 0.000000
# 2 0.000241 0.016794 -0.006124 0.000000 0.000242 0.000000
# 3 0.000343 -0.006124 0.015857 0.000000 -0.010944 0.000000
# 4 0.000000 0.000000 0.000000 -0.003212 0.000000 -0.025823
# 5 -0.011339 0.000242 -0.010944 0.000000 0.042670 0.000000
# 6 0.000000 0.000000 0.000000 -0.025823 0.000000 -0.091115
#
#
# Mechanical properties :
#
#
# Convention : Reuss Voigt Hill
#
# Bulk Modulus (GPa) = 27.68721 42.39901 35.04311
# Shear Modulus (GPa) = 268.02138 71.47001 169.74570
#
# Velocity S-wave (km/s) = 10.85053 5.60309 8.63506
# Velocity P-wave (km/s) = 13.00541 7.77716 10.71506
#
# Compressibility (1/GPa) = 0.03611776
#
# Stress axis : x y z
#
# Youngs Moduli (GPa) = 68.75405 59.54559 63.06288
#
# Poissons Ratio (x) = -0.01437 -0.02165
# Poissons Ratio (y) = -0.01659 0.38617
# Poissons Ratio (z) = -0.02360 0.36463
#
# Static dielectric constant tensor:
#      x y z
#    x 1.828860 0.000000 -0.033400 
#    y 0.000000 1.900760 0.000000 
#    z -0.033400 0.000000 1.789540 
# 
# From -- ./inp_files/75123.got.cif
#   From: 2010.05.17/outbox.cif.g08.bks.cpg/sg12_38_cif.got.tgz:75123.got - 2010.06.03 13:09:07.
