data_PCOD9201452
_publ_section_title
;
Structure prediction by ZEFSAII (Michael W. Deem and Ramdas Pophale) SiO2 
 PCOD9201452
Probable space group: C 2/M
;
_chemical_formula_sum "Si O2"
_cell_formula_units_Z 64
_cell_length_a 15.356010
_cell_length_b 9.476169
_cell_length_c 31.734521
_cell_angle_alpha 90.000000
_cell_angle_beta 49.082972
_cell_angle_gamma 90.000000
_cell_volume 3489.545813
_symmetry_space_group_name_H-M "C 2/M"
_symmetry_group_IT_number 12
_symmetry_cell_setting 'monoclinic'
loop_
_space_group_symop_operation_xyz
x,y,z
-x,y,-z
-x,-y,-z
x,-y,z
1/2+x,1/2+y,z
1/2-x,1/2+y,-z
1/2-x,1/2-y,-z
1/2+x,1/2-y,z
loop_
_atom_site_type_symbol
_atom_site_label
_atom_site_fract_x
_atom_site_fract_y
_atom_site_fract_z
Si Si1 0.299107 0.167887 0.833608
Si Si2 0.302557 0.333550 0.046415
Si Si3 0.065608 0.165831 0.434598
Si Si4 0.156766 0.669065 0.814968
Si Si5 0.070133 0.667492 0.750450
Si Si6 0.147802 0.831977 0.555746
Si Si7 0.803663 0.168491 0.362615
Si Si8 0.574048 0.165848 0.061317
O O1 0.223590 0.215058 0.897882
O O2 0.260056 0.250550 0.804733
O O3 0.433805 0.189261 0.800413
O O4 0.281441 0.000000 0.833992
O O5 0.328856 0.500000 0.038923
O O6 0.182587 0.316014 0.058555
O O7 0.398277 0.252065 0.989513
O O8 0.177545 0.262507 0.398384
O O9 0.000000 0.181291 0.500000
O O10 0.973834 0.202653 0.427418
O O11 0.097814 0.000000 0.420054
O O12 0.171181 0.500000 0.813367
O O13 0.136228 0.703812 0.772677
O O14 0.041098 0.707573 0.877585
O O15 0.087250 0.500000 0.736919
O O16 0.115938 0.758872 0.697456
O O17 0.250000 0.750000 0.500000
O O18 0.152086 0.802169 0.604020
O O19 0.165637 0.000000 0.544077
O O20 0.799057 0.000000 0.358453
O O21 0.566700 0.000000 0.053678
#
# Coordination Sequence:
#
# PCOD9201452 Si02
#       8
#     8   8   8   8   8   8   8   8
#     4  10  21  38  60  84 112 149 193 239 288 344
#     4   9  17  32  54  80 111 146 185 231 286 345
#     4  10  20  37  62  89 119 158 195 223 271 344
#     4  10  21  38  60  83 110 149 193 239 288 341
#     4  10  22  43  63  78 110 157 197 233 284 347
#     4  10  21  37  59  88 121 153 188 229 276 331
#     4  11  24  39  59  90 122 150 188 244 290 325
#     4   9  17  32  54  80 110 145 187 232 284 345
#
# _framework density 18.340496000000002
#
# number of rings (size 3 to 8) (size 9 to 14) (size 15 to 20)
#    0.000    2.125    2.500    0.375    0.000    4.750 
#    0.000    6.250    0.000    0.000    0.000    0.000 
#    0.000    0.000    0.000    0.000    0.000    0.000 
#
# Total GULP energy -178679.318352 kJ/mol
# GULP energy per Si atom -5583.728698 kJ/mol
# Density = 1.829875 g / cm^3
# Si number density = 18.340496 Si / 1000 Ang^3
#
#
#
# Elastic Constant Matrix: (Units=GPa)
#
#
# Indices 1 2 3 4 5 6 
#
# 1 104.0833 42.7411 36.8604 0.0000 30.6706 0.0000
# 2 42.7411 36.5003 44.5909 0.0000 17.7850 0.0000
# 3 36.8604 44.5909 92.4318 0.0000 27.4751 0.0000
# 4 0.0000 0.0000 0.0000 36.1113 0.0000 0.1495
# 5 30.6706 17.7850 27.4751 0.0000 22.2865 0.0000
# 6 0.0000 0.0000 0.0000 0.1495 0.0000 27.4205
#
#
#
# Elastic Compliance Matrix: (Units=1/GPa)
#
#
# Indices 1 2 3 4 5 6 
#
# 1 0.027619 -0.038022 0.015165 0.000000 -0.026362 0.000000
# 2 -0.038022 0.126226 -0.049472 0.000000 0.012586 0.000000
# 3 0.015165 -0.049472 0.036471 0.000000 -0.026352 0.000000
# 4 0.000000 0.000000 0.000000 0.027693 0.000000 -0.000151
# 5 -0.026362 0.012586 -0.026352 0.000000 0.103593 0.000000
# 6 0.000000 0.000000 0.000000 -0.000151 0.000000 0.036470
#
#
# Mechanical properties :
#
#
# Convention : Reuss Voigt Hill
#
# Bulk Modulus (GPa) = 21.90304 53.48892 37.69598
# Shear Modulus (GPa) = 9.65346 24.41853 17.03599
#
# Velocity S-wave (km/s) = 2.29671 3.65279 3.05105
# Velocity P-wave (km/s) = 4.35908 6.85698 5.74542
#
# Compressibility (1/GPa) = 0.04565576
#
# Stress axis : x y z
#
# Youngs Moduli (GPa) = 36.20676 7.92230 27.41936
#
# Poissons Ratio (x) = 0.30123 -0.41581
# Poissons Ratio (y) = 1.37667 1.35650
# Poissons Ratio (z) = -0.54907 0.39193
#
# Static dielectric constant tensor:
#      x y z
#    x 1.637220 0.000000 0.002110 
#    y 0.000000 1.606130 0.000000 
#    z 0.002110 0.000000 1.612120 
# 
# From -- ./inp_files/375437.got.cif
#   From: 2010.05.17/outbox.cif.g08.bks.cpg/sg12_188_cif.got.tgz:375437.got - 2010.06.03 13:09:07.
