data_PCOD9201847
_publ_section_title
;
Structure prediction by ZEFSAII (Michael W. Deem and Ramdas Pophale) SiO2 
 PCOD9201847
Probable space group: C 2/M
;
_chemical_formula_sum "Si O2"
_cell_formula_units_Z 48
_cell_length_a 11.073413
_cell_length_b 17.169270
_cell_length_c 20.238345
_cell_angle_alpha 90.000000
_cell_angle_beta 42.693832
_cell_angle_gamma 90.000000
_cell_volume 2609.093309
_symmetry_space_group_name_H-M "C 2/M"
_symmetry_group_IT_number 12
_symmetry_cell_setting 'monoclinic'
loop_
_space_group_symop_operation_xyz
x,y,z
-x,y,-z
-x,-y,-z
x,-y,z
1/2+x,1/2+y,z
1/2-x,1/2+y,-z
1/2-x,1/2-y,-z
1/2+x,1/2-y,z
loop_
_atom_site_type_symbol
_atom_site_label
_atom_site_fract_x
_atom_site_fract_y
_atom_site_fract_z
Si Si1 0.340904 0.911399 0.705494
Si Si2 0.706231 0.350666 0.898961
Si Si3 0.878041 0.311394 0.485550
Si Si4 0.748637 0.333086 0.139028
Si Si5 0.596428 0.410784 0.676890
Si Si6 0.610536 0.907939 0.043656
O O1 0.262273 0.889245 0.807747
O O2 0.489364 0.851199 0.620247
O O3 0.185204 0.908854 0.713618
O O4 0.411498 0.000000 0.677809
O O5 0.741979 0.258388 0.878328
O O6 0.819088 0.386828 0.912928
O O7 0.500000 0.362411 0.000000
O O8 0.750000 0.250000 0.500000
O O9 0.746366 0.376562 0.568590
O O10 0.000000 0.283613 0.500000
O O11 0.578382 0.357946 0.249594
O O12 0.928068 0.362120 0.102509
O O13 0.752021 0.378026 0.067458
O O14 0.551229 0.500000 0.678838
O O15 0.582707 0.000000 0.047280
#
# Coordination Sequence:
#
# PCOD9201847 Si02
#       6
#     8   8   8   8   8   8
#     4  10  22  39  61  89 122 155 197 253 307 359
#     4  12  24  38  60  89 122 160 205 252 302 361
#     4  10  21  41  64  92 121 155 202 252 305 363
#     4  11  22  38  60  86 121 157 208 247 302 361
#     4  10  20  37  65  89 115 156 203 245 300 369
#     4  11  23  39  59  84 123 163 201 252 309 363
#
# _framework density 18.397196999999998
#
# number of rings (size 3 to 8) (size 9 to 14) (size 15 to 20)
#    0.000    1.333    1.667    5.500    2.333    4.667 
#    3.000    0.000    0.000    1.000    0.000    0.000 
#    0.000    0.000    0.000    0.000    0.000    0.000 
#
# Total GULP energy -134075.220699 kJ/mol
# GULP energy per Si atom -5586.467529 kJ/mol
# Density = 1.835532 g / cm^3
# Si number density = 18.397197 Si / 1000 Ang^3
#
#
#
# Elastic Constant Matrix: (Units=GPa)
#
#
# Indices 1 2 3 4 5 6 
#
# 1 59.4467 32.5580 40.3092 -0.0004 11.4200 0.0003
# 2 32.5580 70.5354 5.9104 -0.0003 1.8954 0.0004
# 3 40.3092 5.9104 104.0042 -0.0004 0.3432 0.0000
# 4 -0.0004 -0.0003 -0.0004 35.6156 0.0004 0.7923
# 5 11.4200 1.8954 0.3432 0.0004 30.1089 -0.0002
# 6 0.0003 0.0004 0.0000 0.7923 -0.0002 19.1066
#
#
#
# Elastic Compliance Matrix: (Units=1/GPa)
#
#
# Indices 1 2 3 4 5 6 
#
# 1 0.036872 -0.015554 -0.013364 0.000000 -0.012854 0.000000
# 2 -0.015554 0.020830 0.004830 0.000000 0.004533 0.000000
# 3 -0.013364 0.004830 0.014505 0.000000 0.004600 0.000000
# 4 0.000000 0.000000 0.000000 0.028104 0.000000 -0.001165
# 5 -0.012854 0.004533 0.004600 0.000000 0.037750 0.000001
# 6 0.000000 0.000000 0.000000 -0.001165 0.000001 0.052386
#
#
# Mechanical properties :
#
#
# Convention : Reuss Voigt Hill
#
# Bulk Modulus (GPa) = 41.61522 43.50461 42.55992
# Shear Modulus (GPa) = 20.27299 27.31348 23.79324
#
# Velocity S-wave (km/s) = 3.32318 3.85730 3.60016
# Velocity P-wave (km/s) = 6.11508 6.59827 6.36126
#
# Compressibility (1/GPa) = 0.02402967
#
# Stress axis : x y z
#
# Youngs Moduli (GPa) = 27.12120 48.00707 68.94222
#
# Poissons Ratio (x) = 0.74671 0.92135
# Poissons Ratio (y) = 0.42184 -0.33296
# Poissons Ratio (z) = 0.36245 -0.23186
#
# Static dielectric constant tensor:
#      x y z
#    x 1.621180 0.000000 -0.001740 
#    y 0.000000 1.618550 0.000000 
#    z -0.001740 0.000000 1.624630 
# 
# From -- ./inp_files/305628.got.cif
#   From: 2010.05.17/outbox.cif.g08.bks.cpg/sg12_153_cif.got.tgz:305628.got - 2010.06.03 13:09:07.
