data_PCOD9201275
_publ_section_title
;
Structure prediction by ZEFSAII (Michael W. Deem and Ramdas Pophale) SiO2 
 PCOD9201275
Probable space group: C 2/M
;
_chemical_formula_sum "Si O2"
_cell_formula_units_Z 64
_cell_length_a 8.548813
_cell_length_b 21.142832
_cell_length_c 17.081488
_cell_angle_alpha 90.000000
_cell_angle_beta 86.192287
_cell_angle_gamma 90.000000
_cell_volume 3080.597282
_symmetry_space_group_name_H-M "C 2/M"
_symmetry_group_IT_number 12
_symmetry_cell_setting 'monoclinic'
loop_
_space_group_symop_operation_xyz
x,y,z
-x,y,-z
-x,-y,-z
x,-y,z
1/2+x,1/2+y,z
1/2-x,1/2+y,-z
1/2-x,1/2-y,-z
1/2+x,1/2-y,z
loop_
_atom_site_type_symbol
_atom_site_label
_atom_site_fract_x
_atom_site_fract_y
_atom_site_fract_z
Si Si1 0.173023 0.855847 0.977436
Si Si2 0.571548 0.571081 0.676662
Si Si3 0.595097 0.205243 0.210066
Si Si4 0.261351 0.925862 0.818723
Si Si5 0.327454 0.780457 0.105505
Si Si6 0.840392 0.607957 0.547220
Si Si7 0.862322 0.840616 0.585128
Si Si8 0.469229 0.776920 0.382228
O O1 0.241687 0.902309 0.908966
O O2 0.154823 0.785517 0.941209
O O3 0.263462 0.837333 0.054176
O O4 0.000000 0.880490 0.000000
O O5 0.520965 0.500000 0.664444
O O6 0.608375 0.578924 0.767703
O O7 0.735783 0.579404 0.621782
O O8 0.432845 0.614213 0.648887
O O9 0.639653 0.131976 0.221657
O O10 0.493058 0.202362 0.135113
O O11 0.724098 0.257329 0.182412
O O12 0.514598 0.229251 0.290605
O O13 0.311833 0.000000 0.812971
O O14 0.706967 0.619652 0.485444
O O15 0.000000 0.578455 0.500000
O O16 0.917358 0.671938 0.580091
O O17 0.708527 0.799789 0.609852
O O18 0.002106 0.789400 0.577229
#
# Coordination Sequence:
#
# PCOD9201275 Si02
#       8
#     8   8   8   8   8   8   8   8
#     4  10  20  37  61  90 130 158 202 253 314 362
#     4  11  24  45  65  88 127 171 218 262 308 373
#     4  11  21  38  64  92 128 162 207 252 315 370
#     4  10  24  42  64  87 121 171 212 251 310 375
#     4  10  21  34  59  97 124 158 197 259 311 369
#     4  10  22  41  63  98 128 165 208 261 323 374
#     4  11  24  37  63  95 130 166 211 258 318 377
#     4  11  22  38  62  95 133 165 203 261 324 380
#
# _framework density 20.775192000000001
#
# number of rings (size 3 to 8) (size 9 to 14) (size 15 to 20)
#    0.000    1.500    2.500    2.250    3.500    4.500 
#    0.000    3.750    0.000    0.000    0.000    0.000 
#    0.000    0.000    0.000    0.000    0.000    0.000 
#
# Total GULP energy -178229.669371 kJ/mol
# GULP energy per Si atom -5569.677168 kJ/mol
# Density = 2.072791 g / cm^3
# Si number density = 20.775192 Si / 1000 Ang^3
#
#
#
# Elastic Constant Matrix: (Units=GPa)
#
#
# Indices 1 2 3 4 5 6 
#
# 1 59.5003 26.5969 0.0842 0.0000 16.8698 0.0000
# 2 26.5969 94.3060 20.5191 0.0000 26.7707 0.0000
# 3 0.0842 20.5191 56.7006 0.0000 -2.4677 0.0000
# 4 0.0000 0.0000 0.0000 74.2816 0.0000 163.1179
# 5 16.8698 26.7707 -2.4677 0.0000 38.0203 0.0000
# 6 0.0000 0.0000 0.0000 163.1179 0.0000 354.6370
#
#
#
# Elastic Compliance Matrix: (Units=1/GPa)
#
#
# Indices 1 2 3 4 5 6 
#
# 1 0.020432 -0.004367 0.001293 0.000000 -0.005907 0.000000
# 2 -0.004367 0.015927 -0.006178 0.000000 -0.009678 0.000000
# 3 0.001293 -0.006178 0.020092 0.000000 0.005081 0.000000
# 4 0.000000 0.000000 0.000000 -1.341048 0.000000 0.616825
# 5 -0.005907 -0.009678 0.005081 0.000000 0.036067 0.000000
# 6 0.000000 0.000000 0.000000 0.616825 0.000000 -0.280893
#
#
# Mechanical properties :
#
#
# Convention : Reuss Voigt Hill
#
# Bulk Modulus (GPa) = 26.35367 33.87858 30.11612
# Shear Modulus (GPa) = -3.33718 104.27490 50.46886
#
# Velocity S-wave (km/s) = -1.26879 7.09232 4.93412
# Velocity P-wave (km/s) = 3.25058 9.13294 6.85481
#
# Compressibility (1/GPa) = 0.03794538
#
# Stress axis : x y z
#
# Youngs Moduli (GPa) = 48.94391 62.78696 49.77211
#
# Poissons Ratio (x) = 0.27417 -0.06435
# Poissons Ratio (y) = 0.21373 0.30751
# Poissons Ratio (z) = -0.06328 0.38792
#
# Static dielectric constant tensor:
#      x y z
#    x 1.796430 0.000000 -0.034650 
#    y 0.000000 1.740710 0.000000 
#    z -0.034650 0.000000 1.816820 
# 
# From -- ./inp_files/258086.got.cif
#   From: 2010.05.17/outbox.cif.g08.bks.cpg/sg12_130_cif.got.tgz:258086.got - 2010.06.03 13:09:07.
