data_PCOD9201757
_publ_section_title
;
Structure prediction by ZEFSAII (Michael W. Deem and Ramdas Pophale) SiO2 
 PCOD9201757
Probable space group: C 2/M
;
_chemical_formula_sum "Si O2"
_cell_formula_units_Z 40
_cell_length_a 17.254113
_cell_length_b 13.752191
_cell_length_c 7.597216
_cell_angle_alpha 90.000000
_cell_angle_beta 79.524144
_cell_angle_gamma 90.000000
_cell_volume 1772.633731
_symmetry_space_group_name_H-M "C 2/M"
_symmetry_group_IT_number 12
_symmetry_cell_setting 'monoclinic'
loop_
_space_group_symop_operation_xyz
x,y,z
-x,y,-z
-x,-y,-z
x,-y,z
1/2+x,1/2+y,z
1/2-x,1/2+y,-z
1/2-x,1/2-y,-z
1/2+x,1/2-y,z
loop_
_atom_site_type_symbol
_atom_site_label
_atom_site_fract_x
_atom_site_fract_y
_atom_site_fract_z
Si Si1 0.914902 0.182832 0.498059
Si Si2 0.746040 0.157570 0.631291
Si Si3 0.249172 0.887146 0.995870
Si Si4 0.414296 0.385685 0.118962
Si Si5 0.365992 0.893860 0.615372
O O1 0.837869 0.125831 0.597894
O O2 0.906487 0.182006 0.291529
O O3 0.912889 0.292411 0.578493
O O4 0.000000 0.137766 0.500000
O O5 0.750000 0.250000 0.500000
O O6 0.683163 0.098161 0.546150
O O7 0.724940 0.172185 0.843136
O O8 0.158875 0.868510 0.979817
O O9 0.304776 0.878786 0.802216
O O10 0.254670 0.000000 0.050100
O O11 0.407908 0.500000 0.176162
O O12 0.500000 0.371700 0.000000
O O13 0.405425 0.000000 0.628196
#
# Coordination Sequence:
#
# PCOD9201757 Si02
#       5
#     8   8   8   8   8
#     4  11  23  39  59  93 127 168 206 265 317 373
#     4  10  21  37  61  91 120 159 204 260 313 367
#     4  10  20  37  64  90 121 162 207 257 312 376
#     4  10  21  38  60  91 128 167 207 257 321 383
#     4  10  22  42  64  90 125 166 214 261 309 374
#
# _framework density 22.565294000000002
#
# number of rings (size 3 to 8) (size 9 to 14) (size 15 to 20)
#    0.000    1.800    2.000    1.800    0.000    4.800 
#    7.200    0.000    0.000    0.600    0.000    0.000 
#    0.000    0.000    0.000    0.000    0.000    0.000 
#
# Total GULP energy -111599.476372 kJ/mol
# GULP energy per Si atom -5579.973819 kJ/mol
# Density = 2.251393 g / cm^3
# Si number density = 22.565294 Si / 1000 Ang^3
#
#
#
# Elastic Constant Matrix: (Units=GPa)
#
#
# Indices 1 2 3 4 5 6 
#
# 1 78.5960 -15.8876 29.2917 0.0000 -7.5402 0.0000
# 2 -15.8876 82.4995 12.7528 0.0000 -9.3464 0.0000
# 3 29.2917 12.7528 144.1766 0.0000 9.0307 0.0000
# 4 0.0000 0.0000 0.0000 45.8786 0.0000 -21.4626
# 5 -7.5402 -9.3464 9.0307 0.0000 33.0928 0.0000
# 6 0.0000 0.0000 0.0000 -21.4626 0.0000 34.4428
#
#
#
# Elastic Compliance Matrix: (Units=1/GPa)
#
#
# Indices 1 2 3 4 5 6 
#
# 1 0.015604 0.004270 -0.003913 0.000000 0.005829 0.000000
# 2 0.004270 0.013955 -0.002452 0.000000 0.005583 0.000000
# 3 -0.003913 -0.002452 0.008187 0.000000 -0.003818 0.000000
# 4 0.000000 0.000000 0.000000 0.030765 0.000000 0.019171
# 5 0.005829 0.005583 -0.003818 0.000000 0.034165 0.000000
# 6 0.000000 0.000000 0.000000 0.019171 0.000000 0.040980
#
#
# Mechanical properties :
#
#
# Convention : Reuss Voigt Hill
#
# Bulk Modulus (GPa) = 29.79975 39.73179 34.76577
# Shear Modulus (GPa) = 31.44044 41.29051 36.36548
#
# Velocity S-wave (km/s) = 3.73676 4.28228 4.01879
# Velocity P-wave (km/s) = 5.64380 6.48817 6.08066
#
# Compressibility (1/GPa) = 0.03355733
#
# Stress axis : x y z
#
# Youngs Moduli (GPa) = 64.08576 71.65800 122.14562
#
# Poissons Ratio (x) = -0.30600 0.47796
# Poissons Ratio (y) = -0.27366 0.29946
# Poissons Ratio (z) = 0.25077 0.17568
#
# Static dielectric constant tensor:
#      x y z
#    x 1.881210 0.000000 0.010000 
#    y 0.000000 2.008260 0.000000 
#    z 0.010000 0.000000 1.813350 
# 
# From -- ./inp_files/15145.got.cif
#   From: 2010.05.17/outbox.cif.g08.bks.cpg/sg12_8_cif.got.tgz:15145.got - 2010.06.03 13:09:07.
