data_PCOD9201927
_publ_section_title
;
Structure prediction by ZEFSAII (Michael W. Deem and Ramdas Pophale) SiO2 
 PCOD9201927
Probable space group: C 2/M
;
_chemical_formula_sum "Si O2"
_cell_formula_units_Z 48
_cell_length_a 12.949628
_cell_length_b 14.151667
_cell_length_c 17.980801
_cell_angle_alpha 90.000000
_cell_angle_beta 40.910571
_cell_angle_gamma 90.000000
_cell_volume 2157.922412
_symmetry_space_group_name_H-M "C 2/M"
_symmetry_group_IT_number 12
_symmetry_cell_setting 'monoclinic'
loop_
_space_group_symop_operation_xyz
x,y,z
-x,y,-z
-x,-y,-z
x,-y,z
1/2+x,1/2+y,z
1/2-x,1/2+y,-z
1/2-x,1/2-y,-z
1/2+x,1/2-y,z
loop_
_atom_site_type_symbol
_atom_site_label
_atom_site_fract_x
_atom_site_fract_y
_atom_site_fract_z
Si Si1 0.193690 0.142846 0.029291
Si Si2 0.095210 0.234975 0.876694
Si Si3 0.778977 0.888071 0.694836
Si Si4 0.633546 0.895976 0.211624
Si Si5 0.523083 0.604473 0.264302
Si Si6 0.683214 0.782966 0.614941
O O1 0.168782 0.107297 0.126337
O O2 0.016658 0.151630 0.093415
O O3 0.250000 0.250000 0.000000
O O4 0.306384 0.098085 0.906599
O O5 0.133008 0.325256 0.805687
O O6 0.256667 0.183931 0.811605
O O7 0.000000 0.270285 0.000000
O O8 0.909080 0.881952 0.689394
O O9 0.808328 0.831965 0.602061
O O10 0.748333 0.000000 0.699759
O O11 0.455684 0.860315 0.315630
O O12 0.653657 0.000000 0.233919
O O13 0.451113 0.500000 0.298957
O O14 0.403979 0.688184 0.308311
O O15 0.750000 0.750000 0.500000
#
# Coordination Sequence:
#
# PCOD9201927 Si02
#       6
#     8   8   8   8   8   8
#     4  11  19  38  67  99 143 181 217 274 344 419
#     4  10  20  37  67 103 144 178 219 276 342 413
#     4  11  23  43  69  99 132 175 223 276 341 405
#     4  11  23  41  67 100 138 182 230 283 347 413
#     4  11  23  41  68 101 135 173 221 276 344 412
#     4  12  26  46  69  92 131 180 236 288 334 393
#
# _framework density 22.243615999999999
#
# number of rings (size 3 to 8) (size 9 to 14) (size 15 to 20)
#    0.000    1.000    5.000    2.000    0.000    6.000 
#    0.000    4.167    0.000    1.000    0.000    0.000 
#    0.000    0.000    0.000    0.000    0.000    0.000 
#
# Total GULP energy -133984.578162 kJ/mol
# GULP energy per Si atom -5582.690757 kJ/mol
# Density = 2.219299 g / cm^3
# Si number density = 22.243616 Si / 1000 Ang^3
#
#
#
# Elastic Constant Matrix: (Units=GPa)
#
#
# Indices 1 2 3 4 5 6 
#
# 1 85.7462 28.5927 24.6221 -0.0001 10.3142 0.0000
# 2 28.5927 171.8513 27.6349 -0.0001 10.0159 0.0000
# 3 24.6221 27.6349 113.2422 -0.0002 24.2936 0.0001
# 4 -0.0001 -0.0001 -0.0002 3.0289 0.0001 12.4119
# 5 10.3142 10.0159 24.2936 0.0001 34.5816 -0.0001
# 6 0.0000 0.0000 0.0001 12.4119 -0.0001 14.2875
#
#
#
# Elastic Compliance Matrix: (Units=1/GPa)
#
#
# Indices 1 2 3 4 5 6 
#
# 1 0.013051 -0.001736 -0.001986 0.000000 -0.001995 0.000000
# 2 -0.001736 0.006308 -0.001038 0.000000 -0.000581 0.000000
# 3 -0.001986 -0.001038 0.010979 -0.000001 -0.006820 0.000000
# 4 0.000000 0.000000 -0.000001 -0.128973 0.000001 0.112042
# 5 -0.001995 -0.000581 -0.006820 0.000001 0.034471 -0.000001
# 6 0.000000 0.000000 0.000000 0.112042 -0.000001 -0.027342
#
#
# Mechanical properties :
#
#
# Convention : Reuss Voigt Hill
#
# Bulk Modulus (GPa) = 48.03224 59.17100 53.60162
# Shear Modulus (GPa) = -66.62486 29.71229 -18.45628
#
# Velocity S-wave (km/s) = -5.47881 3.65878 -2.88364
# Velocity P-wave (km/s) = 4.28749 6.67143 3.61424
#
# Compressibility (1/GPa) = 0.02081935
#
# Stress axis : x y z
#
# Youngs Moduli (GPa) = 76.61995 158.51709 91.08571
#
# Poissons Ratio (x) = 0.27516 0.18092
# Poissons Ratio (y) = 0.13300 0.09450
# Poissons Ratio (z) = 0.15219 0.16446
#
# Static dielectric constant tensor:
#      x y z
#    x 1.949970 0.000000 0.031830 
#    y 0.000000 1.871110 0.000000 
#    z 0.031830 0.000000 1.874610 
# 
# From -- ./inp_files/270117.got.cif
#   From: 2010.05.17/outbox.cif.g08.bks.cpg/sg12_136_cif.got.tgz:270117.got - 2010.06.03 13:09:07.
