data_PCOD9201492
_publ_section_title
;
Structure prediction by ZEFSAII (Michael W. Deem and Ramdas Pophale) SiO2 
 PCOD9201492
Probable space group: C 2/M
;
_chemical_formula_sum "Si O2"
_cell_formula_units_Z 48
_cell_length_a 20.095213
_cell_length_b 19.317870
_cell_length_c 5.695611
_cell_angle_alpha 90.000000
_cell_angle_beta 102.649865
_cell_angle_gamma 90.000000
_cell_volume 2157.348422
_symmetry_space_group_name_H-M "C 2/M"
_symmetry_group_IT_number 12
_symmetry_cell_setting 'monoclinic'
loop_
_space_group_symop_operation_xyz
x,y,z
-x,y,-z
-x,-y,-z
x,-y,z
1/2+x,1/2+y,z
1/2-x,1/2+y,-z
1/2-x,1/2-y,-z
1/2+x,1/2-y,z
loop_
_atom_site_type_symbol
_atom_site_label
_atom_site_fract_x
_atom_site_fract_y
_atom_site_fract_z
Si Si1 0.849763 0.077616 0.365520
Si Si2 0.206414 0.424406 0.003841
Si Si3 0.219187 0.155480 0.317248
Si Si4 0.666159 0.794323 0.229943
Si Si5 0.533855 0.648945 0.778671
Si Si6 0.014752 0.695728 0.260410
O O1 0.770943 0.072283 0.228531
O O2 0.845124 0.126166 0.588736
O O3 0.892471 0.114741 0.195737
O O4 0.875467 0.000000 0.429564
O O5 0.172924 0.500000 0.973969
O O6 0.162666 0.357769 0.044823
O O7 0.243749 0.405446 0.791780
O O8 0.277332 0.184160 0.536008
O O9 0.192710 0.221405 0.148820
O O10 0.594334 0.784933 0.303465
O O11 0.500000 0.628383 0.500000
O O12 0.529453 0.732879 0.776328
O O13 0.500000 0.627075 0.000000
O O14 0.000000 0.661067 0.500000
O O15 0.000000 0.659028 0.000000
#
# Coordination Sequence:
#
# PCOD9201492 Si02
#       6
#     8   8   8   8   8   8
#     4  10  22  37  57  87 126 165 208 251 304 376
#     4  10  22  38  61  90 122 160 200 257 323 376
#     4  10  20  37  62  90 120 159 205 261 320 365
#     4  10  22  37  60  93 121 155 211 261 312 372
#     4  10  22  38  56  85 121 172 211 256 299 362
#     4  10  22  37  61  89 124 162 207 261 314 367
#
# _framework density 22.249537
#
# number of rings (size 3 to 8) (size 9 to 14) (size 15 to 20)
#    0.000    2.000    0.000    3.000    9.333    1.333 
#    0.000    0.000    0.000    1.000    0.000    0.000 
#    0.000    0.000    0.000    0.000    0.000    0.000 
#
# Total GULP energy -133851.197118 kJ/mol
# GULP energy per Si atom -5577.133213 kJ/mol
# Density = 2.219890 g / cm^3
# Si number density = 22.249537 Si / 1000 Ang^3
#
#
#
# Elastic Constant Matrix: (Units=GPa)
#
#
# Indices 1 2 3 4 5 6 
#
# 1 53.3490 17.2929 21.6485 0.0000 -21.3244 0.0000
# 2 17.2929 105.0429 27.9569 0.0000 -8.6027 0.0000
# 3 21.6485 27.9569 112.7565 0.0000 -21.1937 0.0000
# 4 0.0000 0.0000 0.0000 -24.9198 0.0000 83.9375
# 5 -21.3244 -8.6027 -21.1937 0.0000 30.0806 0.0000
# 6 0.0000 0.0000 0.0000 83.9375 0.0000 -213.8878
#
#
#
# Elastic Compliance Matrix: (Units=1/GPa)
#
#
# Indices 1 2 3 4 5 6 
#
# 1 0.027161 -0.002700 -0.001235 0.000000 0.017612 0.000000
# 2 -0.002700 0.010506 -0.002169 0.000000 -0.000438 0.000000
# 3 -0.001235 -0.002169 0.010791 0.000000 0.006108 0.000000
# 4 0.000000 0.000000 0.000000 0.124682 0.000000 0.048930
# 5 0.017612 -0.000438 0.006108 0.000000 0.049908 0.000000
# 6 0.000000 0.000000 0.000000 0.048930 0.000000 0.014527
#
#
# Mechanical properties :
#
#
# Convention : Reuss Voigt Hill
#
# Bulk Modulus (GPa) = 27.58587 44.99392 36.28990
# Shear Modulus (GPa) = 19.09377 -28.12873 -4.51748
#
# Velocity S-wave (km/s) = 2.93262 -3.55947 -1.42646
# Velocity P-wave (km/s) = 4.88798 1.83663 3.69226
#
# Compressibility (1/GPa) = 0.03625044
#
# Stress axis : x y z
#
# Youngs Moduli (GPa) = 36.81784 95.18544 92.66609
#
# Poissons Ratio (x) = 0.25704 0.11442
# Poissons Ratio (y) = 0.09942 0.20096
# Poissons Ratio (z) = 0.04546 0.20642
#
# Static dielectric constant tensor:
#      x y z
#    x 1.847130 0.000000 0.038420 
#    y 0.000000 1.824060 0.000000 
#    z 0.038420 0.000000 1.908790 
# 
# From -- ./inp_files/20941.got.cif
#   From: 2010.05.17/outbox.cif.g08.bks.cpg/sg12_11_cif.got.tgz:20941.got - 2010.06.03 13:09:07.
