data_PCOD9201839
_publ_section_title
;
Structure prediction by ZEFSAII (Michael W. Deem and Ramdas Pophale) SiO2 
 PCOD9201839
Probable space group: C 2/M
;
_chemical_formula_sum "Si O2"
_cell_formula_units_Z 56
_cell_length_a 8.612390
_cell_length_b 27.813952
_cell_length_c 11.688880
_cell_angle_alpha 90.000000
_cell_angle_beta 110.788684
_cell_angle_gamma 90.000000
_cell_volume 2617.715799
_symmetry_space_group_name_H-M "C 2/M"
_symmetry_group_IT_number 12
_symmetry_cell_setting 'monoclinic'
loop_
_space_group_symop_operation_xyz
x,y,z
-x,y,-z
-x,-y,-z
x,-y,z
1/2+x,1/2+y,z
1/2-x,1/2+y,-z
1/2-x,1/2-y,-z
1/2+x,1/2-y,z
loop_
_atom_site_type_symbol
_atom_site_label
_atom_site_fract_x
_atom_site_fract_y
_atom_site_fract_z
Si Si1 0.140936 0.945133 0.459318
Si Si2 0.194664 0.196673 0.017313
Si Si3 0.694039 0.803150 0.516325
Si Si4 0.187092 0.605466 0.095926
Si Si5 0.247220 0.358803 0.754752
Si Si6 0.623043 0.885561 0.345837
Si Si7 0.023057 0.054628 0.166810
O O1 0.308957 0.920200 0.538064
O O2 0.000000 0.921067 0.500000
O O3 0.076936 0.944582 0.314274
O O4 0.159063 0.000000 0.500983
O O5 0.284680 0.180978 0.157491
O O6 0.250000 0.250000 0.000000
O O7 0.247354 0.156930 0.936108
O O8 0.000000 0.196025 0.000000
O O9 0.500000 0.802081 0.500000
O O10 0.750000 0.750000 0.500000
O O11 0.787052 0.831294 0.645646
O O12 0.698737 0.834645 0.403089
O O13 0.175522 0.603538 0.230454
O O14 0.329079 0.566813 0.099488
O O15 0.000000 0.597343 0.000000
O O16 0.374319 0.397752 0.842689
O O17 0.074171 0.385770 0.695444
O O18 0.061580 0.000000 0.136639
#
# Coordination Sequence:
#
# PCOD9201839 Si02
#       7
#     8   8   8   8   8   8   8
#     4  10  20  37  65 101 133 171 222 278 343 405
#     4  12  27  45  71 100 136 186 237 282 344 416
#     4  10  24  40  62  95 133 175 221 279 352 407
#     4  12  25  45  69 100 140 181 234 287 342 417
#     4  11  24  45  66  99 141 178 232 294 340 423
#     4  11  23  41  67  98 140 173 227 284 347 405
#     4  11  24  44  71 102 137 183 232 291 357 417
#
# _framework density 21.392696999999998
#
# number of rings (size 3 to 8) (size 9 to 14) (size 15 to 20)
#    0.000    1.000    5.714    0.429    2.000    3.714 
#    0.000    2.857    0.000    0.000    0.000    0.000 
#    0.000    0.000    0.000    0.000    0.000    0.000 
#
# Total GULP energy -156242.958999 kJ/mol
# GULP energy per Si atom -5580.105679 kJ/mol
# Density = 2.134401 g / cm^3
# Si number density = 21.392697 Si / 1000 Ang^3
#
#
#
# Elastic Constant Matrix: (Units=GPa)
#
#
# Indices 1 2 3 4 5 6 
#
# 1 73.9936 35.4683 27.7072 0.0000 27.0110 0.0000
# 2 35.4683 117.4495 27.1062 0.0000 17.7232 0.0000
# 3 27.7072 27.1062 99.5842 0.0000 2.5668 0.0000
# 4 0.0000 0.0000 0.0000 8.8833 0.0000 3.8181
# 5 27.0110 17.7232 2.5668 0.0000 39.1652 0.0000
# 6 0.0000 0.0000 0.0000 3.8181 0.0000 25.3364
#
#
#
# Elastic Compliance Matrix: (Units=1/GPa)
#
#
# Indices 1 2 3 4 5 6 
#
# 1 0.021761 -0.003493 -0.004766 0.000000 -0.013115 0.000000
# 2 -0.003493 0.010302 -0.001777 0.000000 -0.002137 0.000000
# 3 -0.004766 -0.001777 0.011766 0.000000 0.003320 0.000000
# 4 0.000000 0.000000 0.000000 0.120367 0.000000 -0.018139
# 5 -0.013115 -0.002137 0.003320 0.000000 0.035327 0.000000
# 6 0.000000 0.000000 0.000000 -0.018139 0.000000 0.042202
#
#
# Mechanical properties :
#
#
# Convention : Reuss Voigt Hill
#
# Bulk Modulus (GPa) = 42.09247 52.39896 47.24571
# Shear Modulus (GPa) = 18.53808 28.06003 23.29906
#
# Velocity S-wave (km/s) = 2.94693 3.62562 3.30375
# Velocity P-wave (km/s) = 5.59446 6.48644 6.05689
#
# Compressibility (1/GPa) = 0.02375722
#
# Stress axis : x y z
#
# Youngs Moduli (GPa) = 45.95380 97.07248 84.99126
#
# Poissons Ratio (x) = 0.33903 0.40505
# Poissons Ratio (y) = 0.16050 0.15105
# Poissons Ratio (z) = 0.21901 0.17252
#
# Static dielectric constant tensor:
#      x y z
#    x 1.912400 0.000000 0.018610 
#    y 0.000000 1.789290 0.000000 
#    z 0.018610 0.000000 1.809650 
# 
# From -- ./inp_files/124337.got.cif
#   From: 2010.05.17/outbox.cif.g08.bks.cpg/sg12_63_cif.got.tgz:124337.got - 2010.06.03 13:09:07.
