data_PCOD9201358
_publ_section_title
;
Structure prediction by ZEFSAII (Michael W. Deem and Ramdas Pophale) SiO2 
 PCOD9201358
Probable space group: C 2/M
;
_chemical_formula_sum "Si O2"
_cell_formula_units_Z 56
_cell_length_a 11.303285
_cell_length_b 15.525936
_cell_length_c 28.082137
_cell_angle_alpha 90.000000
_cell_angle_beta 33.085200
_cell_angle_gamma 90.000000
_cell_volume 2690.259811
_symmetry_space_group_name_H-M "C 2/M"
_symmetry_group_IT_number 12
_symmetry_cell_setting 'monoclinic'
loop_
_space_group_symop_operation_xyz
x,y,z
-x,y,-z
-x,-y,-z
x,-y,z
1/2+x,1/2+y,z
1/2-x,1/2+y,-z
1/2-x,1/2-y,-z
1/2+x,1/2-y,z
loop_
_atom_site_type_symbol
_atom_site_label
_atom_site_fract_x
_atom_site_fract_y
_atom_site_fract_z
Si Si1 0.957799 0.407402 0.271502
Si Si2 0.337192 0.103069 0.673336
Si Si3 0.324123 0.690369 0.098221
Si Si4 0.742822 0.670706 0.428224
Si Si5 0.936674 0.230751 0.167397
Si Si6 0.200758 0.090455 0.266669
Si Si7 0.725071 0.861015 0.412070
O O1 0.985088 0.500000 0.286934
O O2 0.885548 0.335529 0.332157
O O3 0.763276 0.412376 0.300465
O O4 0.165751 0.384278 0.170514
O O5 0.596213 0.120764 0.591162
O O6 0.200121 0.153784 0.760665
O O7 0.270998 0.148048 0.646306
O O8 0.294319 0.000000 0.686561
O O9 0.445185 0.716809 0.107050
O O10 0.156147 0.754108 0.125434
O O11 0.500000 0.664240 0.000000
O O12 0.500000 0.636448 0.500000
O O13 0.721705 0.772212 0.443497
O O14 0.804876 0.320878 0.214130
O O15 0.945944 0.093403 0.348943
O O16 0.283194 0.000000 0.216710
O O17 0.500000 0.905783 0.500000
#
# Coordination Sequence:
#
# PCOD9201358 Si02
#       7
#     8   8   8   8   8   8   8
#     4  10  21  38  60  89 125 163 210 271 328 387
#     4  12  25  41  65  95 130 177 222 271 332 393
#     4  11  23  40  67  95 125 171 219 270 338 406
#     4  11  24  39  63  89 127 172 219 267 322 385
#     4  11  22  43  66  93 132 167 217 276 332 402
#     4  10  20  37  62  86 118 168 216 262 325 391
#     4  11  24  39  59  88 130 171 223 277 328 386
#
# _framework density 20.815833999999999
#
# number of rings (size 3 to 8) (size 9 to 14) (size 15 to 20)
#    0.000    1.143    2.857    3.857    2.000    3.714 
#    0.000    0.000    0.000    3.429    0.000    0.000 
#    0.000    0.000    0.000    0.000    0.000    0.000 
#
# Total GULP energy -155930.416615 kJ/mol
# GULP energy per Si atom -5568.943451 kJ/mol
# Density = 2.076846 g / cm^3
# Si number density = 20.815834 Si / 1000 Ang^3
#
#
#
# Elastic Constant Matrix: (Units=GPa)
#
#
# Indices 1 2 3 4 5 6 
#
# 1 88.4719 -2.1244 21.7807 -0.0001 -4.6442 0.0037
# 2 -2.1244 85.0172 2.7523 0.0008 4.2090 0.0123
# 3 21.7807 2.7523 77.2946 -0.0024 2.7367 -0.1277
# 4 -0.0001 0.0008 -0.0024 -4.4383 -0.0012 13.9818
# 5 -4.6442 4.2090 2.7367 -0.0012 34.0274 -0.0388
# 6 0.0037 0.0123 -0.1277 13.9818 -0.0388 -126.7863
#
#
#
# Elastic Compliance Matrix: (Units=1/GPa)
#
#
# Indices 1 2 3 4 5 6 
#
# 1 0.012283 0.000326 -0.003541 0.000018 0.001921 0.000005
# 2 0.000326 0.011854 -0.000465 0.000014 -0.001384 0.000004
# 3 -0.003541 -0.000465 0.014007 -0.000077 -0.001552 -0.000022
# 4 0.000018 0.000014 -0.000077 -0.345260 -0.000048 -0.038075
# 5 0.001921 -0.001384 -0.001552 -0.000048 0.029946 -0.000013
# 6 0.000005 0.000004 -0.000022 -0.038075 -0.000013 -0.012086
#
#
# Mechanical properties :
#
#
# Convention : Reuss Voigt Hill
#
# Bulk Modulus (GPa) = 32.48316 32.84455 32.66386
# Shear Modulus (GPa) = -18.40712 -4.21444 -11.31078
#
# Velocity S-wave (km/s) = -2.97692 -1.42444 -2.33357
# Velocity P-wave (km/s) = 1.95521 3.62043 2.90950
#
# Compressibility (1/GPa) = 0.03078518
#
# Stress axis : x y z
#
# Youngs Moduli (GPa) = 81.41041 84.35917 71.39389
#
# Poissons Ratio (x) = -0.02754 0.25280
# Poissons Ratio (y) = -0.02658 0.03320
# Poissons Ratio (z) = 0.28827 0.03923
#
# Static dielectric constant tensor:
#      x y z
#    x 1.840990 0.000010 -0.010240 
#    y 0.000010 1.792640 0.000010 
#    z -0.010240 0.000010 1.716050 
# 
# From -- ./inp_files/374214.got.cif
#   From: 2010.05.17/outbox.cif.g08.bks.cpg/sg12_188_cif.got.tgz:374214.got - 2010.06.03 13:09:07.
