data_PCOD9201423
_publ_section_title
;
Structure prediction by ZEFSAII (Michael W. Deem and Ramdas Pophale) SiO2 
 PCOD9201423
Probable space group: C 2/M
;
_chemical_formula_sum "Si O2"
_cell_formula_units_Z 32
_cell_length_a 8.353708
_cell_length_b 25.409272
_cell_length_c 9.124330
_cell_angle_alpha 90.000000
_cell_angle_beta 131.690839
_cell_angle_gamma 90.000000
_cell_volume 1446.253925
_symmetry_space_group_name_H-M "C 2/M"
_symmetry_group_IT_number 12
_symmetry_cell_setting 'monoclinic'
loop_
_space_group_symop_operation_xyz
x,y,z
-x,y,-z
-x,-y,-z
x,-y,z
1/2+x,1/2+y,z
1/2-x,1/2+y,-z
1/2-x,1/2-y,-z
1/2+x,1/2-y,z
loop_
_atom_site_type_symbol
_atom_site_label
_atom_site_fract_x
_atom_site_fract_y
_atom_site_fract_z
Si Si1 0.676651 0.191477 0.917298
Si Si2 0.214159 0.102210 0.211581
Si Si3 0.175774 0.438673 0.409886
Si Si4 0.788143 0.847140 0.289217
O O1 0.745228 0.163566 0.808006
O O2 0.421542 0.184452 0.781747
O O3 0.750000 0.250000 0.000000
O O4 0.786290 0.157951 0.114164
O O5 0.216912 0.090139 0.385112
O O6 0.421963 0.071471 0.276132
O O7 0.000000 0.084751 0.000000
O O8 0.223267 0.500000 0.438279
O O9 0.250469 0.407273 0.313352
O O10 0.000000 0.827540 0.500000
#
# Coordination Sequence:
#
# PCOD9201423 Si02
#       4
#     8   8   8   8
#     4  10  23  41  60  87 123 159 203 250 294 353
#     4  10  20  37  62  88 123 156 201 249 290 358
#     4  10  22  40  61  91 124 155 199 250 299 357
#     4  10  22  43  61  90 122 157 204 247 296 366
#
# _framework density 22.126127
#
# number of rings (size 3 to 8) (size 9 to 14) (size 15 to 20)
#    0.000    2.000    0.000    3.000    3.500    3.500 
#    9.000   11.250    0.000    0.000    0.000    0.000 
#    0.000    0.000    0.000    0.000    0.000    0.000 
#
# Total GULP energy -89462.806659 kJ/mol
# GULP energy per Si atom -5591.425416 kJ/mol
# Density = 2.207577 g / cm^3
# Si number density = 22.126127 Si / 1000 Ang^3
#
#
#
# Elastic Constant Matrix: (Units=GPa)
#
#
# Indices 1 2 3 4 5 6 
#
# 1 48.4547 40.4509 43.8515 0.0000 7.1670 0.0000
# 2 40.4509 182.1268 56.3807 0.0000 -20.2625 0.0000
# 3 43.8515 56.3807 151.0768 0.0000 28.5831 0.0000
# 4 0.0000 0.0000 0.0000 19.4695 0.0000 -7.2177
# 5 7.1670 -20.2625 28.5831 0.0000 55.8676 0.0000
# 6 0.0000 0.0000 0.0000 -7.2177 0.0000 8.5718
#
#
#
# Elastic Compliance Matrix: (Units=1/GPa)
#
#
# Indices 1 2 3 4 5 6 
#
# 1 0.031397 -0.005168 -0.006718 0.000000 -0.002465 0.000000
# 2 -0.005168 0.007887 -0.002336 0.000000 0.004718 0.000000
# 3 -0.006718 -0.002336 0.010450 0.000000 -0.005332 0.000000
# 4 0.000000 0.000000 0.000000 0.074671 0.000000 0.062875
# 5 -0.002465 0.004718 -0.005332 0.000000 0.022655 0.000000
# 6 0.000000 0.000000 0.000000 0.062875 0.000000 0.169604
#
#
# Mechanical properties :
#
#
# Convention : Reuss Voigt Hill
#
# Bulk Modulus (GPa) = 46.97281 73.66940 60.32111
# Shear Modulus (GPa) = 14.19639 32.84680 23.52159
#
# Velocity S-wave (km/s) = 2.53575 3.85713 3.26401
# Velocity P-wave (km/s) = 5.46343 7.29412 6.44411
#
# Compressibility (1/GPa) = 0.02128891
#
# Stress axis : x y z
#
# Youngs Moduli (GPa) = 31.85068 126.79876 95.69710
#
# Poissons Ratio (x) = 0.65526 0.64292
# Poissons Ratio (y) = 0.16460 0.22354
# Poissons Ratio (z) = 0.21398 0.29619
#
# Static dielectric constant tensor:
#      x y z
#    x 1.904800 0.000000 -0.004280 
#    y 0.000000 1.799650 0.000000 
#    z -0.004280 0.000000 1.806510 
# 
# From -- ./inp_files/40693.got.cif
#   From: 2010.05.17/outbox.cif.g08.bks.cpg/sg12_21_cif.got.tgz:40693.got - 2010.06.03 13:09:07.
