data_PCOD9201044
_publ_section_title
;
Structure prediction by ZEFSAII (Michael W. Deem and Ramdas Pophale) SiO2 
 PCOD9201044
Probable space group: C 2/M
;
_chemical_formula_sum "Si O2"
_cell_formula_units_Z 48
_cell_length_a 19.717497
_cell_length_b 11.082427
_cell_length_c 10.937454
_cell_angle_alpha 90.000000
_cell_angle_beta 121.680786
_cell_angle_gamma 90.000000
_cell_volume 2033.883014
_symmetry_space_group_name_H-M "C 2/M"
_symmetry_group_IT_number 12
_symmetry_cell_setting 'monoclinic'
loop_
_space_group_symop_operation_xyz
x,y,z
-x,y,-z
-x,-y,-z
x,-y,z
1/2+x,1/2+y,z
1/2-x,1/2+y,-z
1/2-x,1/2-y,-z
1/2+x,1/2-y,z
loop_
_atom_site_type_symbol
_atom_site_label
_atom_site_fract_x
_atom_site_fract_y
_atom_site_fract_z
Si Si1 0.166309 0.000000 0.561316
Si Si2 0.831351 0.275729 0.339652
Si Si3 0.603558 0.500000 0.127218
Si Si4 0.837512 0.760284 0.914354
Si Si5 0.061926 0.638695 0.173446
Si Si6 0.002297 0.000000 0.737125
Si Si7 0.560326 0.760604 0.765944
Si Si8 0.227938 0.500000 0.568556
O O1 0.168101 0.866435 0.624862
O O2 0.079939 0.000000 0.415329
O O3 0.241819 0.000000 0.541014
O O4 0.755334 0.286852 0.176080
O O5 0.910126 0.306253 0.336298
O O6 0.815873 0.376584 0.429603
O O7 0.611009 0.380991 0.054654
O O8 0.531768 0.500000 0.155618
O O9 0.686801 0.500000 0.280667
O O10 0.857887 0.689958 0.808403
O O11 0.873983 0.700767 0.069684
O O12 0.069782 0.500000 0.210157
O O13 0.023793 0.702047 0.254326
O O14 0.000000 0.651503 0.000000
O O15 0.053022 0.116796 0.751432
#
# Coordination Sequence:
#
# PCOD9201044 Si02
#       8
#     4   8   4   8   8   4   8   4
#     4  11  25  46  71  90 125 170 226 269 312 380
#     4  11  24  41  65  96 126 166 212 274 326 371
#     4   9  17  34  61  87 116 162 210 262 298 373
#     4  10  20  37  60  93 128 166 210 252 319 389
#     4   9  19  34  54  83 124 170 206 242 302 384
#     4  11  22  40  66  92 126 167 218 261 318 372
#     4  11  22  36  62  94 131 163 201 266 325 384
#     4   9  22  44  66  86 117 164 223 265 313 373
#
# _framework density 23.600176999999999
#
# number of rings (size 3 to 8) (size 9 to 14) (size 15 to 20)
#    0.000    1.833    1.667    2.000    2.333    2.000 
#    0.000    1.667    0.000    1.000    0.000    0.000 
#    0.000    0.000    0.000    0.000    0.000    0.000 
#
# Total GULP energy -134061.725034 kJ/mol
# GULP energy per Si atom -5585.905210 kJ/mol
# Density = 2.354646 g / cm^3
# Si number density = 23.600177 Si / 1000 Ang^3
#
#
#
# Elastic Constant Matrix: (Units=GPa)
#
#
# Indices 1 2 3 4 5 6 
#
# 1 128.9955 24.4135 30.2050 0.0000 -36.3649 0.0000
# 2 24.4135 115.9198 8.7468 0.0000 -24.4321 0.0000
# 3 30.2050 8.7468 47.3875 0.0000 6.0356 0.0000
# 4 0.0000 0.0000 0.0000 -96.7538 0.0000 -334.6982
# 5 -36.3649 -24.4321 6.0356 0.0000 44.0729 0.0000
# 6 0.0000 0.0000 0.0000 -334.6982 0.0000 -921.7312
#
#
#
# Elastic Compliance Matrix: (Units=1/GPa)
#
#
# Indices 1 2 3 4 5 6 
#
# 1 0.013858 0.000682 -0.010649 0.000000 0.013271 0.000000
# 2 0.000682 0.010111 -0.003141 0.000000 0.006598 0.000000
# 3 -0.010649 -0.003141 0.030340 0.000000 -0.014683 0.000000
# 4 0.000000 0.000000 0.000000 0.040353 0.000000 -0.014653
# 5 0.013271 0.006598 -0.014683 0.000000 0.039308 0.000000
# 6 0.000000 0.000000 0.000000 -0.014653 0.000000 0.004236
#
#
# Mechanical properties :
#
#
# Convention : Reuss Voigt Hill
#
# Bulk Modulus (GPa) = 35.59733 46.55926 41.07830
# Shear Modulus (GPa) = 28.77109 -179.61993 -75.42442
#
# Velocity S-wave (km/s) = 3.49536 -8.73354 -5.65939
# Velocity P-wave (km/s) = 5.60413 9.05144 5.02605
#
# Compressibility (1/GPa) = 0.02809199
#
# Stress axis : x y z
#
# Youngs Moduli (GPa) = 72.16177 98.90561 32.95945
#
# Poissons Ratio (x) = -0.06745 0.35099
# Poissons Ratio (y) = -0.04921 0.10353
# Poissons Ratio (z) = 0.76846 0.31069
#
# Static dielectric constant tensor:
#      x y z
#    x 1.880070 0.000000 -0.024710 
#    y 0.000000 2.082300 0.000000 
#    z -0.024710 0.000000 1.980550 
# 
# From -- ./inp_files/154369.got.cif
#   From: 2010.05.17/outbox.cif.g08.bks.cpg/sg12_78_cif.got.tgz:154369.got - 2010.06.03 13:09:07.
