data_PCOD9201748
_publ_section_title
;
Structure prediction by ZEFSAII (Michael W. Deem and Ramdas Pophale) SiO2 
 PCOD9201748
Probable space group: C 2/M
;
_chemical_formula_sum "Si O2"
_cell_formula_units_Z 56
_cell_length_a 11.694573
_cell_length_b 26.374471
_cell_length_c 16.001312
_cell_angle_alpha 90.000000
_cell_angle_beta 38.242682
_cell_angle_gamma 90.000000
_cell_volume 3054.990807
_symmetry_space_group_name_H-M "C 2/M"
_symmetry_group_IT_number 12
_symmetry_cell_setting 'monoclinic'
loop_
_space_group_symop_operation_xyz
x,y,z
-x,y,-z
-x,-y,-z
x,-y,z
1/2+x,1/2+y,z
1/2-x,1/2+y,-z
1/2-x,1/2-y,-z
1/2+x,1/2-y,z
loop_
_atom_site_type_symbol
_atom_site_label
_atom_site_fract_x
_atom_site_fract_y
_atom_site_fract_z
Si Si1 0.689721 0.797177 0.591732
Si Si2 0.789626 0.059446 0.815773
Si Si3 0.041965 0.848798 0.671587
Si Si4 0.192194 0.345034 0.153855
Si Si5 0.202145 0.704761 0.776485
Si Si6 0.015599 0.396478 0.112901
Si Si7 0.944246 0.816702 0.146850
O O1 0.750000 0.750000 0.500000
O O2 0.471522 0.806509 0.727114
O O3 0.761820 0.793763 0.644805
O O4 0.784768 0.843181 0.488664
O O5 0.969398 0.094043 0.712923
O O6 0.667954 0.071546 0.802654
O O7 0.817825 0.000000 0.808413
O O8 0.667530 0.081256 0.962965
O O9 0.873995 0.814155 0.732227
O O10 0.082074 0.828503 0.741138
O O11 0.093557 0.391242 0.161700
O O12 0.316031 0.353652 0.164655
O O13 0.342659 0.323425 0.001712
O O14 0.120489 0.760081 0.839955
O O15 0.045361 0.661305 0.874019
#
# Coordination Sequence:
#
# PCOD9201748 Si02
#       7
#     8   8   8   8   8   8   8
#     4  11  21  37  55  81 122 166 197 236 287 353
#     4  10  20  37  64  90 111 146 198 252 305 349
#     4  11  22  38  60  85 123 158 201 242 289 352
#     4  10  23  36  52  80 119 153 198 238 289 340
#     4  10  22  34  55  83 121 160 199 237 289 350
#     4   9  18  34  56  84 115 142 187 249 295 338
#     4  11  22  38  56  82 122 165 198 239 285 353
#
# _framework density 18.330660999999999
#
# number of rings (size 3 to 8) (size 9 to 14) (size 15 to 20)
#    0.000    1.714    2.857    2.143    2.000    8.571 
#    0.000    0.000    0.000   21.429    0.000    1.000 
#    0.000    0.000    0.000    0.000    0.000    0.000 
#
# Total GULP energy -156200.943014 kJ/mol
# GULP energy per Si atom -5578.605108 kJ/mol
# Density = 1.828894 g / cm^3
# Si number density = 18.330661 Si / 1000 Ang^3
#
#
#
# Elastic Constant Matrix: (Units=GPa)
#
#
# Indices 1 2 3 4 5 6 
#
# 1 101.7147 28.0511 22.5455 0.0000 13.4851 0.0000
# 2 28.0511 106.4028 21.5135 0.0000 3.8419 0.0000
# 3 22.5455 21.5135 61.9050 0.0000 6.2851 0.0000
# 4 0.0000 0.0000 0.0000 9.5175 0.0000 2.1545
# 5 13.4851 3.8419 6.2851 0.0000 30.3826 0.0000
# 6 0.0000 0.0000 0.0000 2.1545 0.0000 13.5337
#
#
#
# Elastic Compliance Matrix: (Units=1/GPa)
#
#
# Indices 1 2 3 4 5 6 
#
# 1 0.011709 -0.002321 -0.003023 0.000000 -0.004278 0.000000
# 2 -0.002321 0.010578 -0.002860 0.000000 0.000284 0.000000
# 3 -0.003023 -0.002860 0.018464 0.000000 -0.002116 0.000000
# 4 0.000000 0.000000 0.000000 0.108998 0.000000 -0.017352
# 5 -0.004278 0.000284 -0.002116 0.000000 0.035214 0.000000
# 6 0.000000 0.000000 0.000000 -0.017352 0.000000 0.076652
#
#
# Mechanical properties :
#
#
# Convention : Reuss Voigt Hill
#
# Bulk Modulus (GPa) = 41.08084 46.02699 43.55391
# Shear Modulus (GPa) = 17.47415 23.88090 20.67752
#
# Velocity S-wave (km/s) = 3.09086 3.61333 3.36226
# Velocity P-wave (km/s) = 5.93275 6.52472 6.23577
#
# Compressibility (1/GPa) = 0.02434225
#
# Stress axis : x y z
#
# Youngs Moduli (GPa) = 85.40565 94.53496 54.16087
#
# Poissons Ratio (x) = 0.21942 0.16375
# Poissons Ratio (y) = 0.19823 0.15488
# Poissons Ratio (z) = 0.25821 0.27034
#
# Static dielectric constant tensor:
#      x y z
#    x 1.683470 0.000000 -0.004500 
#    y 0.000000 1.625640 0.000000 
#    z -0.004500 0.000000 1.647730 
# 
# From -- ./inp_files/209105.got.cif
#   From: 2010.05.17/outbox.cif.g08.bks.cpg/sg12_105_cif.got.tgz:209105.got - 2010.06.03 13:09:07.
