data_PCOD9201016
_publ_section_title
;
Structure prediction by ZEFSAII (Michael W. Deem and Ramdas Pophale) SiO2 
 PCOD9201016
Probable space group: C 2/M
;
_chemical_formula_sum "Si O2"
_cell_formula_units_Z 60
_cell_length_a 25.152913
_cell_length_b 15.522001
_cell_length_c 9.050670
_cell_angle_alpha 90.000000
_cell_angle_beta 64.886850
_cell_angle_gamma 90.000000
_cell_volume 3199.568934
_symmetry_space_group_name_H-M "C 2/M"
_symmetry_group_IT_number 12
_symmetry_cell_setting 'monoclinic'
loop_
_space_group_symop_operation_xyz
x,y,z
-x,y,-z
-x,-y,-z
x,-y,z
1/2+x,1/2+y,z
1/2-x,1/2+y,-z
1/2-x,1/2-y,-z
1/2+x,1/2-y,z
loop_
_atom_site_type_symbol
_atom_site_label
_atom_site_fract_x
_atom_site_fract_y
_atom_site_fract_z
Si Si1 0.885147 0.399835 0.508775
Si Si2 0.178780 0.902295 0.908971
Si Si3 0.892519 0.000000 0.447158
Si Si4 0.270784 0.219159 0.636257
Si Si5 0.563951 0.631340 0.860566
Si Si6 0.944518 0.724055 0.661359
Si Si7 0.972902 0.677456 0.177824
Si Si8 0.840523 0.142990 0.736148
O O1 0.872447 0.500000 0.540495
O O2 0.826698 0.343937 0.555361
O O3 0.918900 0.360170 0.610408
O O4 0.928940 0.381456 0.321377
O O5 0.220552 0.834050 0.779481
O O6 0.113147 0.885111 0.926600
O O7 0.194726 0.000000 0.845226
O O8 0.182068 0.894518 0.081963
O O9 0.917827 0.924710 0.302807
O O10 0.866171 0.925703 0.591404
O O11 0.250000 0.250000 0.500000
O O12 0.291889 0.299954 0.709493
O O13 0.559490 0.732462 0.823653
O O14 0.500000 0.607686 0.000000
O O15 0.893620 0.793600 0.719060
O O16 0.000000 0.756363 0.500000
O O17 0.971763 0.703012 0.786144
O O18 0.000000 0.636904 0.000000
#
# Coordination Sequence:
#
# PCOD9201016 Si02
#       8
#     8   8   4   8   8   8   8   8
#     4  10  21  39  61  90 118 155 213 257 312 373
#     4  12  24  42  62  91 127 162 210 266 324 374
#     4  12  21  36  59  90 126 160 209 262 309 376
#     4  11  24  43  68  87 117 171 214 263 321 388
#     4  11  23  40  61  90 130 170 210 256 321 385
#     4   9  19  37  58  84 119 165 198 242 305 380
#     4  10  20  37  60  89 126 164 203 250 314 374
#     4  11  23  40  60  90 125 163 210 260 320 388
#
# _framework density 18.752524999999999
#
# number of rings (size 3 to 8) (size 9 to 14) (size 15 to 20)
#    0.000    1.333    1.333    6.600    0.000    2.667 
#    1.200    1.667    0.000    0.000    0.000    0.000 
#    0.000    0.000    0.000    0.000    0.000    0.000 
#
# Total GULP energy -167064.229708 kJ/mol
# GULP energy per Si atom -5568.807657 kJ/mol
# Density = 1.870984 g / cm^3
# Si number density = 18.752525 Si / 1000 Ang^3
#
#
#
# Elastic Constant Matrix: (Units=GPa)
#
#
# Indices 1 2 3 4 5 6 
#
# 1 89.1821 17.6606 44.9465 0.0000 1.7760 0.0000
# 2 17.6606 82.3889 43.1912 0.0000 -1.6254 0.0000
# 3 44.9465 43.1912 128.1495 0.0000 6.4833 0.0000
# 4 0.0000 0.0000 0.0000-2400.0213 0.0000 -156.6450
# 5 1.7760 -1.6254 6.4833 0.0000 19.1613 0.0000
# 6 0.0000 0.0000 0.0000 -156.6450 0.0000 -4.9201
#
#
#
# Elastic Compliance Matrix: (Units=1/GPa)
#
#
# Indices 1 2 3 4 5 6 
#
# 1 0.013639 -0.000490 -0.004632 0.000000 0.000261 0.000000
# 2 -0.000490 0.014929 -0.005012 0.000000 0.003008 0.000000
# 3 -0.004632 -0.005012 0.011311 0.000000 -0.003823 0.000000
# 4 0.000000 0.000000 0.000000 0.000387 0.000000 -0.012306
# 5 0.000261 0.003008 -0.003823 0.000000 0.053713 0.000000
# 6 0.000000 0.000000 0.000000 -0.012306 0.000000 0.188544
#
#
# Mechanical properties :
#
#
# Convention : Reuss Voigt Hill
#
# Bulk Modulus (GPa) = 50.99154 56.81301 53.90228
# Shear Modulus (GPa) = 16.16406 -464.22790 -224.03192
#
# Velocity S-wave (km/s) = 2.93911 -15.75095 -10.94198
# Velocity P-wave (km/s) = 6.22645 17.33285 11.43807
#
# Compressibility (1/GPa) = 0.01961109
#
# Stress axis : x y z
#
# Youngs Moduli (GPa) = 73.31788 66.98165 88.41341
#
# Poissons Ratio (x) = 0.03285 0.40950
# Poissons Ratio (y) = 0.03596 0.44312
# Poissons Ratio (z) = 0.33959 0.33571
#
# Static dielectric constant tensor:
#      x y z
#    x 1.642210 0.000000 0.009020 
#    y 0.000000 1.634710 0.000000 
#    z 0.009020 0.000000 1.653010 
# 
# From -- ./inp_files/96825.got.cif
#   From: 2010.05.17/outbox.cif.g08.bks.cpg/sg12_49_cif.got.tgz:96825.got - 2010.06.03 13:09:07.
