data_PCOD9201083
_publ_section_title
;
Structure prediction by ZEFSAII (Michael W. Deem and Ramdas Pophale) SiO2 
 PCOD9201083
Probable space group: C 2/M
;
_chemical_formula_sum "Si O2"
_cell_formula_units_Z 48
_cell_length_a 15.793750
_cell_length_b 8.727933
_cell_length_c 30.438171
_cell_angle_alpha 90.000000
_cell_angle_beta 38.894180
_cell_angle_gamma 90.000000
_cell_volume 2634.478346
_symmetry_space_group_name_H-M "C 2/M"
_symmetry_group_IT_number 12
_symmetry_cell_setting 'monoclinic'
loop_
_space_group_symop_operation_xyz
x,y,z
-x,y,-z
-x,-y,-z
x,-y,z
1/2+x,1/2+y,z
1/2-x,1/2+y,-z
1/2-x,1/2-y,-z
1/2+x,1/2-y,z
loop_
_atom_site_type_symbol
_atom_site_label
_atom_site_fract_x
_atom_site_fract_y
_atom_site_fract_z
Si Si1 0.622944 0.316392 0.418043
Si Si2 0.834549 0.815687 0.170968
Si Si3 0.152524 0.815687 0.170975
Si Si4 0.408563 0.184035 0.666291
Si Si5 0.407441 0.684035 0.333716
Si Si6 0.133229 0.185657 0.077843
O O1 0.500000 0.276033 0.500000
O O2 0.632425 0.500000 0.411723
O O3 0.596016 0.249841 0.380600
O O4 0.762189 0.249841 0.380612
O O5 0.774761 0.749999 0.150154
O O6 0.728958 0.772726 0.252091
O O7 0.985463 0.765029 0.120923
O O8 0.834004 0.000000 0.168719
O O9 0.151734 0.765032 0.120934
O O10 0.014757 0.772722 0.252100
O O11 0.159812 0.000000 0.168728
O O12 0.530226 0.250001 0.646509
O O13 0.416685 0.000000 0.661710
O O14 0.401822 0.500000 0.338296
O O15 0.136691 0.000000 0.075535
O O16 0.250000 0.250000 0.000000
#
# Coordination Sequence:
#
# PCOD9201083 Si02
#       6
#     8   8   8   8   8   8
#     4  11  24  39  55  80 114 149 184 223 269 323
#     4   9  19  36  57  80 106 137 176 222 268 316
#     4   9  19  36  57  80 106 137 176 222 268 316
#     4  10  20  37  61  85 109 141 182 228 276 324
#     4  10  20  37  61  85 109 141 182 228 276 324
#     4  10  21  36  52  75 109 144 177 215 263 317
#
# _framework density 18.219926000000001
#
# number of rings (size 3 to 8) (size 9 to 14) (size 15 to 20)
#    0.000    2.167    0.000    2.500    0.000    8.000 
#    0.000    5.000    0.000    0.000    0.000    0.000 
#    0.000    0.000    0.000    0.000    0.000    0.000 
#
# Total GULP energy -134037.517624 kJ/mol
# GULP energy per Si atom -5584.896568 kJ/mol
# Density = 1.817846 g / cm^3
# Si number density = 18.219926 Si / 1000 Ang^3
#
#
#
# Elastic Constant Matrix: (Units=GPa)
#
#
# Indices 1 2 3 4 5 6 
#
# 1 217.7873 56.4895 141.1237 0.0001 5.0491 -0.0003
# 2 56.4895 34.0322 46.5260 0.0003 0.4860 -0.0001
# 3 141.1237 46.5260 129.2876 -0.0001 -0.6696 0.0005
# 4 0.0001 0.0003 -0.0001 30.2780 -0.0005 0.3829
# 5 5.0491 0.4860 -0.6696 -0.0005 -11.4679 -0.0002
# 6 -0.0003 -0.0001 0.0005 0.3829 -0.0002 37.7428
#
#
#
# Elastic Compliance Matrix: (Units=1/GPa)
#
#
# Indices 1 2 3 4 5 6 
#
# 1 0.015497 -0.005427 -0.014924 0.000000 0.007464 0.000000
# 2 -0.005427 0.059586 -0.015514 -0.000001 0.001042 0.000000
# 3 -0.014924 -0.015514 0.029561 0.000000 -0.008954 -0.000001
# 4 0.000000 -0.000001 0.000000 0.033032 -0.000001 -0.000335
# 5 0.007464 0.001042 -0.008954 -0.000001 -0.083347 0.000000
# 6 0.000000 0.000000 -0.000001 -0.000335 0.000000 0.026499
#
#
# Mechanical properties :
#
#
# Convention : Reuss Voigt Hill
#
# Bulk Modulus (GPa) = 30.38128 96.59837 63.48983
# Shear Modulus (GPa) = 30.57593 20.44179 25.50886
#
# Velocity S-wave (km/s) = 4.10098 3.35318 3.74579
# Velocity P-wave (km/s) = 6.25580 8.25378 7.32324
#
# Compressibility (1/GPa) = 0.03291500
#
# Stress axis : x y z
#
# Youngs Moduli (GPa) = 64.53061 16.78246 33.82807
#
# Poissons Ratio (x) = 0.09107 0.50484
# Poissons Ratio (y) = 0.35018 0.52481
# Poissons Ratio (z) = 0.96304 0.26037
#
# Static dielectric constant tensor:
#      x y z
#    x 1.595580 0.000000 -0.000560 
#    y 0.000000 1.616550 0.000000 
#    z -0.000560 0.000000 1.606470 
# 
# From -- ./inp_files/308588.got.cif
#   From: 2010.05.17/outbox.cif.g08.bks.cpg/sg12_155_cif.got.tgz:308588.got - 2010.06.03 13:09:07.
