data_PCOD9201648
_publ_section_title
;
Structure prediction by ZEFSAII (Michael W. Deem and Ramdas Pophale) SiO2 
 PCOD9201648
Probable space group: C 2/M
;
_chemical_formula_sum "Si O2"
_cell_formula_units_Z 64
_cell_length_a 14.268378
_cell_length_b 9.676694
_cell_length_c 22.465292
_cell_angle_alpha 90.000000
_cell_angle_beta 103.468862
_cell_angle_gamma 90.000000
_cell_volume 3016.489332
_symmetry_space_group_name_H-M "C 2/M"
_symmetry_group_IT_number 12
_symmetry_cell_setting 'monoclinic'
loop_
_space_group_symop_operation_xyz
x,y,z
-x,y,-z
-x,-y,-z
x,-y,z
1/2+x,1/2+y,z
1/2-x,1/2+y,-z
1/2-x,1/2-y,-z
1/2+x,1/2-y,z
loop_
_atom_site_type_symbol
_atom_site_label
_atom_site_fract_x
_atom_site_fract_y
_atom_site_fract_z
Si Si1 0.496542 0.662956 0.928275
Si Si2 0.688553 0.664834 0.392242
Si Si3 0.060361 0.340829 0.452154
Si Si4 0.314527 0.158302 0.054902
Si Si5 0.405857 0.663845 0.746521
Si Si6 0.380180 0.343601 0.236159
Si Si7 0.871662 0.656416 0.348951
Si Si8 0.298188 0.262156 0.850389
O O1 0.492203 0.500000 0.905278
O O2 0.589391 0.750464 0.922661
O O3 0.402152 0.751794 0.897148
O O4 0.500000 0.652574 0.000000
O O5 0.674336 0.500000 0.398240
O O6 0.646671 0.747847 0.441406
O O7 0.633513 0.712036 0.323276
O O8 0.799883 0.690623 0.392585
O O9 0.090305 0.500000 0.468547
O O10 0.980128 0.341475 0.388277
O O11 0.000000 0.290050 0.500000
O O12 0.257412 0.147016 0.108785
O O13 0.331534 0.000000 0.035913
O O14 0.250000 0.250000 0.000000
O O15 0.407091 0.500000 0.742443
O O16 0.516689 0.708678 0.774103
O O17 0.335482 0.694649 0.790669
O O18 0.395308 0.500000 0.258073
O O19 0.359560 0.253945 0.291245
O O20 0.288858 0.341127 0.178770
O O21 0.845800 0.500000 0.326907
#
# Coordination Sequence:
#
# PCOD9201648 Si02
#       8
#     8   8   8   8   8   8   8   8
#     4  11  24  46  72  96 127 171 217 264 326 390
#     4  10  20  37  63  91 122 165 213 260 312 377
#     4  10  22  40  62  91 129 171 215 267 320 372
#     4  12  26  45  71  99 131 171 219 271 327 388
#     4  10  20  38  63  91 125 165 207 256 316 382
#     4  11  24  41  65  97 129 162 210 269 318 376
#     4  10  21  39  63  91 128 172 212 257 321 389
#     4  12  24  42  67  94 127 170 212 259 323 397
#
# _framework density 21.216716999999999
#
# number of rings (size 3 to 8) (size 9 to 14) (size 15 to 20)
#    0.000    1.250    3.750    2.250    0.000    5.000 
#    0.000    0.625    0.000    0.000    0.000    0.000 
#    0.000    0.000    0.000    0.000    0.000    0.000 
#
# Total GULP energy -178372.077163 kJ/mol
# GULP energy per Si atom -5574.127411 kJ/mol
# Density = 2.116843 g / cm^3
# Si number density = 21.216717 Si / 1000 Ang^3
#
#
#
# Elastic Constant Matrix: (Units=GPa)
#
#
# Indices 1 2 3 4 5 6 
#
# 1 136.7001 39.1010 15.4502 0.0000 -17.7087 0.0000
# 2 39.1010 72.3848 27.3476 0.0000 -21.6082 0.0000
# 3 15.4502 27.3476 67.3280 0.0000 -21.9258 0.0000
# 4 0.0000 0.0000 0.0000 45.4299 0.0000 -28.4951
# 5 -17.7087 -21.6082 -21.9258 0.0000 48.2851 0.0000
# 6 0.0000 0.0000 0.0000 -28.4951 0.0000 39.5403
#
#
#
# Elastic Compliance Matrix: (Units=1/GPa)
#
#
# Indices 1 2 3 4 5 6 
#
# 1 0.008720 -0.004396 0.000217 0.000000 0.001330 0.000000
# 2 -0.004396 0.019651 -0.005439 0.000000 0.004712 0.000000
# 3 0.000217 -0.005439 0.019064 0.000000 0.006303 0.000000
# 4 0.000000 0.000000 0.000000 0.040169 0.000000 0.028949
# 5 0.001330 0.004712 0.006303 0.000000 0.026169 0.000000
# 6 0.000000 0.000000 0.000000 0.028949 0.000000 0.046153
#
#
# Mechanical properties :
#
#
# Convention : Reuss Voigt Hill
#
# Bulk Modulus (GPa) = 35.45861 48.91227 42.18544
# Shear Modulus (GPa) = 26.51657 39.61866 33.06762
#
# Velocity S-wave (km/s) = 3.53908 4.32595 3.95215
# Velocity P-wave (km/s) = 5.78351 6.93221 6.38375
#
# Compressibility (1/GPa) = 0.02820190
#
# Stress axis : x y z
#
# Youngs Moduli (GPa) = 114.67480 50.88800 52.45369
#
# Poissons Ratio (x) = 0.22369 -0.01140
# Poissons Ratio (y) = 0.50408 0.28528
# Poissons Ratio (z) = -0.02493 0.27676
#
# Static dielectric constant tensor:
#      x y z
#    x 1.813180 0.000000 0.023020 
#    y 0.000000 1.743440 0.000000 
#    z 0.023020 0.000000 1.809190 
# 
# From -- ./inp_files/338704.got.cif
#   From: 2010.05.17/outbox.cif.g08.bks.cpg/sg12_170_cif.got.tgz:338704.got - 2010.06.03 13:09:07.
