data_PCOD9201225
_publ_section_title
;
Structure prediction by ZEFSAII (Michael W. Deem and Ramdas Pophale) SiO2 
 PCOD9201225
Probable space group: C 2/M
;
_chemical_formula_sum "Si O2"
_cell_formula_units_Z 64
_cell_length_a 30.563142
_cell_length_b 8.734456
_cell_length_c 23.141747
_cell_angle_alpha 90.000000
_cell_angle_beta 32.015692
_cell_angle_gamma 90.000000
_cell_volume 3275.140992
_symmetry_space_group_name_H-M "C 2/M"
_symmetry_group_IT_number 12
_symmetry_cell_setting 'monoclinic'
loop_
_space_group_symop_operation_xyz
x,y,z
-x,y,-z
-x,-y,-z
x,-y,z
1/2+x,1/2+y,z
1/2-x,1/2+y,-z
1/2-x,1/2-y,-z
1/2+x,1/2-y,z
loop_
_atom_site_type_symbol
_atom_site_label
_atom_site_fract_x
_atom_site_fract_y
_atom_site_fract_z
Si Si1 0.555592 0.816512 0.303158
Si Si2 0.490443 0.313813 0.131907
Si Si3 0.075595 0.326570 0.461106
Si Si4 0.153853 0.184706 0.886779
Si Si5 0.197457 0.816554 0.505379
Si Si6 0.813310 0.185174 0.281753
Si Si7 0.812519 0.819406 0.756741
Si Si8 0.506645 0.315586 0.740231
O O1 0.469870 0.766875 0.430922
O O2 0.631165 0.750966 0.255646
O O3 0.551130 0.759574 0.243001
O O4 0.557600 0.000000 0.304666
O O5 0.488567 0.500000 0.132782
O O6 0.398633 0.265449 0.217149
O O7 0.511092 0.268262 0.174174
O O8 0.562225 0.265256 0.007774
O O9 0.107934 0.500000 0.433860
O O10 0.142791 0.225567 0.353803
O O11 0.000000 0.336934 0.500000
O O12 0.177817 0.230475 0.794950
O O13 0.221881 0.248696 0.854286
O O14 0.155802 0.000000 0.886430
O O15 0.250000 0.750000 0.500000
O O16 0.237097 0.754463 0.401942
O O17 0.101811 0.773569 0.620398
O O18 0.202672 0.000000 0.501176
O O19 0.807841 0.000000 0.290835
O O20 0.809732 0.000000 0.766133
O O21 0.499754 0.500000 0.744134
#
# Coordination Sequence:
#
# PCOD9201225 Si02
#       8
#     8   8   8   8   8   8   8   8
#     4  10  21  37  58  83 113 149 195 239 284 345
#     4   9  18  38  62  85 113 150 196 244 286 336
#     4   8  16  32  52  75 105 142 183 229 276 330
#     4  10  21  37  62  87 112 151 199 244 287 337
#     4  11  22  37  58  87 123 158 191 236 289 346
#     4  10  20  37  61  89 118 152 194 238 289 348
#     4  11  22  36  55  81 117 152 189 238 293 344
#     4  10  21  37  58  85 119 154 193 237 288 344
#
# _framework density 19.541143999999999
#
# number of rings (size 3 to 8) (size 9 to 14) (size 15 to 20)
#    0.000    2.125    1.250    3.000    1.750    5.750 
#    0.000    1.875    0.000    1.500    0.000    0.000 
#    0.000    0.000    0.000    0.000    0.000    0.000 
#
# Total GULP energy -178699.531240 kJ/mol
# GULP energy per Si atom -5584.360351 kJ/mol
# Density = 1.949667 g / cm^3
# Si number density = 19.541144 Si / 1000 Ang^3
#
#
#
# Elastic Constant Matrix: (Units=GPa)
#
#
# Indices 1 2 3 4 5 6 
#
# 1 89.0627 13.8123 11.6604 0.0098 14.8374 -0.0009
# 2 13.8123 20.6249 13.4416 0.0206 5.3784 -0.0061
# 3 11.6604 13.4416 67.1197 0.0278 14.9148 -0.0029
# 4 0.0098 0.0206 0.0278 14.9734 -0.0077 -4.3743
# 5 14.8374 5.3784 14.9148 -0.0077 24.9764 0.0006
# 6 -0.0009 -0.0061 -0.0029 -4.3743 0.0006 22.3549
#
#
#
# Elastic Compliance Matrix: (Units=1/GPa)
#
#
# Indices 1 2 3 4 5 6 
#
# 1 0.013457 -0.007711 0.000708 -0.000004 -0.006756 -0.000002
# 2 -0.007711 0.061015 -0.010351 -0.000060 -0.002377 0.000003
# 3 0.000708 -0.010351 0.018963 -0.000028 -0.009515 -0.000005
# 4 -0.000004 -0.000060 -0.000028 0.070834 0.000053 0.013861
# 5 -0.006756 -0.002377 -0.009515 0.000053 0.050245 0.000007
# 6 -0.000002 0.000003 -0.000005 0.013861 0.000007 0.047445
#
#
# Mechanical properties :
#
#
# Convention : Reuss Voigt Hill
#
# Bulk Modulus (GPa) = 17.02833 28.29287 22.66060
# Shear Modulus (GPa) = 15.81053 21.65381 18.73217
#
# Velocity S-wave (km/s) = 2.84753 3.33245 3.09949
# Velocity P-wave (km/s) = 4.42089 5.41452 4.94273
#
# Compressibility (1/GPa) = 0.05872568
#
# Stress axis : x y z
#
# Youngs Moduli (GPa) = 74.31158 16.38936 52.73369
#
# Poissons Ratio (x) = 0.12638 -0.03733
# Poissons Ratio (y) = 0.57304 0.54586
# Poissons Ratio (z) = -0.05260 0.16965
#
# Static dielectric constant tensor:
#      x y z
#    x 1.689710 0.000000 0.006100 
#    y 0.000000 1.660570 0.000000 
#    z 0.006100 0.000000 1.688000 
# 
# From -- ./inp_files/353414.got.cif
#   From: 2010.05.17/outbox.cif.g08.bks.cpg/sg12_177_cif.got.tgz:353414.got - 2010.06.03 13:09:07.
