data_PCOD9201424
_publ_section_title
;
Structure prediction by ZEFSAII (Michael W. Deem and Ramdas Pophale) SiO2 
 PCOD9201424
Probable space group: C 2/M
;
_chemical_formula_sum "Si O2"
_cell_formula_units_Z 64
_cell_length_a 14.192315
_cell_length_b 24.704695
_cell_length_c 12.572474
_cell_angle_alpha 90.000000
_cell_angle_beta 138.621106
_cell_angle_gamma 90.000000
_cell_volume 2913.924329
_symmetry_space_group_name_H-M "C 2/M"
_symmetry_group_IT_number 12
_symmetry_cell_setting 'monoclinic'
loop_
_space_group_symop_operation_xyz
x,y,z
-x,y,-z
-x,-y,-z
x,-y,z
1/2+x,1/2+y,z
1/2-x,1/2+y,-z
1/2-x,1/2-y,-z
1/2+x,1/2-y,z
loop_
_atom_site_type_symbol
_atom_site_label
_atom_site_fract_x
_atom_site_fract_y
_atom_site_fract_z
Si Si1 0.841399 0.564986 0.857979
Si Si2 0.810289 0.632578 0.430979
Si Si3 0.805633 0.937550 0.478162
Si Si4 0.148429 0.209443 0.674829
Si Si5 0.115312 0.668399 0.721529
Si Si6 0.900458 0.938414 0.181938
Si Si7 0.131865 0.823099 0.898188
Si Si8 0.850583 0.759252 0.688466
O O1 0.852697 0.500000 0.851538
O O2 0.758766 0.586710 0.684260
O O3 0.750791 0.569178 0.888704
O O4 0.000000 0.587715 0.000000
O O5 0.746867 0.589294 0.457259
O O6 0.847202 0.623546 0.337749
O O7 0.699877 0.680958 0.322925
O O8 0.953171 0.653919 0.611759
O O9 0.976512 0.936204 0.624472
O O10 0.762967 0.000000 0.447884
O O11 0.111495 0.272273 0.666776
O O12 0.173107 0.182483 0.809259
O O13 0.288318 0.215445 0.718864
O O14 0.000000 0.186798 0.500000
O O15 0.231264 0.675772 0.910712
O O16 0.927679 0.884503 0.136589
O O17 0.907372 0.000000 0.141868
O O18 0.019473 0.772975 0.820805
O O19 0.750000 0.750000 0.500000
#
# Coordination Sequence:
#
# PCOD9201424 Si02
#       8
#     8   8   8   8   8   8   8   8
#     4   9  19  35  57  86 125 168 213 271 329 379
#     4  10  20  40  62  85 125 168 209 268 336 390
#     4  10  20  37  62  88 123 174 224 268 325 399
#     4  11  21  40  64  92 130 170 216 270 330 399
#     4  10  22  42  63  89 128 167 215 278 336 390
#     4  10  22  40  60  94 134 173 220 273 327 392
#     4  12  24  39  69  99 128 177 227 272 335 403
#     4  11  21  39  64  94 125 167 207 271 332 390
#
# _framework density 21.963508000000001
#
# number of rings (size 3 to 8) (size 9 to 14) (size 15 to 20)
#    0.000    1.625    5.000    0.750    1.750    5.500 
#    0.000    1.875    2.750    1.500    0.000    0.000 
#    0.000    0.000    0.000    0.000    0.000    0.000 
#
# Total GULP energy -178200.797181 kJ/mol
# GULP energy per Si atom -5568.774912 kJ/mol
# Density = 2.191352 g / cm^3
# Si number density = 21.963508 Si / 1000 Ang^3
#
#
#
# Elastic Constant Matrix: (Units=GPa)
#
#
# Indices 1 2 3 4 5 6 
#
# 1 71.1250 9.6716 28.5124 0.0000 14.3995 0.0000
# 2 9.6716 71.9932 6.5598 0.0000 4.6073 0.0000
# 3 28.5124 6.5598 139.4220 0.0000 7.6838 0.0000
# 4 0.0000 0.0000 0.0000 19.6396 0.0000 -1.4274
# 5 14.3995 4.6073 7.6838 0.0000 27.5242 0.0000
# 6 0.0000 0.0000 0.0000 -1.4274 0.0000 24.1858
#
#
#
# Elastic Compliance Matrix: (Units=1/GPa)
#
#
# Indices 1 2 3 4 5 6 
#
# 1 0.017048 -0.001517 -0.002983 0.000000 -0.007832 0.000000
# 2 -0.001517 0.014216 -0.000275 0.000000 -0.001509 0.000000
# 3 -0.002983 -0.000275 0.007827 0.000000 -0.000578 0.000000
# 4 0.000000 0.000000 0.000000 0.051137 0.000000 0.003018
# 5 -0.007832 -0.001509 -0.000578 0.000000 0.040843 0.000000
# 6 0.000000 0.000000 0.000000 0.003018 0.000000 0.041525
#
#
# Mechanical properties :
#
#
# Convention : Reuss Voigt Hill
#
# Bulk Modulus (GPa) = 33.85367 41.33644 37.59505
# Shear Modulus (GPa) = 26.04260 30.12303 28.08282
#
# Velocity S-wave (km/s) = 3.44717 3.70740 3.57965
# Velocity P-wave (km/s) = 5.59384 6.09818 5.85144
#
# Compressibility (1/GPa) = 0.02953889
#
# Stress axis : x y z
#
# Youngs Moduli (GPa) = 58.65946 70.34491 127.75644
#
# Poissons Ratio (x) = 0.10672 0.38113
# Poissons Ratio (y) = 0.08900 0.03519
# Poissons Ratio (z) = 0.17500 0.01937
#
# Static dielectric constant tensor:
#      x y z
#    x 1.976040 0.000000 0.023400 
#    y 0.000000 1.846530 0.000000 
#    z 0.023400 0.000000 1.827440 
# 
# From -- ./inp_files/149776.got.cif
#   From: 2010.05.17/outbox.cif.g08.bks.cpg/sg12_75_cif.got.tgz:149776.got - 2010.06.03 13:09:07.
