data_PCOD9201498
_publ_section_title
;
Structure prediction by ZEFSAII (Michael W. Deem and Ramdas Pophale) SiO2 
 PCOD9201498
Probable space group: C 2/M
;
_chemical_formula_sum "Si O2"
_cell_formula_units_Z 64
_cell_length_a 29.275433
_cell_length_b 8.658910
_cell_length_c 19.379183
_cell_angle_alpha 90.000000
_cell_angle_beta 138.807669
_cell_angle_gamma 90.000000
_cell_volume 3235.313133
_symmetry_space_group_name_H-M "C 2/M"
_symmetry_group_IT_number 12
_symmetry_cell_setting 'monoclinic'
loop_
_space_group_symop_operation_xyz
x,y,z
-x,y,-z
-x,-y,-z
x,-y,z
1/2+x,1/2+y,z
1/2-x,1/2+y,-z
1/2-x,1/2-y,-z
1/2+x,1/2-y,z
loop_
_atom_site_type_symbol
_atom_site_label
_atom_site_fract_x
_atom_site_fract_y
_atom_site_fract_z
Si Si1 0.642293 0.685017 0.604838
Si Si2 0.031775 0.185890 0.211357
Si Si3 0.122220 0.822258 0.966815
Si Si4 0.795285 0.315140 0.823852
Si Si5 0.949561 0.685112 0.614596
Si Si6 0.419340 0.817336 0.330888
Si Si7 0.182517 0.177746 0.888804
Si Si8 0.426857 0.186816 0.881732
O O1 0.642257 0.500000 0.598996
O O2 0.719784 0.739227 0.713770
O O3 0.615954 0.759349 0.504212
O O4 0.590190 0.734781 0.606891
O O5 0.049477 0.245141 0.307744
O O6 0.077546 0.248153 0.200655
O O7 0.030981 0.000000 0.211138
O O8 0.953682 0.242787 0.104319
O O9 0.183174 0.733785 0.074775
O O10 0.126227 0.000000 0.994287
O O11 0.129652 0.821177 0.893091
O O12 0.793472 0.500000 0.819035
O O13 0.860052 0.262747 0.850187
O O14 0.951488 0.500000 0.622077
O O15 0.016484 0.733507 0.644376
O O16 0.350375 0.776887 0.209206
O O17 0.425741 0.000000 0.349929
O O18 0.193199 0.000000 0.878904
O O19 0.250000 0.250000 0.000000
O O20 0.427374 0.000000 0.880134
O O21 0.500000 0.236576 0.000000
#
# Coordination Sequence:
#
# PCOD9201498 Si02
#       8
#     8   8   8   8   8   8   8   8
#     4  11  24  41  62  88 120 159 201 251 301 352
#     4  11  22  38  61  91 121 151 195 246 297 353
#     4  10  21  35  55  83 119 155 190 239 296 350
#     4  10  22  39  60  88 121 157 198 241 295 360
#     4  11  24  42  64  88 118 159 205 251 297 353
#     4  11  23  39  60  87 118 156 204 250 295 355
#     4  11  22  36  53  81 120 161 200 243 298 355
#     4  10  20  37  62  90 121 157 195 240 295 358
#
# _framework density 19.781701999999999
#
# number of rings (size 3 to 8) (size 9 to 14) (size 15 to 20)
#    0.000    1.375    2.500    3.000    0.000    8.250 
#    0.000    0.625    0.000    0.000    0.000    0.000 
#    0.000    0.000    0.000    0.000    0.000    0.000 
#
# Total GULP energy -178802.199596 kJ/mol
# GULP energy per Si atom -5587.568737 kJ/mol
# Density = 1.973668 g / cm^3
# Si number density = 19.781702 Si / 1000 Ang^3
#
#
#
# Elastic Constant Matrix: (Units=GPa)
#
#
# Indices 1 2 3 4 5 6 
#
# 1 83.6808 19.9458 36.2855 0.0000 -14.1082 0.0000
# 2 19.9458 23.6332 14.6799 0.0000 -2.1727 0.0000
# 3 36.2855 14.6799 126.5591 0.0000 -13.3258 0.0000
# 4 0.0000 0.0000 0.0000 30.4157 0.0000 -7.0394
# 5 -14.1082 -2.1727 -13.3258 0.0000 28.4022 0.0000
# 6 0.0000 0.0000 0.0000 -7.0394 0.0000 25.2237
#
#
#
# Elastic Compliance Matrix: (Units=1/GPa)
#
#
# Indices 1 2 3 4 5 6 
#
# 1 0.017124 -0.012109 -0.002848 0.000000 0.006244 0.000000
# 2 -0.012109 0.054192 -0.003167 0.000000 -0.003356 0.000000
# 3 -0.002848 -0.003167 0.009374 0.000000 0.002741 0.000000
# 4 0.000000 0.000000 0.000000 0.035148 0.000000 0.009809
# 5 0.006244 -0.003356 0.002741 0.000000 0.039339 0.000000
# 6 0.000000 0.000000 0.000000 0.009809 0.000000 0.042383
#
#
# Mechanical properties :
#
#
# Convention : Reuss Voigt Hill
#
# Bulk Modulus (GPa) = 22.50145 41.74394 32.12269
# Shear Modulus (GPa) = 20.11080 27.67247 23.89163
#
# Velocity S-wave (km/s) = 3.19193 3.74423 3.47906
# Velocity P-wave (km/s) = 4.99842 6.31193 5.69318
#
# Compressibility (1/GPa) = 0.04444158
#
# Stress axis : x y z
#
# Youngs Moduli (GPa) = 58.39790 18.45277 106.67930
#
# Poissons Ratio (x) = 0.22345 0.30377
# Poissons Ratio (y) = 0.70716 0.33789
# Poissons Ratio (z) = 0.16629 0.05845
#
# Static dielectric constant tensor:
#      x y z
#    x 1.732340 0.000000 0.012680 
#    y 0.000000 1.672200 0.000000 
#    z 0.012680 0.000000 1.693590 
# 
# From -- ./inp_files/295580.got.cif
#   From: 2010.05.17/outbox.cif.g08.bks.cpg/sg12_148_cif.got.tgz:295580.got - 2010.06.03 13:09:07.
