data_PCOD9201602
_publ_section_title
;
Structure prediction by ZEFSAII (Michael W. Deem and Ramdas Pophale) SiO2 
 PCOD9201602
Probable space group: C 2/M
;
_chemical_formula_sum "Si O2"
_cell_formula_units_Z 56
_cell_length_a 10.754716
_cell_length_b 28.889701
_cell_length_c 9.655127
_cell_angle_alpha 90.000000
_cell_angle_beta 110.715902
_cell_angle_gamma 90.000000
_cell_volume 2805.900243
_symmetry_space_group_name_H-M "C 2/M"
_symmetry_group_IT_number 12
_symmetry_cell_setting 'monoclinic'
loop_
_space_group_symop_operation_xyz
x,y,z
-x,y,-z
-x,-y,-z
x,-y,z
1/2+x,1/2+y,z
1/2-x,1/2+y,-z
1/2-x,1/2-y,-z
1/2+x,1/2-y,z
loop_
_atom_site_type_symbol
_atom_site_label
_atom_site_fract_x
_atom_site_fract_y
_atom_site_fract_z
Si Si1 0.632482 0.054159 0.971873
Si Si2 0.854746 0.140622 0.762250
Si Si3 0.570792 0.902691 0.660155
Si Si4 0.869499 0.123502 0.096812
Si Si5 0.098482 0.227807 0.417547
Si Si6 0.986522 0.313209 0.767492
Si Si7 0.791271 0.295916 0.934979
O O1 0.604241 0.063520 0.799301
O O2 0.653919 0.000000 0.006534
O O3 0.500000 0.069661 0.000000
O O4 0.758898 0.084325 0.066743
O O5 0.711152 0.120301 0.671571
O O6 0.875623 0.188827 0.690287
O O7 0.986663 0.109701 0.789726
O O8 0.863793 0.140899 0.933793
O O9 0.500000 0.924194 0.500000
O O10 0.476211 0.861246 0.681923
O O11 0.827849 0.170914 0.153407
O O12 0.250000 0.250000 0.500000
O O13 0.005295 0.270850 0.333676
O O14 0.000000 0.207636 0.500000
O O15 0.876406 0.293630 0.829781
O O16 0.113259 0.320774 0.915709
O O17 0.750000 0.250000 0.000000
#
# Coordination Sequence:
#
# PCOD9201602 Si02
#       7
#     8   8   8   8   8   8   8
#     4  10  21  41  70  99 124 156 201 259 320 384
#     4  10  21  39  57  84 118 160 203 257 311 362
#     4  11  22  41  62  89 125 164 203 256 314 384
#     4  10  20  37  63  86 121 150 198 265 314 368
#     4  12  26  38  52  77 120 173 221 259 302 371
#     4  11  22  35  54  78 111 157 210 254 302 365
#     4  11  21  33  56  82 111 157 205 259 310 355
#
# _framework density 19.957944000000001
#
# number of rings (size 3 to 8) (size 9 to 14) (size 15 to 20)
#    0.000    1.286    2.857    4.714    4.000    2.571 
#    2.571    5.714    0.000    0.000    0.000    2.000 
#    0.000    0.000    0.000    0.000    0.000    0.000 
#
# Total GULP energy -155932.302756 kJ/mol
# GULP energy per Si atom -5569.010813 kJ/mol
# Density = 1.991252 g / cm^3
# Si number density = 19.957944 Si / 1000 Ang^3
#
#
#
# Elastic Constant Matrix: (Units=GPa)
#
#
# Indices 1 2 3 4 5 6 
#
# 1 126.0582 39.4009 29.0670 0.0000 1.5066 0.0000
# 2 39.4009 55.7323 5.5517 0.0000 1.1547 0.0000
# 3 29.0670 5.5517 48.1085 0.0000 15.6838 0.0000
# 4 0.0000 0.0000 0.0000 14.0372 0.0000 -4.7916
# 5 1.5066 1.1547 15.6838 0.0000 19.4551 0.0000
# 6 0.0000 0.0000 0.0000 -4.7916 0.0000 22.2967
#
#
#
# Elastic Compliance Matrix: (Units=1/GPa)
#
#
# Indices 1 2 3 4 5 6 
#
# 1 0.012354 -0.008006 -0.008659 0.000000 0.006499 0.000000
# 2 -0.008006 0.023350 0.003245 0.000000 -0.003382 0.000000
# 3 -0.008659 0.003245 0.034574 0.000000 -0.027394 0.000000
# 4 0.000000 0.000000 0.000000 0.076879 0.000000 0.016521
# 5 0.006499 -0.003382 -0.027394 0.000000 0.073182 0.000000
# 6 0.000000 0.000000 0.000000 0.016521 0.000000 0.048400
#
#
# Mechanical properties :
#
#
# Convention : Reuss Voigt Hill
#
# Bulk Modulus (GPa) = 23.02114 41.99313 32.50714
# Shear Modulus (GPa) = 16.12597 21.54977 18.83787
#
# Velocity S-wave (km/s) = 2.84561 3.28953 3.07559
# Velocity P-wave (km/s) = 4.72827 5.95941 5.37918
#
# Compressibility (1/GPa) = 0.04343834
#
# Stress axis : x y z
#
# Youngs Moduli (GPa) = 80.94371 42.82695 28.92308
#
# Poissons Ratio (x) = 0.34288 0.25045
# Poissons Ratio (y) = 0.64805 -0.09386
# Poissons Ratio (z) = 0.70091 -0.13899
#
# Static dielectric constant tensor:
#      x y z
#    x 2.084800 0.000000 -0.117340 
#    y 0.000000 1.793780 0.000000 
#    z -0.117340 0.000000 1.812170 
# 
# From -- ./inp_files/53261.got.cif
#   From: 2010.05.17/outbox.cif.g08.bks.cpg/sg12_27_cif.got.tgz:53261.got - 2010.06.03 13:09:07.
