data_PCOD9201005
_publ_section_title
;
Structure prediction by ZEFSAII (Michael W. Deem and Ramdas Pophale) SiO2 
 PCOD9201005
Probable space group: C 2/M
;
_chemical_formula_sum "Si O2"
_cell_formula_units_Z 48
_cell_length_a 9.388076
_cell_length_b 18.757268
_cell_length_c 28.882275
_cell_angle_alpha 90.000000
_cell_angle_beta 149.437968
_cell_angle_gamma 90.000000
_cell_volume 2586.090378
_symmetry_space_group_name_H-M "C 2/M"
_symmetry_group_IT_number 12
_symmetry_cell_setting 'monoclinic'
loop_
_space_group_symop_operation_xyz
x,y,z
-x,y,-z
-x,-y,-z
x,-y,z
1/2+x,1/2+y,z
1/2-x,1/2+y,-z
1/2-x,1/2-y,-z
1/2+x,1/2-y,z
loop_
_atom_site_type_symbol
_atom_site_label
_atom_site_fract_x
_atom_site_fract_y
_atom_site_fract_z
Si Si1 0.700540 0.790570 0.248943
Si Si2 0.801579 0.710358 0.562262
Si Si3 0.660665 0.082917 0.690064
Si Si4 0.260019 0.082707 0.809675
Si Si5 0.131682 0.084293 0.985996
Si Si6 0.229135 0.168763 0.188909
O O1 0.737982 0.864958 0.233261
O O2 0.484137 0.799258 0.230268
O O3 0.598347 0.732604 0.182642
O O4 0.994057 0.759847 0.349696
O O5 0.500000 0.698980 0.500000
O O6 0.750000 0.750000 0.500000
O O7 0.961930 0.634926 0.604995
O O8 0.659226 0.111812 0.742242
O O9 0.976569 0.091550 0.759340
O O10 0.584563 0.000000 0.666090
O O11 0.281378 0.000000 0.800931
O O12 0.536966 0.097844 0.917326
O O13 0.982041 0.131278 0.905502
O O14 0.087723 0.000000 0.964012
O O15 0.000000 0.098592 0.000000
#
# Coordination Sequence:
#
# PCOD9201005 Si02
#       6
#     8   8   8   8   8   8
#     4  11  22  39  60  87 117 155 200 242 304 356
#     4  11  22  40  63  85 115 152 192 247 304 360
#     4  10  22  40  62  90 120 155 199 244 296 353
#     4  10  21  39  61  86 122 159 194 243 291 345
#     4  10  20  37  60  89 121 158 203 240 285 344
#     4  11  22  38  60  86 122 161 198 246 288 345
#
# _framework density 18.560835999999998
#
# number of rings (size 3 to 8) (size 9 to 14) (size 15 to 20)
#    0.000    1.500    1.667    5.500    0.000    2.333 
#    0.000    3.333    0.000    3.000    0.000    0.000 
#    0.000    0.000    0.000    0.000    0.000    0.000 
#
# Total GULP energy -134078.000354 kJ/mol
# GULP energy per Si atom -5586.583348 kJ/mol
# Density = 1.851859 g / cm^3
# Si number density = 18.560836 Si / 1000 Ang^3
#
#
#
# Elastic Constant Matrix: (Units=GPa)
#
#
# Indices 1 2 3 4 5 6 
#
# 1 81.2578 54.2538 40.9884 0.0007 -0.5552 -0.0002
# 2 54.2538 122.6673 71.4341 0.0000 -4.9802 0.0005
# 3 40.9884 71.4341 107.9680 0.0075 3.8068 -0.0014
# 4 0.0007 0.0000 0.0075 36.7258 0.0017 1.3004
# 5 -0.5552 -4.9802 3.8068 0.0017 33.9996 -0.0003
# 6 -0.0002 0.0005 -0.0014 1.3004 -0.0003 26.2272
#
#
#
# Elastic Compliance Matrix: (Units=1/GPa)
#
#
# Indices 1 2 3 4 5 6 
#
# 1 0.017883 -0.006473 -0.002493 0.000000 -0.000377 0.000000
# 2 -0.006473 0.015903 -0.008175 0.000002 0.003139 -0.000001
# 3 -0.002493 -0.008175 0.015723 -0.000003 -0.002999 0.000001
# 4 0.000000 0.000002 -0.000003 0.027277 -0.000001 -0.001352
# 5 -0.000377 0.003139 -0.002999 -0.000001 0.030201 0.000000
# 6 0.000000 -0.000001 0.000001 -0.001352 0.000000 0.038195
#
#
# Mechanical properties :
#
#
# Convention : Reuss Voigt Hill
#
# Bulk Modulus (GPa) = 65.67300 71.69395 68.68347
# Shear Modulus (GPa) = 27.09411 29.07166 28.08289
#
# Velocity S-wave (km/s) = 3.82481 3.96193 3.89397
# Velocity P-wave (km/s) = 7.41383 7.72266 7.56982
#
# Compressibility (1/GPa) = 0.01522696
#
# Stress axis : x y z
#
# Youngs Moduli (GPa) = 55.91778 62.88016 63.60030
#
# Poissons Ratio (x) = 0.40702 0.15857
# Poissons Ratio (y) = 0.36195 0.51995
# Poissons Ratio (z) = 0.13941 0.51406
#
# Static dielectric constant tensor:
#      x y z
#    x 1.626010 0.000000 0.005130 
#    y 0.000000 1.645800 0.000000 
#    z 0.005130 0.000000 1.624900 
# 
# From -- ./inp_files/197188.got.cif
#   From: 2010.05.17/outbox.cif.g08.bks.cpg/sg12_99_cif.got.tgz:197188.got - 2010.06.03 13:09:07.
