data_PCOD9201606
_publ_section_title
;
Structure prediction by ZEFSAII (Michael W. Deem and Ramdas Pophale) SiO2 
 PCOD9201606
Probable space group: C 2/M
;
_chemical_formula_sum "Si O2"
_cell_formula_units_Z 52
_cell_length_a 20.106951
_cell_length_b 23.614463
_cell_length_c 7.867222
_cell_angle_alpha 90.000000
_cell_angle_beta 35.404345
_cell_angle_gamma 90.000000
_cell_volume 2164.120565
_symmetry_space_group_name_H-M "C 2/M"
_symmetry_group_IT_number 12
_symmetry_cell_setting 'monoclinic'
loop_
_space_group_symop_operation_xyz
x,y,z
-x,y,-z
-x,-y,-z
x,-y,z
1/2+x,1/2+y,z
1/2-x,1/2+y,-z
1/2-x,1/2-y,-z
1/2+x,1/2-y,z
loop_
_atom_site_type_symbol
_atom_site_label
_atom_site_fract_x
_atom_site_fract_y
_atom_site_fract_z
Si Si1 0.562403 0.936242 0.040626
Si Si2 0.500000 0.377372 0.500000
Si Si3 0.636873 0.837949 0.104302
Si Si4 0.884952 0.133124 0.432183
Si Si5 0.226115 0.836292 0.851648
Si Si6 0.709934 0.562891 0.648086
Si Si7 0.444137 0.261104 0.949515
O O1 0.568118 0.894275 0.188234
O O2 0.690289 0.942626 0.699682
O O3 0.517177 0.000000 0.172468
O O4 0.500000 0.913830 0.000000
O O5 0.554800 0.406666 0.550265
O O6 0.609770 0.342375 0.205730
O O7 0.758669 0.846686 0.752458
O O8 0.673884 0.825381 0.221257
O O9 0.569974 0.785309 0.165602
O O10 0.880347 0.100471 0.265688
O O11 0.962676 0.189021 0.265206
O O12 0.182908 0.791885 0.797194
O O13 0.249075 0.897309 0.720421
O O14 0.675098 0.500000 0.773469
O O15 0.500000 0.231871 0.000000
#
# Coordination Sequence:
#
# PCOD9201606 Si02
#       7
#     8   4   8   8   8   8   8
#     4   9  19  39  63  86 114 149 194 245 293 349
#     4   8  18  34  57  72 114 162 185 234 294 328
#     4  10  21  36  60  84 118 155 195 233 297 352
#     4   9  19  38  56  83 116 154 197 241 284 346
#     4  10  20  38  55  84 118 155 194 242 285 345
#     4  10  20  37  63  87 116 153 192 241 295 342
#     4  11  20  35  57  81 117 157 196 237 288 338
#
# _framework density 24.028234000000001
#
# number of rings (size 3 to 8) (size 9 to 14) (size 15 to 20)
#    0.000    2.308    1.538    0.923    0.000    1.231 
#    2.769   10.000    0.000    2.769    0.000    0.000 
#    0.000    0.000    0.000    0.000    0.000    0.000 
#
# Total GULP energy -144879.159287 kJ/mol
# GULP energy per Si atom -5572.275357 kJ/mol
# Density = 2.397355 g / cm^3
# Si number density = 24.028234 Si / 1000 Ang^3
#
#
#
# Elastic Constant Matrix: (Units=GPa)
#
#
# Indices 1 2 3 4 5 6 
#
# 1 217.7238 79.5336 6.8931 0.0001 0.5648 -0.0005
# 2 79.5336 135.4676 12.8708 0.0000 0.6163 -0.0001
# 3 6.8931 12.8708 54.7416 0.0001 -9.9338 -0.0006
# 4 0.0001 0.0000 0.0001 7.3323 -0.0001 -6.4778
# 5 0.5648 0.6163 -9.9338 -0.0001 22.9578 0.0005
# 6 -0.0005 -0.0001 -0.0006 -6.4778 0.0005 -9.0526
#
#
#
# Elastic Compliance Matrix: (Units=1/GPa)
#
#
# Indices 1 2 3 4 5 6 
#
# 1 0.005847 -0.003439 0.000068 0.000000 -0.000022 0.000000
# 2 -0.003439 0.009597 -0.002013 0.000000 -0.001044 0.000000
# 3 0.000068 -0.002013 0.020339 -0.000001 0.008853 0.000000
# 4 0.000000 0.000000 -0.000001 0.083559 0.000001 -0.059793
# 5 -0.000022 -0.001044 0.008853 0.000001 0.047417 0.000001
# 6 0.000000 0.000000 0.000000 -0.059793 0.000001 -0.067680
#
#
# Mechanical properties :
#
#
# Convention : Reuss Voigt Hill
#
# Bulk Modulus (GPa) = 39.97509 67.39198 53.68354
# Shear Modulus (GPa) = 42.30634 24.82321 33.56478
#
# Velocity S-wave (km/s) = 4.20061 3.21765 3.74155
# Velocity P-wave (km/s) = 6.34032 6.47397 6.40749
#
# Compressibility (1/GPa) = 0.02501558
#
# Stress axis : x y z
#
# Youngs Moduli (GPa) = 171.02087 104.19844 49.16714
#
# Poissons Ratio (x) = 0.35837 -0.00336
# Poissons Ratio (y) = 0.58820 0.09896
# Poissons Ratio (z) = -0.01170 0.20973
#
# Static dielectric constant tensor:
#      x y z
#    x 2.063740 0.000000 0.017020 
#    y 0.000000 1.946530 0.000000 
#    z 0.017020 0.000000 2.031350 
# 
# From -- ./inp_files/90590.got.cif
#   From: 2010.05.17/outbox.cif.g08.bks.cpg/sg12_46_cif.got.tgz:90590.got - 2010.06.03 13:09:07.
