data_PCOD9201693
_publ_section_title
;
Structure prediction by ZEFSAII (Michael W. Deem and Ramdas Pophale) SiO2 
 PCOD9201693
Probable space group: C 2/M
;
_chemical_formula_sum "Si O2"
_cell_formula_units_Z 56
_cell_length_a 28.772927
_cell_length_b 8.087759
_cell_length_c 21.783486
_cell_angle_alpha 90.000000
_cell_angle_beta 148.875119
_cell_angle_gamma 90.000000
_cell_volume 2620.296636
_symmetry_space_group_name_H-M "C 2/M"
_symmetry_group_IT_number 12
_symmetry_cell_setting 'monoclinic'
loop_
_space_group_symop_operation_xyz
x,y,z
-x,y,-z
-x,-y,-z
x,-y,z
1/2+x,1/2+y,z
1/2-x,1/2+y,-z
1/2-x,1/2-y,-z
1/2+x,1/2-y,z
loop_
_atom_site_type_symbol
_atom_site_label
_atom_site_fract_x
_atom_site_fract_y
_atom_site_fract_z
Si Si1 0.217116 0.306375 0.730208
Si Si2 0.440209 0.694194 0.375429
Si Si3 0.002571 0.200271 0.693435
Si Si4 0.672655 0.190500 0.366543
Si Si5 0.580017 0.807403 0.045694
Si Si6 0.976906 0.809958 0.150071
Si Si7 0.311461 0.802982 0.436274
O O1 0.202450 0.500000 0.723461
O O2 0.163810 0.214230 0.723280
O O3 0.322655 0.276355 0.840264
O O4 0.171038 0.255706 0.614027
O O5 0.500000 0.764969 0.500000
O O6 0.462699 0.500000 0.397369
O O7 0.457607 0.761526 0.326503
O O8 0.046340 0.254373 0.807655
O O9 0.898624 0.255208 0.573713
O O10 0.005300 0.000000 0.698148
O O11 0.750000 0.250000 0.500000
O O12 0.585108 0.301519 0.270763
O O13 0.722494 0.211132 0.358116
O O14 0.648700 0.000000 0.350775
O O15 0.591285 0.000000 0.074013
O O16 0.500000 0.742096 0.000000
O O17 0.553082 0.788319 0.943832
O O18 0.946184 0.000000 0.108910
O O19 0.296678 0.000000 0.423375
#
# Coordination Sequence:
#
# PCOD9201693 Si02
#       7
#     8   8   8   8   8   8   8
#     4  11  24  40  62  93 126 163 209 262 315 370
#     4  10  20  37  63  93 126 167 210 256 311 373
#     4  10  21  37  59  89 124 162 202 248 308 373
#     4  12  23  35  54  84 121 159 202 248 304 371
#     4  11  25  45  68  92 120 163 213 261 311 374
#     4  11  23  40  62  89 124 163 204 257 314 372
#     4  11  22  35  56  87 123 161 201 251 310 370
#
# _framework density 21.371625000000002
#
# number of rings (size 3 to 8) (size 9 to 14) (size 15 to 20)
#    0.000    1.143    2.857    3.857    0.000    6.571 
#    0.000    0.714    0.000    0.000    0.000    0.000 
#    0.000    0.000    0.000    0.000    0.000    0.000 
#
# Total GULP energy -156371.203989 kJ/mol
# GULP energy per Si atom -5584.685857 kJ/mol
# Density = 2.132298 g / cm^3
# Si number density = 21.371625 Si / 1000 Ang^3
#
#
#
# Elastic Constant Matrix: (Units=GPa)
#
#
# Indices 1 2 3 4 5 6 
#
# 1 135.2831 4.7690 19.7060 0.0000 -15.6513 0.0000
# 2 4.7690 29.4976 -7.6402 0.0000 -6.6980 0.0000
# 3 19.7060 -7.6402 57.0222 0.0000 -13.4827 0.0000
# 4 0.0000 0.0000 0.0000 27.6386 0.0000 0.8611
# 5 -15.6513 -6.6980 -13.4827 0.0000 31.8509 0.0000
# 6 0.0000 0.0000 0.0000 0.8611 0.0000 19.9573
#
#
#
# Elastic Compliance Matrix: (Units=1/GPa)
#
#
# Indices 1 2 3 4 5 6 
#
# 1 0.008091 -0.001293 -0.002326 0.000000 0.002719 0.000000
# 2 -0.001293 0.038742 0.008238 0.000000 0.010999 0.000000
# 3 -0.002326 0.008238 0.021762 0.000000 0.009801 0.000000
# 4 0.000000 0.000000 0.000000 0.036230 0.000000 -0.001563
# 5 0.002719 0.010999 0.009801 0.000000 0.039194 0.000000
# 6 0.000000 0.000000 0.000000 -0.001563 0.000000 0.050175
#
#
# Mechanical properties :
#
#
# Convention : Reuss Voigt Hill
#
# Bulk Modulus (GPa) = 12.84814 28.38583 20.61698
# Shear Modulus (GPa) = 23.70787 29.55390 26.63089
#
# Velocity S-wave (km/s) = 3.33425 3.72271 3.53382
# Velocity P-wave (km/s) = 4.56594 5.63817 5.13015
#
# Compressibility (1/GPa) = 0.07783229
#
# Stress axis : x y z
#
# Youngs Moduli (GPa) = 123.59475 25.81210 45.95086
#
# Poissons Ratio (x) = 0.03338 0.10690
# Poissons Ratio (y) = 0.15984 -0.37856
# Poissons Ratio (z) = 0.28754 -0.21265
#
# Static dielectric constant tensor:
#      x y z
#    x 1.854660 0.000000 -0.057620 
#    y 0.000000 1.729860 0.000000 
#    z -0.057620 0.000000 1.778440 
# 
# From -- ./inp_files/329646.got.cif
#   From: 2010.05.17/outbox.cif.g08.bks.cpg/sg12_165_cif.got.tgz:329646.got - 2010.06.03 13:09:07.
