data_PCOD9201861
_publ_section_title
;
Structure prediction by ZEFSAII (Michael W. Deem and Ramdas Pophale) SiO2 
 PCOD9201861
Probable space group: C 2/M
;
_chemical_formula_sum "Si O2"
_cell_formula_units_Z 48
_cell_length_a 10.136792
_cell_length_b 26.922521
_cell_length_c 13.784344
_cell_angle_alpha 90.000000
_cell_angle_beta 36.715703
_cell_angle_gamma 90.000000
_cell_volume 2249.007308
_symmetry_space_group_name_H-M "C 2/M"
_symmetry_group_IT_number 12
_symmetry_cell_setting 'monoclinic'
loop_
_space_group_symop_operation_xyz
x,y,z
-x,y,-z
-x,-y,-z
x,-y,z
1/2+x,1/2+y,z
1/2-x,1/2+y,-z
1/2-x,1/2-y,-z
1/2+x,1/2-y,z
loop_
_atom_site_type_symbol
_atom_site_label
_atom_site_fract_x
_atom_site_fract_y
_atom_site_fract_z
Si Si1 0.573227 0.215891 0.344621
Si Si2 0.500000 0.913681 0.000000
Si Si3 0.935521 0.599822 0.433357
Si Si4 0.036479 0.141438 0.275320
Si Si5 0.627238 0.054802 0.720648
Si Si6 0.000000 0.861026 0.500000
Si Si7 0.505631 0.263081 0.179189
O O1 0.500000 0.226535 0.500000
O O2 0.534779 0.155710 0.362635
O O3 0.467694 0.234490 0.304583
O O4 0.820186 0.239371 0.205278
O O5 0.722915 0.881547 0.873720
O O6 0.506975 0.943275 0.894907
O O7 0.667550 0.603631 0.597951
O O8 0.003440 0.567309 0.300730
O O9 0.000000 0.579831 0.500000
O O10 0.997895 0.179258 0.212856
O O11 0.011031 0.168853 0.394524
O O12 0.795509 0.101055 0.625773
O O13 0.728292 0.000000 0.650719
O O14 0.750000 0.250000 0.000000
#
# Coordination Sequence:
#
# PCOD9201861 Si02
#       7
#     8   4   8   8   8   4   8
#     4  11  24  43  63  89 123 169 216 263 307 373
#     4  10  23  38  60  94 132 160 196 258 329 386
#     4  10  21  42  63  88 120 168 214 254 313 366
#     4  10  21  39  59  89 122 165 203 251 313 368
#     4  10  20  37  65  94 124 160 206 261 315 379
#     4   8  19  36  64  90 120 158 206 264 301 364
#     4  12  26  39  60  94 127 164 211 263 315 370
#
# _framework density 21.342749000000001
#
# number of rings (size 3 to 8) (size 9 to 14) (size 15 to 20)
#    0.000    1.667    3.333    1.500    5.833    1.667 
#    0.000    1.667    0.000    1.000    0.000    0.000 
#    0.000    0.000    0.000    0.000    0.000    0.000 
#
# Total GULP energy -133659.173488 kJ/mol
# GULP energy per Si atom -5569.132229 kJ/mol
# Density = 2.129417 g / cm^3
# Si number density = 21.342749 Si / 1000 Ang^3
#
#
#
# Elastic Constant Matrix: (Units=GPa)
#
#
# Indices 1 2 3 4 5 6 
#
# 1 117.4721 16.0262 35.6588 0.0000 13.8835 0.0000
# 2 16.0262 46.2915 19.7272 0.0000 8.7970 0.0000
# 3 35.6588 19.7272 96.1353 0.0000 6.2767 0.0000
# 4 0.0000 0.0000 0.0000 1.5943 0.0000 0.7489
# 5 13.8835 8.7970 6.2767 0.0000 45.0275 0.0000
# 6 0.0000 0.0000 0.0000 0.7489 0.0000 26.2881
#
#
#
# Elastic Compliance Matrix: (Units=1/GPa)
#
#
# Indices 1 2 3 4 5 6 
#
# 1 0.009986 -0.001648 -0.003215 0.000000 -0.002309 0.000000
# 2 -0.001648 0.024674 -0.004209 0.000000 -0.003726 0.000000
# 3 -0.003215 -0.004209 0.012453 0.000000 0.000078 0.000000
# 4 0.000000 0.000000 0.000000 0.635742 0.000000 -0.018111
# 5 -0.002309 -0.003726 0.000078 0.000000 0.023638 0.000000
# 6 0.000000 0.000000 0.000000 -0.018111 0.000000 0.038556
#
#
# Mechanical properties :
#
#
# Convention : Reuss Voigt Hill
#
# Bulk Modulus (GPa) = 34.51887 44.74703 39.63295
# Shear Modulus (GPa) = 6.46956 27.14775 16.80866
#
# Velocity S-wave (km/s) = 1.74294 3.57037 2.80939
# Velocity P-wave (km/s) = 4.50102 6.16507 5.39756
#
# Compressibility (1/GPa) = 0.02896966
#
# Stress axis : x y z
#
# Youngs Moduli (GPa) = 100.13624 40.52785 80.30103
#
# Poissons Ratio (x) = 0.06680 0.25818
# Poissons Ratio (y) = 0.16506 0.33795
# Poissons Ratio (z) = 0.32196 0.17056
#
# Static dielectric constant tensor:
#      x y z
#    x 2.141240 0.000000 -0.265870 
#    y 0.000000 1.759520 0.000000 
#    z -0.265870 0.000000 2.066890 
# 
# From -- ./inp_files/209329.got.cif
#   From: 2010.05.17/outbox.cif.g08.bks.cpg/sg12_105_cif.got.tgz:209329.got - 2010.06.03 13:09:07.
