data_PCOD9201628
_publ_section_title
;
Structure prediction by ZEFSAII (Michael W. Deem and Ramdas Pophale) SiO2 
 PCOD9201628
Probable space group: C 2/M
;
_chemical_formula_sum "Si O2"
_cell_formula_units_Z 56
_cell_length_a 31.338731
_cell_length_b 16.760662
_cell_length_c 10.125174
_cell_angle_alpha 90.000000
_cell_angle_beta 145.519476
_cell_angle_gamma 90.000000
_cell_volume 3010.843778
_symmetry_space_group_name_H-M "C 2/M"
_symmetry_group_IT_number 12
_symmetry_cell_setting 'monoclinic'
loop_
_space_group_symop_operation_xyz
x,y,z
-x,y,-z
-x,-y,-z
x,-y,z
1/2+x,1/2+y,z
1/2-x,1/2+y,-z
1/2-x,1/2-y,-z
1/2+x,1/2-y,z
loop_
_atom_site_type_symbol
_atom_site_label
_atom_site_fract_x
_atom_site_fract_y
_atom_site_fract_z
Si Si1 0.578853 0.742400 0.440757
Si Si2 0.266742 0.728490 0.318827
Si Si3 0.668031 0.678968 0.254624
Si Si4 0.014351 0.091847 0.879015
Si Si5 0.568671 0.000000 0.570788
Si Si6 0.463297 0.000000 0.048249
Si Si7 0.431727 0.831339 0.040001
Si Si8 0.874880 0.333854 0.189344
O O1 0.655528 0.747043 0.554607
O O2 0.540054 0.655801 0.329564
O O3 0.516425 0.803605 0.225093
O O4 0.596564 0.768146 0.634993
O O5 0.285573 0.671416 0.491902
O O6 0.223402 0.804473 0.272987
O O7 0.209331 0.686344 0.072330
O O8 0.601230 0.615463 0.070579
O O9 0.623476 0.763536 0.154118
O O10 0.999631 0.000000 0.806609
O O11 0.000000 0.101292 0.000000
O O12 0.500000 0.000000 0.500000
O O13 0.528633 0.000000 0.326748
O O14 0.615261 0.080216 0.717542
O O15 0.416764 0.080707 0.950486
O O16 0.500000 0.000000 0.000000
O O17 0.422577 0.832350 0.175452
#
# Coordination Sequence:
#
# PCOD9201628 Si02
#       8
#     8   8   8   8   4   4   8   8
#     4  11  20  35  62  88 113 155 207 256 298 363
#     4  10  21  36  57  85 120 158 202 245 307 381
#     4   9  20  38  60  84 120 161 197 255 313 369
#     4  10  20  37  63  90 116 152 211 267 309 354
#     4  12  20  40  60  86 128 155 200 252 300 365
#     4  12  24  34  58  98 124 152 193 264 306 357
#     4  10  21  36  63  87 119 154 209 252 310 361
#     4  11  21  38  60  89 117 166 198 249 309 373
#
# _framework density 18.599439
#
# number of rings (size 3 to 8) (size 9 to 14) (size 15 to 20)
#    0.000    1.571    4.286    0.857    2.000    0.000 
#    2.571    0.000    7.857   15.429    0.000    0.000 
#    0.000    0.000    0.000    0.000    0.000    0.000 
#
# Total GULP energy -156306.244350 kJ/mol
# GULP energy per Si atom -5582.365870 kJ/mol
# Density = 1.855711 g / cm^3
# Si number density = 18.599439 Si / 1000 Ang^3
#
#
#
# Elastic Constant Matrix: (Units=GPa)
#
#
# Indices 1 2 3 4 5 6 
#
# 1 84.8591 17.8081 15.5158 0.0000 13.2333 0.0000
# 2 17.8081 118.1989 32.0075 0.0000 -5.3784 0.0000
# 3 15.5158 32.0075 86.0841 0.0000 -0.4106 0.0000
# 4 0.0000 0.0000 0.0000 16.4988 0.0000 -3.4371
# 5 13.2333 -5.3784 -0.4106 0.0000 41.9570 0.0000
# 6 0.0000 0.0000 0.0000 -3.4371 0.0000 18.9437
#
#
#
# Elastic Compliance Matrix: (Units=1/GPa)
#
#
# Indices 1 2 3 4 5 6 
#
# 1 0.013146 -0.001704 -0.001757 0.000000 -0.004382 0.000000
# 2 -0.001704 0.009686 -0.003286 0.000000 0.001747 0.000000
# 3 -0.001757 -0.003286 0.013156 0.000000 0.000262 0.000000
# 4 0.000000 0.000000 0.000000 0.062992 0.000000 0.011429
# 5 -0.004382 0.001747 0.000262 0.000000 0.025443 0.000000
# 6 0.000000 0.000000 0.000000 0.011429 0.000000 0.054862
#
#
# Mechanical properties :
#
#
# Convention : Reuss Voigt Hill
#
# Bulk Modulus (GPa) = 44.45455 46.64500 45.54978
# Shear Modulus (GPa) = 24.96536 30.40061 27.68298
#
# Velocity S-wave (km/s) = 3.66767 4.04727 3.86213
# Velocity P-wave (km/s) = 6.47214 6.85373 6.66567
#
# Compressibility (1/GPa) = 0.02249488
#
# Stress axis : x y z
#
# Youngs Moduli (GPa) = 76.06609 103.23708 76.00963
#
# Poissons Ratio (x) = 0.17595 0.13353
# Poissons Ratio (y) = 0.12964 0.24977
# Poissons Ratio (z) = 0.13363 0.33924
#
# Static dielectric constant tensor:
#      x y z
#    x 1.659530 0.000000 0.005620 
#    y 0.000000 1.639720 0.000000 
#    z 0.005620 0.000000 1.670560 
# 
# From -- ./inp_files/106072.got.cif
#   From: 2010.05.17/outbox.cif.g08.bks.cpg/sg12_54_cif.got.tgz:106072.got - 2010.06.03 13:09:07.
