data_PCOD9201729
_publ_section_title
;
Structure prediction by ZEFSAII (Michael W. Deem and Ramdas Pophale) SiO2 
 PCOD9201729
Probable space group: C 2/M
;
_chemical_formula_sum "Si O2"
_cell_formula_units_Z 64
_cell_length_a 14.248557
_cell_length_b 19.749765
_cell_length_c 16.889423
_cell_angle_alpha 90.000000
_cell_angle_beta 141.399770
_cell_angle_gamma 90.000000
_cell_volume 2965.176817
_symmetry_space_group_name_H-M "C 2/M"
_symmetry_group_IT_number 12
_symmetry_cell_setting 'monoclinic'
loop_
_space_group_symop_operation_xyz
x,y,z
-x,y,-z
-x,-y,-z
x,-y,z
1/2+x,1/2+y,z
1/2-x,1/2+y,-z
1/2-x,1/2-y,-z
1/2+x,1/2-y,z
loop_
_atom_site_type_symbol
_atom_site_label
_atom_site_fract_x
_atom_site_fract_y
_atom_site_fract_z
Si Si1 0.646545 0.217130 0.363689
Si Si2 0.906035 0.577298 0.734665
Si Si3 0.046492 0.834544 0.716086
Si Si4 0.172364 0.579164 0.137523
Si Si5 0.130067 0.760703 0.630947
Si Si6 0.255778 0.075486 0.061290
Si Si7 0.338024 0.333053 0.857891
Si Si8 0.934397 0.921620 0.770788
O O1 0.750000 0.250000 0.500000
O O2 0.619810 0.136530 0.346442
O O3 0.498053 0.264724 0.267760
O O4 0.739260 0.224802 0.344411
O O5 0.879853 0.500000 0.689415
O O6 0.819852 0.585576 0.761400
O O7 0.083467 0.583510 0.873165
O O8 0.210831 0.869249 0.825046
O O9 0.033670 0.818025 0.613689
O O10 0.931885 0.886944 0.682824
O O11 0.206592 0.500000 0.139956
O O12 0.000000 0.592234 0.000000
O O13 0.222098 0.724916 0.760383
O O14 0.000000 0.719078 0.500000
O O15 0.234708 0.124217 0.120444
O O16 0.251141 0.000000 0.092069
O O17 0.111156 0.081292 0.910635
O O18 0.359617 0.377826 0.792033
O O19 0.500000 0.310901 0.000000
O O20 0.886561 0.000000 0.739533
#
# Coordination Sequence:
#
# PCOD9201729 Si02
#       8
#     8   8   8   8   8   8   8   8
#     4  12  25  45  68  92 130 182 233 287 355 415
#     4  10  21  41  66  94 130 171 227 278 335 421
#     4  12  23  40  67  94 131 177 232 286 336 424
#     4  10  21  39  65 100 144 187 227 283 352 420
#     4  12  25  44  66  92 134 184 227 275 365 419
#     4   9  18  35  62  95 133 179 220 272 342 401
#     4  10  21  40  64  99 134 175 229 286 333 406
#     4  10  20  37  63  97 136 178 225 279 342 402
#
# _framework density 21.583872
#
# number of rings (size 3 to 8) (size 9 to 14) (size 15 to 20)
#    0.000    1.375    3.750    2.250    0.000    4.000 
#    2.250    5.000    0.000    4.875    0.000    0.000 
#    0.000    0.000    0.000    0.000    0.000    0.000 
#
# Total GULP energy -178336.717075 kJ/mol
# GULP energy per Si atom -5573.022409 kJ/mol
# Density = 2.153475 g / cm^3
# Si number density = 21.583872 Si / 1000 Ang^3
#
#
#
# Elastic Constant Matrix: (Units=GPa)
#
#
# Indices 1 2 3 4 5 6 
#
# 1 104.6033 40.3233 19.5002 0.0001 6.7047 0.0000
# 2 40.3233 120.2258 43.7818 0.0006 6.5359 -0.0001
# 3 19.5002 43.7818 49.9338 0.0005 2.4907 -0.0003
# 4 0.0001 0.0006 0.0005 18.8740 0.0001 -2.0673
# 5 6.7047 6.5359 2.4907 0.0001 28.2978 -0.0002
# 6 0.0000 -0.0001 -0.0003 -2.0673 -0.0002 27.0512
#
#
#
# Elastic Compliance Matrix: (Units=1/GPa)
#
#
# Indices 1 2 3 4 5 6 
#
# 1 0.011152 -0.003069 -0.001574 0.000000 -0.001795 0.000000
# 2 -0.003069 0.013165 -0.010274 0.000000 -0.001409 0.000000
# 3 -0.001574 -0.010274 0.029643 0.000000 0.000137 0.000000
# 4 0.000000 0.000000 0.000000 0.053430 0.000000 0.004083
# 5 -0.001795 -0.001409 0.000137 0.000000 0.036077 0.000000
# 6 0.000000 0.000000 0.000000 0.004083 0.000000 0.037279
#
#
# Mechanical properties :
#
#
# Convention : Reuss Voigt Hill
#
# Bulk Modulus (GPa) = 41.45247 53.55262 47.50254
# Shear Modulus (GPa) = 22.87040 26.25511 24.56276
#
# Velocity S-wave (km/s) = 3.25869 3.49151 3.37711
# Velocity P-wave (km/s) = 5.77977 6.41244 6.10431
#
# Compressibility (1/GPa) = 0.02412402
#
# Stress axis : x y z
#
# Youngs Moduli (GPa) = 89.67293 75.95732 33.73489
#
# Poissons Ratio (x) = 0.23314 0.05311
# Poissons Ratio (y) = 0.27524 0.34660
# Poissons Ratio (z) = 0.14116 0.78041
#
# Static dielectric constant tensor:
#      x y z
#    x 1.799020 0.000000 -0.021480 
#    y 0.000000 1.837230 0.000000 
#    z -0.021480 0.000000 1.821050 
# 
# From -- ./inp_files/271759.got.cif
#   From: 2010.05.17/outbox.cif.g08.bks.cpg/sg12_136_cif.got.tgz:271759.got - 2010.06.03 13:09:07.
