data_PCOD9201417
_publ_section_title
;
Structure prediction by ZEFSAII (Michael W. Deem and Ramdas Pophale) SiO2 
 PCOD9201417
Probable space group: C 2/M
;
_chemical_formula_sum "Si O2"
_cell_formula_units_Z 56
_cell_length_a 19.109855
_cell_length_b 8.670464
_cell_length_c 18.651959
_cell_angle_alpha 90.000000
_cell_angle_beta 68.021536
_cell_angle_gamma 90.000000
_cell_volume 2865.866536
_symmetry_space_group_name_H-M "C 2/M"
_symmetry_group_IT_number 12
_symmetry_cell_setting 'monoclinic'
loop_
_space_group_symop_operation_xyz
x,y,z
-x,y,-z
-x,-y,-z
x,-y,z
1/2+x,1/2+y,z
1/2-x,1/2+y,-z
1/2-x,1/2-y,-z
1/2+x,1/2-y,z
loop_
_atom_site_type_symbol
_atom_site_label
_atom_site_fract_x
_atom_site_fract_y
_atom_site_fract_z
Si Si1 0.977551 0.819789 0.930710
Si Si2 0.921916 0.314813 0.231360
Si Si3 0.859607 0.686395 0.662351
Si Si4 0.776465 0.684632 0.201495
Si Si5 0.678624 0.186517 0.483336
Si Si6 0.969044 0.311870 0.371367
Si Si7 0.193517 0.821188 0.965148
O O1 0.017116 0.733491 0.851046
O O2 0.001661 0.000000 0.918648
O O3 0.887967 0.812329 0.966565
O O4 0.000000 0.756353 0.000000
O O5 0.918562 0.500000 0.236236
O O6 0.840480 0.261026 0.233579
O O7 0.946407 0.258778 0.300253
O O8 0.859538 0.500000 0.664127
O O9 0.804109 0.747827 0.744905
O O10 0.826073 0.735155 0.597991
O O11 0.946649 0.737572 0.638843
O O12 0.772826 0.500000 0.204989
O O13 0.802178 0.736655 0.112775
O O14 0.750000 0.250000 0.500000
O O15 0.599161 0.233507 0.550145
O O16 0.682541 0.000000 0.484023
O O17 0.970566 0.500000 0.370979
O O18 0.210689 0.000000 0.944839
O O19 0.250000 0.750000 0.000000
#
# Coordination Sequence:
#
# PCOD9201417 Si02
#       7
#     8   8   8   8   8   8   8
#     4  10  21  39  60  83 113 150 191 242 294 339
#     4  10  21  36  58  84 113 152 196 240 287 345
#     4  10  21  37  60  87 115 154 198 240 289 346
#     4  11  23  39  58  85 120 156 194 242 294 346
#     4  10  20  37  62  88 118 153 193 238 288 348
#     4   9  19  37  59  86 116 150 192 239 288 342
#     4  11  24  41  61  85 117 155 196 244 296 352
#
# _framework density 19.540338999999999
#
# number of rings (size 3 to 8) (size 9 to 14) (size 15 to 20)
#    0.000    1.857    1.429    2.143    2.000    5.429 
#    0.000    1.429    0.000    1.714    0.000    0.000 
#    0.000    0.000    0.000    0.000    0.000    0.000 
#
# Total GULP energy -156351.344267 kJ/mol
# GULP energy per Si atom -5583.976581 kJ/mol
# Density = 1.949586 g / cm^3
# Si number density = 19.540339 Si / 1000 Ang^3
#
#
#
# Elastic Constant Matrix: (Units=GPa)
#
#
# Indices 1 2 3 4 5 6 
#
# 1 106.1273 23.0170 20.9937 0.0000 0.3062 0.0000
# 2 23.0170 10.6096 -0.1812 0.0000 -4.0902 -0.0001
# 3 20.9937 -0.1812 65.6024 0.0000 -14.5523 0.0000
# 4 0.0000 0.0000 0.0000 22.2449 0.0000 3.3595
# 5 0.3062 -4.0902 -14.5523 0.0000 31.3485 0.0000
# 6 0.0000 -0.0001 0.0000 3.3595 0.0000 20.7228
#
#
#
# Elastic Compliance Matrix: (Units=1/GPa)
#
#
# Indices 1 2 3 4 5 6 
#
# 1 0.023876 -0.056820 -0.010584 0.000000 -0.012560 0.000000
# 2 -0.056820 0.235197 0.028721 0.000000 0.044575 0.000001
# 3 -0.010584 0.028721 0.021810 0.000000 0.013975 0.000000
# 4 0.000000 0.000000 0.000000 0.046082 0.000000 -0.007471
# 5 -0.012560 0.044575 0.013975 0.000000 0.044326 0.000000
# 6 0.000000 0.000001 0.000000 -0.007471 0.000000 0.049467
#
#
# Mechanical properties :
#
#
# Convention : Reuss Voigt Hill
#
# Bulk Modulus (GPa) = 4.91359 29.99981 17.45670
# Shear Modulus (GPa) = 8.83451 24.09723 16.46587
#
# Velocity S-wave (km/s) = 2.12861 3.51551 2.90601
# Velocity P-wave (km/s) = 2.92598 5.64487 4.49588
#
# Compressibility (1/GPa) = 0.20351732
#
# Stress axis : x y z
#
# Youngs Moduli (GPa) = 41.88354 4.25175 45.85126
#
# Poissons Ratio (x) = 0.24158 0.48527
# Poissons Ratio (y) = 2.37983 -1.31689
# Poissons Ratio (z) = 0.44328 -0.12211
#
# Static dielectric constant tensor:
#      x y z
#    x 1.646400 0.000000 0.015160 
#    y 0.000000 1.679330 0.000000 
#    z 0.015160 0.000000 1.655790 
# 
# From -- ./inp_files/275243.got.cif
#   From: 2010.05.17/outbox.cif.g08.bks.cpg/sg12_138_cif.got.tgz:275243.got - 2010.06.03 13:09:07.
