data_PCOD9201685
_publ_section_title
;
Structure prediction by ZEFSAII (Michael W. Deem and Ramdas Pophale) SiO2 
 PCOD9201685
Probable space group: C 2/M
;
_chemical_formula_sum "Si O2"
_cell_formula_units_Z 64
_cell_length_a 16.228184
_cell_length_b 15.204682
_cell_length_c 22.858127
_cell_angle_alpha 90.000000
_cell_angle_beta 33.314917
_cell_angle_gamma 90.000000
_cell_volume 3097.778653
_symmetry_space_group_name_H-M "C 2/M"
_symmetry_group_IT_number 12
_symmetry_cell_setting 'monoclinic'
loop_
_space_group_symop_operation_xyz
x,y,z
-x,y,-z
-x,-y,-z
x,-y,z
1/2+x,1/2+y,z
1/2-x,1/2+y,-z
1/2-x,1/2-y,-z
1/2+x,1/2-y,z
loop_
_atom_site_type_symbol
_atom_site_label
_atom_site_fract_x
_atom_site_fract_y
_atom_site_fract_z
Si Si1 0.321520 0.781150 0.114219
Si Si2 0.824529 0.098387 0.586387
Si Si3 0.337439 0.404755 0.064616
Si Si4 0.766621 0.749403 0.710822
Si Si5 0.996098 0.402488 0.431602
Si Si6 0.078961 0.901980 0.226370
Si Si7 0.293661 0.351220 0.469140
Si Si8 0.024787 0.096760 0.844055
O O1 0.264779 0.682080 0.133856
O O2 0.271102 0.804790 0.209357
O O3 0.230530 0.847741 0.129062
O O4 0.500000 0.783589 0.000000
O O5 0.766121 0.184437 0.656246
O O6 0.801350 0.110744 0.530504
O O7 0.000000 0.097978 0.500000
O O8 0.765208 0.000000 0.637508
O O9 0.263249 0.500000 0.116429
O O10 0.500000 0.408858 0.000000
O O11 0.380385 0.390940 0.971280
O O12 0.913365 0.688320 0.633441
O O13 0.637291 0.676059 0.785992
O O14 0.055839 0.500000 0.377573
O O15 0.000000 0.405065 0.500000
O O16 0.833265 0.393942 0.497773
O O17 0.954870 0.861412 0.342846
O O18 0.009237 0.906186 0.203596
O O19 0.111534 0.000000 0.228403
O O20 0.250000 0.250000 0.500000
O O21 0.086218 0.000000 0.824804
#
# Coordination Sequence:
#
# PCOD9201685 Si02
#       8
#     8   8   8   8   8   8   8   8
#     4  11  23  41  61  92 120 162 215 269 317 372
#     4  11  24  41  62  88 125 174 222 264 310 375
#     4   9  17  35  61  89 122 157 196 251 320 387
#     4  12  22  38  64  94 125 164 210 262 321 383
#     4  11  23  38  62  98 135 165 203 265 331 393
#     4  11  24  40  63  90 123 168 211 254 310 376
#     4  12  23  42  67  96 131 172 216 264 323 395
#     4  10  20  37  63  93 123 158 202 253 318 386
#
# _framework density 20.659965
#
# number of rings (size 3 to 8) (size 9 to 14) (size 15 to 20)
#    0.000    1.125    2.500    6.375    0.000    4.750 
#    0.000    0.000    0.000    0.750    0.000    0.000 
#    0.000    0.000    0.000    0.000    0.000    0.000 
#
# Total GULP energy -178512.581773 kJ/mol
# GULP energy per Si atom -5578.518180 kJ/mol
# Density = 2.061294 g / cm^3
# Si number density = 20.659965 Si / 1000 Ang^3
#
#
#
# Elastic Constant Matrix: (Units=GPa)
#
#
# Indices 1 2 3 4 5 6 
#
# 1 80.7040 18.6346 24.4446 0.0003 5.3345 0.0001
# 2 18.6346 101.2734 13.7627 0.0003 -0.5592 -0.0002
# 3 24.4446 13.7627 56.0034 0.0010 15.3511 -0.0005
# 4 0.0003 0.0003 0.0010 28.8447 -0.0002 -1.5407
# 5 5.3345 -0.5592 15.3511 -0.0002 29.7913 0.0001
# 6 0.0001 -0.0002 -0.0005 -1.5407 0.0001 2.8063
#
#
#
# Elastic Compliance Matrix: (Units=1/GPa)
#
#
# Indices 1 2 3 4 5 6 
#
# 1 0.014624 -0.001866 -0.006052 0.000000 0.000465 -0.000002
# 2 -0.001866 0.010531 -0.002235 0.000000 0.001683 0.000000
# 3 -0.006052 -0.002235 0.024176 -0.000001 -0.011416 0.000004
# 4 0.000000 0.000000 -0.000001 0.035716 0.000000 0.019609
# 5 0.000465 0.001683 -0.011416 0.000000 0.039398 -0.000002
# 6 -0.000002 0.000000 0.000004 0.019609 -0.000002 0.367101
#
#
# Mechanical properties :
#
#
# Convention : Reuss Voigt Hill
#
# Bulk Modulus (GPa) = 34.45282 39.07384 36.76333
# Shear Modulus (GPa) = 9.58724 24.36438 16.97581
#
# Velocity S-wave (km/s) = 2.15652 3.43783 2.86960
# Velocity P-wave (km/s) = 4.78676 5.89170 5.36774
#
# Compressibility (1/GPa) = 0.02902520
#
# Stress axis : x y z
#
# Youngs Moduli (GPa) = 68.37976 94.96140 41.36304
#
# Poissons Ratio (x) = 0.17719 0.25034
# Poissons Ratio (y) = 0.12759 0.09244
# Poissons Ratio (z) = 0.41384 0.21223
#
# Static dielectric constant tensor:
#      x y z
#    x 1.752080 0.000000 0.033570 
#    y 0.000000 1.798150 0.000000 
#    z 0.033570 0.000000 1.768560 
# 
# From -- ./inp_files/343997.got.cif
#   From: 2010.05.17/outbox.cif.g08.bks.cpg/sg12_172_cif.got.tgz:343997.got - 2010.06.03 13:09:07.
