data_PCOD9201533
_publ_section_title
;
Structure prediction by ZEFSAII (Michael W. Deem and Ramdas Pophale) SiO2 
 PCOD9201533
Probable space group: C 2/M
;
_chemical_formula_sum "Si O2"
_cell_formula_units_Z 64
_cell_length_a 20.766297
_cell_length_b 14.193298
_cell_length_c 10.205460
_cell_angle_alpha 90.000000
_cell_angle_beta 90.637301
_cell_angle_gamma 90.000000
_cell_volume 3007.794084
_symmetry_space_group_name_H-M "C 2/M"
_symmetry_group_IT_number 12
_symmetry_cell_setting 'monoclinic'
loop_
_space_group_symop_operation_xyz
x,y,z
-x,y,-z
-x,-y,-z
x,-y,z
1/2+x,1/2+y,z
1/2-x,1/2+y,-z
1/2-x,1/2-y,-z
1/2+x,1/2-y,z
loop_
_atom_site_type_symbol
_atom_site_label
_atom_site_fract_x
_atom_site_fract_y
_atom_site_fract_z
Si Si1 0.748550 0.386985 0.119200
Si Si2 0.681251 0.886295 0.145038
Si Si3 0.269472 0.356707 0.382870
Si Si4 0.099328 0.896923 0.749537
Si Si5 0.955661 0.704940 0.372187
Si Si6 0.315052 0.154624 0.393150
Si Si7 0.600597 0.389486 0.064750
Si Si8 0.960007 0.697498 0.870283
O O1 0.753742 0.500000 0.120011
O O2 0.787602 0.353004 0.246130
O O3 0.672537 0.367054 0.117417
O O4 0.780668 0.355217 0.984299
O O5 0.714718 0.841709 0.272621
O O6 0.608280 0.853718 0.131363
O O7 0.685852 0.000000 0.157680
O O8 0.327901 0.403600 0.304936
O O9 0.304506 0.262866 0.434246
O O10 0.231169 0.398807 0.505869
O O11 0.066778 0.809006 0.676658
O O12 0.068542 0.000000 0.727428
O O13 0.101476 0.879410 0.906287
O O14 0.891685 0.642087 0.395085
O O15 0.000000 0.711153 0.500000
O O16 0.998836 0.668695 0.253953
O O17 0.585281 0.500000 0.092152
O O18 0.554075 0.310673 0.124175
O O19 0.000000 0.673744 0.000000
#
# Coordination Sequence:
#
# PCOD9201533 Si02
#       8
#     8   8   8   8   8   8   8   8
#     4  10  21  37  60  91 123 149 190 258 322 368
#     4  11  23  38  61  89 118 158 209 260 307 365
#     4  10  20  37  64  90 116 153 198 250 318 376
#     4  10  20  37  62  91 123 154 192 251 312 373
#     4  11  24  42  58  82 122 164 209 251 292 358
#     4  10  22  39  60  90 120 157 200 256 307 369
#     4  10  21  38  62  96 128 154 196 255 313 377
#     4  12  24  39  62  87 116 172 214 247 299 359
#
# _framework density 21.278053
#
# number of rings (size 3 to 8) (size 9 to 14) (size 15 to 20)
#    0.000    1.500    2.500    2.625    1.750    5.250 
#    0.000    1.875    0.000    1.500    0.000    0.000 
#    0.000    0.000    0.000    0.000    0.000    0.000 
#
# Total GULP energy -178701.472002 kJ/mol
# GULP energy per Si atom -5584.421000 kJ/mol
# Density = 2.122962 g / cm^3
# Si number density = 21.278053 Si / 1000 Ang^3
#
#
#
# Elastic Constant Matrix: (Units=GPa)
#
#
# Indices 1 2 3 4 5 6 
#
# 1 102.9878 5.9799 31.6043 0.0000 -2.1530 0.0000
# 2 5.9799 36.1399 -7.5644 0.0000 -5.1099 0.0000
# 3 31.6043 -7.5644 93.8078 0.0000 -0.4071 0.0000
# 4 0.0000 0.0000 0.0000 -34.9093 0.0000 -26.2610
# 5 -2.1530 -5.1099 -0.4071 0.0000 45.7791 0.0000
# 6 0.0000 0.0000 0.0000 -26.2610 0.0000 -9.9177
#
#
#
# Elastic Compliance Matrix: (Units=1/GPa)
#
#
# Indices 1 2 3 4 5 6 
#
# 1 0.011077 -0.002631 -0.003943 0.000000 0.000192 0.000000
# 2 -0.002631 0.029235 0.003258 0.000000 0.003169 0.000000
# 3 -0.003943 0.003258 0.012252 0.000000 0.000287 0.000000
# 4 0.000000 0.000000 0.000000 0.028879 0.000000 -0.076469
# 5 0.000192 0.003169 0.000287 0.000000 0.022209 0.000000
# 6 0.000000 0.000000 0.000000 -0.076469 0.000000 0.101652
#
#
# Mechanical properties :
#
#
# Convention : Reuss Voigt Hill
#
# Bulk Modulus (GPa) = 21.77150 32.55281 27.16216
# Shear Modulus (GPa) = 22.00235 13.71812 17.86023
#
# Velocity S-wave (km/s) = 3.21914 2.54186 2.90034
# Velocity P-wave (km/s) = 4.90625 4.89354 4.89990
#
# Compressibility (1/GPa) = 0.04593161
#
# Stress axis : x y z
#
# Youngs Moduli (GPa) = 90.27951 34.20508 81.61618
#
# Poissons Ratio (x) = 0.08999 0.32182
# Poissons Ratio (y) = 0.23752 -0.26587
# Poissons Ratio (z) = 0.35598 -0.11143
#
# Static dielectric constant tensor:
#      x y z
#    x 1.735450 0.000000 -0.059240 
#    y 0.000000 1.826110 0.000000 
#    z -0.059240 0.000000 1.724250 
# 
# From -- ./inp_files/87947.got.cif
#   From: 2010.05.17/outbox.cif.g08.bks.cpg/sg12_44_cif.got.tgz:87947.got - 2010.06.03 13:09:07.
