data_PCOD9201447
_publ_section_title
;
Structure prediction by ZEFSAII (Michael W. Deem and Ramdas Pophale) SiO2 
 PCOD9201447
Probable space group: C 2/M
;
_chemical_formula_sum "Si O2"
_cell_formula_units_Z 34
_cell_length_a 20.940786
_cell_length_b 14.512801
_cell_length_c 17.651660
_cell_angle_alpha 90.000000
_cell_angle_beta 18.653688
_cell_angle_gamma 90.000000
_cell_volume 1715.822686
_symmetry_space_group_name_H-M "C 2/M"
_symmetry_group_IT_number 12
_symmetry_cell_setting 'monoclinic'
loop_
_space_group_symop_operation_xyz
x,y,z
-x,y,-z
-x,-y,-z
x,-y,z
1/2+x,1/2+y,z
1/2-x,1/2+y,-z
1/2-x,1/2-y,-z
1/2+x,1/2-y,z
loop_
_atom_site_type_symbol
_atom_site_label
_atom_site_fract_x
_atom_site_fract_y
_atom_site_fract_z
Si Si1 0.987875 0.155156 0.388592
Si Si2 0.000000 0.000000 0.500000
Si Si3 0.336321 0.397122 0.392142
Si Si4 0.621846 0.734282 0.795078
Si Si5 0.577827 0.107135 0.064327
O O1 0.932541 0.080367 0.514189
O O2 0.934279 0.123617 0.363577
O O3 0.852082 0.244465 0.555267
O O4 0.226127 0.159127 0.127700
O O5 0.393097 0.500000 0.304483
O O6 0.388433 0.322995 0.270552
O O7 0.098154 0.395936 0.676206
O O8 0.517249 0.833142 0.895764
O O9 0.500000 0.689609 0.000000
O O10 0.636039 0.000000 0.978687
#
# Coordination Sequence:
#
# PCOD9201447 Si02
#       5
#     8   2   8   8   8
#     4  11  21  38  59  90 125 153 193 243 309 365
#     4  12  20  32  62  92 120 152 174 242 314 354
#     4  10  22  42  61  84 118 163 209 247 292 350
#     4  11  25  38  57  89 124 161 204 248 288 357
#     4  10  20  37  62  89 118 158 193 246 310 362
#
# _framework density 19.815567000000001
#
# number of rings (size 3 to 8) (size 9 to 14) (size 15 to 20)
#    0.000    1.412    2.353    4.235    1.647    4.706 
#    0.000    0.000    0.000    0.000    0.000    9.059 
#    0.000    0.000    0.000    0.000    0.000    0.000 
#
# Total GULP energy -94653.749132 kJ/mol
# GULP energy per Si atom -5567.867596 kJ/mol
# Density = 1.977047 g / cm^3
# Si number density = 19.815567 Si / 1000 Ang^3
#
#
#
# Elastic Constant Matrix: (Units=GPa)
#
#
# Indices 1 2 3 4 5 6 
#
# 1 117.7748 39.5039 48.6936 0.0023 18.3004 -0.0004
# 2 39.5039 53.4478 17.5372 -0.0060 16.3973 -0.0031
# 3 48.6936 17.5372 82.8855 -0.0078 -15.6765 -0.0042
# 4 0.0023 -0.0060 -0.0078 19.5398 0.0003 -7.1591
# 5 18.3004 16.3973 -15.6765 0.0003 32.1635 0.0012
# 6 -0.0004 -0.0031 -0.0042 -7.1591 0.0012 41.3619
#
#
#
# Elastic Compliance Matrix: (Units=1/GPa)
#
#
# Indices 1 2 3 4 5 6 
#
# 1 0.016625 -0.004850 -0.011084 -0.000009 -0.012389 -0.000002
# 2 -0.004850 0.028867 -0.006080 0.000009 -0.014921 0.000003
# 3 -0.011084 -0.006080 0.023840 0.000010 0.021026 0.000003
# 4 -0.000009 0.000009 0.000010 0.054643 0.000004 0.009458
# 5 -0.012389 -0.014921 0.021026 0.000004 0.055995 0.000000
# 6 -0.000002 0.000003 0.000003 0.009458 0.000000 0.025814
#
#
# Mechanical properties :
#
#
# Convention : Reuss Voigt Hill
#
# Bulk Modulus (GPa) = 39.52103 51.73082 45.62593
# Shear Modulus (GPa) = 19.36120 28.50460 23.93290
#
# Velocity S-wave (km/s) = 3.12920 3.79686 3.47909
# Velocity P-wave (km/s) = 5.74836 6.73679 6.26211
#
# Compressibility (1/GPa) = 0.02530298
#
# Stress axis : x y z
#
# Youngs Moduli (GPa) = 60.14888 34.64112 41.94669
#
# Poissons Ratio (x) = 0.16802 0.46494
# Poissons Ratio (y) = 0.29174 0.25506
# Poissons Ratio (z) = 0.66670 0.21063
#
# Static dielectric constant tensor:
#      x y z
#    x 1.675960 0.000000 0.073930 
#    y 0.000000 1.688090 0.000000 
#    z 0.073930 0.000000 1.973810 
# 
# From -- ./inp_files/284177.got.cif
#   From: 2010.05.17/outbox.cif.g08.bks.cpg/sg12_143_cif.got.tgz:284177.got - 2010.06.03 13:09:07.
