data_PCOD9201990
_publ_section_title
;
Structure prediction by ZEFSAII (Michael W. Deem and Ramdas Pophale) SiO2 
 PCOD9201990
Probable space group: C 2/M
;
_chemical_formula_sum "Si O2"
_cell_formula_units_Z 60
_cell_length_a 9.462587
_cell_length_b 27.418587
_cell_length_c 17.205083
_cell_angle_alpha 90.000000
_cell_angle_beta 121.627559
_cell_angle_gamma 90.000000
_cell_volume 3800.874475
_symmetry_space_group_name_H-M "C 2/M"
_symmetry_group_IT_number 12
_symmetry_cell_setting 'monoclinic'
loop_
_space_group_symop_operation_xyz
x,y,z
-x,y,-z
-x,-y,-z
x,-y,z
1/2+x,1/2+y,z
1/2-x,1/2+y,-z
1/2-x,1/2-y,-z
1/2+x,1/2-y,z
loop_
_atom_site_type_symbol
_atom_site_label
_atom_site_fract_x
_atom_site_fract_y
_atom_site_fract_z
Si Si1 0.687115 0.944755 0.456305
Si Si2 0.500000 0.758047 0.000000
Si Si3 0.132065 0.213000 0.879366
Si Si4 0.146393 0.153847 0.264628
Si Si5 0.288340 0.054968 0.353161
Si Si6 0.431723 0.304465 0.595669
Si Si7 0.232405 0.845474 0.601111
Si Si8 0.445014 0.212421 0.279542
O O1 0.736671 0.939531 0.561109
O O2 0.486530 0.940384 0.396841
O O3 0.759855 0.900351 0.428222
O O4 0.730875 0.000000 0.443899
O O5 0.331899 0.788484 0.934499
O O6 0.559301 0.725945 0.943277
O O7 0.078109 0.256633 0.805437
O O8 0.036545 0.166092 0.818952
O O9 0.194412 0.097604 0.281838
O O10 0.161848 0.175206 0.356339
O O11 0.277015 0.184770 0.252219
O O12 0.239581 0.000000 0.317366
O O13 0.591071 0.338068 0.624006
O O14 0.321384 0.310481 0.486878
O O15 0.503177 0.251569 0.638891
O O16 0.407095 0.826344 0.682253
#
# Coordination Sequence:
#
# PCOD9201990 Si02
#       8
#     8   4   8   8   8   8   8   8
#     4   9  17  31  49  67  92 135 186 220 248 280
#     4  10  20  38  56  72 108 130 160 194 250 318
#     4  10  21  35  53  80 102 134 160 200 248 311
#     4  11  19  33  52  75 100 131 172 211 249 289
#     4   9  17  31  50  72  95 130 179 221 247 281
#     4  10  22  31  42  69 103 139 175 206 245 293
#     4  11  20  33  45  67 100 142 177 210 249 284
#     4  11  21  33  49  71 103 137 171 204 239 293
#
# _framework density 15.78584
#
# number of rings (size 3 to 8) (size 9 to 14) (size 15 to 20)
#    0.000    1.867    4.000    2.800    1.867    1.600 
#    0.000    2.000    0.000    0.000    0.000    0.933 
#    0.000    0.000    0.000    0.533    0.000    0.000 
#
# Total GULP energy -167276.000458 kJ/mol
# GULP energy per Si atom -5575.866682 kJ/mol
# Density = 1.574991 g / cm^3
# Si number density = 15.785840 Si / 1000 Ang^3
#
#
#
# Elastic Constant Matrix: (Units=GPa)
#
#
# Indices 1 2 3 4 5 6 
#
# 1 65.8337 21.1919 17.4833 0.0000 2.3241 0.0000
# 2 21.1919 108.6980 24.4023 0.0000 5.2967 0.0000
# 3 17.4833 24.4023 56.2780 0.0000 10.2818 0.0000
# 4 0.0000 0.0000 0.0000 13.8888 0.0000 -0.5777
# 5 2.3241 5.2967 10.2818 0.0000 26.6912 0.0000
# 6 0.0000 0.0000 0.0000 -0.5777 0.0000 11.2472
#
#
#
# Elastic Compliance Matrix: (Units=1/GPa)
#
#
# Indices 1 2 3 4 5 6 
#
# 1 0.017101 -0.002378 -0.004406 0.000000 0.000680 0.000000
# 2 -0.002378 0.010526 -0.003745 0.000000 -0.000439 0.000000
# 3 -0.004406 -0.003745 0.022112 0.000000 -0.007391 0.000000
# 4 0.000000 0.000000 0.000000 0.072154 0.000000 0.003706
# 5 0.000680 -0.000439 -0.007391 0.000000 0.040341 0.000000
# 6 0.000000 0.000000 0.000000 0.003706 0.000000 0.089101
#
#
# Mechanical properties :
#
#
# Convention : Reuss Voigt Hill
#
# Bulk Modulus (GPa) = 34.86628 39.66275 37.26452
# Shear Modulus (GPa) = 17.73348 21.54761 19.64054
#
# Velocity S-wave (km/s) = 3.35532 3.69859 3.53113
# Velocity P-wave (km/s) = 6.09474 6.58935 6.34687
#
# Compressibility (1/GPa) = 0.02868100
#
# Stress axis : x y z
#
# Youngs Moduli (GPa) = 58.47500 95.00683 45.22490
#
# Poissons Ratio (x) = 0.22594 0.19925
# Poissons Ratio (y) = 0.13906 0.16936
# Poissons Ratio (z) = 0.25763 0.35579
#
# Static dielectric constant tensor:
#      x y z
#    x 1.542030 0.000000 0.014150 
#    y 0.000000 1.519700 0.000000 
#    z 0.014150 0.000000 1.528140 
# 
# From -- ./inp_files/259564.got.cif
#   From: 2010.05.17/outbox.cif.g08.bks.cpg/sg12_130_cif.got.tgz:259564.got - 2010.06.03 13:09:07.
