data_PCOD9201049
_publ_section_title
;
Structure prediction by ZEFSAII (Michael W. Deem and Ramdas Pophale) SiO2 
 PCOD9201049
Probable space group: C 2/M
;
_chemical_formula_sum "Si O2"
_cell_formula_units_Z 52
_cell_length_a 23.267318
_cell_length_b 17.190773
_cell_length_c 9.216136
_cell_angle_alpha 90.000000
_cell_angle_beta 136.361162
_cell_angle_gamma 90.000000
_cell_volume 2543.953061
_symmetry_space_group_name_H-M "C 2/M"
_symmetry_group_IT_number 12
_symmetry_cell_setting 'monoclinic'
loop_
_space_group_symop_operation_xyz
x,y,z
-x,y,-z
-x,-y,-z
x,-y,z
1/2+x,1/2+y,z
1/2-x,1/2+y,-z
1/2-x,1/2-y,-z
1/2+x,1/2-y,z
loop_
_atom_site_type_symbol
_atom_site_label
_atom_site_fract_x
_atom_site_fract_y
_atom_site_fract_z
Si Si1 0.500000 0.848079 0.000000
Si Si2 0.400557 0.912705 0.312014
Si Si3 0.853131 0.339817 0.927859
Si Si4 0.620588 0.500000 0.097805
Si Si5 0.066017 0.000000 0.338914
Si Si6 0.682239 0.668407 0.249391
Si Si7 0.339355 0.353094 0.457871
Si Si8 0.630432 0.190486 0.476838
O O1 0.421358 0.882078 0.948167
O O2 0.448177 0.808823 0.774140
O O3 0.500000 0.915653 0.500000
O O4 0.373740 0.878764 0.416908
O O5 0.368150 0.000000 0.228462
O O6 0.375372 0.857962 0.133469
O O7 0.852482 0.246633 0.891122
O O8 0.758735 0.369029 0.733428
O O9 0.532500 0.500000 0.855578
O O10 0.601423 0.500000 0.236972
O O11 0.664843 0.583223 0.149015
O O12 0.103640 0.924071 0.481974
O O13 0.645022 0.664099 0.342723
O O14 0.781537 0.680905 0.444134
O O15 0.362409 0.272035 0.425536
#
# Coordination Sequence:
#
# PCOD9201049 Si02
#       8
#     4   8   8   4   4   8   8   8
#     4  12  20  36  71  97 112 164 214 260 316 359
#     4  11  26  43  58  87 127 166 213 256 311 381
#     4  11  22  39  65  89 124 169 204 258 313 371
#     4   9  20  32  56  91 128 163 191 259 327 362
#     4   9  20  32  56  91 128 163 191 259 327 362
#     4  10  20  37  60  96 127 154 213 262 308 370
#     4  10  20  37  60  96 127 154 213 262 308 370
#     4  11  22  39  65  89 124 169 204 258 313 371
#
# _framework density 20.440628
#
# number of rings (size 3 to 8) (size 9 to 14) (size 15 to 20)
#    0.000    1.538    4.615    0.923    4.308    2.462 
#    0.000    1.538    0.000    0.000    0.000    3.231 
#    0.000    0.000    0.000    0.000    0.000    0.000 
#
# Total GULP energy -144865.993306 kJ/mol
# GULP energy per Si atom -5571.768973 kJ/mol
# Density = 2.039410 g / cm^3
# Si number density = 20.440628 Si / 1000 Ang^3
#
#
#
# Elastic Constant Matrix: (Units=GPa)
#
#
# Indices 1 2 3 4 5 6 
#
# 1 26.1840 5.6732 14.4400 0.0000 1.0344 0.0000
# 2 5.6732 111.6492 37.1391 0.0000 10.8763 0.0000
# 3 14.4400 37.1391 96.8835 0.0000 10.8000 0.0000
# 4 0.0000 0.0000 0.0000 29.6137 0.0000 0.4490
# 5 1.0344 10.8763 10.8000 0.0000 29.4434 0.0000
# 6 0.0000 0.0000 0.0000 0.4490 0.0000 18.4087
#
#
#
# Elastic Compliance Matrix: (Units=1/GPa)
#
#
# Indices 1 2 3 4 5 6 
#
# 1 0.041633 -0.000120 -0.006257 0.000000 0.000877 0.000000
# 2 -0.000120 0.010438 -0.003706 0.000000 -0.002492 0.000000
# 3 -0.006257 -0.003706 0.013031 0.000000 -0.003191 0.000000
# 4 0.000000 0.000000 0.000000 0.033781 0.000000 -0.000824
# 5 0.000877 -0.002492 -0.003191 0.000000 0.036024 0.000000
# 6 0.000000 0.000000 0.000000 -0.000824 0.000000 0.054342
#
#
# Mechanical properties :
#
#
# Convention : Reuss Voigt Hill
#
# Bulk Modulus (GPa) = 22.25332 38.80238 30.52785
# Shear Modulus (GPa) = 22.28243 27.32413 24.80328
#
# Velocity S-wave (km/s) = 3.30526 3.66013 3.48721
# Velocity P-wave (km/s) = 5.04745 6.07341 5.58404
#
# Compressibility (1/GPa) = 0.04493712
#
# Stress axis : x y z
#
# Youngs Moduli (GPa) = 24.01933 95.80235 76.74295
#
# Poissons Ratio (x) = 0.01145 0.48019
# Poissons Ratio (y) = 0.00287 0.28439
# Poissons Ratio (z) = 0.15029 0.35501
#
# Static dielectric constant tensor:
#      x y z
#    x 1.742530 0.000000 -0.011430 
#    y 0.000000 1.780880 0.000000 
#    z -0.011430 0.000000 1.711790 
# 
# From -- ./inp_files/88518.got.cif
#   From: 2010.05.17/outbox.cif.g08.bks.cpg/sg12_45_cif.got.tgz:88518.got - 2010.06.03 13:09:07.
