data_PCOD9201797
_publ_section_title
;
Structure prediction by ZEFSAII (Michael W. Deem and Ramdas Pophale) SiO2 
 PCOD9201797
Probable space group: C 2/M
;
_chemical_formula_sum "Si O2"
_cell_formula_units_Z 56
_cell_length_a 29.395179
_cell_length_b 8.702684
_cell_length_c 22.092642
_cell_angle_alpha 90.000000
_cell_angle_beta 30.573556
_cell_angle_gamma 90.000000
_cell_volume 2874.689807
_symmetry_space_group_name_H-M "C 2/M"
_symmetry_group_IT_number 12
_symmetry_cell_setting 'monoclinic'
loop_
_space_group_symop_operation_xyz
x,y,z
-x,y,-z
-x,-y,-z
x,-y,z
1/2+x,1/2+y,z
1/2-x,1/2+y,-z
1/2-x,1/2-y,-z
1/2+x,1/2-y,z
loop_
_atom_site_type_symbol
_atom_site_label
_atom_site_fract_x
_atom_site_fract_y
_atom_site_fract_z
Si Si1 0.711769 0.182480 0.393314
Si Si2 0.743101 0.182338 0.784169
Si Si3 0.378946 0.181219 0.270066
Si Si4 0.385330 0.683544 0.856721
Si Si5 0.544217 0.679002 0.015963
Si Si6 0.223106 0.682463 0.128454
Si Si7 0.093889 0.817053 0.633933
O O1 0.707920 0.244824 0.329652
O O2 0.808828 0.228609 0.308660
O O3 0.641122 0.261629 0.518820
O O4 0.701529 0.000000 0.406119
O O5 0.787456 0.229859 0.796657
O O6 0.739082 0.000000 0.782025
O O7 0.642608 0.250543 0.900955
O O8 0.477987 0.231079 0.136234
O O9 0.365836 0.230209 0.354422
O O10 0.365935 0.000000 0.277095
O O11 0.376161 0.500000 0.857270
O O12 0.349112 0.769934 0.839112
O O13 0.488199 0.716806 0.752138
O O14 0.319095 0.723039 0.987989
O O15 0.549405 0.500000 0.028507
O O16 0.500000 0.686466 0.000000
O O17 0.221219 0.500000 0.141078
O O18 0.105987 0.000000 0.627780
#
# Coordination Sequence:
#
# PCOD9201797 Si02
#       7
#     8   8   8   8   8   8   8
#     4  12  25  42  60  83 119 160 204 251 299 354
#     4  12  24  39  61  89 122 159 201 245 298 360
#     4  12  24  39  61  89 120 158 204 248 297 355
#     4   9  20  39  63  91 122 154 193 242 296 352
#     4  11  22  37  59  86 120 157 194 242 296 349
#     4  10  20  37  64  94 124 156 192 239 298 357
#     4  11  23  41  63  87 119 159 203 249 299 353
#
# _framework density 19.480363000000001
#
# number of rings (size 3 to 8) (size 9 to 14) (size 15 to 20)
#    0.000    1.000    1.429    6.429    0.000    3.429 
#    0.000    0.714    0.000    4.286    0.000    0.000 
#    0.000    0.000    0.000    0.000    0.000    0.000 
#
# Total GULP energy -156711.333008 kJ/mol
# GULP energy per Si atom -5596.833322 kJ/mol
# Density = 1.943602 g / cm^3
# Si number density = 19.480363 Si / 1000 Ang^3
#
#
#
# Elastic Constant Matrix: (Units=GPa)
#
#
# Indices 1 2 3 4 5 6 
#
# 1 50.5205 8.6471 10.3656 0.0000 23.8143 -0.0006
# 2 8.6471 53.5643 -3.3997 0.0023 0.7800 -0.0019
# 3 10.3656 -3.3997 52.7230 -0.0032 19.9950 -0.0003
# 4 0.0000 0.0023 -0.0032 29.5769 0.0011 0.6303
# 5 23.8143 0.7800 19.9950 0.0011 26.6455 0.0005
# 6 -0.0006 -0.0019 -0.0003 0.6303 0.0005 29.8353
#
#
#
# Elastic Compliance Matrix: (Units=1/GPa)
#
#
# Indices 1 2 3 4 5 6 
#
# 1 0.037343 -0.005031 0.006898 0.000003 -0.038404 0.000001
# 2 -0.005031 0.019503 0.001059 -0.000002 0.003131 0.000001
# 3 0.006898 0.001059 0.027997 0.000004 -0.027205 0.000001
# 4 0.000003 -0.000002 0.000004 0.033825 -0.000007 -0.000715
# 5 -0.038404 0.003131 -0.027205 -0.000007 0.092176 -0.000002
# 6 0.000001 0.000001 0.000001 -0.000715 -0.000002 0.033532
#
#
# Mechanical properties :
#
#
# Convention : Reuss Voigt Hill
#
# Bulk Modulus (GPa) = 11.02593 20.89265 15.95929
# Shear Modulus (GPa) = 18.60430 26.62453 22.61441
#
# Velocity S-wave (km/s) = 3.09371 3.70095 3.41087
# Velocity P-wave (km/s) = 4.29344 5.38618 4.87056
#
# Compressibility (1/GPa) = 0.09069531
#
# Stress axis : x y z
#
# Youngs Moduli (GPa) = 26.77909 51.27408 35.71863
#
# Poissons Ratio (x) = 0.25798 -0.24640
# Poissons Ratio (y) = 0.13473 -0.03784
# Poissons Ratio (z) = -0.18473 -0.05432
#
# Static dielectric constant tensor:
#      x y z
#    x 1.665750 0.000000 0.005040 
#    y 0.000000 1.644750 0.000000 
#    z 0.005040 0.000000 1.675630 
# 
# From -- ./inp_files/329497.got.cif
#   From: 2010.05.17/outbox.cif.g08.bks.cpg/sg12_165_cif.got.tgz:329497.got - 2010.06.03 13:09:07.
