data_PCOD9201569
_publ_section_title
;
Structure prediction by ZEFSAII (Michael W. Deem and Ramdas Pophale) SiO2 
 PCOD9201569
Probable space group: C 2/M
;
_chemical_formula_sum "Si O2"
_cell_formula_units_Z 40
_cell_length_a 22.164756
_cell_length_b 8.275658
_cell_length_c 19.175263
_cell_angle_alpha 90.000000
_cell_angle_beta 149.536131
_cell_angle_gamma 90.000000
_cell_volume 1783.242564
_symmetry_space_group_name_H-M "C 2/M"
_symmetry_group_IT_number 12
_symmetry_cell_setting 'monoclinic'
loop_
_space_group_symop_operation_xyz
x,y,z
-x,y,-z
-x,-y,-z
x,-y,z
1/2+x,1/2+y,z
1/2-x,1/2+y,-z
1/2-x,1/2-y,-z
1/2+x,1/2-y,z
loop_
_atom_site_type_symbol
_atom_site_label
_atom_site_fract_x
_atom_site_fract_y
_atom_site_fract_z
Si Si1 0.506045 0.303360 0.848477
Si Si2 0.390273 0.689196 0.435029
Si Si3 0.865735 0.805994 0.158666
Si Si4 0.747109 0.807694 0.576474
Si Si5 0.760123 0.808023 0.835000
O O1 0.510909 0.500000 0.854970
O O2 0.531164 0.257363 0.792619
O O3 0.373685 0.250908 0.735355
O O4 0.615249 0.250253 0.006407
O O5 0.500000 0.761848 0.500000
O O6 0.412904 0.500000 0.465484
O O7 0.360478 0.752668 0.481888
O O8 0.277147 0.722145 0.272860
O O9 0.843388 0.728085 0.211246
O O10 0.868022 0.000000 0.169221
O O11 0.750000 0.750000 0.000000
O O12 0.750000 0.750000 0.500000
O O13 0.747629 0.000000 0.576781
O O14 0.767990 0.000000 0.831177
#
# Coordination Sequence:
#
# PCOD9201569 Si02
#       5
#     8   8   8   8   8
#     4   8  18  36  60  89 126 165 200 250 317 375
#     4  11  26  46  65  89 126 171 212 261 323 379
#     4   9  16  30  53  86 124 164 202 244 303 366
#     4  11  24  44  67  94 128 168 212 258 314 380
#     4  10  20  37  62  93 124 161 209 260 315 376
#
# _framework density 22.431048000000001
#
# number of rings (size 3 to 8) (size 9 to 14) (size 15 to 20)
#    0.000    2.200    0.000    3.600    2.800    2.400 
#    0.000   15.000    0.000    0.000    0.000    0.000 
#    0.000    0.000    0.000    0.000    0.000    0.000 
#
# Total GULP energy -111670.361859 kJ/mol
# GULP energy per Si atom -5583.518093 kJ/mol
# Density = 2.237999 g / cm^3
# Si number density = 22.431048 Si / 1000 Ang^3
#
#
#
# Elastic Constant Matrix: (Units=GPa)
#
#
# Indices 1 2 3 4 5 6 
#
# 1 163.1310 22.4066 57.2123 0.0000 1.9976 0.0000
# 2 22.4066 27.4938 -0.6309 0.0000 7.4527 0.0000
# 3 57.2123 -0.6309 90.2266 0.0000 -0.6439 0.0000
# 4 0.0000 0.0000 0.0000 20.5866 0.0000 -8.7165
# 5 1.9976 7.4527 -0.6439 0.0000 38.8739 0.0000
# 6 0.0000 0.0000 0.0000 -8.7165 0.0000 29.5048
#
#
#
# Elastic Compliance Matrix: (Units=1/GPa)
#
#
# Indices 1 2 3 4 5 6 
#
# 1 0.009298 -0.007972 -0.005945 0.000000 0.000952 0.000000
# 2 -0.007972 0.045205 0.005313 0.000000 -0.008169 0.000000
# 3 -0.005945 0.005313 0.014887 0.000000 -0.000467 0.000000
# 4 0.000000 0.000000 0.000000 0.055520 0.000000 0.016402
# 5 0.000952 -0.008169 -0.000467 0.000000 0.027234 0.000000
# 6 0.000000 0.000000 0.000000 0.016402 0.000000 0.038738
#
#
# Mechanical properties :
#
#
# Convention : Reuss Voigt Hill
#
# Bulk Modulus (GPa) = 19.16377 48.75859 33.96118
# Shear Modulus (GPa) = 22.17439 31.25062 26.71251
#
# Velocity S-wave (km/s) = 3.14755 3.73659 3.45464
# Velocity P-wave (km/s) = 4.66598 6.35613 5.57547
#
# Compressibility (1/GPa) = 0.05218179
#
# Stress axis : x y z
#
# Youngs Moduli (GPa) = 107.54498 22.12126 67.17379
#
# Poissons Ratio (x) = 0.17636 0.39935
# Poissons Ratio (y) = 0.85740 -0.35690
# Poissons Ratio (z) = 0.63936 -0.11753
#
# Static dielectric constant tensor:
#      x y z
#    x 1.579230 0.000000 -0.054910 
#    y 0.000000 1.763220 0.000000 
#    z -0.054910 0.000000 1.827720 
# 
# From -- ./inp_files/281890.got.cif
#   From: 2010.05.17/outbox.cif.g08.bks.cpg/sg12_141_cif.got.tgz:281890.got - 2010.06.03 13:09:07.
