data_PCOD9201518
_publ_section_title
;
Structure prediction by ZEFSAII (Michael W. Deem and Ramdas Pophale) SiO2 
 PCOD9201518
Probable space group: C 2/M
;
_chemical_formula_sum "Si O2"
_cell_formula_units_Z 54
_cell_length_a 8.410336
_cell_length_b 21.824127
_cell_length_c 17.531714
_cell_angle_alpha 90.000000
_cell_angle_beta 121.393559
_cell_angle_gamma 90.000000
_cell_volume 2746.842597
_symmetry_space_group_name_H-M "C 2/M"
_symmetry_group_IT_number 12
_symmetry_cell_setting 'monoclinic'
loop_
_space_group_symop_operation_xyz
x,y,z
-x,y,-z
-x,-y,-z
x,-y,z
1/2+x,1/2+y,z
1/2-x,1/2+y,-z
1/2-x,1/2-y,-z
1/2+x,1/2-y,z
loop_
_atom_site_type_symbol
_atom_site_label
_atom_site_fract_x
_atom_site_fract_y
_atom_site_fract_z
Si Si1 0.821928 0.403393 0.109548
Si Si2 0.000000 0.600504 0.000000
Si Si3 0.353212 0.719847 0.901368
Si Si4 0.871644 0.835359 0.153748
Si Si5 0.000000 0.000000 0.000000
Si Si6 0.100791 0.429337 0.310139
Si Si7 0.983493 0.928570 0.311645
Si Si8 0.686524 0.928422 0.497174
O O1 0.764158 0.332558 0.084848
O O2 0.943681 0.427979 0.068167
O O3 0.941037 0.402961 0.216597
O O4 0.642306 0.446312 0.067944
O O5 0.804294 0.632282 0.930258
O O6 0.221906 0.773282 0.836876
O O7 0.472506 0.686590 0.866392
O O8 0.500000 0.745547 0.000000
O O9 0.957631 0.883260 0.234494
O O10 0.044241 0.500000 0.309418
O O11 0.290686 0.428658 0.309681
O O12 0.143398 0.400839 0.403461
O O13 0.144383 0.905310 0.408903
O O14 0.023214 0.000000 0.298945
O O15 0.500000 0.926362 0.500000
O O16 0.737980 0.000000 0.495906
#
# Coordination Sequence:
#
# PCOD9201518 Si02
#       8
#     8   4   8   8   2   8   8   8
#     4  12  24  41  61  95 132 177 216 264 326 381
#     4  12  22  42  62  90 127 171 220 262 320 378
#     4  12  24  42  62  88 125 175 226 266 309 379
#     4  12  24  41  66  92 125 172 221 270 314 389
#     4  12  24  44  56  96 146 174 210 268 334 376
#     4  10  20  37  62  90 127 169 210 256 322 391
#     4  10  22  41  64  99 127 160 211 266 336 388
#     4   9  19  37  61  93 127 162 205 266 327 394
#
# _framework density 19.658933999999999
#
# number of rings (size 3 to 8) (size 9 to 14) (size 15 to 20)
#    0.000    1.037    5.185    1.778    2.074    2.074 
#    5.333    0.000    0.000    0.889    0.000    0.000 
#    0.000    0.000    0.000    0.000    0.000    0.000 
#
# Total GULP energy -150374.769380 kJ/mol
# GULP energy per Si atom -5569.435903 kJ/mol
# Density = 1.961419 g / cm^3
# Si number density = 19.658934 Si / 1000 Ang^3
#
#
#
# Elastic Constant Matrix: (Units=GPa)
#
#
# Indices 1 2 3 4 5 6 
#
# 1 54.6754 15.7718 51.6790 0.0000 -5.0425 0.0000
# 2 15.7718 60.9593 46.1187 0.0000 -3.6189 0.0000
# 3 51.6790 46.1187 181.1731 0.0000 4.1640 0.0000
# 4 0.0000 0.0000 0.0000 -19.2451 0.0000 -14.6259
# 5 -5.0425 -3.6189 4.1640 0.0000 36.7137 0.0000
# 6 0.0000 0.0000 0.0000 -14.6259 0.0000 5.3746
#
#
#
# Elastic Compliance Matrix: (Units=1/GPa)
#
#
# Indices 1 2 3 4 5 6 
#
# 1 0.025769 -0.000965 -0.007203 0.000000 0.004261 0.000000
# 2 -0.000965 0.020603 -0.005026 0.000000 0.002468 0.000000
# 3 -0.007203 -0.005026 0.008911 0.000000 -0.002495 0.000000
# 4 0.000000 0.000000 0.000000 -0.016936 0.000000 -0.046087
# 5 0.004261 0.002468 -0.002495 0.000000 0.028349 0.000000
# 6 0.000000 0.000000 0.000000 -0.046087 0.000000 0.060643
#
#
# Mechanical properties :
#
#
# Convention : Reuss Voigt Hill
#
# Bulk Modulus (GPa) = 34.60749 58.21630 46.41190
# Shear Modulus (GPa) = 30.60742 16.78454 23.69598
#
# Velocity S-wave (km/s) = 3.95007 2.92513 3.47559
# Velocity P-wave (km/s) = 6.20050 6.40983 6.30604
#
# Compressibility (1/GPa) = 0.02889548
#
# Stress axis : x y z
#
# Youngs Moduli (GPa) = 38.80595 48.53643 112.22120
#
# Poissons Ratio (x) = 0.04683 0.80832
# Poissons Ratio (y) = 0.03744 0.56404
# Poissons Ratio (z) = 0.27952 0.24395
#
# Static dielectric constant tensor:
#      x y z
#    x 1.714710 0.000000 -0.024210 
#    y 0.000000 1.651660 0.000000 
#    z -0.024210 0.000000 1.707870 
# 
# From -- ./inp_files/259283.got.cif
#   From: 2010.05.17/outbox.cif.g08.bks.cpg/sg12_130_cif.got.tgz:259283.got - 2010.06.03 13:09:07.
