data_PCOD9201761
_publ_section_title
;
Structure prediction by ZEFSAII (Michael W. Deem and Ramdas Pophale) SiO2 
 PCOD9201761
Probable space group: C 2/M
;
_chemical_formula_sum "Si O2"
_cell_formula_units_Z 48
_cell_length_a 20.735433
_cell_length_b 19.075975
_cell_length_c 17.018239
_cell_angle_alpha 90.000000
_cell_angle_beta 159.501897
_cell_angle_gamma 90.000000
_cell_volume 2357.226457
_symmetry_space_group_name_H-M "C 2/M"
_symmetry_group_IT_number 12
_symmetry_cell_setting 'monoclinic'
loop_
_space_group_symop_operation_xyz
x,y,z
-x,y,-z
-x,-y,-z
x,-y,z
1/2+x,1/2+y,z
1/2-x,1/2+y,-z
1/2-x,1/2-y,-z
1/2+x,1/2-y,z
loop_
_atom_site_type_symbol
_atom_site_label
_atom_site_fract_x
_atom_site_fract_y
_atom_site_fract_z
Si Si1 0.533966 0.167895 0.446284
Si Si2 0.360042 0.687961 0.506405
Si Si3 0.634049 0.331214 0.959772
Si Si4 0.957658 0.703687 0.042811
Si Si5 0.705552 0.580329 0.700384
Si Si6 0.119457 0.920512 0.215660
O O1 0.500000 0.154011 0.500000
O O2 0.586955 0.249116 0.492151
O O3 0.700802 0.124236 0.599747
O O4 0.344171 0.147347 0.186513
O O5 0.523080 0.683856 0.754287
O O6 0.321062 0.616866 0.414300
O O7 0.158201 0.702213 0.312430
O O8 0.651208 0.262590 0.034843
O O9 0.509070 0.385407 0.865514
O O10 0.845351 0.631253 0.907204
O O11 0.000000 0.724399 0.000000
O O12 0.500000 0.581456 0.500000
O O13 0.769850 0.500000 0.770718
O O14 0.167898 0.000000 0.292572
O O15 0.000000 0.921525 0.000000
#
# Coordination Sequence:
#
# PCOD9201761 Si02
#       6
#     8   8   8   8   8   8
#     4  12  23  40  68  95 126 170 218 263 315 380
#     4  11  23  38  65  96 132 162 211 267 321 379
#     4  12  23  41  66  96 134 165 209 269 327 373
#     4  10  20  37  64  90 123 166 213 258 309 375
#     4  10  22  41  63  91 127 169 218 262 309 384
#     4  11  25  44  65  92 124 167 219 265 315 383
#
# _framework density 20.362914
#
# number of rings (size 3 to 8) (size 9 to 14) (size 15 to 20)
#    0.000    1.000    3.333    5.000    0.000    4.667 
#    0.000    0.000    0.000    0.000    0.000    0.000 
#    0.000    0.000    0.000    0.000    0.000    0.000 
#
# Total GULP energy -134131.146526 kJ/mol
# GULP energy per Si atom -5588.797772 kJ/mol
# Density = 2.031657 g / cm^3
# Si number density = 20.362914 Si / 1000 Ang^3
#
#
#
# Elastic Constant Matrix: (Units=GPa)
#
#
# Indices 1 2 3 4 5 6 
#
# 1 19.4495 26.4873 17.1137 0.0000 7.6753 0.0000
# 2 26.4873 113.7597 29.2883 0.0000 -0.3172 0.0000
# 3 17.1137 29.2883 155.7247 -0.0001 6.6888 0.0000
# 4 0.0000 0.0000 -0.0001 25.3456 0.0000 15.0798
# 5 7.6753 -0.3172 6.6888 0.0000 35.6369 0.0000
# 6 0.0000 0.0000 0.0000 15.0798 0.0000 12.9103
#
#
#
# Elastic Compliance Matrix: (Units=1/GPa)
#
#
# Indices 1 2 3 4 5 6 
#
# 1 0.090355 -0.019693 -0.005426 0.000000 -0.018617 0.000000
# 2 -0.019693 0.013536 -0.000574 0.000000 0.004469 0.000000
# 3 -0.005426 -0.000574 0.007133 0.000000 -0.000175 0.000000
# 4 0.000000 0.000000 0.000000 0.129337 0.000000 -0.151071
# 5 -0.018617 0.004469 -0.000175 0.000000 0.032143 0.000000
# 6 0.000000 0.000000 0.000000 -0.151071 0.000000 0.253916
#
#
# Mechanical properties :
#
#
# Convention : Reuss Voigt Hill
#
# Bulk Modulus (GPa) = 16.76757 48.30142 32.53450
# Shear Modulus (GPa) = 8.36561 29.18152 18.77357
#
# Velocity S-wave (km/s) = 2.02908 3.78970 3.03966
# Velocity P-wave (km/s) = 3.70700 6.55140 5.32272
#
# Compressibility (1/GPa) = 0.05963892
#
# Stress axis : x y z
#
# Youngs Moduli (GPa) = 11.06743 73.87831 140.18689
#
# Poissons Ratio (x) = 1.45487 0.76070
# Poissons Ratio (y) = 0.21795 0.08041
# Poissons Ratio (z) = 0.06006 0.04237
#
# Static dielectric constant tensor:
#      x y z
#    x 1.745670 0.000000 0.023210 
#    y 0.000000 1.727400 0.000000 
#    z 0.023210 0.000000 1.782860 
# 
# From -- ./inp_files/285931.got.cif
#   From: 2010.05.17/outbox.cif.g08.bks.cpg/sg12_143_cif.got.tgz:285931.got - 2010.06.03 13:09:07.
