data_PCOD9201229
_publ_section_title
;
Structure prediction by ZEFSAII (Michael W. Deem and Ramdas Pophale) SiO2 
 PCOD9201229
Probable space group: C 2/M
;
_chemical_formula_sum "Si O2"
_cell_formula_units_Z 56
_cell_length_a 27.387807
_cell_length_b 12.662646
_cell_length_c 10.625620
_cell_angle_alpha 90.000000
_cell_angle_beta 47.760006
_cell_angle_gamma 90.000000
_cell_volume 2728.127110
_symmetry_space_group_name_H-M "C 2/M"
_symmetry_group_IT_number 12
_symmetry_cell_setting 'monoclinic'
loop_
_space_group_symop_operation_xyz
x,y,z
-x,y,-z
-x,-y,-z
x,-y,z
1/2+x,1/2+y,z
1/2-x,1/2+y,-z
1/2-x,1/2-y,-z
1/2+x,1/2-y,z
loop_
_atom_site_type_symbol
_atom_site_label
_atom_site_fract_x
_atom_site_fract_y
_atom_site_fract_z
Si Si1 0.344947 0.328147 0.288846
Si Si2 0.578743 0.380538 0.373031
Si Si3 0.693127 0.874933 0.996668
Si Si4 0.804643 0.381065 0.466073
Si Si5 0.596732 0.295547 0.076148
Si Si6 0.474034 0.383704 0.188486
Si Si7 0.315583 0.770965 0.716588
O O1 0.272827 0.374509 0.433092
O O2 0.340739 0.202150 0.314213
O O3 0.396884 0.368093 0.301510
O O4 0.369282 0.347723 0.104697
O O5 0.500000 0.365523 0.500000
O O6 0.591889 0.500000 0.392089
O O7 0.607794 0.363025 0.182722
O O8 0.616308 0.293926 0.390285
O O9 0.756255 0.814186 0.829106
O O10 0.695438 0.000000 0.973585
O O11 0.629330 0.817364 0.046964
O O12 0.691621 0.845479 0.148030
O O13 0.828510 0.500000 0.414579
O O14 0.810901 0.336314 0.596768
O O15 0.518557 0.299251 0.183427
O O16 0.488167 0.500000 0.218415
O O17 0.500000 0.382303 0.000000
#
# Coordination Sequence:
#
# PCOD9201229 Si02
#       7
#     8   8   8   8   8   8   8
#     4  10  22  40  58  90 120 157 207 252 293 362
#     4  10  22  38  62  95 125 154 192 250 312 360
#     4  10  20  37  61  89 120 159 203 249 303 361
#     4  11  23  40  62  88 125 164 201 252 304 352
#     4  10  20  38  59  88 124 155 197 250 299 367
#     4   9  18  34  59  85 113 151 196 247 300 347
#     4  10  21  39  60  91 120 160 200 252 296 370
#
# _framework density 20.526902
#
# number of rings (size 3 to 8) (size 9 to 14) (size 15 to 20)
#    0.000    2.000    1.429    1.714    2.000    2.286 
#    0.000    2.143    0.000    4.714    0.000    0.000 
#    0.000    0.000    0.000    0.000    0.000    0.000 
#
# Total GULP energy -156413.657834 kJ/mol
# GULP energy per Si atom -5586.202066 kJ/mol
# Density = 2.048018 g / cm^3
# Si number density = 20.526902 Si / 1000 Ang^3
#
#
#
# Elastic Constant Matrix: (Units=GPa)
#
#
# Indices 1 2 3 4 5 6 
#
# 1 93.1776 29.3330 3.2111 0.0000 -15.5006 0.0000
# 2 29.3330 118.9142 1.1730 0.0000 -13.2471 0.0000
# 3 3.2111 1.1730 46.5721 0.0000 9.5845 0.0000
# 4 0.0000 0.0000 0.0000 117.8832 0.0000 -51.2634
# 5 -15.5006 -13.2471 9.5845 0.0000 36.8066 0.0000
# 6 0.0000 0.0000 0.0000 -51.2634 0.0000 42.9893
#
#
#
# Elastic Compliance Matrix: (Units=1/GPa)
#
#
# Indices 1 2 3 4 5 6 
#
# 1 0.012375 -0.002504 -0.001772 0.000000 0.004772 0.000000
# 2 -0.002504 0.009305 -0.000564 0.000000 0.002441 0.000000
# 3 -0.001772 -0.000564 0.023039 0.000000 -0.006949 0.000000
# 4 0.000000 0.000000 0.000000 0.017620 0.000000 0.021012
# 5 0.004772 0.002441 -0.006949 0.000000 0.031867 0.000000
# 6 0.000000 0.000000 0.000000 0.021012 0.000000 0.048317
#
#
# Mechanical properties :
#
#
# Convention : Reuss Voigt Hill
#
# Bulk Modulus (GPa) = 28.54022 36.23312 32.38667
# Shear Modulus (GPa) = 30.50973 54.53227 42.52100
#
# Velocity S-wave (km/s) = 3.85948 5.15984 4.55629
# Velocity P-wave (km/s) = 5.81332 7.29304 6.59481
#
# Compressibility (1/GPa) = 0.03503827
#
# Stress axis : x y z
#
# Youngs Moduli (GPa) = 80.80631 107.47467 43.40556
#
# Poissons Ratio (x) = 0.26907 0.07693
# Poissons Ratio (y) = 0.20230 0.02449
# Poissons Ratio (z) = 0.14321 0.06063
#
# Static dielectric constant tensor:
#      x y z
#    x 1.758550 0.000000 0.007030 
#    y 0.000000 1.698590 0.000000 
#    z 0.007030 0.000000 1.770420 
# 
# From -- ./inp_files/182447.got.cif
#   From: 2010.05.17/outbox.cif.g08.bks.cpg/sg12_92_cif.got.tgz:182447.got - 2010.06.03 13:09:07.
