data_PCOD9201600
_publ_section_title
;
Structure prediction by ZEFSAII (Michael W. Deem and Ramdas Pophale) SiO2 
 PCOD9201600
Probable space group: C 2/M
;
_chemical_formula_sum "Si O2"
_cell_formula_units_Z 64
_cell_length_a 13.363916
_cell_length_b 22.523540
_cell_length_c 13.874997
_cell_angle_alpha 90.000000
_cell_angle_beta 60.606068
_cell_angle_gamma 90.000000
_cell_volume 3638.764501
_symmetry_space_group_name_H-M "C 2/M"
_symmetry_group_IT_number 12
_symmetry_cell_setting 'monoclinic'
loop_
_space_group_symop_operation_xyz
x,y,z
-x,y,-z
-x,-y,-z
x,-y,z
1/2+x,1/2+y,z
1/2-x,1/2+y,-z
1/2-x,1/2-y,-z
1/2+x,1/2-y,z
loop_
_atom_site_type_symbol
_atom_site_label
_atom_site_fract_x
_atom_site_fract_y
_atom_site_fract_z
Si Si1 0.336265 0.176377 0.788836
Si Si2 0.827929 0.732228 0.199654
Si Si3 0.116740 0.430815 0.499721
Si Si4 0.562751 0.066176 0.073024
Si Si5 0.737924 0.832756 0.965208
Si Si6 0.918178 0.360030 0.297247
Si Si7 0.795150 0.070393 0.242992
Si Si8 0.003062 0.841158 0.883757
O O1 0.278544 0.222979 0.744923
O O2 0.300737 0.195529 0.914160
O O3 0.471397 0.175084 0.715022
O O4 0.280063 0.111474 0.794931
O O5 0.835949 0.684019 0.279083
O O6 0.936399 0.776732 0.153942
O O7 0.816767 0.698848 0.102152
O O8 0.098447 0.500000 0.533067
O O9 0.134809 0.395149 0.589087
O O10 0.221881 0.426639 0.375993
O O11 0.000000 0.411047 0.500000
O O12 0.677648 0.103350 0.002266
O O13 0.479142 0.097666 0.189179
O O14 0.587519 0.000000 0.094775
O O15 0.500000 0.064915 0.000000
O O16 0.875459 0.838276 0.900764
O O17 0.914816 0.106486 0.195451
O O18 0.806859 0.000000 0.211934
O O19 0.000000 0.852680 0.000000
#
# Coordination Sequence:
#
# PCOD9201600 Si02
#       8
#     8   8   8   8   8   8   8   8
#     4  10  21  32  53  84 113 147 188 229 275 336
#     4  11  22  35  54  84 116 153 193 226 276 334
#     4  10  20  37  63  86 109 144 191 242 293 341
#     4  10  21  35  52  85 120 145 183 236 285 339
#     4  11  21  35  55  79 118 159 183 224 278 345
#     4  11  21  35  59  83 112 151 188 238 286 341
#     4  10  21  39  58  83 114 142 187 241 285 332
#     4  11  23  37  55  86 116 153 192 225 276 345
#
# _framework density 17.588387999999998
#
# number of rings (size 3 to 8) (size 9 to 14) (size 15 to 20)
#    0.000    1.500    5.000    1.500    3.500    2.750 
#    0.000    2.500    0.000    0.750    0.000    1.750 
#    0.000    0.000    0.000    0.000    0.000    0.000 
#
# Total GULP energy -178508.063070 kJ/mol
# GULP energy per Si atom -5578.376971 kJ/mol
# Density = 1.754836 g / cm^3
# Si number density = 17.588388 Si / 1000 Ang^3
#
#
#
# Elastic Constant Matrix: (Units=GPa)
#
#
# Indices 1 2 3 4 5 6 
#
# 1 71.5332 41.0786 21.6106 0.0000 10.9191 0.0000
# 2 41.0786 115.0014 41.2251 0.0000 16.6492 0.0000
# 3 21.6106 41.2251 73.0922 0.0000 10.4499 0.0000
# 4 0.0000 0.0000 0.0000 25.8687 0.0000 5.2078
# 5 10.9191 16.6492 10.4499 0.0000 19.8671 0.0000
# 6 0.0000 0.0000 0.0000 5.2078 0.0000 23.9082
#
#
#
# Elastic Compliance Matrix: (Units=1/GPa)
#
#
# Indices 1 2 3 4 5 6 
#
# 1 0.018217 -0.005182 -0.001787 0.000000 -0.004730 0.000000
# 2 -0.005182 0.013176 -0.005112 0.000000 -0.005505 0.000000
# 3 -0.001787 -0.005112 0.017669 0.000000 -0.004027 0.000000
# 4 0.000000 0.000000 0.000000 0.040430 0.000000 -0.008807
# 5 -0.004730 -0.005505 -0.004027 0.000000 0.059665 0.000000
# 6 0.000000 0.000000 0.000000 -0.008807 0.000000 0.043745
#
#
# Mechanical properties :
#
#
# Convention : Reuss Voigt Hill
#
# Bulk Modulus (GPa) = 40.16189 51.93948 46.05069
# Shear Modulus (GPa) = 22.18623 24.30964 23.24794
#
# Velocity S-wave (km/s) = 3.55549 3.72175 3.63957
# Velocity P-wave (km/s) = 6.30391 6.93276 6.62580
#
# Compressibility (1/GPa) = 0.02489923
#
# Stress axis : x y z
#
# Youngs Moduli (GPa) = 54.89355 75.89488 56.59611
#
# Poissons Ratio (x) = 0.39326 0.10116
# Poissons Ratio (y) = 0.28444 0.28935
# Poissons Ratio (z) = 0.09811 0.38801
#
# Static dielectric constant tensor:
#      x y z
#    x 1.611070 0.000000 0.009290 
#    y 0.000000 1.652020 0.000000 
#    z 0.009290 0.000000 1.585280 
# 
# From -- ./inp_files/135927.got.cif
#   From: 2010.05.17/outbox.cif.g08.bks.cpg/sg12_68_cif.got.tgz:135927.got - 2010.06.03 13:09:07.
