data_PCOD9201689
_publ_section_title
;
Structure prediction by ZEFSAII (Michael W. Deem and Ramdas Pophale) SiO2 
 PCOD9201689
Probable space group: C 2/M
;
_chemical_formula_sum "Si O2"
_cell_formula_units_Z 56
_cell_length_a 15.692889
_cell_length_b 15.013152
_cell_length_c 24.818190
_cell_angle_alpha 90.000000
_cell_angle_beta 26.393395
_cell_angle_gamma 90.000000
_cell_volume 2599.248729
_symmetry_space_group_name_H-M "C 2/M"
_symmetry_group_IT_number 12
_symmetry_cell_setting 'monoclinic'
loop_
_space_group_symop_operation_xyz
x,y,z
-x,y,-z
-x,-y,-z
x,-y,z
1/2+x,1/2+y,z
1/2-x,1/2+y,-z
1/2-x,1/2-y,-z
1/2+x,1/2-y,z
loop_
_atom_site_type_symbol
_atom_site_label
_atom_site_fract_x
_atom_site_fract_y
_atom_site_fract_z
Si Si1 0.141151 0.843837 0.072154
Si Si2 0.336404 0.759476 0.510419
Si Si3 0.674065 0.723465 0.250963
Si Si4 0.551280 0.094705 0.855897
Si Si5 0.271973 0.403626 0.618052
Si Si6 0.561552 0.392378 0.702472
Si Si7 0.369493 0.600235 0.126808
O O1 0.017379 0.853496 0.196563
O O2 0.005109 0.872668 0.100182
O O3 0.250000 0.750000 0.000000
O O4 0.325966 0.905439 0.975483
O O5 0.250000 0.750000 0.500000
O O6 0.557781 0.738073 0.372869
O O7 0.241281 0.682020 0.599296
O O8 0.274874 0.853271 0.570485
O O9 0.874135 0.675526 0.150577
O O10 0.563690 0.656544 0.273359
O O11 0.712779 0.822417 0.207801
O O12 0.653138 0.102177 0.740267
O O13 0.614816 0.000000 0.844075
O O14 0.500000 0.404877 0.500000
O O15 0.224580 0.500000 0.619174
O O16 0.551318 0.500000 0.706784
O O17 0.292953 0.500000 0.178672
O O18 0.500000 0.599406 0.000000
#
# Coordination Sequence:
#
# PCOD9201689 Si02
#       7
#     8   8   8   8   8   8   8
#     4  12  23  43  68  96 132 175 215 268 333 395
#     4  10  23  40  61  91 129 174 214 263 327 392
#     4  11  23  42  65  96 128 175 219 269 333 391
#     4  11  22  37  65  99 130 167 215 272 330 391
#     4  10  20  37  63  93 124 164 216 271 322 377
#     4  11  25  43  66  98 137 172 218 279 335 391
#     4  11  25  45  66  93 131 173 220 268 322 393
#
# _framework density 21.544687
#
# number of rings (size 3 to 8) (size 9 to 14) (size 15 to 20)
#    0.000    1.143    2.857    3.429    0.000    4.000 
#    0.000    6.429    0.000    2.143    0.000    0.000 
#    0.000    0.000    0.000    0.000    0.000    0.000 
#
# Total GULP energy -156304.580258 kJ/mol
# GULP energy per Si atom -5582.306438 kJ/mol
# Density = 2.149565 g / cm^3
# Si number density = 21.544687 Si / 1000 Ang^3
#
#
#
# Elastic Constant Matrix: (Units=GPa)
#
#
# Indices 1 2 3 4 5 6 
#
# 1 53.1509 32.5397 17.9552 0.0021 6.6342 -0.0037
# 2 32.5397 196.9515 17.3520 -0.0039 15.6913 -0.0012
# 3 17.9552 17.3520 68.3357 0.0008 18.1231 0.0009
# 4 0.0021 -0.0039 0.0008 70.8480 -0.0045 12.7486
# 5 6.6342 15.6913 18.1231 -0.0045 27.6715 -0.0037
# 6 -0.0037 -0.0012 0.0009 12.7486 -0.0037 32.6994
#
#
#
# Elastic Compliance Matrix: (Units=1/GPa)
#
#
# Indices 1 2 3 4 5 6 
#
# 1 0.022541 -0.003260 -0.005025 -0.000001 -0.000265 0.000003
# 2 -0.003260 0.005814 0.000057 0.000000 -0.002553 -0.000001
# 3 -0.005025 0.000057 0.018914 0.000000 -0.011215 -0.000002
# 4 -0.000001 0.000000 0.000000 0.015180 0.000002 -0.005918
# 5 -0.000265 -0.002553 -0.011215 0.000002 0.044995 0.000005
# 6 0.000003 -0.000001 -0.000002 -0.005918 0.000005 0.032889
#
#
# Mechanical properties :
#
#
# Convention : Reuss Voigt Hill
#
# Bulk Modulus (GPa) = 32.45321 50.45909 41.45615
# Shear Modulus (GPa) = 29.92969 42.94987 36.43978
#
# Velocity S-wave (km/s) = 3.73123 4.46973 4.11707
# Velocity P-wave (km/s) = 5.80161 7.07881 6.47179
#
# Compressibility (1/GPa) = 0.03081359
#
# Stress axis : x y z
#
# Youngs Moduli (GPa) = 44.36401 171.98653 52.87208
#
# Poissons Ratio (x) = 0.56074 0.26566
# Poissons Ratio (y) = 0.14464 -0.00303
# Poissons Ratio (z) = 0.22291 -0.00986
#
# Static dielectric constant tensor:
#      x y z
#    x 1.784000 0.000000 -0.042880 
#    y 0.000000 1.851970 0.000000 
#    z -0.042880 0.000000 1.785760 
# 
# From -- ./inp_files/340313.got.cif
#   From: 2010.05.17/outbox.cif.g08.bks.cpg/sg12_171_cif.got.tgz:340313.got - 2010.06.03 13:09:07.
