data_PCOD9201554
_publ_section_title
;
Structure prediction by ZEFSAII (Michael W. Deem and Ramdas Pophale) SiO2 
 PCOD9201554
Probable space group: C 2/M
;
_chemical_formula_sum "Si O2"
_cell_formula_units_Z 56
_cell_length_a 23.740093
_cell_length_b 8.891482
_cell_length_c 15.043341
_cell_angle_alpha 90.000000
_cell_angle_beta 110.140307
_cell_angle_gamma 90.000000
_cell_volume 2981.248138
_symmetry_space_group_name_H-M "C 2/M"
_symmetry_group_IT_number 12
_symmetry_cell_setting 'monoclinic'
loop_
_space_group_symop_operation_xyz
x,y,z
-x,y,-z
-x,-y,-z
x,-y,z
1/2+x,1/2+y,z
1/2-x,1/2+y,-z
1/2-x,1/2-y,-z
1/2+x,1/2-y,z
loop_
_atom_site_type_symbol
_atom_site_label
_atom_site_fract_x
_atom_site_fract_y
_atom_site_fract_z
Si Si1 0.758525 0.322434 0.407718
Si Si2 0.932556 0.679813 0.297402
Si Si3 0.685066 0.820420 0.062184
Si Si4 0.325997 0.678410 0.131515
Si Si5 0.100630 0.677342 0.524837
Si Si6 0.651816 0.180135 0.240137
Si Si7 0.444355 0.321361 0.681050
O O1 0.744690 0.500000 0.404125
O O2 0.750000 0.250000 0.500000
O O3 0.828186 0.305568 0.420292
O O4 0.713179 0.242561 0.316102
O O5 0.936804 0.500000 0.293335
O O6 0.871023 0.735589 0.220415
O O7 0.932617 0.719351 0.402268
O O8 0.988577 0.756639 0.280020
O O9 0.756064 0.787770 0.113285
O O10 0.651679 0.783401 0.135502
O O11 0.679853 0.000000 0.042851
O O12 0.663561 0.731669 0.964066
O O13 0.334766 0.500000 0.144961
O O14 0.089043 0.500000 0.500067
O O15 0.082092 0.770448 0.428770
O O16 0.597576 0.250691 0.266008
O O17 0.651013 0.000000 0.249425
O O18 0.444220 0.500000 0.687904
#
# Coordination Sequence:
#
# PCOD9201554 Si02
#       7
#     8   8   8   8   8   8   8
#     4  11  21  34  55  84 117 152 189 233 284 338
#     4  11  23  40  61  83 113 154 196 239 286 342
#     4   9  20  38  62  90 119 153 187 230 288 345
#     4  10  20  37  62  92 121 147 185 238 287 340
#     4  10  22  39  59  83 114 154 196 237 286 342
#     4  11  22  38  59  84 118 156 195 237 285 344
#     4  12  25  39  57  82 115 154 196 243 289 341
#
# _framework density 18.784078999999998
#
# number of rings (size 3 to 8) (size 9 to 14) (size 15 to 20)
#    0.000    1.429    1.429    4.286    0.000    5.143 
#    0.000    0.714    0.000    4.286    0.000    0.000 
#    0.000    0.000    0.000    0.000    0.000    0.000 
#
# Total GULP energy -156559.979943 kJ/mol
# GULP energy per Si atom -5591.427855 kJ/mol
# Density = 1.874133 g / cm^3
# Si number density = 18.784079 Si / 1000 Ang^3
#
#
#
# Elastic Constant Matrix: (Units=GPa)
#
#
# Indices 1 2 3 4 5 6 
#
# 1 60.3038 40.8658 31.5474 0.0000 -15.5058 0.0000
# 2 40.8658 76.8060 37.3788 0.0000 -14.6514 0.0000
# 3 31.5474 37.3788 72.5391 0.0000 -22.3508 0.0000
# 4 0.0000 0.0000 0.0000 32.2177 0.0000 6.5469
# 5 -15.5058 -14.6514 -22.3508 0.0000 24.3511 0.0000
# 6 0.0000 0.0000 0.0000 6.5469 0.0000 24.2705
#
#
#
# Elastic Compliance Matrix: (Units=1/GPa)
#
#
# Indices 1 2 3 4 5 6 
#
# 1 0.028640 -0.011847 -0.004083 0.000000 0.007361 0.000000
# 2 -0.011847 0.022450 -0.006384 0.000000 0.000104 0.000000
# 3 -0.004083 -0.006384 0.023517 0.000000 0.015145 0.000000
# 4 0.000000 0.000000 0.000000 0.032839 0.000000 -0.008858
# 5 0.007361 0.000104 0.015145 0.000000 0.059717 0.000000
# 6 0.000000 0.000000 0.000000 -0.008858 0.000000 0.043592
#
#
# Mechanical properties :
#
#
# Convention : Reuss Voigt Hill
#
# Bulk Modulus (GPa) = 33.35581 47.69254 40.52417
# Shear Modulus (GPa) = 18.84134 22.82500 20.83317
#
# Velocity S-wave (km/s) = 3.17053 3.48965 3.33391
# Velocity P-wave (km/s) = 5.58561 6.45615 6.03659
#
# Compressibility (1/GPa) = 0.02997979
#
# Stress axis : x y z
#
# Youngs Moduli (GPa) = 34.91669 44.54371 42.52228
#
# Poissons Ratio (x) = 0.52771 0.17360
# Poissons Ratio (y) = 0.41366 0.27145
# Poissons Ratio (z) = 0.14255 0.28436
#
# Static dielectric constant tensor:
#      x y z
#    x 1.650170 0.000000 -0.001900 
#    y 0.000000 1.627280 0.000000 
#    z -0.001900 0.000000 1.625620 
# 
# From -- ./inp_files/237778.got.cif
#   From: 2010.05.17/outbox.cif.g08.bks.cpg/sg12_119_cif.got.tgz:237778.got - 2010.06.03 13:09:07.
