data_PCOD9201155
_publ_section_title
;
Structure prediction by ZEFSAII (Michael W. Deem and Ramdas Pophale) SiO2 
 PCOD9201155
Probable space group: C 2/M
;
_chemical_formula_sum "Si O2"
_cell_formula_units_Z 64
_cell_length_a 26.411532
_cell_length_b 7.916983
_cell_length_c 15.468042
_cell_angle_alpha 90.000000
_cell_angle_beta 109.542298
_cell_angle_gamma 90.000000
_cell_volume 3048.046102
_symmetry_space_group_name_H-M "C 2/M"
_symmetry_group_IT_number 12
_symmetry_cell_setting 'monoclinic'
loop_
_space_group_symop_operation_xyz
x,y,z
-x,y,-z
-x,-y,-z
x,-y,z
1/2+x,1/2+y,z
1/2-x,1/2+y,-z
1/2-x,1/2-y,-z
1/2+x,1/2-y,z
loop_
_atom_site_type_symbol
_atom_site_label
_atom_site_fract_x
_atom_site_fract_y
_atom_site_fract_z
Si Si1 0.547996 0.199579 0.331951
Si Si2 0.939188 0.803296 0.475312
Si Si3 0.147370 0.697772 0.709952
Si Si4 0.763328 0.190379 0.744662
Si Si5 0.716061 0.808656 0.060518
Si Si6 0.882694 0.795168 0.793026
Si Si7 0.934543 0.295759 0.196927
Si Si8 0.099556 0.798705 0.001548
O O1 0.573120 0.285461 0.430372
O O2 0.581692 0.231779 0.264922
O O3 0.487278 0.261442 0.279299
O O4 0.545794 0.000000 0.347773
O O5 0.897056 0.711921 0.389945
O O6 0.000000 0.736349 0.500000
O O7 0.939001 0.000000 0.450139
O O8 0.158940 0.500000 0.733841
O O9 0.203941 0.771640 0.707331
O O10 0.118521 0.765745 0.780870
O O11 0.773294 0.188051 0.853128
O O12 0.820558 0.266423 0.747190
O O13 0.760287 0.000000 0.706448
O O14 0.653702 0.794040 0.003273
O O15 0.729353 0.000000 0.093044
O O16 0.750000 0.750000 0.000000
O O17 0.906885 0.746753 0.901460
O O18 0.881088 0.000000 0.790725
O O19 0.933655 0.500000 0.198266
O O20 0.940009 0.241065 0.100087
O O21 0.107291 0.000000 0.006776
#
# Coordination Sequence:
#
# PCOD9201155 Si02
#       8
#     8   8   8   8   8   8   8   8
#     4  11  23  39  61  86 113 152 196 236 287 346
#     4  11  23  39  61  89 118 148 183 231 291 350
#     4  10  20  37  61  87 118 150 185 236 292 345
#     4   9  19  36  58  83 112 151 192 234 288 342
#     4  11  20  31  50  76 110 151 194 239 286 338
#     4   9  20  39  58  81 116 155 197 239 282 334
#     4  10  21  35  55  86 119 150 190 241 290 343
#     4  10  21  36  55  80 113 154 196 239 287 340
#
# _framework density 20.997057999999999
#
# number of rings (size 3 to 8) (size 9 to 14) (size 15 to 20)
#    0.000    1.875    1.250    3.750    0.000    6.500 
#    0.000    3.125    0.000    0.000    0.000    0.000 
#    0.000    0.000    0.000    0.000    0.000    0.000 
#
# Total GULP energy -178491.087506 kJ/mol
# GULP energy per Si atom -5577.846485 kJ/mol
# Density = 2.094927 g / cm^3
# Si number density = 20.997058 Si / 1000 Ang^3
#
#
#
# Elastic Constant Matrix: (Units=GPa)
#
#
# Indices 1 2 3 4 5 6 
#
# 1 52.4437 5.5619 30.4956 0.0000 -0.4420 0.0000
# 2 5.5619 42.8208 -6.3869 0.0000 -1.8744 0.0000
# 3 30.4956 -6.3869 79.4914 0.0000 -4.3177 0.0000
# 4 0.0000 0.0000 0.0000 18.7741 0.0000 5.5703
# 5 -0.4420 -1.8744 -4.3177 0.0000 34.2365 0.0000
# 6 0.0000 0.0000 0.0000 5.5703 0.0000 9.6594
#
#
#
# Elastic Compliance Matrix: (Units=1/GPa)
#
#
# Indices 1 2 3 4 5 6 
#
# 1 0.025544 -0.004902 -0.010260 0.000000 -0.001233 0.000000
# 2 -0.004902 0.024659 0.003959 0.000000 0.001786 0.000000
# 3 -0.010260 0.003959 0.016955 0.000000 0.002223 0.000000
# 4 0.000000 0.000000 0.000000 0.064259 0.000000 -0.037056
# 5 -0.001233 0.001786 0.002223 0.000000 0.029571 0.000000
# 6 0.000000 0.000000 0.000000 -0.037056 0.000000 0.124895
#
#
# Mechanical properties :
#
#
# Convention : Reuss Voigt Hill
#
# Bulk Modulus (GPa) = 22.34627 26.01079 24.17853
# Shear Modulus (GPa) = 15.47000 22.20637 18.83819
#
# Velocity S-wave (km/s) = 2.71730 3.25560 2.99855
# Velocity P-wave (km/s) = 4.52886 5.15234 4.85063
#
# Compressibility (1/GPa) = 0.04475020
#
# Stress axis : x y z
#
# Youngs Moduli (GPa) = 39.14833 40.55393 58.97966
#
# Poissons Ratio (x) = 0.19880 0.60515
# Poissons Ratio (y) = 0.19191 -0.23349
# Poissons Ratio (z) = 0.40167 -0.16055
#
# Static dielectric constant tensor:
#      x y z
#    x 1.831130 0.000000 0.036190 
#    y 0.000000 1.760790 0.000000 
#    z 0.036190 0.000000 1.747520 
# 
# From -- ./inp_files/244221.got.cif
#   From: 2010.05.17/outbox.cif.g08.bks.cpg/sg12_123_cif.got.tgz:244221.got - 2010.06.03 13:09:07.
