data_PCOD9201368
_publ_section_title
;
Structure prediction by ZEFSAII (Michael W. Deem and Ramdas Pophale) SiO2 
 PCOD9201368
Probable space group: C 2/M
;
_chemical_formula_sum "Si O2"
_cell_formula_units_Z 40
_cell_length_a 34.030139
_cell_length_b 8.561268
_cell_length_c 7.142872
_cell_angle_alpha 90.000000
_cell_angle_beta 116.327970
_cell_angle_gamma 90.000000
_cell_volume 1865.149111
_symmetry_space_group_name_H-M "C 2/M"
_symmetry_group_IT_number 12
_symmetry_cell_setting 'monoclinic'
loop_
_space_group_symop_operation_xyz
x,y,z
-x,y,-z
-x,-y,-z
x,-y,z
1/2+x,1/2+y,z
1/2-x,1/2+y,-z
1/2-x,1/2-y,-z
1/2+x,1/2-y,z
loop_
_atom_site_type_symbol
_atom_site_label
_atom_site_fract_x
_atom_site_fract_y
_atom_site_fract_z
Si Si1 0.036612 0.816016 0.809007
Si Si2 0.204876 0.686871 0.822505
Si Si3 0.555886 0.315030 0.297311
Si Si4 0.351216 0.312257 0.602037
Si Si5 0.871381 0.686700 0.055964
O O1 0.986938 0.751931 0.685583
O O2 0.036262 0.000000 0.762728
O O3 0.046094 0.803646 0.053111
O O4 0.078792 0.741599 0.801192
O O5 0.206188 0.500000 0.820376
O O6 0.191794 0.751211 0.591687
O O7 0.250000 0.750000 0.000000
O O8 0.164941 0.738646 0.872497
O O9 0.557319 0.500000 0.343958
O O10 0.605019 0.251153 0.415169
O O11 0.352241 0.500000 0.602191
O O12 0.356554 0.254486 0.824427
O O13 0.871375 0.500000 0.046606
#
# Coordination Sequence:
#
# PCOD9201368 Si02
#       5
#     8   8   8   8   8
#     4   8  13  26  50  78 110 148 188 225 261 313
#     4  11  25  43  61  82 110 144 185 235 286 337
#     4   7  12  25  48  79 111 144 184 224 262 312
#     4  10  20  37  62  87 113 148 188 230 275 326
#     4  10  21  37  57  84 117 149 183 227 280 335
#
# _framework density 21.446007999999999
#
# number of rings (size 3 to 8) (size 9 to 14) (size 15 to 20)
#    0.000    2.800    0.000    4.200    0.000    4.000 
#    0.000   10.000    0.000    6.000    0.000    0.000 
#    0.000    0.000    0.000    0.000    0.000    0.000 
#
# Total GULP energy -111639.020788 kJ/mol
# GULP energy per Si atom -5581.951039 kJ/mol
# Density = 2.139720 g / cm^3
# Si number density = 21.446008 Si / 1000 Ang^3
#
#
#
# Elastic Constant Matrix: (Units=GPa)
#
#
# Indices 1 2 3 4 5 6 
#
# 1 72.3899 17.2562 26.1964 0.0000 5.1043 0.0000
# 2 17.2562 24.5886 8.2451 0.0000 5.8485 0.0000
# 3 26.1964 8.2451 110.9867 0.0000 23.0448 0.0000
# 4 0.0000 0.0000 0.0000 -78.7426 0.0000 4.1057
# 5 5.1043 5.8485 23.0448 0.0000 33.5102 0.0000
# 6 0.0000 0.0000 0.0000 4.1057 0.0000 28.9260
#
#
#
# Elastic Compliance Matrix: (Units=1/GPa)
#
#
# Indices 1 2 3 4 5 6 
#
# 1 0.017821 -0.011706 -0.003730 0.000000 0.001894 0.000000
# 2 -0.011706 0.050461 0.000552 0.000000 -0.007403 0.000000
# 3 -0.003730 0.000552 0.011376 0.000000 -0.007351 0.000000
# 4 0.000000 0.000000 0.000000 -0.012606 0.000000 0.001789
# 5 0.001894 -0.007403 -0.007351 0.000000 0.035901 0.000000
# 6 0.000000 0.000000 0.000000 0.001789 0.000000 0.034317
#
#
# Mechanical properties :
#
#
# Convention : Reuss Voigt Hill
#
# Bulk Modulus (GPa) = 20.04486 34.59563 27.32024
# Shear Modulus (GPa) = 27.22313 7.15655 17.18984
#
# Velocity S-wave (km/s) = 3.56670 1.82873 2.83422
# Velocity P-wave (km/s) = 5.13116 4.54153 4.84532
#
# Compressibility (1/GPa) = 0.04988810
#
# Stress axis : x y z
#
# Youngs Moduli (GPa) = 56.11398 19.81743 87.90555
#
# Poissons Ratio (x) = 0.23199 0.32787
# Poissons Ratio (y) = 0.65689 -0.04848
# Poissons Ratio (z) = 0.20930 -0.01093
#
# Static dielectric constant tensor:
#      x y z
#    x 1.821240 0.000000 -0.011410 
#    y 0.000000 1.719120 0.000000 
#    z -0.011410 0.000000 1.804930 
# 
# From -- ./inp_files/108349.got.cif
#   From: 2010.05.17/outbox.cif.g08.bks.cpg/sg12_55_cif.got.tgz:108349.got - 2010.06.03 13:09:07.
