data_PCOD9201341
_publ_section_title
;
Structure prediction by ZEFSAII (Michael W. Deem and Ramdas Pophale) SiO2 
 PCOD9201341
Probable space group: C 2/M
;
_chemical_formula_sum "Si O2"
_cell_formula_units_Z 64
_cell_length_a 14.902325
_cell_length_b 14.807195
_cell_length_c 18.053320
_cell_angle_alpha 90.000000
_cell_angle_beta 128.835869
_cell_angle_gamma 90.000000
_cell_volume 3103.065912
_symmetry_space_group_name_H-M "C 2/M"
_symmetry_group_IT_number 12
_symmetry_cell_setting 'monoclinic'
loop_
_space_group_symop_operation_xyz
x,y,z
-x,y,-z
-x,-y,-z
x,-y,z
1/2+x,1/2+y,z
1/2-x,1/2+y,-z
1/2-x,1/2-y,-z
1/2+x,1/2-y,z
loop_
_atom_site_type_symbol
_atom_site_label
_atom_site_fract_x
_atom_site_fract_y
_atom_site_fract_z
Si Si1 0.647479 0.108179 0.878232
Si Si2 0.846031 0.395835 0.605599
Si Si3 0.399160 0.794795 0.772211
Si Si4 0.310857 0.600901 0.103379
Si Si5 0.064107 0.903835 0.250033
Si Si6 0.087401 0.901895 0.432942
Si Si7 0.231724 0.742705 0.802614
Si Si8 0.483220 0.785436 0.410094
O O1 0.528353 0.164261 0.829917
O O2 0.717984 0.153379 0.846598
O O3 0.626604 0.000000 0.856524
O O4 0.724331 0.118879 0.991611
O O5 0.881339 0.500000 0.626342
O O6 0.828785 0.358898 0.679865
O O7 0.725016 0.389189 0.500802
O O8 0.941826 0.338165 0.612566
O O9 0.382213 0.692987 0.734107
O O10 0.350326 0.781153 0.829321
O O11 0.286047 0.500000 0.120264
O O12 0.442886 0.599113 0.144495
O O13 0.306559 0.677364 0.162690
O O14 0.040191 0.906218 0.325192
O O15 0.123570 0.000000 0.262531
O O16 0.034716 0.814808 0.442218
O O17 0.066740 0.000000 0.457413
O O18 0.144207 0.725578 0.689121
O O19 0.500000 0.828269 0.500000
#
# Coordination Sequence:
#
# PCOD9201341 Si02
#       8
#     8   8   8   8   8   8   8   8
#     4  11  24  46  71  97 137 182 223 278 343 402
#     4  11  23  41  63  90 130 176 223 276 335 400
#     4  12  24  41  68  96 133 177 220 277 337 404
#     4  10  21  42  71  96 130 175 222 277 340 401
#     4  10  20  39  64  92 124 166 213 267 331 393
#     4  10  20  37  62  85 117 166 214 268 331 392
#     4  12  25  41  67 102 132 176 223 282 334 404
#     4  12  24  39  62  92 133 174 220 277 333 404
#
# _framework density 20.624763999999999
#
# number of rings (size 3 to 8) (size 9 to 14) (size 15 to 20)
#    0.000    1.000    5.000    1.875    1.750    2.500 
#    0.000    1.250    0.000    2.250    0.000    0.000 
#    0.000    0.000    0.000    0.000    0.000    0.000 
#
# Total GULP energy -178400.847807 kJ/mol
# GULP energy per Si atom -5575.026494 kJ/mol
# Density = 2.057782 g / cm^3
# Si number density = 20.624764 Si / 1000 Ang^3
#
#
#
# Elastic Constant Matrix: (Units=GPa)
#
#
# Indices 1 2 3 4 5 6 
#
# 1 52.1685 31.5997 27.4652 0.0000 4.1022 0.0000
# 2 31.5997 132.2307 21.7621 0.0000 -0.1688 0.0000
# 3 27.4652 21.7621 85.1474 0.0000 -2.7443 0.0000
# 4 0.0000 0.0000 0.0000 41.5319 0.0000 -6.4481
# 5 4.1022 -0.1688 -2.7443 0.0000 8.5060 0.0000
# 6 0.0000 0.0000 0.0000 -6.4481 0.0000 -5.5534
#
#
#
# Elastic Compliance Matrix: (Units=1/GPa)
#
#
# Indices 1 2 3 4 5 6 
#
# 1 0.028007 -0.005367 -0.008186 0.000000 -0.016255 0.000000
# 2 -0.005367 0.008925 -0.000466 0.000000 0.002615 0.000000
# 3 -0.008186 -0.000466 0.014785 0.000000 0.008709 0.000000
# 4 0.000000 0.000000 0.000000 0.020400 0.000000 -0.023687
# 5 -0.016255 0.002615 0.008709 0.000000 0.128265 0.000000
# 6 0.000000 0.000000 0.000000 -0.023687 0.000000 -0.152566
#
#
# Mechanical properties :
#
#
# Convention : Reuss Voigt Hill
#
# Bulk Modulus (GPa) = 42.23022 47.91118 45.07070
# Shear Modulus (GPa) = 59.70399 21.47820 40.59110
#
# Velocity S-wave (km/s) = 5.38615 3.23054 4.44111
# Velocity P-wave (km/s) = 7.69420 6.09882 6.94249
#
# Compressibility (1/GPa) = 0.02367973
#
# Stress axis : x y z
#
# Youngs Moduli (GPa) = 35.70487 112.04497 67.63760
#
# Poissons Ratio (x) = 0.60129 0.55371
# Poissons Ratio (y) = 0.19161 0.03150
# Poissons Ratio (z) = 0.29229 0.05219
#
# Static dielectric constant tensor:
#      x y z
#    x 1.815820 0.000000 -0.000170 
#    y 0.000000 1.765630 0.000000 
#    z -0.000170 0.000000 1.724610 
# 
# From -- ./inp_files/270732.got.cif
#   From: 2010.05.17/outbox.cif.g08.bks.cpg/sg12_136_cif.got.tgz:270732.got - 2010.06.03 13:09:07.
