data_PCOD9201286
_publ_section_title
;
Structure prediction by ZEFSAII (Michael W. Deem and Ramdas Pophale) SiO2 
 PCOD9201286
Probable space group: C 2/M
;
_chemical_formula_sum "Si O2"
_cell_formula_units_Z 52
_cell_length_a 30.624158
_cell_length_b 18.710827
_cell_length_c 16.598909
_cell_angle_alpha 90.000000
_cell_angle_beta 14.686973
_cell_angle_gamma 90.000000
_cell_volume 2411.458386
_symmetry_space_group_name_H-M "C 2/M"
_symmetry_group_IT_number 12
_symmetry_cell_setting 'monoclinic'
loop_
_space_group_symop_operation_xyz
x,y,z
-x,y,-z
-x,-y,-z
x,-y,z
1/2+x,1/2+y,z
1/2-x,1/2+y,-z
1/2-x,1/2-y,-z
1/2+x,1/2-y,z
loop_
_atom_site_type_symbol
_atom_site_label
_atom_site_fract_x
_atom_site_fract_y
_atom_site_fract_z
Si Si1 0.238083 0.500000 0.422606
Si Si2 0.362699 0.146877 0.317769
Si Si3 0.835902 0.500000 0.621455
Si Si4 0.131059 0.724591 0.949573
Si Si5 0.132240 0.754345 0.128837
Si Si6 0.531355 0.500000 0.776734
Si Si7 0.391676 0.660559 0.358263
Si Si8 0.123283 0.641209 0.354476
O O1 0.195447 0.570046 0.547789
O O2 0.124654 0.500000 0.543476
O O3 0.569764 0.500000 0.957397
O O4 0.462737 0.185913 0.211614
O O5 0.195071 0.179146 0.572664
O O6 0.500000 0.141841 0.000000
O O7 0.892805 0.574254 0.558555
O O8 0.628105 0.500000 0.000111
O O9 0.084817 0.808244 0.015714
O O10 0.152288 0.713426 0.006869
O O11 0.290213 0.697408 0.612922
O O12 0.180916 0.836325 0.018296
O O13 0.250000 0.750000 0.000000
O O14 0.957101 0.716341 0.470406
O O15 0.624665 0.575384 0.602629
O O16 0.000000 0.622469 0.500000
#
# Coordination Sequence:
#
# PCOD9201286 Si02
#       8
#     4   8   4   8   8   4   8   8
#     4  10  22  38  63  85 124 165 218 244 317 372
#     4  10  22  39  60  94 127 168 207 266 314 374
#     4  10  21  37  59  92 116 161 206 257 306 365
#     4  11  23  39  65  92 128 163 209 265 315 371
#     4  10  21  37  63  93 123 161 204 250 311 379
#     4  10  25  41  62  89 125 172 211 265 313 382
#     4  11  24  42  62  91 127 167 213 260 319 372
#     4  10  20  37  61  91 124 157 201 256 310 372
#
# _framework density 21.563714000000001
#
# number of rings (size 3 to 8) (size 9 to 14) (size 15 to 20)
#    0.462    1.231    0.000    4.154    2.154    3.077 
#    0.000    0.769    0.000    0.923    0.000    8.615 
#    0.000    0.000    0.000    0.000    0.000    0.000 
#
# Total GULP energy -144822.326186 kJ/mol
# GULP energy per Si atom -5570.089469 kJ/mol
# Density = 2.151463 g / cm^3
# Si number density = 21.563714 Si / 1000 Ang^3
#
#
#
# Elastic Constant Matrix: (Units=GPa)
#
#
# Indices 1 2 3 4 5 6 
#
# 1 164.6707 45.9113 27.9200 -0.0063 3.5650 -0.0014
# 2 45.9113 106.0930 28.2781 -0.0089 0.7669 0.0000
# 3 27.9200 28.2781 49.7730 -0.0113 -10.2764 -0.0028
# 4 -0.0063 -0.0089 -0.0113 15.1266 0.0040 -7.4540
# 5 3.5650 0.7669 -10.2764 0.0040 16.7042 0.0002
# 6 -0.0014 0.0000 -0.0028 -7.4540 0.0002 30.0381
#
#
#
# Elastic Compliance Matrix: (Units=1/GPa)
#
#
# Indices 1 2 3 4 5 6 
#
# 1 0.007387 -0.002192 -0.003669 0.000000 -0.003733 0.000000
# 2 -0.002192 0.012140 -0.006514 0.000002 -0.004097 0.000000
# 3 -0.003669 -0.006514 0.029867 0.000015 0.019456 0.000006
# 4 0.000000 0.000002 0.000015 0.075319 -0.000009 0.018691
# 5 -0.003733 -0.004097 0.019456 -0.000009 0.072819 -0.000001
# 6 0.000000 0.000000 0.000006 0.018691 -0.000001 0.037929
#
#
# Mechanical properties :
#
#
# Convention : Reuss Voigt Hill
#
# Bulk Modulus (GPa) = 40.57636 58.30616 49.44126
# Shear Modulus (GPa) = 18.62719 26.93560 22.78139
#
# Velocity S-wave (km/s) = 2.94227 3.53812 3.25386
# Velocity P-wave (km/s) = 5.51366 6.61731 6.09053
#
# Compressibility (1/GPa) = 0.02464489
#
# Stress axis : x y z
#
# Youngs Moduli (GPa) = 135.37881 82.37332 33.48166
#
# Poissons Ratio (x) = 0.18053 0.12285
# Poissons Ratio (y) = 0.29669 0.21809
# Poissons Ratio (z) = 0.49673 0.53655
#
# Static dielectric constant tensor:
#      x y z
#    x 1.831620 0.000000 -0.043090 
#    y 0.000000 1.798000 0.000000 
#    z -0.043090 0.000000 1.862500 
# 
# From -- ./inp_files/247201.got.cif
#   From: 2010.05.17/outbox.cif.g08.bks.cpg/sg12_124_cif.got.tgz:247201.got - 2010.06.03 13:09:07.
