data_PCOD9201515
_publ_section_title
;
Structure prediction by ZEFSAII (Michael W. Deem and Ramdas Pophale) SiO2 
 PCOD9201515
Probable space group: C 2/M
;
_chemical_formula_sum "Si O2"
_cell_formula_units_Z 56
_cell_length_a 16.153932
_cell_length_b 14.765883
_cell_length_c 25.568346
_cell_angle_alpha 90.000000
_cell_angle_beta 25.751051
_cell_angle_gamma 90.000000
_cell_volume 2649.670584
_symmetry_space_group_name_H-M "C 2/M"
_symmetry_group_IT_number 12
_symmetry_cell_setting 'monoclinic'
loop_
_space_group_symop_operation_xyz
x,y,z
-x,y,-z
-x,-y,-z
x,-y,z
1/2+x,1/2+y,z
1/2-x,1/2+y,-z
1/2-x,1/2-y,-z
1/2+x,1/2-y,z
loop_
_atom_site_type_symbol
_atom_site_label
_atom_site_fract_x
_atom_site_fract_y
_atom_site_fract_z
Si Si1 0.090271 0.890474 0.101182
Si Si2 0.344130 0.755036 0.503074
Si Si3 0.674818 0.715465 0.246730
Si Si4 0.523842 0.106548 0.866219
Si Si5 0.271999 0.400705 0.619767
Si Si6 0.584921 0.391844 0.688206
Si Si7 0.356096 0.603500 0.130375
O O1 0.984012 0.863808 0.214850
O O2 0.971835 0.868360 0.116782
O O3 0.099319 0.000000 0.095890
O O4 0.309713 0.859999 0.977369
O O5 0.250000 0.750000 0.500000
O O6 0.560102 0.730476 0.366546
O O7 0.245273 0.680441 0.595238
O O8 0.293152 0.850906 0.557381
O O9 0.869037 0.664194 0.150726
O O10 0.555950 0.653334 0.274337
O O11 0.707323 0.816048 0.206122
O O12 0.648049 0.110368 0.742465
O O13 0.517528 0.000000 0.885225
O O14 0.500000 0.401265 0.500000
O O15 0.223239 0.500000 0.625083
O O16 0.580448 0.500000 0.686385
O O17 0.282167 0.500000 0.178938
O O18 0.500000 0.601957 0.000000
#
# Coordination Sequence:
#
# PCOD9201515 Si02
#       7
#     8   8   8   8   8   8   8
#     4   9  21  41  63  91 123 162 207 257 315 375
#     4  10  23  39  57  89 126 166 210 255 309 382
#     4  11  23  39  63  95 124 166 214 262 317 377
#     4  10  21  37  64  97 128 163 206 265 323 376
#     4  10  20  37  62  90 124 164 207 263 318 366
#     4  10  23  42  64  91 130 166 207 267 325 376
#     4  10  24  45  64  89 129 170 212 257 309 381
#
# _framework density 21.134703999999999
#
# number of rings (size 3 to 8) (size 9 to 14) (size 15 to 20)
#    0.000    2.000    1.429    0.429    4.000    5.714 
#    0.000    7.143    0.000    3.000    0.000    0.000 
#    0.000    0.000    0.000    0.000    0.000    0.000 
#
# Total GULP energy -156320.001829 kJ/mol
# GULP energy per Si atom -5582.857208 kJ/mol
# Density = 2.108660 g / cm^3
# Si number density = 21.134704 Si / 1000 Ang^3
#
#
#
# Elastic Constant Matrix: (Units=GPa)
#
#
# Indices 1 2 3 4 5 6 
#
# 1 61.3556 38.2765 17.3382 0.0021 10.6565 -0.0068
# 2 38.2765 126.2442 22.1039 -0.0037 9.8775 0.0003
# 3 17.3382 22.1039 63.7579 -0.0112 14.7913 -0.0093
# 4 0.0021 -0.0037 -0.0112 36.8343 0.0049 0.8208
# 5 10.6565 9.8775 14.7913 0.0049 24.5707 0.0015
# 6 -0.0068 0.0003 -0.0093 0.8208 0.0015 26.7704
#
#
#
# Elastic Compliance Matrix: (Units=1/GPa)
#
#
# Indices 1 2 3 4 5 6 
#
# 1 0.021506 -0.005632 -0.002623 -0.000002 -0.005484 0.000005
# 2 -0.005632 0.009985 -0.001820 0.000001 -0.000476 -0.000002
# 3 -0.002623 -0.001820 0.019289 0.000007 -0.009742 0.000006
# 4 -0.000002 0.000001 0.000007 0.027167 -0.000009 -0.000833
# 5 -0.005484 -0.000476 -0.009742 -0.000009 0.049133 -0.000007
# 6 0.000005 -0.000002 0.000006 -0.000833 -0.000007 0.037380
#
#
# Mechanical properties :
#
#
# Convention : Reuss Voigt Hill
#
# Bulk Modulus (GPa) = 32.64889 45.19943 38.92416
# Shear Modulus (GPa) = 25.66478 29.21102 27.43790
#
# Velocity S-wave (km/s) = 3.48852 3.72174 3.60702
# Velocity P-wave (km/s) = 5.63098 6.31674 5.98369
#
# Compressibility (1/GPa) = 0.03062891
#
# Stress axis : x y z
#
# Youngs Moduli (GPa) = 46.49927 100.15471 51.84372
#
# Poissons Ratio (x) = 0.56407 0.13601
# Poissons Ratio (y) = 0.26188 0.09433
# Poissons Ratio (z) = 0.12199 0.18224
#
# Static dielectric constant tensor:
#      x y z
#    x 1.748200 0.000000 -0.016800 
#    y 0.000000 1.781220 0.000000 
#    z -0.016800 0.000000 1.814810 
# 
# From -- ./inp_files/340314.got.cif
#   From: 2010.05.17/outbox.cif.g08.bks.cpg/sg12_171_cif.got.tgz:340314.got - 2010.06.03 13:09:07.
