data_PCOD9201986
_publ_section_title
;
Structure prediction by ZEFSAII (Michael W. Deem and Ramdas Pophale) SiO2 
 PCOD9201986
Probable space group: C 2/M
;
_chemical_formula_sum "Si O2"
_cell_formula_units_Z 60
_cell_length_a 18.052584
_cell_length_b 14.198315
_cell_length_c 27.331275
_cell_angle_alpha 90.000000
_cell_angle_beta 152.408094
_cell_angle_gamma 90.000000
_cell_volume 3244.720423
_symmetry_space_group_name_H-M "C 2/M"
_symmetry_group_IT_number 12
_symmetry_cell_setting 'monoclinic'
loop_
_space_group_symop_operation_xyz
x,y,z
-x,y,-z
-x,-y,-z
x,-y,z
1/2+x,1/2+y,z
1/2-x,1/2+y,-z
1/2-x,1/2-y,-z
1/2+x,1/2-y,z
loop_
_atom_site_type_symbol
_atom_site_label
_atom_site_fract_x
_atom_site_fract_y
_atom_site_fract_z
Si Si1 0.839627 0.607224 0.630564
Si Si2 0.975061 0.500000 0.075229
Si Si3 0.746024 0.164993 0.070052
Si Si4 0.363467 0.396118 0.879120
Si Si5 0.547723 0.324172 0.898870
Si Si6 0.528767 0.388609 0.612029
Si Si7 0.409706 0.254602 0.260582
Si Si8 0.149198 0.649141 0.250276
O O1 0.875239 0.500000 0.635355
O O2 0.650930 0.623501 0.512426
O O3 0.878668 0.615971 0.710893
O O4 0.942287 0.685304 0.662832
O O5 0.061407 0.581620 0.160152
O O6 0.878729 0.584210 0.989344
O O7 0.857351 0.193038 0.180253
O O8 0.844769 0.129046 0.080227
O O9 0.660774 0.259765 0.999920
O O10 0.290793 0.500000 0.843904
O O11 0.449673 0.390382 0.877256
O O12 0.237308 0.312527 0.809855
O O13 0.500000 0.384013 0.000000
O O14 0.427342 0.251655 0.802118
O O15 0.554731 0.500000 0.635960
O O16 0.554166 0.329398 0.676115
O O17 0.663529 0.355109 0.652824
#
# Coordination Sequence:
#
# PCOD9201986 Si02
#       8
#     8   4   8   8   8   8   8   8
#     4  11  23  40  64  90 114 153 207 257 298 346
#     4  10  22  34  60  92 117 159 191 240 290 368
#     4  10  22  36  57  84 121 158 200 229 296 355
#     4  11  23  38  58  87 118 160 200 239 289 354
#     4  10  20  38  55  85 119 157 194 238 287 362
#     4  11  24  40  62  89 117 154 203 252 305 357
#     4  12  23  41  59  84 126 160 195 244 303 351
#     4  11  19  39  63  89 120 150 194 249 308 346
#
# _framework density 18.491578000000001
#
# number of rings (size 3 to 8) (size 9 to 14) (size 15 to 20)
#    0.000    1.200    5.333    1.200    1.867    1.067 
#    2.400    0.667    0.000    0.000    0.000    0.933 
#    0.000    0.000    0.000    0.000    0.000    0.000 
#
# Total GULP energy -167055.976632 kJ/mol
# GULP energy per Si atom -5568.532554 kJ/mol
# Density = 1.844949 g / cm^3
# Si number density = 18.491578 Si / 1000 Ang^3
#
#
#
# Elastic Constant Matrix: (Units=GPa)
#
#
# Indices 1 2 3 4 5 6 
#
# 1 44.9896 -3.6127 -7.1796 0.0001 6.3188 0.0001
# 2 -3.6127 35.0432 20.0389 0.0001 -2.9423 0.0001
# 3 -7.1796 20.0389 50.8356 0.0010 0.3736 0.0006
# 4 0.0001 0.0001 0.0010 26.5875 0.0004 8.3077
# 5 6.3188 -2.9423 0.3736 0.0004 20.7877 0.0000
# 6 0.0001 0.0001 0.0006 8.3077 0.0000 3.4739
#
#
#
# Elastic Compliance Matrix: (Units=1/GPa)
#
#
# Indices 1 2 3 4 5 6 
#
# 1 0.023797 -0.000147 0.003473 0.000001 -0.007317 -0.000004
# 2 -0.000147 0.037475 -0.014834 0.000000 0.005616 0.000002
# 3 0.003473 -0.014834 0.026036 0.000002 -0.003623 -0.000009
# 4 0.000001 0.000000 0.000002 0.148807 -0.000003 -0.355865
# 5 -0.007317 0.005616 -0.003623 -0.000003 0.051189 0.000008
# 6 -0.000004 0.000002 -0.000009 -0.355865 0.000008 1.138897
#
#
# Mechanical properties :
#
#
# Convention : Reuss Voigt Hill
#
# Bulk Modulus (GPa) = 15.55416 16.59574 16.07495
# Shear Modulus (GPa) = 3.39986 18.27793 10.83890
#
# Velocity S-wave (km/s) = 1.35742 3.14737 2.42369
# Velocity P-wave (km/s) = 3.29947 4.71191 4.06747
#
# Compressibility (1/GPa) = 0.06429147
#
# Stress axis : x y z
#
# Youngs Moduli (GPa) = 42.02140 26.68413 38.40848
#
# Poissons Ratio (x) = 0.00392 -0.13338
# Poissons Ratio (y) = 0.00617 0.56977
# Poissons Ratio (z) = -0.14592 0.39584
#
# Static dielectric constant tensor:
#      x y z
#    x 1.652690 0.000000 0.026850 
#    y 0.000000 1.618210 0.000000 
#    z 0.026850 0.000000 1.628300 
# 
# From -- ./inp_files/364027.got.cif
#   From: 2010.05.17/outbox.cif.g08.bks.cpg/sg12_183_cif.got.tgz:364027.got - 2010.06.03 13:09:07.
