data_PCOD9201650
_publ_section_title
;
Structure prediction by ZEFSAII (Michael W. Deem and Ramdas Pophale) SiO2 
 PCOD9201650
Probable space group: C 2/M
;
_chemical_formula_sum "Si O2"
_cell_formula_units_Z 56
_cell_length_a 15.543854
_cell_length_b 10.624705
_cell_length_c 27.840223
_cell_angle_alpha 90.000000
_cell_angle_beta 38.652046
_cell_angle_gamma 90.000000
_cell_volume 2871.724711
_symmetry_space_group_name_H-M "C 2/M"
_symmetry_group_IT_number 12
_symmetry_cell_setting 'monoclinic'
loop_
_space_group_symop_operation_xyz
x,y,z
-x,y,-z
-x,-y,-z
x,-y,z
1/2+x,1/2+y,z
1/2-x,1/2+y,-z
1/2-x,1/2-y,-z
1/2+x,1/2-y,z
loop_
_atom_site_type_symbol
_atom_site_label
_atom_site_fract_x
_atom_site_fract_y
_atom_site_fract_z
Si Si1 0.422449 0.639747 0.153514
Si Si2 0.739630 0.850489 0.377506
Si Si3 0.167808 0.149122 0.120751
Si Si4 0.138401 0.292343 0.322067
Si Si5 0.658404 0.861017 0.518192
Si Si6 0.448282 0.350445 0.731191
Si Si7 0.456883 0.145305 0.963175
O O1 0.452764 0.500000 0.119993
O O2 0.527165 0.659869 0.152437
O O3 0.267563 0.640567 0.240738
O O4 0.451648 0.755794 0.105628
O O5 0.689720 0.769724 0.354099
O O6 0.648862 0.840898 0.465040
O O7 0.893690 0.813844 0.326920
O O8 0.740081 0.000000 0.362855
O O9 0.144409 0.201803 0.184449
O O10 0.197652 0.000000 0.112980
O O11 0.299337 0.195311 0.033763
O O12 0.101521 0.184668 0.299899
O O13 0.992560 0.360509 0.393027
O O14 0.750000 0.750000 0.500000
O O15 0.722797 0.000000 0.496796
O O16 0.445509 0.500000 0.736704
O O17 0.466114 0.000000 0.940799
O O18 0.500000 0.142068 0.000000
#
# Coordination Sequence:
#
# PCOD9201650 Si02
#       7
#     8   8   8   8   8   8   8
#     4  11  22  36  59  90 120 157 203 253 309 363
#     4  10  20  39  62  86 117 160 208 249 299 371
#     4   9  18  36  60  85 119 161 206 251 298 363
#     4  12  22  36  64  93 122 158 208 258 305 365
#     4  11  23  40  63  92 123 162 207 257 309 368
#     4  10  20  37  63  91 123 162 206 253 306 369
#     4  10  21  38  59  85 118 160 206 250 300 363
#
# _framework density 19.500477
#
# number of rings (size 3 to 8) (size 9 to 14) (size 15 to 20)
#    0.000    1.571    2.857    3.000    0.000    3.143 
#    0.000    0.714    0.000    4.286    0.000    0.000 
#    0.000    0.000    0.000    0.000    0.000    0.000 
#
# Total GULP energy -156089.835170 kJ/mol
# GULP energy per Si atom -5574.636970 kJ/mol
# Density = 1.945609 g / cm^3
# Si number density = 19.500477 Si / 1000 Ang^3
#
#
#
# Elastic Constant Matrix: (Units=GPa)
#
#
# Indices 1 2 3 4 5 6 
#
# 1 97.9308 38.9769 32.1904 0.0000 -1.2982 0.0000
# 2 38.9769 71.5273 51.0783 0.0000 7.7973 0.0000
# 3 32.1904 51.0783 130.8285 0.0000 0.3397 0.0000
# 4 0.0000 0.0000 0.0000 22.2480 0.0000 4.8116
# 5 -1.2982 7.7973 0.3397 0.0000 36.8311 0.0000
# 6 0.0000 0.0000 0.0000 4.8116 0.0000 25.3824
#
#
#
# Elastic Compliance Matrix: (Units=1/GPa)
#
#
# Indices 1 2 3 4 5 6 
#
# 1 0.013210 -0.007055 -0.000501 0.000000 0.001964 0.000000
# 2 -0.007055 0.023771 -0.007532 0.000000 -0.005212 0.000000
# 3 -0.000501 -0.007532 0.010704 0.000000 0.001478 0.000000
# 4 0.000000 0.000000 0.000000 0.046869 0.000000 -0.008885
# 5 0.001964 -0.005212 0.001478 0.000000 0.028310 0.000000
# 6 0.000000 0.000000 0.000000 -0.008885 0.000000 0.041082
#
#
# Mechanical properties :
#
#
# Convention : Reuss Voigt Hill
#
# Bulk Modulus (GPa) = 57.10942 60.53088 58.82015
# Shear Modulus (GPa) = 25.00543 28.76171 26.88357
#
# Velocity S-wave (km/s) = 3.58480 3.84464 3.71699
# Velocity P-wave (km/s) = 6.81793 7.12856 6.97498
#
# Compressibility (1/GPa) = 0.01751025
#
# Stress axis : x y z
#
# Youngs Moduli (GPa) = 75.70141 42.06749 93.42706
#
# Poissons Ratio (x) = 0.29677 0.04682
# Poissons Ratio (y) = 0.53404 0.70365
# Poissons Ratio (z) = 0.03794 0.31683
#
# Static dielectric constant tensor:
#      x y z
#    x 1.697510 0.000000 -0.023720 
#    y 0.000000 1.671210 0.000000 
#    z -0.023720 0.000000 1.748670 
# 
# From -- ./inp_files/375889.got.cif
#   From: 2010.05.17/outbox.cif.g08.bks.cpg/sg12_188_cif.got.tgz:375889.got - 2010.06.03 13:09:07.
