data_PCOD9201898
_publ_section_title
;
Structure prediction by ZEFSAII (Michael W. Deem and Ramdas Pophale) SiO2 
 PCOD9201898
Probable space group: C 2/M
;
_chemical_formula_sum "Si O2"
_cell_formula_units_Z 48
_cell_length_a 8.997943
_cell_length_b 13.892489
_cell_length_c 20.241209
_cell_angle_alpha 90.000000
_cell_angle_beta 113.478057
_cell_angle_gamma 90.000000
_cell_volume 2320.757790
_symmetry_space_group_name_H-M "C 2/M"
_symmetry_group_IT_number 12
_symmetry_cell_setting 'monoclinic'
loop_
_space_group_symop_operation_xyz
x,y,z
-x,y,-z
-x,-y,-z
x,-y,z
1/2+x,1/2+y,z
1/2-x,1/2+y,-z
1/2-x,1/2-y,-z
1/2+x,1/2-y,z
loop_
_atom_site_type_symbol
_atom_site_label
_atom_site_fract_x
_atom_site_fract_y
_atom_site_fract_z
Si Si1 0.987605 0.293558 0.812734
Si Si2 0.804964 0.108573 0.472832
Si Si3 0.735744 0.114658 0.947126
Si Si4 0.806839 0.195562 0.612070
Si Si5 0.532682 0.614349 0.898670
Si Si6 0.645706 0.754957 0.712803
O O1 0.069408 0.343031 0.890101
O O2 0.013762 0.179902 0.831586
O O3 0.083012 0.318130 0.762935
O O4 0.798909 0.305788 0.765685
O O5 0.764382 0.129747 0.542408
O O6 0.724829 0.193949 0.416829
O O7 0.000000 0.118276 0.500000
O O8 0.759395 0.000000 0.445996
O O9 0.878698 0.135172 0.919203
O O10 0.720225 0.000000 0.946814
O O11 0.807179 0.143322 0.031047
O O12 0.704598 0.183770 0.660420
O O13 0.995825 0.189972 0.663126
O O14 0.536589 0.500000 0.887392
#
# Coordination Sequence:
#
# PCOD9201898 Si02
#       6
#     8   8   8   8   8   8
#     4  11  19  37  55  81 109 154 190 228 269 345
#     4  10  20  37  66  91 110 143 187 228 274 320
#     4   9  18  34  56  81 109 144 190 241 286 326
#     4  10  20  41  57  84 120 150 170 238 270 324
#     4   9  18  34  56  81 109 144 190 241 286 326
#     4  10  22  35  57  80 118 154 184 214 286 328
#
# _framework density 20.682898999999999
#
# number of rings (size 3 to 8) (size 9 to 14) (size 15 to 20)
#    0.000    2.167    3.333    1.500    0.000    0.000 
#    0.000   12.500    0.000    2.000    0.000    0.000 
#    0.000    0.000    0.000    0.000    0.000    0.000 
#
# Total GULP energy -133909.544676 kJ/mol
# GULP energy per Si atom -5579.564361 kJ/mol
# Density = 2.063582 g / cm^3
# Si number density = 20.682899 Si / 1000 Ang^3
#
#
#
# Elastic Constant Matrix: (Units=GPa)
#
#
# Indices 1 2 3 4 5 6 
#
# 1 72.2569 8.9424 22.2902 0.0000 5.6466 0.0000
# 2 8.9424 57.0570 22.7316 0.0000 4.4808 0.0000
# 3 22.2902 22.7316 83.8257 0.0000 8.9669 0.0000
# 4 0.0000 0.0000 0.0000 9.4847 0.0000 1.3577
# 5 5.6466 4.4808 8.9669 0.0000 36.6648 0.0000
# 6 0.0000 0.0000 0.0000 1.3577 0.0000 9.0914
#
#
#
# Elastic Compliance Matrix: (Units=1/GPa)
#
#
# Indices 1 2 3 4 5 6 
#
# 1 0.015178 -0.000810 -0.003673 0.000000 -0.001340 0.000000
# 2 -0.000810 0.019738 -0.005024 0.000000 -0.001059 0.000000
# 3 -0.003673 -0.005024 0.014522 0.000000 -0.002372 0.000000
# 4 0.000000 0.000000 0.000000 0.107735 0.000000 -0.016088
# 5 -0.001340 -0.001059 -0.002372 0.000000 0.028190 0.000000
# 6 0.000000 0.000000 0.000000 -0.016088 0.000000 0.112396
#
#
# Mechanical properties :
#
#
# Convention : Reuss Voigt Hill
#
# Bulk Modulus (GPa) = 32.86871 35.67423 34.27147
# Shear Modulus (GPa) = 15.29452 21.65989 18.47720
#
# Velocity S-wave (km/s) = 2.72228 3.23961 2.99215
# Velocity P-wave (km/s) = 5.08009 5.59277 5.34258
#
# Compressibility (1/GPa) = 0.03042408
#
# Stress axis : x y z
#
# Youngs Moduli (GPa) = 65.88697 50.66380 68.85998
#
# Poissons Ratio (x) = 0.04105 0.25291
# Poissons Ratio (y) = 0.05338 0.34594
# Poissons Ratio (z) = 0.24199 0.25452
#
# Static dielectric constant tensor:
#      x y z
#    x 1.766540 0.000000 -0.001520 
#    y 0.000000 1.710080 0.000000 
#    z -0.001520 0.000000 1.752610 
# 
# From -- ./inp_files/299582.got.cif
#   From: 2010.05.17/outbox.cif.g08.bks.cpg/sg12_150_cif.got.tgz:299582.got - 2010.06.03 13:09:07.
