data_PCOD9201832
_publ_section_title
;
Structure prediction by ZEFSAII (Michael W. Deem and Ramdas Pophale) SiO2 
 PCOD9201832
Probable space group: C 2/M
;
_chemical_formula_sum "Si O2"
_cell_formula_units_Z 64
_cell_length_a 23.078594
_cell_length_b 19.541086
_cell_length_c 17.004136
_cell_angle_alpha 90.000000
_cell_angle_beta 157.765911
_cell_angle_gamma 90.000000
_cell_volume 2901.710477
_symmetry_space_group_name_H-M "C 2/M"
_symmetry_group_IT_number 12
_symmetry_cell_setting 'monoclinic'
loop_
_space_group_symop_operation_xyz
x,y,z
-x,y,-z
-x,-y,-z
x,-y,z
1/2+x,1/2+y,z
1/2-x,1/2+y,-z
1/2-x,1/2-y,-z
1/2+x,1/2-y,z
loop_
_atom_site_type_symbol
_atom_site_label
_atom_site_fract_x
_atom_site_fract_y
_atom_site_fract_z
Si Si1 0.342672 0.686142 0.651633
Si Si2 0.834986 0.326970 0.416878
Si Si3 0.657193 0.918173 0.039720
Si Si4 0.171997 0.420477 0.333187
Si Si5 0.881488 0.418717 0.193802
Si Si6 0.441928 0.709980 0.337331
Si Si7 0.201497 0.812659 0.073889
Si Si8 0.891517 0.078979 0.461923
O O1 0.250000 0.750000 0.500000
O O2 0.300110 0.678516 0.689752
O O3 0.273879 0.620087 0.522287
O O4 0.520828 0.692026 0.856259
O O5 0.771696 0.324466 0.249001
O O6 0.947628 0.391486 0.571256
O O7 0.947594 0.261969 0.570692
O O8 0.500742 0.891879 0.882984
O O9 0.645473 0.905676 0.932690
O O10 0.659814 0.000000 0.054573
O O11 0.808626 0.897387 0.277211
O O12 0.162693 0.500000 0.344684
O O13 0.256254 0.417882 0.355726
O O14 0.866784 0.500000 0.189176
O O15 0.764380 0.374272 0.098811
O O16 0.500000 0.716672 0.500000
O O17 0.273871 0.742968 0.128425
O O18 0.480804 0.634295 0.356222
O O19 0.946706 0.000000 0.526635
#
# Coordination Sequence:
#
# PCOD9201832 Si02
#       8
#     8   8   8   8   8   8   8   8
#     4  12  25  43  68  99 128 175 231 278 332 389
#     4  10  21  43  68  95 132 173 221 274 328 397
#     4   9  18  36  64  99 136 173 214 266 329 398
#     4  10  21  39  62  95 138 173 214 277 333 393
#     4  10  20  41  71 104 139 173 216 272 336 403
#     4   9  20  41  63  90 129 168 213 269 325 390
#     4  10  24  44  67  94 136 178 217 279 335 395
#     4  10  20  37  64  98 134 177 221 266 330 400
#
# _framework density 22.055956999999999
#
# number of rings (size 3 to 8) (size 9 to 14) (size 15 to 20)
#    0.000    2.000    1.250    2.625    0.000    5.250 
#    6.750    6.875    0.000    3.000    0.000    0.000 
#    0.000    1.000    0.000    0.000    0.000    0.000 
#
# Total GULP energy -179029.071244 kJ/mol
# GULP energy per Si atom -5594.658476 kJ/mol
# Density = 2.200576 g / cm^3
# Si number density = 22.055957 Si / 1000 Ang^3
#
#
#
# Elastic Constant Matrix: (Units=GPa)
#
#
# Indices 1 2 3 4 5 6 
#
# 1 109.7825 53.1900 35.4828 0.0000 19.6244 0.0000
# 2 53.1900 137.7837 66.4603 0.0000 18.0649 0.0000
# 3 35.4828 66.4603 115.7926 0.0000 26.1486 0.0000
# 4 0.0000 0.0000 0.0000 30.3653 0.0000 2.3386
# 5 19.6244 18.0649 26.1486 0.0000 47.7643 0.0000
# 6 0.0000 0.0000 0.0000 2.3386 0.0000 23.4053
#
#
#
# Elastic Compliance Matrix: (Units=1/GPa)
#
#
# Indices 1 2 3 4 5 6 
#
# 1 0.011709 -0.003766 -0.000755 0.000000 -0.002973 0.000000
# 2 -0.003766 0.011270 -0.005365 0.000000 0.000222 0.000000
# 3 -0.000755 -0.005365 0.013029 0.000000 -0.004794 0.000000
# 4 0.000000 0.000000 0.000000 0.033188 0.000000 -0.003316
# 5 -0.002973 0.000222 -0.004794 0.000000 0.024698 0.000000
# 6 0.000000 0.000000 0.000000 -0.003316 0.000000 0.043057
#
#
# Mechanical properties :
#
#
# Convention : Reuss Voigt Hill
#
# Bulk Modulus (GPa) = 61.58893 74.84724 68.21809
# Shear Modulus (GPa) = 30.83850 34.18869 32.51360
#
# Velocity S-wave (km/s) = 3.74330 3.94139 3.84362
# Velocity P-wave (km/s) = 6.83137 7.39740 7.12001
#
# Compressibility (1/GPa) = 0.01623668
#
# Stress axis : x y z
#
# Youngs Moduli (GPa) = 85.40329 88.72930 76.75124
#
# Poissons Ratio (x) = 0.33417 0.05795
# Poissons Ratio (y) = 0.32165 0.41174
# Poissons Ratio (z) = 0.06448 0.47600
#
# Static dielectric constant tensor:
#      x y z
#    x 1.832110 0.000000 0.022850 
#    y 0.000000 1.847620 0.000000 
#    z 0.022850 0.000000 1.825750 
# 
# From -- ./inp_files/290972.got.cif
#   From: 2010.05.17/outbox.cif.g08.bks.cpg/sg12_146_cif.got.tgz:290972.got - 2010.06.03 13:09:07.
