data_PCOD9201025
_publ_section_title
;
Structure prediction by ZEFSAII (Michael W. Deem and Ramdas Pophale) SiO2 
 PCOD9201025
Probable space group: C 2/M
;
_chemical_formula_sum "Si O2"
_cell_formula_units_Z 64
_cell_length_a 18.410760
_cell_length_b 13.669586
_cell_length_c 14.743146
_cell_angle_alpha 90.000000
_cell_angle_beta 126.632551
_cell_angle_gamma 90.000000
_cell_volume 2977.492756
_symmetry_space_group_name_H-M "C 2/M"
_symmetry_group_IT_number 12
_symmetry_cell_setting 'monoclinic'
loop_
_space_group_symop_operation_xyz
x,y,z
-x,y,-z
-x,-y,-z
x,-y,z
1/2+x,1/2+y,z
1/2-x,1/2+y,-z
1/2-x,1/2-y,-z
1/2+x,1/2-y,z
loop_
_atom_site_type_symbol
_atom_site_label
_atom_site_fract_x
_atom_site_fract_y
_atom_site_fract_z
Si Si1 0.519964 0.387395 0.415803
Si Si2 0.781636 0.611007 0.916434
Si Si3 0.925843 0.387455 0.365132
Si Si4 0.022115 0.698788 0.912098
Si Si5 0.323967 0.835954 0.746634
Si Si6 0.225025 0.893422 0.298859
Si Si7 0.210718 0.146439 0.491783
Si Si8 0.101198 0.785669 0.801418
O O1 0.500000 0.347942 0.500000
O O2 0.545758 0.500000 0.444567
O O3 0.606542 0.338556 0.437316
O O4 0.436024 0.373336 0.288174
O O5 0.760431 0.500000 0.928421
O O6 0.784792 0.621985 0.810208
O O7 0.706270 0.688154 0.893723
O O8 0.884891 0.637012 0.020432
O O9 0.941129 0.500000 0.344817
O O10 0.827225 0.383744 0.338638
O O11 0.920582 0.310036 0.277777
O O12 0.000000 0.368613 0.500000
O O13 0.045554 0.779224 0.853460
O O14 0.930527 0.643322 0.815580
O O15 0.000000 0.730024 0.000000
O O16 0.317552 0.715435 0.749213
O O17 0.265926 0.881997 0.622159
O O18 0.222012 0.904965 0.404844
O O19 0.189360 0.000000 0.235333
O O20 0.250000 0.250000 0.500000
#
# Coordination Sequence:
#
# PCOD9201025 Si02
#       8
#     8   8   8   8   8   8   8   8
#     4  11  24  39  62 101 139 172 212 257 311 388
#     4  11  24  44  67  93 123 160 217 280 332 380
#     4  10  23  38  60  98 138 173 213 257 312 393
#     4  10  25  44  66  91 121 162 218 278 328 381
#     4  10  21  40  62  92 124 172 218 258 330 386
#     4  10  20  37  60  90 134 173 211 262 315 388
#     4  10  21  34  57  92 130 174 211 251 310 383
#     4  12  22  41  72  93 127 173 212 266 328 390
#
# _framework density 21.494596000000001
#
# number of rings (size 3 to 8) (size 9 to 14) (size 15 to 20)
#    0.000    1.500    1.250    3.750    7.000    4.750 
#    0.000    0.625    0.000    8.625    0.000    0.000 
#    0.000    0.000    0.000    0.000    0.000    0.000 
#
# Total GULP energy -178386.032981 kJ/mol
# GULP energy per Si atom -5574.563531 kJ/mol
# Density = 2.144567 g / cm^3
# Si number density = 21.494596 Si / 1000 Ang^3
#
#
#
# Elastic Constant Matrix: (Units=GPa)
#
#
# Indices 1 2 3 4 5 6 
#
# 1 108.7735 10.7914 14.6845 0.0000 8.2795 0.0000
# 2 10.7914 108.6253 1.3904 0.0000 5.5908 0.0000
# 3 14.6845 1.3904 62.2505 0.0000 17.7187 0.0000
# 4 0.0000 0.0000 0.0000 -17.0226 0.0000 13.9908
# 5 8.2795 5.5908 17.7187 0.0000 31.4464 0.0000
# 6 0.0000 0.0000 0.0000 13.9908 0.0000 2.2558
#
#
#
# Elastic Compliance Matrix: (Units=1/GPa)
#
#
# Indices 1 2 3 4 5 6 
#
# 1 0.009633 -0.000865 -0.001876 0.000000 -0.001326 0.000000
# 2 -0.000865 0.009374 0.000481 0.000000 -0.001710 0.000000
# 3 -0.001876 0.000481 0.019508 0.000000 -0.010584 0.000000
# 4 0.000000 0.000000 0.000000 -0.009634 0.000000 0.059754
# 5 -0.001326 -0.001710 -0.010584 0.000000 0.038417 0.000000
# 6 0.000000 0.000000 0.000000 0.059754 0.000000 0.072702
#
#
# Mechanical properties :
#
#
# Convention : Reuss Voigt Hill
#
# Bulk Modulus (GPa) = 29.41429 37.04242 33.22835
# Shear Modulus (GPa) = 32.08195 20.18812 26.13503
#
# Velocity S-wave (km/s) = 3.86756 3.06799 3.49074
# Velocity P-wave (km/s) = 5.80157 5.46085 5.63379
#
# Compressibility (1/GPa) = 0.03399709
#
# Stress axis : x y z
#
# Youngs Moduli (GPa) = 103.80610 106.68120 51.25992
#
# Poissons Ratio (x) = 0.09226 0.09615
# Poissons Ratio (y) = 0.08977 -0.02468
# Poissons Ratio (z) = 0.19472 -0.05135
#
# Static dielectric constant tensor:
#      x y z
#    x 1.732800 0.000000 -0.012570 
#    y 0.000000 2.232950 0.000000 
#    z -0.012570 0.000000 1.819830 
# 
# From -- ./inp_files/225306.got.cif
#   From: 2010.05.17/outbox.cif.g08.bks.cpg/sg12_113_cif.got.tgz:225306.got - 2010.06.03 13:09:07.
