data_PCOD9201584
_publ_section_title
;
Structure prediction by ZEFSAII (Michael W. Deem and Ramdas Pophale) SiO2 
 PCOD9201584
Probable space group: C 2/M
;
_chemical_formula_sum "Si O2"
_cell_formula_units_Z 50
_cell_length_a 29.526048
_cell_length_b 7.574155
_cell_length_c 13.078447
_cell_angle_alpha 90.000000
_cell_angle_beta 125.879301
_cell_angle_gamma 90.000000
_cell_volume 2369.826554
_symmetry_space_group_name_H-M "C 2/M"
_symmetry_group_IT_number 12
_symmetry_cell_setting 'monoclinic'
loop_
_space_group_symop_operation_xyz
x,y,z
-x,y,-z
-x,-y,-z
x,-y,z
1/2+x,1/2+y,z
1/2-x,1/2+y,-z
1/2-x,1/2-y,-z
1/2+x,1/2-y,z
loop_
_atom_site_type_symbol
_atom_site_label
_atom_site_fract_x
_atom_site_fract_y
_atom_site_fract_z
Si Si1 0.000000 0.500000 0.000000
Si Si2 0.508713 0.784726 0.629120
Si Si3 0.908669 0.805697 0.832376
Si Si4 0.319721 0.208419 0.881773
Si Si5 0.894717 0.714347 0.585626
Si Si6 0.634124 0.784185 0.839952
Si Si7 0.309804 0.786920 0.297311
O O1 0.953292 0.653809 0.912672
O O2 0.500000 0.729806 0.500000
O O3 0.456224 0.729672 0.627809
O O4 0.569263 0.729127 0.749525
O O5 0.508779 0.000000 0.629188
O O6 0.858836 0.792057 0.848138
O O7 0.885198 0.779808 0.686930
O O8 0.934065 0.000000 0.872726
O O9 0.254365 0.235521 0.776315
O O10 0.331825 0.000000 0.895923
O O11 0.336157 0.274154 0.016873
O O12 0.894442 0.500000 0.586866
O O13 0.849093 0.773032 0.442253
O O14 0.665426 0.725066 0.778635
O O15 0.634671 0.000000 0.839554
O O16 0.312787 0.000000 0.300031
#
# Coordination Sequence:
#
# PCOD9201584 Si02
#       7
#     2   8   8   8   8   8   8
#     4  12  26  52  72  98 142 172 222 270 334 404
#     4   9  15  28  56  92 125 165 217 271 339 409
#     4  12  27  46  72 103 136 179 224 276 335 397
#     4  11  23  40  62  91 135 182 229 282 343 402
#     4  10  20  37  65  96 136 176 223 282 341 398
#     4   9  18  32  57  92 130 173 226 281 345 409
#     4  10  20  37  62  95 130 177 232 286 338 407
#
# _framework density 21.098590999999999
#
# number of rings (size 3 to 8) (size 9 to 14) (size 15 to 20)
#    0.000    1.760    3.200    1.200    2.240    1.280 
#    0.000    0.800    0.000    1.440    0.000    0.000 
#    0.000    0.000    0.000    0.000    0.000    0.000 
#
# Total GULP energy -139518.666938 kJ/mol
# GULP energy per Si atom -5580.746678 kJ/mol
# Density = 2.105057 g / cm^3
# Si number density = 21.098591 Si / 1000 Ang^3
#
#
#
# Elastic Constant Matrix: (Units=GPa)
#
#
# Indices 1 2 3 4 5 6 
#
# 1 53.7391 18.1748 123.0531 0.0000 -30.3568 0.0000
# 2 18.1748 97.4031 33.1916 0.0000 -7.0604 0.0000
# 3 123.0531 33.1916 133.4420 0.0000 -5.0558 0.0000
# 4 0.0000 0.0000 0.0000 -35.7441 0.0000 28.0865
# 5 -30.3568 -7.0604 -5.0558 0.0000 24.4776 0.0000
# 6 0.0000 0.0000 0.0000 28.0865 0.0000 9.4604
#
#
#
# Elastic Compliance Matrix: (Units=1/GPa)
#
#
# Indices 1 2 3 4 5 6 
#
# 1 -0.011007 -0.002329 0.010267 0.000000 -0.012202 0.000000
# 2 -0.002329 0.010902 -0.000558 0.000000 0.000140 0.000000
# 3 0.010267 -0.000558 -0.001370 0.000000 0.012290 0.000000
# 4 0.000000 0.000000 0.000000 -0.008394 0.000000 0.024921
# 5 -0.012202 0.000140 0.012290 0.000000 0.028299 0.000000
# 6 0.000000 0.000000 0.000000 0.024921 0.000000 0.031716
#
#
# Mechanical properties :
#
#
# Convention : Reuss Voigt Hill
#
# Bulk Modulus (GPa) = 75.27726 70.38036 72.82881
# Shear Modulus (GPa) = 125.58241 6.98310 66.28276
#
# Velocity S-wave (km/s) = 7.72340 1.82125 5.61105
# Velocity P-wave (km/s) = 10.73736 6.15247 8.75053
#
# Compressibility (1/GPa) = 0.01328422
#
# Stress axis : x y z
#
# Youngs Moduli (GPa) = -90.84901 91.72904 -730.10168
#
# Poissons Ratio (x) = 0.21367 7.49625
# Poissons Ratio (y) = -0.21162 -0.40759
# Poissons Ratio (z) = 0.93278 0.05121
#
# Static dielectric constant tensor:
#      x y z
#    x 1.711870 0.000000 -0.014630 
#    y 0.000000 1.792930 0.000000 
#    z -0.014630 0.000000 1.724740 
# 
# From -- ./inp_files/181249.got.cif
#   From: 2010.05.17/outbox.cif.g08.bks.cpg/sg12_91_cif.got.tgz:181249.got - 2010.06.03 13:09:07.
