data_PCOD9201676
_publ_section_title
;
Structure prediction by ZEFSAII (Michael W. Deem and Ramdas Pophale) SiO2 
 PCOD9201676
Probable space group: C 2/M
;
_chemical_formula_sum "Si O2"
_cell_formula_units_Z 64
_cell_length_a 8.524718
_cell_length_b 24.513068
_cell_length_c 23.808465
_cell_angle_alpha 90.000000
_cell_angle_beta 31.306625
_cell_angle_gamma 90.000000
_cell_volume 2585.194345
_symmetry_space_group_name_H-M "C 2/M"
_symmetry_group_IT_number 12
_symmetry_cell_setting 'monoclinic'
loop_
_space_group_symop_operation_xyz
x,y,z
-x,y,-z
-x,-y,-z
x,-y,z
1/2+x,1/2+y,z
1/2-x,1/2+y,-z
1/2-x,1/2-y,-z
1/2+x,1/2-y,z
loop_
_atom_site_type_symbol
_atom_site_label
_atom_site_fract_x
_atom_site_fract_y
_atom_site_fract_z
Si Si1 0.327076 0.752190 0.106914
Si Si2 0.693071 0.207535 0.258484
Si Si3 0.074083 0.913272 0.565643
Si Si4 0.209714 0.561285 0.779553
Si Si5 0.630468 0.562214 0.875726
Si Si6 0.451829 0.865947 0.947709
Si Si7 0.689655 0.705222 0.565809
Si Si8 0.516314 0.911788 0.655776
O O1 0.236881 0.706366 0.178468
O O2 0.529967 0.801463 0.069561
O O3 0.021889 0.783962 0.183503
O O4 0.500000 0.731583 0.000000
O O5 0.512230 0.262650 0.327703
O O6 0.530282 0.153760 0.330205
O O7 0.049487 0.847982 0.581308
O O8 0.381822 0.927439 0.438327
O O9 0.998248 0.935529 0.650199
O O10 0.800397 0.928416 0.607837
O O11 0.183002 0.500000 0.809951
O O12 0.920694 0.572088 0.826936
O O13 0.198328 0.604243 0.833292
O O14 0.530519 0.500000 0.916635
O O15 0.736235 0.566861 0.778037
O O16 0.361333 0.603799 0.969325
O O17 0.500000 0.872226 0.000000
O O18 0.750000 0.750000 0.500000
O O19 0.000000 0.688343 0.500000
#
# Coordination Sequence:
#
# PCOD9201676 Si02
#       8
#     8   8   8   8   8   8   8   8
#     4  11  25  42  61  91 127 170 212 258 318 378
#     4  12  23  40  64  90 129 168 211 261 309 379
#     4  10  21  38  60  93 131 166 209 263 316 380
#     4  10  22  41  67  96 126 164 214 268 325 379
#     4  10  22  41  66  95 122 162 216 266 316 379
#     4  11  23  42  65  92 129 165 214 268 324 379
#     4  12  23  38  61  92 121 164 214 260 310 370
#     4  10  20  37  63  92 128 167 209 260 316 378
#
# _framework density 24.756357999999999
#
# number of rings (size 3 to 8) (size 9 to 14) (size 15 to 20)
#    0.000    1.250    1.250    5.625    0.000    3.500 
#    2.250    5.000    0.000    0.375    0.000    0.000 
#    0.000    0.000    0.000    0.000    0.000    0.000 
#
# Total GULP energy -179182.377261 kJ/mol
# GULP energy per Si atom -5599.449289 kJ/mol
# Density = 2.470001 g / cm^3
# Si number density = 24.756358 Si / 1000 Ang^3
#
#
#
# Elastic Constant Matrix: (Units=GPa)
#
#
# Indices 1 2 3 4 5 6 
#
# 1 60.0337 11.3569 21.1349 -0.0144 9.9603 -0.0118
# 2 11.3569 62.4963 15.1410 -0.0006 12.4854 -0.0019
# 3 21.1349 15.1410 142.3488 -0.0330 35.1253 -0.0063
# 4 -0.0144 -0.0006 -0.0330 -13.9541 0.0127 -4.6695
# 5 9.9603 12.4854 35.1253 0.0127 43.3094 0.0058
# 6 -0.0118 -0.0019 -0.0063 -4.6695 0.0058 15.5936
#
#
#
# Elastic Compliance Matrix: (Units=1/GPa)
#
#
# Indices 1 2 3 4 5 6 
#
# 1 0.018123 -0.002443 -0.001971 -0.000018 -0.001865 0.000008
# 2 -0.002443 0.017372 -0.000485 -0.000001 -0.004053 0.000001
# 3 -0.001971 -0.000485 0.009030 -0.000025 -0.006731 -0.000003
# 4 -0.000018 -0.000001 -0.000025 -0.065136 0.000046 -0.019505
# 5 -0.001865 -0.004053 -0.006731 0.000046 0.030146 -0.000002
# 6 0.000008 0.000001 -0.000003 -0.019505 -0.000002 0.058288
#
#
# Mechanical properties :
#
#
# Convention : Reuss Voigt Hill
#
# Bulk Modulus (GPa) = 28.79582 40.01602 34.40592
# Shear Modulus (GPa) = 56.05647 23.47283 39.76465
#
# Velocity S-wave (km/s) = 4.76366 3.08255 4.01214
# Velocity P-wave (km/s) = 6.47406 5.37294 5.94903
#
# Compressibility (1/GPa) = 0.03472726
#
# Stress axis : x y z
#
# Youngs Moduli (GPa) = 55.17931 57.56353 110.74247
#
# Poissons Ratio (x) = 0.14064 0.21823
# Poissons Ratio (y) = 0.13481 0.05371
# Poissons Ratio (z) = 0.10874 0.02792
#
# Static dielectric constant tensor:
#      x y z
#    x 1.975470 0.000000 0.004010 
#    y 0.000000 1.918400 0.000000 
#    z 0.004010 0.000000 1.990850 
# 
# From -- ./inp_files/334336.got.cif
#   From: 2010.05.17/outbox.cif.g08.bks.cpg/sg12_168_cif.got.tgz:334336.got - 2010.06.03 13:09:07.
