data_PCOD9201697
_publ_section_title
;
Structure prediction by ZEFSAII (Michael W. Deem and Ramdas Pophale) SiO2 
 PCOD9201697
Probable space group: C 2/M
;
_chemical_formula_sum "Si O2"
_cell_formula_units_Z 48
_cell_length_a 7.573642
_cell_length_b 32.571211
_cell_length_c 12.809294
_cell_angle_alpha 90.000000
_cell_angle_beta 141.872317
_cell_angle_gamma 90.000000
_cell_volume 1950.930349
_symmetry_space_group_name_H-M "C 2/M"
_symmetry_group_IT_number 12
_symmetry_cell_setting 'monoclinic'
loop_
_space_group_symop_operation_xyz
x,y,z
-x,y,-z
-x,-y,-z
x,-y,z
1/2+x,1/2+y,z
1/2-x,1/2+y,-z
1/2-x,1/2-y,-z
1/2+x,1/2-y,z
loop_
_atom_site_type_symbol
_atom_site_label
_atom_site_fract_x
_atom_site_fract_y
_atom_site_fract_z
Si Si1 0.892447 0.593170 0.123190
Si Si2 0.434369 0.593256 0.224829
Si Si3 0.082801 0.758209 0.182991
Si Si4 0.313010 0.676259 0.603969
Si Si5 0.778910 0.547488 0.552609
Si Si6 0.514341 0.816857 0.255547
O O1 0.158063 0.585044 0.168416
O O2 0.970574 0.568661 0.264071
O O3 0.890048 0.641273 0.152499
O O4 0.626890 0.582720 0.924269
O O5 0.478044 0.642062 0.254442
O O6 0.688577 0.570661 0.404602
O O7 0.127906 0.779954 0.315705
O O8 0.167818 0.710871 0.239066
O O9 0.750000 0.750000 0.000000
O O10 0.735270 0.788893 0.805667
O O11 0.249723 0.674413 0.452583
O O12 0.000000 0.663535 0.500000
O O13 0.500000 0.549463 0.500000
O O14 0.840428 0.500000 0.560648
#
# Coordination Sequence:
#
# PCOD9201697 Si02
#       6
#     8   8   8   8   8   8
#     4  10  21  37  64  96 129 174 214 262 323 389
#     4  10  20  37  63  93 128 170 214 266 318 388
#     4  11  24  40  60  88 124 164 217 274 318 374
#     4  10  22  40  61  88 121 165 220 269 323 383
#     4   9  18  35  61  98 135 167 206 263 325 386
#     4  11  23  41  60  87 126 172 219 266 326 377
#
# _framework density 24.603646999999999
#
# number of rings (size 3 to 8) (size 9 to 14) (size 15 to 20)
#    0.000    1.833    1.667    2.000    2.333    2.000 
#    0.000    3.333    0.000    0.500    0.000    1.167 
#    0.000    0.000    0.000    0.000    0.000    0.833 
#
# Total GULP energy -134111.771651 kJ/mol
# GULP energy per Si atom -5587.990485 kJ/mol
# Density = 2.454765 g / cm^3
# Si number density = 24.603647 Si / 1000 Ang^3
#
#
#
# Elastic Constant Matrix: (Units=GPa)
#
#
# Indices 1 2 3 4 5 6 
#
# 1 88.5499 10.7325 29.5936 0.0000 8.2773 0.0000
# 2 10.7325 141.3168 71.0592 0.0000 -20.0085 0.0000
# 3 29.5936 71.0592 214.8315 0.0000 -28.0226 0.0000
# 4 0.0000 0.0000 0.0000 3.9174 0.0000 -0.1312
# 5 8.2773 -20.0085 -28.0226 0.0000 30.2553 0.0000
# 6 0.0000 0.0000 0.0000 -0.1312 0.0000 13.3567
#
#
#
# Elastic Compliance Matrix: (Units=1/GPa)
#
#
# Indices 1 2 3 4 5 6 
#
# 1 0.012717 -0.000655 -0.002327 0.000000 -0.006067 0.000000
# 2 -0.000655 0.008846 -0.002331 0.000000 0.003870 0.000000
# 3 -0.002327 -0.002331 0.006402 0.000000 0.005024 0.000000
# 4 0.000000 0.000000 0.000000 0.255352 0.000000 0.002508
# 5 -0.006067 0.003870 0.005024 0.000000 0.041925 0.000000
# 6 0.000000 0.000000 0.000000 0.002508 0.000000 0.074893
#
#
# Mechanical properties :
#
#
# Convention : Reuss Voigt Hill
#
# Bulk Modulus (GPa) = 57.67024 74.16319 65.91672
# Shear Modulus (GPa) = 12.00364 31.72676 21.86520
#
# Velocity S-wave (km/s) = 2.21120 3.59488 2.98434
# Velocity P-wave (km/s) = 5.47812 6.88763 6.22291
#
# Compressibility (1/GPa) = 0.01733997
#
# Stress axis : x y z
#
# Youngs Moduli (GPa) = 78.63398 113.04410 156.20930
#
# Poissons Ratio (x) = 0.07404 0.36344
# Poissons Ratio (y) = 0.05150 0.36411
# Poissons Ratio (z) = 0.18295 0.26350
#
# Static dielectric constant tensor:
#      x y z
#    x 1.984180 0.000000 -0.036160 
#    y 0.000000 1.930160 0.000000 
#    z -0.036160 0.000000 1.976070 
# 
# From -- ./inp_files/209898.got.cif
#   From: 2010.05.17/outbox.cif.g08.bks.cpg/sg12_105_cif.got.tgz:209898.got - 2010.06.03 13:09:07.
