data_PCOD9201739
_publ_section_title
;
Structure prediction by ZEFSAII (Michael W. Deem and Ramdas Pophale) SiO2 
 PCOD9201739
Probable space group: C 2/M
;
_chemical_formula_sum "Si O2"
_cell_formula_units_Z 28
_cell_length_a 10.975483
_cell_length_b 18.410982
_cell_length_c 11.529205
_cell_angle_alpha 90.000000
_cell_angle_beta 29.502496
_cell_angle_gamma 90.000000
_cell_volume 1147.287384
_symmetry_space_group_name_H-M "C 2/M"
_symmetry_group_IT_number 12
_symmetry_cell_setting 'monoclinic'
loop_
_space_group_symop_operation_xyz
x,y,z
-x,y,-z
-x,-y,-z
x,-y,z
1/2+x,1/2+y,z
1/2-x,1/2+y,-z
1/2-x,1/2-y,-z
1/2+x,1/2-y,z
loop_
_atom_site_type_symbol
_atom_site_label
_atom_site_fract_x
_atom_site_fract_y
_atom_site_fract_z
Si Si1 0.700464 0.500000 0.729896
Si Si2 0.372247 0.261318 0.772086
Si Si3 0.689678 0.133525 0.512523
Si Si4 0.215086 0.390910 0.742746
O O1 0.679246 0.574069 0.674709
O O2 0.000000 0.500000 0.500000
O O3 0.500000 0.500000 0.000000
O O4 0.462848 0.182276 0.655110
O O5 0.603069 0.311073 0.615497
O O6 0.247970 0.308997 0.772396
O O7 0.250000 0.250000 0.000000
O O8 0.606359 0.100919 0.704276
O O9 0.500000 0.418164 0.500000
O O10 0.000000 0.423192 0.000000
#
# Coordination Sequence:
#
# PCOD9201739 Si02
#       4
#     4   8   8   8
#     4  12  32  54  72 100 144 204 254 297 371 443
#     4  10  20  39  72 108 144 181 237 301 365 426
#     4  10  24  45  67 102 145 188 244 300 359 435
#     4  10  20  37  64 105 139 174 226 286 358 417
#
# _framework density 24.405394000000001
#
# number of rings (size 3 to 8) (size 9 to 14) (size 15 to 20)
#    0.000    1.714    2.857    0.000    4.000    5.714 
#    0.000    7.143    0.000    0.000    0.000    0.000 
#    0.000    0.000    0.000    0.000    0.000    0.000 
#
# Total GULP energy -77992.171953 kJ/mol
# GULP energy per Si atom -5570.869425 kJ/mol
# Density = 2.434985 g / cm^3
# Si number density = 24.405394 Si / 1000 Ang^3
#
#
#
# Elastic Constant Matrix: (Units=GPa)
#
#
# Indices 1 2 3 4 5 6 
#
# 1 71.5160 38.5248 42.9931 0.0112 29.5034 0.0035
# 2 38.5248 140.9611 54.0546 0.0644 26.4871 0.0015
# 3 42.9931 54.0546 214.4715 0.0455 45.7806 -0.0184
# 4 0.0112 0.0644 0.0455 -15.8338 -0.0045 26.1171
# 5 29.5034 26.4871 45.7806 -0.0045 58.7146 0.0011
# 6 0.0035 0.0015 -0.0184 26.1171 0.0011 10.9684
#
#
#
# Elastic Compliance Matrix: (Units=1/GPa)
#
#
# Indices 1 2 3 4 5 6 
#
# 1 0.019725 -0.003451 -0.001561 -0.000003 -0.007138 0.000000
# 2 -0.003451 0.008749 -0.001249 0.000005 -0.001239 -0.000015
# 3 -0.001561 -0.001249 0.006001 0.000006 -0.003332 -0.000004
# 4 -0.000003 0.000005 0.000006 -0.012817 -0.000007 0.030519
# 5 -0.007138 -0.001239 -0.003332 -0.000007 0.023775 0.000012
# 6 0.000000 -0.000015 -0.000004 0.030519 0.000012 0.018502
#
#
# Mechanical properties :
#
#
# Convention : Reuss Voigt Hill
#
# Bulk Modulus (GPa) = 45.54947 77.56597 61.55772
# Shear Modulus (GPa) = 59.68381 30.19492 44.93937
#
# Velocity S-wave (km/s) = 4.95058 3.52123 4.29577
# Velocity P-wave (km/s) = 7.16812 6.95582 7.06277
#
# Compressibility (1/GPa) = 0.02195415
#
# Stress axis : x y z
#
# Youngs Moduli (GPa) = 50.69759 114.29832 166.62731
#
# Poissons Ratio (x) = 0.39446 0.26004
# Poissons Ratio (y) = 0.17496 0.20808
# Poissons Ratio (z) = 0.07912 0.14273
#
# Static dielectric constant tensor:
#      x y z
#    x 2.115510 -0.000350 0.016570 
#    y -0.000350 2.062580 -0.000050 
#    z 0.016570 -0.000050 2.051210 
# 
# From -- ./inp_files/6136.got.cif
#   From: 2010.05.17/outbox.cif.g08.bks.cpg/sg12_4_cif.got.tgz:6136.got - 2010.06.03 13:09:07.
