data_PCOD9201699
_publ_section_title
;
Structure prediction by ZEFSAII (Michael W. Deem and Ramdas Pophale) SiO2 
 PCOD9201699
Probable space group: C 2/M
;
_chemical_formula_sum "Si O2"
_cell_formula_units_Z 64
_cell_length_a 13.767665
_cell_length_b 22.927511
_cell_length_c 17.950232
_cell_angle_alpha 90.000000
_cell_angle_beta 31.569617
_cell_angle_gamma 90.000000
_cell_volume 2966.417699
_symmetry_space_group_name_H-M "C 2/M"
_symmetry_group_IT_number 12
_symmetry_cell_setting 'monoclinic'
loop_
_space_group_symop_operation_xyz
x,y,z
-x,y,-z
-x,-y,-z
x,-y,z
1/2+x,1/2+y,z
1/2-x,1/2+y,-z
1/2-x,1/2-y,-z
1/2+x,1/2-y,z
loop_
_atom_site_type_symbol
_atom_site_label
_atom_site_fract_x
_atom_site_fract_y
_atom_site_fract_z
Si Si1 0.137524 0.068050 0.616122
Si Si2 0.454183 0.068106 0.112325
Si Si3 0.796785 0.750029 0.771346
Si Si4 0.563394 0.747655 0.773059
Si Si5 0.734981 0.682315 0.951783
Si Si6 0.657733 0.565700 0.055066
Si Si7 0.886505 0.325926 0.496921
Si Si8 0.581980 0.368258 0.366288
O O1 0.302286 0.113514 0.523996
O O2 0.040177 0.086835 0.602193
O O3 0.191884 0.000000 0.577407
O O4 0.993354 0.074037 0.780114
O O5 0.641091 0.070521 0.037336
O O6 0.278232 0.102456 0.256335
O O7 0.401267 0.000000 0.139040
O O8 0.500000 0.091365 0.000000
O O9 0.669719 0.750677 0.781526
O O10 0.694995 0.726090 0.910149
O O11 0.885630 0.813920 0.710327
O O12 0.962986 0.703898 0.653638
O O13 0.452904 0.806802 0.826476
O O14 0.716793 0.719800 0.619134
O O15 0.391082 0.703485 0.896684
O O16 0.667122 0.616252 0.987138
O O17 0.633673 0.500000 0.041787
O O18 0.000000 0.334074 0.500000
O O19 0.500000 0.349091 0.500000
#
# Coordination Sequence:
#
# PCOD9201699 Si02
#       8
#     8   8   8   8   8   8   8   8
#     4  11  23  41  66  93 125 169 217 264 317 375
#     4  10  20  37  63  93 130 171 212 253 306 377
#     4  11  25  40  61  91 131 168 206 264 322 382
#     4  10  21  38  62  93 124 164 213 256 318 382
#     4  11  22  38  64  94 125 164 210 266 318 378
#     4  10  21  39  64  94 127 166 215 268 320 377
#     4  10  22  43  64  89 127 167 214 268 319 372
#     4  12  25  40  62  97 137 174 206 254 319 390
#
# _framework density 21.574843999999999
#
# number of rings (size 3 to 8) (size 9 to 14) (size 15 to 20)
#    0.000    1.375    2.500    3.375    1.750    6.250 
#    0.000    1.875    0.000    2.250    0.000    0.000 
#    0.000    0.000    0.000    0.000    0.000    0.000 
#
# Total GULP energy -178689.138054 kJ/mol
# GULP energy per Si atom -5584.035564 kJ/mol
# Density = 2.152574 g / cm^3
# Si number density = 21.574844 Si / 1000 Ang^3
#
#
#
# Elastic Constant Matrix: (Units=GPa)
#
#
# Indices 1 2 3 4 5 6 
#
# 1 54.8474 4.5239 14.5997 -0.0044 -9.9961 0.0258
# 2 4.5239 110.2664 27.3160 -0.0245 -3.1166 0.0352
# 3 14.5997 27.3160 79.8082 -0.0310 -8.4359 -0.0035
# 4 -0.0044 -0.0245 -0.0310 32.3678 -0.0007 -0.6640
# 5 -9.9961 -3.1166 -8.4359 -0.0007 33.8029 0.0035
# 6 0.0258 0.0352 -0.0035 -0.6640 0.0035 22.0234
#
#
#
# Elastic Compliance Matrix: (Units=1/GPa)
#
#
# Indices 1 2 3 4 5 6 
#
# 1 0.019999 0.000105 -0.003152 -0.000001 0.005137 -0.000025
# 2 0.000105 0.009910 -0.003401 0.000004 0.000096 -0.000016
# 3 -0.003152 -0.003401 0.014522 0.000011 0.002379 0.000011
# 4 -0.000001 0.000004 0.000011 0.030914 0.000003 0.000932
# 5 0.005137 0.000096 0.002379 0.000003 0.031705 -0.000011
# 6 -0.000025 -0.000016 0.000011 0.000932 -0.000011 0.045435
#
#
# Mechanical properties :
#
#
# Convention : Reuss Voigt Hill
#
# Bulk Modulus (GPa) = 31.70918 37.53346 34.62132
# Shear Modulus (GPa) = 28.42675 30.87097 29.64886
#
# Velocity S-wave (km/s) = 3.63380 3.78680 3.71109
# Velocity P-wave (km/s) = 5.68640 6.04603 5.86897
#
# Compressibility (1/GPa) = 0.03153660
#
# Stress axis : x y z
#
# Youngs Moduli (GPa) = 50.00276 100.90966 68.86078
#
# Poissons Ratio (x) = -0.01064 0.21702
# Poissons Ratio (y) = -0.00527 0.23419
# Poissons Ratio (z) = 0.15759 0.34319
#
# Static dielectric constant tensor:
#      x y z
#    x 1.810590 -0.000030 0.001890 
#    y -0.000030 1.826720 0.000020 
#    z 0.001890 0.000020 1.799880 
# 
# From -- ./inp_files/272809.got.cif
#   From: 2010.05.17/outbox.cif.g08.bks.cpg/sg12_137_cif.got.tgz:272809.got - 2010.06.03 13:09:07.
