data_PCOD9201259
_publ_section_title
;
Structure prediction by ZEFSAII (Michael W. Deem and Ramdas Pophale) SiO2 
 PCOD9201259
Probable space group: C 2/M
;
_chemical_formula_sum "Si O2"
_cell_formula_units_Z 64
_cell_length_a 33.999099
_cell_length_b 18.571788
_cell_length_c 16.111600
_cell_angle_alpha 90.000000
_cell_angle_beta 18.717122
_cell_angle_gamma 90.000000
_cell_volume 3264.556198
_symmetry_space_group_name_H-M "C 2/M"
_symmetry_group_IT_number 12
_symmetry_cell_setting 'monoclinic'
loop_
_space_group_symop_operation_xyz
x,y,z
-x,y,-z
-x,-y,-z
x,-y,z
1/2+x,1/2+y,z
1/2-x,1/2+y,-z
1/2-x,1/2-y,-z
1/2+x,1/2-y,z
loop_
_atom_site_type_symbol
_atom_site_label
_atom_site_fract_x
_atom_site_fract_y
_atom_site_fract_z
Si Si1 0.263593 0.417856 0.102969
Si Si2 0.335833 0.341660 0.495028
Si Si3 0.130462 0.339980 0.045544
Si Si4 0.580112 0.318441 0.104872
Si Si5 0.852105 0.314035 0.802366
Si Si6 0.853106 0.082685 0.298946
Si Si7 0.714284 0.815061 0.448405
Si Si8 0.927805 0.422188 0.364837
O O1 0.290743 0.500000 0.021887
O O2 0.186215 0.371947 0.191032
O O3 0.182448 0.423307 0.348609
O O4 0.380527 0.371014 0.898999
O O5 0.466073 0.345094 0.279760
O O6 0.317329 0.404842 0.466207
O O7 0.324294 0.267660 0.464550
O O8 0.240843 0.338802 0.760083
O O9 0.061006 0.262676 0.176232
O O10 0.166185 0.346521 0.069430
O O11 0.043760 0.402929 0.188008
O O12 0.690760 0.313920 0.818036
O O13 0.000000 0.295830 0.500000
O O14 0.750000 0.250000 0.000000
O O15 0.780040 0.139953 0.389043
O O16 0.830091 0.000000 0.318373
O O17 0.000000 0.095491 0.000000
O O18 0.597407 0.860342 0.651234
O O19 0.937038 0.500000 0.305973
#
# Coordination Sequence:
#
# PCOD9201259 Si02
#       8
#     8   8   8   8   8   8   8   8
#     4  10  22  39  62  92 123 160 209 261 311 371
#     4  11  23  39  64  91 125 163 207 259 316 375
#     4  11  23  38  62  91 124 167 202 258 315 376
#     4  10  20  38  62  92 123 156 210 257 310 372
#     4  12  25  40  67  97 129 169 219 268 321 379
#     4  11  23  40  61  90 126 162 207 258 313 376
#     4  10  20  38  64  90 117 160 205 258 303 368
#     4  10  20  37  61  90 122 156 201 252 311 369
#
# _framework density 19.604503000000001
#
# number of rings (size 3 to 8) (size 9 to 14) (size 15 to 20)
#    0.000    1.375    5.000    0.750    1.750    2.250 
#    0.000    0.625    0.000    4.125    0.000    0.000 
#    0.000    0.000    0.000    0.000    0.000    0.000 
#
# Total GULP energy -178446.941451 kJ/mol
# GULP energy per Si atom -5576.466920 kJ/mol
# Density = 1.955988 g / cm^3
# Si number density = 19.604503 Si / 1000 Ang^3
#
#
#
# Elastic Constant Matrix: (Units=GPa)
#
#
# Indices 1 2 3 4 5 6 
#
# 1 83.0579 18.1899 12.5153 0.0000 -11.5821 0.0000
# 2 18.1899 74.4819 20.0068 0.0000 -10.7245 0.0001
# 3 12.5153 20.0068 35.0292 0.0002 -5.0458 0.0002
# 4 0.0000 0.0000 0.0002 19.8196 -0.0001 -8.2298
# 5 -11.5821 -10.7245 -5.0458 -0.0001 24.8438 0.0000
# 6 0.0000 0.0001 0.0002 -8.2298 0.0000 34.4440
#
#
#
# Elastic Compliance Matrix: (Units=1/GPa)
#
#
# Indices 1 2 3 4 5 6 
#
# 1 0.013587 -0.001765 -0.003135 0.000000 0.004935 0.000000
# 2 -0.001765 0.016757 -0.008258 0.000000 0.004733 0.000000
# 3 -0.003135 -0.008258 0.034675 0.000000 0.002016 0.000000
# 4 0.000000 0.000000 0.000000 0.056012 0.000000 0.013383
# 5 0.004935 0.004733 0.002016 0.000000 0.045005 0.000000
# 6 0.000000 0.000000 0.000000 0.013383 0.000000 0.032230
#
#
# Mechanical properties :
#
#
# Convention : Reuss Voigt Hill
#
# Bulk Modulus (GPa) = 25.83891 32.66588 29.25240
# Shear Modulus (GPa) = 21.05403 25.27861 23.16632
#
# Velocity S-wave (km/s) = 3.28066 3.59476 3.44129
# Velocity P-wave (km/s) = 5.24966 5.82480 5.54470
#
# Compressibility (1/GPa) = 0.03870132
#
# Stress axis : x y z
#
# Youngs Moduli (GPa) = 73.59937 59.67650 28.83947
#
# Poissons Ratio (x) = 0.10535 0.09042
# Poissons Ratio (y) = 0.12993 0.23816
# Poissons Ratio (z) = 0.23075 0.49282
#
# Static dielectric constant tensor:
#      x y z
#    x 1.668600 0.000000 -0.001110 
#    y 0.000000 1.720180 0.000000 
#    z -0.001110 0.000000 1.714720 
# 
# From -- ./inp_files/251900.got.cif
#   From: 2010.05.17/outbox.cif.g08.bks.cpg/sg12_126_cif.got.tgz:251900.got - 2010.06.03 13:09:07.
