data_PCOD9201000
_publ_section_title
;
Structure prediction by ZEFSAII (Michael W. Deem and Ramdas Pophale) SiO2 
 PCOD9201000
Probable space group: C 2/M
;
_chemical_formula_sum "Si O2"
_cell_formula_units_Z 36
_cell_length_a 30.971965
_cell_length_b 11.164661
_cell_length_c 21.252973
_cell_angle_alpha 90.000000
_cell_angle_beta 166.738639
_cell_angle_gamma 90.000000
_cell_volume 1685.834354
_symmetry_space_group_name_H-M "C 2/M"
_symmetry_group_IT_number 12
_symmetry_cell_setting 'monoclinic'
loop_
_space_group_symop_operation_xyz
x,y,z
-x,y,-z
-x,-y,-z
x,-y,z
1/2+x,1/2+y,z
1/2-x,1/2+y,-z
1/2-x,1/2-y,-z
1/2+x,1/2-y,z
loop_
_atom_site_type_symbol
_atom_site_label
_atom_site_fract_x
_atom_site_fract_y
_atom_site_fract_z
Si Si1 0.054046 0.500000 0.788033
Si Si2 0.947306 0.275338 0.853245
Si Si3 0.496337 0.500000 0.375366
Si Si4 0.024142 0.859812 0.226470
Si Si5 0.065231 0.759517 0.779907
Si Si6 0.123836 0.500000 0.032289
O O1 0.974234 0.626838 0.649763
O O2 0.278347 0.500000 0.088240
O O3 0.039042 0.500000 0.842250
O O4 0.996077 0.167193 0.875626
O O5 0.726665 0.306711 0.534089
O O6 0.000000 0.258095 0.000000
O O7 0.052571 0.386854 0.970569
O O8 0.532853 0.378956 0.386517
O O9 0.650293 0.500000 0.648502
O O10 0.886432 0.790232 0.078836
O O11 0.014232 0.000000 0.223895
O O12 0.250000 0.750000 0.000000
#
# Coordination Sequence:
#
# PCOD9201000 Si02
#       6
#     4   8   4   8   8   4
#     4  10  21  37  59  91 123 157 197 254 304 362
#     4  11  24  38  60  91 121 158 204 256 306 366
#     4  10  21  35  65  89 118 158 204 249 307 369
#     4  11  22  40  63  88 122 164 205 249 312 369
#     4  10  20  37  60  89 119 157 201 248 302 362
#     4  12  20  38  60  90 118 152 202 256 304 362
#
# _framework density 21.354410999999999
#
# number of rings (size 3 to 8) (size 9 to 14) (size 15 to 20)
#    0.000    1.333    4.444    2.000    0.000    0.444 
#    0.000    0.000    7.333    0.000    0.000   15.556 
#    0.000    0.000    0.000    0.000    0.000    0.000 
#
# Total GULP energy -100465.245568 kJ/mol
# GULP energy per Si atom -5581.402532 kJ/mol
# Density = 2.130581 g / cm^3
# Si number density = 21.354411 Si / 1000 Ang^3
#
#
#
# Elastic Constant Matrix: (Units=GPa)
#
#
# Indices 1 2 3 4 5 6 
#
# 1 154.2869 48.8841 23.4239 0.0001 -11.9701 0.0000
# 2 48.8841 156.5325 6.3643 0.0000 -7.0865 0.0000
# 3 23.4239 6.3643 37.0425 0.0001 -5.9975 0.0000
# 4 0.0001 0.0000 0.0001 0.9485 0.0001 5.9218
# 5 -11.9701 -7.0865 -5.9975 0.0001 29.0088 0.0000
# 6 0.0000 0.0000 0.0000 5.9218 0.0000 31.2967
#
#
#
# Elastic Compliance Matrix: (Units=1/GPa)
#
#
# Indices 1 2 3 4 5 6 
#
# 1 0.007997 -0.002236 -0.004374 0.000000 0.001850 0.000000
# 2 -0.002236 0.007113 0.000335 0.000001 0.000884 0.000000
# 3 -0.004374 0.000335 0.030444 0.000017 0.004571 -0.000003
# 4 0.000000 0.000001 0.000017 -5.813166 0.000014 1.099941
# 5 0.001850 0.000884 0.004571 0.000014 0.036397 -0.000003
# 6 0.000000 0.000000 -0.000003 1.099941 -0.000003 -0.176173
#
#
# Mechanical properties :
#
#
# Convention : Reuss Voigt Hill
#
# Bulk Modulus (GPa) = 30.29775 56.13404 43.21590
# Shear Modulus (GPa) = -0.84979 30.19675 14.67348
#
# Velocity S-wave (km/s) = -0.63151 3.76450 2.62418
# Velocity P-wave (km/s) = 3.69961 6.72601 5.42800
#
# Compressibility (1/GPa) = 0.03300575
#
# Stress axis : x y z
#
# Youngs Moduli (GPa) = 125.04124 140.58479 32.84690
#
# Poissons Ratio (x) = 0.31434 0.14366
# Poissons Ratio (y) = 0.27959 -0.01100
# Poissons Ratio (z) = 0.54687 -0.04709
#
# Static dielectric constant tensor:
#      x y z
#    x 1.802260 0.000000 0.004870 
#    y 0.000000 1.827640 0.000000 
#    z 0.004870 0.000000 2.023060 
# 
# From -- ./inp_files/140199.got.cif
#   From: 2010.05.17/outbox.cif.g08.bks.cpg/sg12_71_cif.got.tgz:140199.got - 2010.06.03 13:09:07.
