data_PCOD9201255
_publ_section_title
;
Structure prediction by ZEFSAII (Michael W. Deem and Ramdas Pophale) SiO2 
 PCOD9201255
Probable space group: C 2/M
;
_chemical_formula_sum "Si O2"
_cell_formula_units_Z 64
_cell_length_a 25.446810
_cell_length_b 8.537373
_cell_length_c 29.508500
_cell_angle_alpha 90.000000
_cell_angle_beta 30.472964
_cell_angle_gamma 90.000000
_cell_volume 3251.064029
_symmetry_space_group_name_H-M "C 2/M"
_symmetry_group_IT_number 12
_symmetry_cell_setting 'monoclinic'
loop_
_space_group_symop_operation_xyz
x,y,z
-x,y,-z
-x,-y,-z
x,-y,z
1/2+x,1/2+y,z
1/2-x,1/2+y,-z
1/2-x,1/2-y,-z
1/2+x,1/2-y,z
loop_
_atom_site_type_symbol
_atom_site_label
_atom_site_fract_x
_atom_site_fract_y
_atom_site_fract_z
Si Si1 0.222627 0.689637 0.469932
Si Si2 0.113009 0.185884 0.728584
Si Si3 0.596430 0.814382 0.986176
Si Si4 0.459059 0.184141 0.775813
Si Si5 0.251750 0.184928 0.049004
Si Si6 0.996004 0.690435 0.648525
Si Si7 0.267768 0.812808 0.789132
Si Si8 0.626401 0.187497 0.819971
O O1 0.227032 0.500000 0.468520
O O2 0.250000 0.750000 0.500000
O O3 0.302064 0.741582 0.371712
O O4 0.104417 0.736666 0.545313
O O5 0.122574 0.263218 0.770472
O O6 0.004685 0.226051 0.784713
O O7 0.123295 0.000000 0.726428
O O8 0.642122 0.793876 0.002826
O O9 0.680858 0.741466 0.889883
O O10 0.594129 0.000000 0.977535
O O11 0.478446 0.756032 0.075974
O O12 0.338496 0.220101 0.859211
O O13 0.508704 0.236665 0.691748
O O14 0.475872 0.000000 0.770088
O O15 0.228291 0.000000 0.066843
O O16 0.250000 0.250000 0.000000
O O17 0.991289 0.500000 0.651395
O O18 0.884527 0.746314 0.713218
O O19 0.225189 0.754404 0.772665
O O20 0.271057 0.000000 0.787383
O O21 0.626332 0.000000 0.822807
#
# Coordination Sequence:
#
# PCOD9201255 Si02
#       8
#     8   8   8   8   8   8   8   8
#     4  10  20  37  61  90 121 153 192 239 295 358
#     4  11  23  38  60  91 121 153 198 250 296 352
#     4  10  22  39  58  82 114 154 199 243 293 350
#     4  11  20  35  58  83 118 159 193 234 295 359
#     4  11  22  35  53  81 118 157 200 246 296 355
#     4   9  19  36  59  87 118 152 189 232 293 355
#     4  11  22  39  63  89 116 153 200 248 291 345
#     4  11  24  42  61  83 117 161 200 243 299 355
#
# _framework density 19.685863000000001
#
# number of rings (size 3 to 8) (size 9 to 14) (size 15 to 20)
#    0.000    1.500    2.500    3.000    0.000    4.500 
#    0.000    1.875    0.000    3.750    0.000    0.000 
#    0.000    0.000    0.000    0.000    0.000    0.000 
#
# Total GULP energy -178664.756576 kJ/mol
# GULP energy per Si atom -5583.273643 kJ/mol
# Density = 1.964106 g / cm^3
# Si number density = 19.685863 Si / 1000 Ang^3
#
#
#
# Elastic Constant Matrix: (Units=GPa)
#
#
# Indices 1 2 3 4 5 6 
#
# 1 110.1876 15.6888 34.2942 0.0015 -20.2630 -0.0070
# 2 15.6888 25.0088 8.8746 0.0051 -2.8749 -0.0201
# 3 34.2942 8.8746 93.6591 -0.0007 -15.7349 -0.0033
# 4 0.0015 0.0051 -0.0007 19.3673 0.0005 1.4444
# 5 -20.2630 -2.8749 -15.7349 0.0005 25.2279 0.0031
# 6 -0.0070 -0.0201 -0.0033 1.4444 0.0031 30.7695
#
#
#
# Elastic Compliance Matrix: (Units=1/GPa)
#
#
# Indices 1 2 3 4 5 6 
#
# 1 0.012080 -0.005794 -0.002631 0.000000 0.007402 -0.000002
# 2 -0.005794 0.044302 -0.002245 -0.000013 -0.001005 0.000028
# 3 -0.002631 -0.002245 0.012796 0.000001 0.005612 -0.000001
# 4 0.000000 -0.000013 0.000001 0.051815 -0.000001 -0.002432
# 5 0.007402 -0.001005 0.005612 -0.000001 0.048969 -0.000003
# 6 -0.000002 0.000028 -0.000001 -0.002432 -0.000003 0.032614
#
#
# Mechanical properties :
#
#
# Convention : Reuss Voigt Hill
#
# Bulk Modulus (GPa) = 20.90383 38.50787 29.70585
# Shear Modulus (GPa) = 20.84531 26.40613 23.62572
#
# Velocity S-wave (km/s) = 3.25760 3.66645 3.46806
# Velocity P-wave (km/s) = 4.97906 6.12597 5.58205
#
# Compressibility (1/GPa) = 0.04783812
#
# Stress axis : x y z
#
# Youngs Moduli (GPa) = 82.77908 22.57243 78.15012
#
# Poissons Ratio (x) = 0.13078 0.20560
# Poissons Ratio (y) = 0.47962 0.17546
# Poissons Ratio (z) = 0.21778 0.05068
#
# Static dielectric constant tensor:
#      x y z
#    x 1.674720 0.000000 -0.008570 
#    y 0.000000 1.669760 0.000000 
#    z -0.008570 0.000000 1.728600 
# 
# From -- ./inp_files/238756.got.cif
#   From: 2010.05.17/outbox.cif.g08.bks.cpg/sg12_120_cif.got.tgz:238756.got - 2010.06.03 13:09:07.
