data_PCOD9201386
_publ_section_title
;
Structure prediction by ZEFSAII (Michael W. Deem and Ramdas Pophale) SiO2 
 PCOD9201386
Probable space group: C 2/M
;
_chemical_formula_sum "Si O2"
_cell_formula_units_Z 64
_cell_length_a 14.603401
_cell_length_b 26.833482
_cell_length_c 9.108509
_cell_angle_alpha 90.000000
_cell_angle_beta 107.916561
_cell_angle_gamma 90.000000
_cell_volume 3396.171777
_symmetry_space_group_name_H-M "C 2/M"
_symmetry_group_IT_number 12
_symmetry_cell_setting 'monoclinic'
loop_
_space_group_symop_operation_xyz
x,y,z
-x,y,-z
-x,-y,-z
x,-y,z
1/2+x,1/2+y,z
1/2-x,1/2+y,-z
1/2-x,1/2-y,-z
1/2+x,1/2-y,z
loop_
_atom_site_type_symbol
_atom_site_label
_atom_site_fract_x
_atom_site_fract_y
_atom_site_fract_z
Si Si1 0.404425 0.673572 0.136502
Si Si2 0.087089 0.645454 0.246039
Si Si3 0.900481 0.288325 0.229015
Si Si4 0.252232 0.940257 0.210832
Si Si5 0.597555 0.945161 0.456809
Si Si6 0.796612 0.637167 0.982275
Si Si7 0.888818 0.142488 0.793711
Si Si8 0.717240 0.803258 0.539829
O O1 0.408440 0.730072 0.195974
O O2 0.308241 0.645314 0.141373
O O3 0.505201 0.646650 0.221919
O O4 0.395081 0.670537 0.954188
O O5 0.074576 0.592565 0.316768
O O6 0.119713 0.637010 0.096253
O O7 0.175470 0.668862 0.379275
O O8 0.997005 0.681740 0.232387
O O9 0.867111 0.297656 0.379651
O O10 0.817698 0.314017 0.090633
O O11 0.320679 0.929781 0.385379
O O12 0.150604 0.913004 0.192666
O O13 0.247805 0.000000 0.188078
O O14 0.293591 0.910136 0.090302
O O15 0.500000 0.948250 0.500000
O O16 0.623922 0.000000 0.413860
O O17 0.807902 0.169231 0.657080
O O18 0.750000 0.750000 0.500000
#
# Coordination Sequence:
#
# PCOD9201386 Si02
#       8
#     8   8   8   8   8   8   8   8
#     4  10  22  37  61  82 121 158 208 252 302 354
#     4  12  24  36  59  89 127 160 200 245 310 374
#     4  12  23  39  59  86 127 170 204 246 307 380
#     4  10  20  41  67  88 120 164 209 269 319 363
#     4  10  20  37  62  87 117 158 201 252 312 368
#     4  11  23  39  58  90 121 163 206 259 301 370
#     4  10  21  39  59  90 118 156 210 259 301 369
#     4  12  23  37  59  88 124 160 206 250 306 372
#
# _framework density 18.844746000000001
#
# number of rings (size 3 to 8) (size 9 to 14) (size 15 to 20)
#    0.000    1.125    3.750    4.125    5.250    0.500 
#    0.000    6.875    0.000    3.750    0.000    1.750 
#    0.000    0.000    0.000    0.000    0.000    0.000 
#
# Total GULP energy -178621.996378 kJ/mol
# GULP energy per Si atom -5581.937387 kJ/mol
# Density = 1.880185 g / cm^3
# Si number density = 18.844746 Si / 1000 Ang^3
#
#
#
# Elastic Constant Matrix: (Units=GPa)
#
#
# Indices 1 2 3 4 5 6 
#
# 1 100.0742 22.6813 14.9258 0.0000 4.5270 0.0000
# 2 22.6813 85.5595 17.4682 0.0000 -6.2713 0.0000
# 3 14.9258 17.4682 34.8471 0.0000 1.3582 0.0000
# 4 0.0000 0.0000 0.0000 30.6767 0.0000 2.3298
# 5 4.5270 -6.2713 1.3582 0.0000 36.2254 0.0000
# 6 0.0000 0.0000 0.0000 2.3298 0.0000 25.7810
#
#
#
# Elastic Compliance Matrix: (Units=1/GPa)
#
#
# Indices 1 2 3 4 5 6 
#
# 1 0.011126 -0.002353 -0.003521 0.000000 -0.001666 0.000000
# 2 -0.002353 0.013748 -0.005997 0.000000 0.002899 0.000000
# 3 -0.003521 -0.005997 0.033283 0.000000 -0.001846 0.000000
# 4 0.000000 0.000000 0.000000 0.032823 0.000000 -0.002966
# 5 -0.001666 0.002899 -0.001846 0.000000 0.028384 0.000000
# 6 0.000000 0.000000 0.000000 -0.002966 0.000000 0.039056
#
#
# Mechanical properties :
#
#
# Convention : Reuss Voigt Hill
#
# Bulk Modulus (GPa) = 29.05654 36.73682 32.89668
# Shear Modulus (GPa) = 25.82166 29.56366 27.69266
#
# Velocity S-wave (km/s) = 3.70568 3.96511 3.83759
# Velocity P-wave (km/s) = 5.81049 6.36392 6.09349
#
# Compressibility (1/GPa) = 0.03441566
#
# Stress axis : x y z
#
# Youngs Moduli (GPa) = 89.87664 72.73609 30.04515
#
# Poissons Ratio (x) = 0.17112 0.10580
# Poissons Ratio (y) = 0.21145 0.18018
# Poissons Ratio (z) = 0.31649 0.43620
#
# Static dielectric constant tensor:
#      x y z
#    x 1.686710 0.000000 0.021130 
#    y 0.000000 1.614750 0.000000 
#    z 0.021130 0.000000 1.643640 
# 
# From -- ./inp_files/67031.got.cif
#   From: 2010.05.17/outbox.cif.g08.bks.cpg/sg12_34_cif.got.tgz:67031.got - 2010.06.03 13:09:07.
