data_PCOD9201084
_publ_section_title
;
Structure prediction by ZEFSAII (Michael W. Deem and Ramdas Pophale) SiO2 
 PCOD9201084
Probable space group: C 2/M
;
_chemical_formula_sum "Si O2"
_cell_formula_units_Z 56
_cell_length_a 18.794834
_cell_length_b 13.979804
_cell_length_c 17.346246
_cell_angle_alpha 90.000000
_cell_angle_beta 40.872443
_cell_angle_gamma 90.000000
_cell_volume 2982.450461
_symmetry_space_group_name_H-M "C 2/M"
_symmetry_group_IT_number 12
_symmetry_cell_setting 'monoclinic'
loop_
_space_group_symop_operation_xyz
x,y,z
-x,y,-z
-x,-y,-z
x,-y,z
1/2+x,1/2+y,z
1/2-x,1/2+y,-z
1/2-x,1/2-y,-z
1/2+x,1/2-y,z
loop_
_atom_site_type_symbol
_atom_site_label
_atom_site_fract_x
_atom_site_fract_y
_atom_site_fract_z
Si Si1 0.104397 0.760815 0.229590
Si Si2 0.162413 0.282653 0.905158
Si Si3 0.484052 0.768337 0.170549
Si Si4 0.445863 0.389529 0.460045
Si Si5 0.152268 0.113101 0.805787
Si Si6 0.291632 0.114317 0.295855
Si Si7 0.398346 0.887434 0.633145
O O1 0.229587 0.793198 0.132226
O O2 0.061657 0.747130 0.179011
O O3 0.103544 0.667083 0.284513
O O4 0.021737 0.832459 0.339918
O O5 0.140814 0.173022 0.894802
O O6 0.188309 0.340417 0.805463
O O7 0.056691 0.308335 0.040499
O O8 0.421946 0.671497 0.193688
O O9 0.390164 0.844646 0.265095
O O10 0.500000 0.387185 0.500000
O O11 0.440006 0.500000 0.439725
O O12 0.323163 0.353923 0.574137
O O13 0.282449 0.124477 0.684919
O O14 0.127974 0.000000 0.830540
O O15 0.290663 0.000000 0.290786
O O16 0.500000 0.851262 0.500000
O O17 0.412647 0.000000 0.634411
#
# Coordination Sequence:
#
# PCOD9201084 Si02
#       7
#     8   8   8   8   8   8   8
#     4  11  22  36  59  82 118 149 180 230 290 330
#     4  10  21  38  59  82 109 152 197 229 267 331
#     4  11  24  36  53  87 121 147 183 227 286 342
#     4  10  20  37  61  85 109 145 195 236 273 334
#     4   9  19  37  58  80 108 146 190 230 269 320
#     4  10  21  39  61  84 111 148 193 237 278 327
#     4   9  19  36  59  82 105 143 191 227 266 330
#
# _framework density 18.776506000000001
#
# number of rings (size 3 to 8) (size 9 to 14) (size 15 to 20)
#    0.000    2.000    1.429    2.571    4.000    4.000 
#    0.000    0.000    0.000    5.143    0.000    0.000 
#    0.000    0.000    0.000    0.000    0.000    0.000 
#
# Total GULP energy -156161.144601 kJ/mol
# GULP energy per Si atom -5577.183736 kJ/mol
# Density = 1.873377 g / cm^3
# Si number density = 18.776506 Si / 1000 Ang^3
#
#
#
# Elastic Constant Matrix: (Units=GPa)
#
#
# Indices 1 2 3 4 5 6 
#
# 1 100.7704 12.3450 11.1156 0.0000 -16.1470 0.0000
# 2 12.3450 75.4427 18.4355 0.0000 -8.7799 0.0000
# 3 11.1156 18.4355 79.3687 0.0000 -24.3546 0.0000
# 4 0.0000 0.0000 0.0000 11.4635 0.0000 -14.0195
# 5 -16.1470 -8.7799 -24.3546 0.0000 29.2211 0.0000
# 6 0.0000 0.0000 0.0000 -14.0195 0.0000 5.5998
#
#
#
# Elastic Compliance Matrix: (Units=1/GPa)
#
#
# Indices 1 2 3 4 5 6 
#
# 1 0.011005 -0.001235 0.000669 0.000000 0.006268 0.000000
# 2 -0.001235 0.014280 -0.002737 0.000000 0.001327 0.000000
# 3 0.000669 -0.002737 0.017471 0.000000 0.014108 0.000000
# 4 0.000000 0.000000 0.000000 -0.042309 0.000000 -0.105925
# 5 0.006268 0.001327 0.014108 0.000000 0.049843 0.000000
# 6 0.000000 0.000000 0.000000 -0.105925 0.000000 -0.086613
#
#
# Mechanical properties :
#
#
# Convention : Reuss Voigt Hill
#
# Bulk Modulus (GPa) = 27.66187 37.70821 32.68504
# Shear Modulus (GPa) = -283.01557 23.50260 -129.75648
#
# Velocity S-wave (km/s) = -12.29048 3.54178 -8.32201
# Velocity P-wave (km/s) = 13.66176 6.07057 8.65424
#
# Compressibility (1/GPa) = 0.03615085
#
# Stress axis : x y z
#
# Youngs Moduli (GPa) = 90.86474 70.02605 57.23886
#
# Poissons Ratio (x) = 0.08647 -0.03828
# Poissons Ratio (y) = 0.11220 0.15665
# Poissons Ratio (z) = -0.06077 0.19164
#
# Static dielectric constant tensor:
#      x y z
#    x 1.648720 0.000000 -0.035180 
#    y 0.000000 1.662640 0.000000 
#    z -0.035180 0.000000 1.663620 
# 
# From -- ./inp_files/277807.got.cif
#   From: 2010.05.17/outbox.cif.g08.bks.cpg/sg12_139_cif.got.tgz:277807.got - 2010.06.03 13:09:07.
