data_PCOD9201278
_publ_section_title
;
Structure prediction by ZEFSAII (Michael W. Deem and Ramdas Pophale) SiO2 
 PCOD9201278
Probable space group: C 2/M
;
_chemical_formula_sum "Si O2"
_cell_formula_units_Z 42
_cell_length_a 23.201850
_cell_length_b 10.996704
_cell_length_c 23.728686
_cell_angle_alpha 90.000000
_cell_angle_beta 17.724303
_cell_angle_gamma 90.000000
_cell_volume 1843.132030
_symmetry_space_group_name_H-M "C 2/M"
_symmetry_group_IT_number 12
_symmetry_cell_setting 'monoclinic'
loop_
_space_group_symop_operation_xyz
x,y,z
-x,y,-z
-x,-y,-z
x,-y,z
1/2+x,1/2+y,z
1/2-x,1/2+y,-z
1/2-x,1/2-y,-z
1/2+x,1/2-y,z
loop_
_atom_site_type_symbol
_atom_site_label
_atom_site_fract_x
_atom_site_fract_y
_atom_site_fract_z
Si Si1 0.500000 0.500000 0.500000
Si Si2 0.002691 0.137225 0.282381
Si Si3 0.098790 0.633738 0.825656
Si Si4 0.832629 0.815977 0.747781
Si Si5 0.938629 0.632674 0.273927
Si Si6 0.283421 0.367717 0.222493
O O1 0.450521 0.395507 0.594984
O O2 0.035710 0.247659 0.208620
O O3 0.777582 0.133657 0.503277
O O4 0.097786 0.167521 0.253676
O O5 0.058803 0.000000 0.212755
O O6 0.188485 0.500000 0.758219
O O7 0.071739 0.636410 0.783986
O O8 0.208052 0.754316 0.742752
O O9 0.887825 0.641098 0.048139
O O10 0.832989 0.679268 0.723106
O O11 0.019598 0.500000 0.214824
O O12 0.225170 0.500000 0.298201
O O13 0.500000 0.377951 0.000000
#
# Coordination Sequence:
#
# PCOD9201278 Si02
#       6
#     2   8   8   8   8   8
#     4  12  24  36  60  96 120 160 196 268 296 354
#     4  10  20  38  57  84 116 154 196 245 298 358
#     4  10  20  37  61  91 116 155 206 249 289 361
#     4  11  23  36  61  86 122 156 204 246 305 351
#     4   9  21  37  60  83 115 153 197 248 302 349
#     4   9  21  38  57  85 122 156 194 244 302 359
#
# _framework density 22.787299999999998
#
# number of rings (size 3 to 8) (size 9 to 14) (size 15 to 20)
#    0.000    2.095    1.905    0.000    4.000    3.429 
#    0.000    0.476    0.000    0.000    0.000    0.000 
#    0.000    0.000    0.000    0.000    0.000    0.000 
#
# Total GULP energy -117193.480487 kJ/mol
# GULP energy per Si atom -5580.641928 kJ/mol
# Density = 2.273543 g / cm^3
# Si number density = 22.787300 Si / 1000 Ang^3
#
#
#
# Elastic Constant Matrix: (Units=GPa)
#
#
# Indices 1 2 3 4 5 6 
#
# 1 88.5323 102.1508 -19.8211 -0.0058 -0.1614 -0.0016
# 2 102.1508 273.7937 30.7040 -0.0201 -0.9449 0.0006
# 3 -19.8211 30.7040 85.2568 -0.0229 -4.0717 0.0021
# 4 -0.0058 -0.0201 -0.0229 6.4916 0.0061 6.3592
# 5 -0.1614 -0.9449 -4.0717 0.0061 27.4305 0.0002
# 6 -0.0016 0.0006 0.0021 6.3592 0.0002 28.2553
#
#
#
# Elastic Compliance Matrix: (Units=1/GPa)
#
#
# Indices 1 2 3 4 5 6 
#
# 1 0.026042 -0.010835 0.010017 0.000030 0.001267 -0.000006
# 2 -0.010835 0.008314 -0.005542 -0.000003 -0.000600 0.000000
# 3 0.010017 -0.005542 0.016162 0.000061 0.002267 -0.000014
# 4 0.000030 -0.000003 0.000061 0.197614 -0.000034 -0.044475
# 5 0.001267 -0.000600 0.002267 -0.000034 0.036779 0.000007
# 6 -0.000006 0.000000 -0.000014 -0.044475 0.000007 0.045401
#
#
# Mechanical properties :
#
#
# Convention : Reuss Voigt Hill
#
# Bulk Modulus (GPa) = 26.45589 74.85002 50.65296
# Shear Modulus (GPa) = 14.05946 34.73874 24.39910
#
# Velocity S-wave (km/s) = 2.48662 3.90869 3.27575
# Velocity P-wave (km/s) = 4.45864 7.29994 6.04849
#
# Compressibility (1/GPa) = 0.03779876
#
# Stress axis : x y z
#
# Youngs Moduli (GPa) = 38.39919 120.27400 61.87247
#
# Poissons Ratio (x) = 1.30319 -0.61978
# Poissons Ratio (y) = 0.41606 0.34290
# Poissons Ratio (z) = -0.38465 0.66656
#
# Static dielectric constant tensor:
#      x y z
#    x 1.782940 0.000000 0.019300 
#    y 0.000000 1.879540 0.000010 
#    z 0.019300 0.000010 1.729170 
# 
# From -- ./inp_files/349263.got.cif
#   From: 2010.05.17/outbox.cif.g08.bks.cpg/sg12_175_cif.got.tgz:349263.got - 2010.06.03 13:09:07.
