data_PCOD9201644
_publ_section_title
;
Structure prediction by ZEFSAII (Michael W. Deem and Ramdas Pophale) SiO2 
 PCOD9201644
Probable space group: C 2/M
;
_chemical_formula_sum "Si O2"
_cell_formula_units_Z 48
_cell_length_a 11.115857
_cell_length_b 20.176083
_cell_length_c 18.824129
_cell_angle_alpha 90.000000
_cell_angle_beta 30.639881
_cell_angle_gamma 90.000000
_cell_volume 2151.585252
_symmetry_space_group_name_H-M "C 2/M"
_symmetry_group_IT_number 12
_symmetry_cell_setting 'monoclinic'
loop_
_space_group_symop_operation_xyz
x,y,z
-x,y,-z
-x,-y,-z
x,-y,z
1/2+x,1/2+y,z
1/2-x,1/2+y,-z
1/2-x,1/2-y,-z
1/2+x,1/2-y,z
loop_
_atom_site_type_symbol
_atom_site_label
_atom_site_fract_x
_atom_site_fract_y
_atom_site_fract_z
Si Si1 0.449834 0.075408 0.941727
Si Si2 0.735465 0.071682 0.164089
Si Si3 0.446252 0.801980 0.704982
Si Si4 0.397149 0.427012 0.240121
Si Si5 0.991969 0.725474 0.916380
Si Si6 0.727351 0.190021 0.423133
O O1 0.546641 0.148037 0.869354
O O2 0.514673 0.000000 0.882344
O O3 0.500000 0.072818 0.000000
O O4 0.167028 0.083017 0.078891
O O5 0.599936 0.138580 0.217100
O O6 0.750606 0.073605 0.241872
O O7 0.639406 0.000000 0.191342
O O8 0.000000 0.075800 0.000000
O O9 0.639462 0.821830 0.547931
O O10 0.554051 0.738883 0.688774
O O11 0.202907 0.777177 0.792098
O O12 0.384816 0.500000 0.278675
O O13 0.301178 0.375351 0.344562
O O14 0.750000 0.750000 0.000000
O O15 0.000000 0.728157 0.000000
O O16 0.500000 0.220532 0.500000
#
# Coordination Sequence:
#
# PCOD9201644 Si02
#       6
#     8   8   8   8   8   8
#     4   9  18  34  58  88 124 158 199 259 324 383
#     4  10  21  39  62  90 122 154 197 255 321 381
#     4  11  24  39  60  92 125 168 207 260 317 373
#     4  10  20  37  63  91 119 155 202 261 315 367
#     4  11  23  38  64  96 130 169 209 264 331 391
#     4  11  23  40  61  87 126 164 214 259 306 371
#
# _framework density 22.309132000000002
#
# number of rings (size 3 to 8) (size 9 to 14) (size 15 to 20)
#    0.000    1.667    1.667    3.500    2.333    1.000 
#    0.000    0.833    0.000    2.000    0.000    0.000 
#    0.000    0.000    0.000    0.000    0.000    0.000 
#
# Total GULP energy -133992.549837 kJ/mol
# GULP energy per Si atom -5583.022910 kJ/mol
# Density = 2.225836 g / cm^3
# Si number density = 22.309132 Si / 1000 Ang^3
#
#
#
# Elastic Constant Matrix: (Units=GPa)
#
#
# Indices 1 2 3 4 5 6 
#
# 1 78.7460 21.5037 2.4850 0.0765 2.8263 0.0169
# 2 21.5037 189.9747 60.6057 0.0848 10.6497 0.0582
# 3 2.4850 60.6057 57.7908 0.2181 3.9485 0.1872
# 4 0.0765 0.0848 0.2181 41.0305 -0.0025 -2.5562
# 5 2.8263 10.6497 3.9485 -0.0025 37.3677 0.0124
# 6 0.0169 0.0582 0.1872 -2.5562 0.0124 13.1857
#
#
#
# Elastic Compliance Matrix: (Units=1/GPa)
#
#
# Indices 1 2 3 4 5 6 
#
# 1 0.013204 -0.001943 0.001511 -0.000031 -0.000605 -0.000035
# 2 -0.001943 0.008268 -0.008498 0.000038 -0.001312 0.000095
# 3 0.001511 -0.008498 0.026184 -0.000147 -0.000459 -0.000364
# 4 -0.000031 0.000038 -0.000147 0.024671 0.000007 0.004785
# 5 -0.000605 -0.001312 -0.000459 0.000007 0.027229 -0.000011
# 6 -0.000035 0.000095 -0.000364 0.004785 -0.000011 0.076772
#
#
# Mechanical properties :
#
#
# Convention : Reuss Voigt Hill
#
# Bulk Modulus (GPa) = 33.56127 55.07781 44.31954
# Shear Modulus (GPa) = 24.49531 34.44459 29.46995
#
# Velocity S-wave (km/s) = 3.31719 3.93360 3.63847
# Velocity P-wave (km/s) = 5.45418 6.73595 6.12867
#
# Compressibility (1/GPa) = 0.02979625
#
# Stress axis : x y z
#
# Youngs Moduli (GPa) = 75.73680 120.94210 38.19079
#
# Poissons Ratio (x) = 0.23495 -0.05771
# Poissons Ratio (y) = 0.14713 0.32456
# Poissons Ratio (z) = -0.11445 1.02782
#
# Static dielectric constant tensor:
#      x y z
#    x 1.919000 0.000070 0.012840 
#    y 0.000070 1.887710 0.000050 
#    z 0.012840 0.000050 1.812330 
# 
# From -- ./inp_files/132983.got.cif
#   From: 2010.05.17/outbox.cif.g08.bks.cpg/sg12_67_cif.got.tgz:132983.got - 2010.06.03 13:09:07.
