data_PCOD9201632
_publ_section_title
;
Structure prediction by ZEFSAII (Michael W. Deem and Ramdas Pophale) SiO2 
 PCOD9201632
Probable space group: C 2/M
;
_chemical_formula_sum "Si O2"
_cell_formula_units_Z 52
_cell_length_a 14.809385
_cell_length_b 10.119839
_cell_length_c 27.965017
_cell_angle_alpha 90.000000
_cell_angle_beta 141.373454
_cell_angle_gamma 90.000000
_cell_volume 2616.245145
_symmetry_space_group_name_H-M "C 2/M"
_symmetry_group_IT_number 12
_symmetry_cell_setting 'monoclinic'
loop_
_space_group_symop_operation_xyz
x,y,z
-x,y,-z
-x,-y,-z
x,-y,z
1/2+x,1/2+y,z
1/2-x,1/2+y,-z
1/2-x,1/2-y,-z
1/2+x,1/2-y,z
loop_
_atom_site_type_symbol
_atom_site_label
_atom_site_fract_x
_atom_site_fract_y
_atom_site_fract_z
Si Si1 0.959158 0.344481 0.195674
Si Si2 0.329928 0.000000 0.419506
Si Si3 0.218541 0.652798 0.057331
Si Si4 0.444373 0.500000 0.423069
Si Si5 0.943536 0.000000 0.632053
Si Si6 0.630847 0.241829 0.736627
Si Si7 0.922662 0.649812 0.895261
Si Si8 0.721913 0.765084 0.673498
O O1 0.957491 0.500000 0.183356
O O2 0.843315 0.259287 0.117466
O O3 0.925107 0.329758 0.238744
O O4 0.112746 0.276498 0.249848
O O5 0.500000 0.000000 0.500000
O O6 0.289959 0.127105 0.372028
O O7 0.220541 0.000000 0.418483
O O8 0.263319 0.500000 0.064446
O O9 0.142333 0.644626 0.077956
O O10 0.088292 0.696633 0.968254
O O11 0.500000 0.500000 0.500000
O O12 0.556800 0.500000 0.425617
O O13 0.352343 0.630880 0.375204
O O14 0.034124 0.874191 0.689560
O O15 0.799579 0.273442 0.816488
O O16 0.640126 0.182406 0.687261
O O17 0.927399 0.500000 0.878793
#
# Coordination Sequence:
#
# PCOD9201632 Si02
#       8
#     8   4   8   4   4   8   8   8
#     4  11  22  37  58  89 126 161 206 256 312 352
#     4  12  26  46  64  97 127 153 193 253 311 366
#     4   8  16  29  52  85 118 164 207 252 299 356
#     4  10  22  46  66  94 122 157 200 247 298 369
#     4  10  20  40  70  94 114 165 204 237 291 372
#     4  10  20  37  63  90 120 161 209 251 295 355
#     4   8  13  27  54  86 117 155 214 254 288 351
#     4  11  24  41  65  89 124 158 203 249 301 365
#
# _framework density 19.875813000000001
#
# number of rings (size 3 to 8) (size 9 to 14) (size 15 to 20)
#    0.000    2.154    3.077    1.385    3.231    0.000 
#    2.769    9.231    0.000    0.000    0.000    0.000 
#    0.000    0.000    0.000    0.000    0.000    0.000 
#
# Total GULP energy -144951.589788 kJ/mol
# GULP energy per Si atom -5575.061146 kJ/mol
# Density = 1.983057 g / cm^3
# Si number density = 19.875813 Si / 1000 Ang^3
#
#
#
# Elastic Constant Matrix: (Units=GPa)
#
#
# Indices 1 2 3 4 5 6 
#
# 1 120.0726 34.1996 45.9803 0.0000 3.4866 0.0000
# 2 34.1996 80.1739 24.8633 0.0000 16.1599 0.0000
# 3 45.9803 24.8633 77.6920 0.0000 18.8391 0.0000
# 4 0.0000 0.0000 0.0000 14.9334 0.0000 10.3071
# 5 3.4866 16.1599 18.8391 0.0000 33.2531 0.0000
# 6 0.0000 0.0000 0.0000 10.3071 0.0000 12.6688
#
#
#
# Elastic Compliance Matrix: (Units=1/GPa)
#
#
# Indices 1 2 3 4 5 6 
#
# 1 0.011956 -0.003865 -0.006945 0.000000 0.004559 0.000000
# 2 -0.003865 0.015819 -0.001170 0.000000 -0.006619 0.000000
# 3 -0.006945 -0.001170 0.019755 0.000000 -0.009895 0.000000
# 4 0.000000 0.000000 0.000000 0.152725 0.000000 -0.124255
# 5 0.004559 -0.006619 -0.009895 0.000000 0.038417 0.000000
# 6 0.000000 0.000000 0.000000 -0.124255 0.000000 0.180026
#
#
# Mechanical properties :
#
#
# Convention : Reuss Voigt Hill
#
# Bulk Modulus (GPa) = 42.42515 54.22498 48.32507
# Shear Modulus (GPa) = 11.09842 23.69739 17.39791
#
# Velocity S-wave (km/s) = 2.36559 3.45668 2.96181
# Velocity P-wave (km/s) = 5.37148 6.57819 6.00522
#
# Compressibility (1/GPa) = 0.02357092
#
# Stress axis : x y z
#
# Youngs Moduli (GPa) = 83.63856 63.21630 50.61993
#
# Poissons Ratio (x) = 0.24436 0.35153
# Poissons Ratio (y) = 0.32330 0.05920
# Poissons Ratio (z) = 0.58083 0.07393
#
# Static dielectric constant tensor:
#      x y z
#    x 1.746750 0.000000 -0.028340 
#    y 0.000000 1.656760 0.000000 
#    z -0.028340 0.000000 1.715330 
# 
# From -- ./inp_files/375733.got.cif
#   From: 2010.05.17/outbox.cif.g08.bks.cpg/sg12_188_cif.got.tgz:375733.got - 2010.06.03 13:09:07.
