data_PCOD9201296
_publ_section_title
;
Structure prediction by ZEFSAII (Michael W. Deem and Ramdas Pophale) SiO2 
 PCOD9201296
Probable space group: C 2/M
;
_chemical_formula_sum "Si O2"
_cell_formula_units_Z 56
_cell_length_a 23.450159
_cell_length_b 14.130739
_cell_length_c 13.779798
_cell_angle_alpha 90.000000
_cell_angle_beta 148.555086
_cell_angle_gamma 90.000000
_cell_volume 2382.080932
_symmetry_space_group_name_H-M "C 2/M"
_symmetry_group_IT_number 12
_symmetry_cell_setting 'monoclinic'
loop_
_space_group_symop_operation_xyz
x,y,z
-x,y,-z
-x,-y,-z
x,-y,z
1/2+x,1/2+y,z
1/2-x,1/2+y,-z
1/2-x,1/2-y,-z
1/2+x,1/2-y,z
loop_
_atom_site_type_symbol
_atom_site_label
_atom_site_fract_x
_atom_site_fract_y
_atom_site_fract_z
Si Si1 0.001781 0.745724 0.607014
Si Si2 0.289972 0.387137 0.510070
Si Si3 0.375339 0.890443 0.096169
Si Si4 0.164044 0.895275 0.901704
Si Si5 0.775316 0.801252 0.290506
Si Si6 0.470304 0.390459 0.094944
Si Si7 0.235339 0.110999 0.309245
O O1 0.110161 0.810030 0.766622
O O2 0.000000 0.696891 0.500000
O O3 0.904076 0.823267 0.470558
O O4 0.020871 0.671575 0.721748
O O5 0.293108 0.500000 0.493546
O O6 0.237939 0.336693 0.342173
O O7 0.414037 0.348265 0.705936
O O8 0.234887 0.375544 0.535122
O O9 0.292894 0.890037 0.069148
O O10 0.305376 0.841808 0.907705
O O11 0.399950 0.000000 0.108455
O O12 0.113456 0.886367 0.935544
O O13 0.131588 0.000000 0.818681
O O14 0.788875 0.687494 0.317136
O O15 0.497868 0.500000 0.117044
O O16 0.393483 0.363174 0.893617
O O17 0.249315 0.000000 0.305046
#
# Coordination Sequence:
#
# PCOD9201296 Si02
#       7
#     8   8   8   8   8   8   8
#     4  12  25  40  63  94 131 166 215 262 310 377
#     4  10  20  37  61  92 123 156 207 262 316 370
#     4  11  26  45  64  92 132 172 210 259 316 379
#     4  10  20  37  63  92 127 162 203 256 318 374
#     4  12  24  39  67  91 126 169 215 257 310 380
#     4   9  17  32  58  88 118 151 193 253 316 363
#     4  10  22  38  59  89 125 162 205 262 316 368
#
# _framework density 23.508859000000001
#
# number of rings (size 3 to 8) (size 9 to 14) (size 15 to 20)
#    0.000    1.429    2.857    2.571    2.000    3.429 
#    0.000    0.000    0.000    0.000    0.000    4.000 
#    0.000    0.000    0.000    0.000    0.000    0.000 
#
# Total GULP energy -156177.318928 kJ/mol
# GULP energy per Si atom -5577.761390 kJ/mol
# Density = 2.345535 g / cm^3
# Si number density = 23.508859 Si / 1000 Ang^3
#
#
#
# Elastic Constant Matrix: (Units=GPa)
#
#
# Indices 1 2 3 4 5 6 
#
# 1 44.4045 21.2352 12.0255 0.0000 -24.7889 0.0000
# 2 21.2352 114.1872 40.8289 0.0000 -22.1130 0.0000
# 3 12.0255 40.8289 106.5710 0.0000 -36.1804 0.0000
# 4 0.0000 0.0000 0.0000 20.5221 0.0000 -4.6911
# 5 -24.7889 -22.1130 -36.1804 0.0000 34.6051 0.0000
# 6 0.0000 0.0000 0.0000 -4.6911 0.0000 28.4969
#
#
#
# Elastic Compliance Matrix: (Units=1/GPa)
#
#
# Indices 1 2 3 4 5 6 
#
# 1 0.043485 -0.004086 0.009840 0.000000 0.038827 0.000000
# 2 -0.004086 0.010856 -0.003622 0.000000 0.000223 0.000000
# 3 0.009840 -0.003622 0.017468 0.000000 0.022998 0.000000
# 4 0.000000 0.000000 0.000000 0.050633 0.000000 0.008335
# 5 0.038827 0.000223 0.022998 0.000000 0.080897 0.000000
# 6 0.000000 0.000000 0.000000 0.008335 0.000000 0.036464
#
#
# Mechanical properties :
#
#
# Convention : Reuss Voigt Hill
#
# Bulk Modulus (GPa) = 13.14546 45.92690 29.53618
# Shear Modulus (GPa) = 19.16464 29.46303 24.31384
#
# Velocity S-wave (km/s) = 2.85828 3.54400 3.21945
# Velocity P-wave (km/s) = 4.06164 6.02702 5.13916
#
# Compressibility (1/GPa) = 0.07607191
#
# Stress axis : x y z
#
# Youngs Moduli (GPa) = 22.99667 92.11692 57.24599
#
# Poissons Ratio (x) = 0.37641 -0.56331
# Poissons Ratio (y) = 0.09397 0.20736
# Poissons Ratio (z) = -0.22629 0.33368
#
# Static dielectric constant tensor:
#      x y z
#    x 2.003430 0.000000 0.031100 
#    y 0.000000 1.915840 0.000000 
#    z 0.031100 0.000000 1.985880 
# 
# From -- ./inp_files/246575.got.cif
#   From: 2010.05.17/outbox.cif.g08.bks.cpg/sg12_124_cif.got.tgz:246575.got - 2010.06.03 13:09:07.
