data_PCOD9201427
_publ_section_title
;
Structure prediction by ZEFSAII (Michael W. Deem and Ramdas Pophale) SiO2 
 PCOD9201427
Probable space group: C 2/M
;
_chemical_formula_sum "Si O2"
_cell_formula_units_Z 48
_cell_length_a 24.092899
_cell_length_b 19.257683
_cell_length_c 8.919694
_cell_angle_alpha 90.000000
_cell_angle_beta 29.012011
_cell_angle_gamma 90.000000
_cell_volume 2007.143769
_symmetry_space_group_name_H-M "C 2/M"
_symmetry_group_IT_number 12
_symmetry_cell_setting 'monoclinic'
loop_
_space_group_symop_operation_xyz
x,y,z
-x,y,-z
-x,-y,-z
x,-y,z
1/2+x,1/2+y,z
1/2-x,1/2+y,-z
1/2-x,1/2-y,-z
1/2+x,1/2-y,z
loop_
_atom_site_type_symbol
_atom_site_label
_atom_site_fract_x
_atom_site_fract_y
_atom_site_fract_z
Si Si1 0.756034 0.127113 0.911805
Si Si2 0.345863 0.280622 0.476695
Si Si3 0.830143 0.354646 0.314284
Si Si4 0.735806 0.421238 0.798088
Si Si5 0.998075 0.159830 0.669184
Si Si6 0.557135 0.078658 0.212657
O O1 0.762447 0.203643 0.818735
O O2 0.890996 0.109469 0.601795
O O3 0.709633 0.118609 0.188720
O O4 0.687974 0.077319 0.962918
O O5 0.285693 0.334233 0.503463
O O6 0.347469 0.209226 0.386292
O O7 0.468497 0.295929 0.263412
O O8 0.809399 0.418195 0.474312
O O9 0.931012 0.372997 0.960062
O O10 0.715085 0.500000 0.892852
O O11 0.619234 0.380235 0.037996
O O12 0.000000 0.196205 0.500000
O O13 0.500000 0.107449 0.500000
O O14 0.514982 0.000000 0.283658
#
# Coordination Sequence:
#
# PCOD9201427 Si02
#       6
#     8   8   8   8   8   8
#     4   8  18  37  61  89 126 172 217 266 320 388
#     4   8  18  39  62  83 121 175 219 264 312 381
#     4  10  20  37  62  88 133 168 220 275 323 388
#     4  11  21  33  60 101 139 171 206 264 341 405
#     4   8  17  36  59  96 129 170 216 257 319 401
#     4  10  20  37  63  91 125 171 227 277 330 390
#
# _framework density 23.914579
#
# number of rings (size 3 to 8) (size 9 to 14) (size 15 to 20)
#    1.000    1.833    0.000    1.000    0.000    5.000 
#    0.000    1.667   18.333    3.000    0.000    0.000 
#    0.000    2.000    0.000    0.000    0.000    0.000 
#
# Total GULP energy -133631.397918 kJ/mol
# GULP energy per Si atom -5567.974913 kJ/mol
# Density = 2.386015 g / cm^3
# Si number density = 23.914579 Si / 1000 Ang^3
#
#
#
# Elastic Constant Matrix: (Units=GPa)
#
#
# Indices 1 2 3 4 5 6 
#
# 1 142.2456 48.9492 31.3375 0.0000 19.4336 0.0000
# 2 48.9492 92.0470 43.9582 0.0000 35.3916 0.0000
# 3 31.3375 43.9582 93.5588 0.0000 40.7701 0.0000
# 4 0.0000 0.0000 0.0000 25.6136 0.0000 7.5821
# 5 19.4336 35.3916 40.7701 0.0000 44.9069 0.0000
# 6 0.0000 0.0000 0.0000 7.5821 0.0000 12.0518
#
#
#
# Elastic Compliance Matrix: (Units=1/GPa)
#
#
# Indices 1 2 3 4 5 6 
#
# 1 0.008683 -0.004331 -0.001197 0.000000 0.000743 0.000000
# 2 -0.004331 0.018373 -0.002794 0.000000 -0.010069 0.000000
# 3 -0.001197 -0.002794 0.018559 0.000000 -0.014130 0.000000
# 4 0.000000 0.000000 0.000000 0.047977 0.000000 -0.030183
# 5 0.000743 -0.010069 -0.014130 0.000000 0.042711 0.000000
# 6 0.000000 0.000000 0.000000 -0.030183 0.000000 0.101964
#
#
# Mechanical properties :
#
#
# Convention : Reuss Voigt Hill
#
# Bulk Modulus (GPa) = 34.51723 64.03791 49.27757
# Shear Modulus (GPa) = 18.89874 30.08823 24.49348
#
# Velocity S-wave (km/s) = 2.81421 3.55090 3.20380
# Velocity P-wave (km/s) = 5.00246 6.60664 5.85970
#
# Compressibility (1/GPa) = 0.02897104
#
# Stress axis : x y z
#
# Youngs Moduli (GPa) = 115.17016 54.42720 53.88087
#
# Poissons Ratio (x) = 0.23574 0.06449
# Poissons Ratio (y) = 0.49884 0.15054
# Poissons Ratio (z) = 0.13785 0.15207
#
# Static dielectric constant tensor:
#      x y z
#    x 1.968630 0.000000 0.005940 
#    y 0.000000 1.888750 0.000000 
#    z 0.005940 0.000000 2.016920 
# 
# From -- ./inp_files/106503.got.cif
#   From: 2010.05.17/outbox.cif.g08.bks.cpg/sg12_54_cif.got.tgz:106503.got - 2010.06.03 13:09:07.
