data_PCOD9201466
_publ_section_title
;
Structure prediction by ZEFSAII (Michael W. Deem and Ramdas Pophale) SiO2 
 PCOD9201466
Probable space group: C 2/M
;
_chemical_formula_sum "Si O2"
_cell_formula_units_Z 64
_cell_length_a 25.479883
_cell_length_b 8.622434
_cell_length_c 14.806065
_cell_angle_alpha 90.000000
_cell_angle_beta 89.828648
_cell_angle_gamma 90.000000
_cell_volume 3252.857346
_symmetry_space_group_name_H-M "C 2/M"
_symmetry_group_IT_number 12
_symmetry_cell_setting 'monoclinic'
loop_
_space_group_symop_operation_xyz
x,y,z
-x,y,-z
-x,-y,-z
x,-y,z
1/2+x,1/2+y,z
1/2-x,1/2+y,-z
1/2-x,1/2-y,-z
1/2+x,1/2-y,z
loop_
_atom_site_type_symbol
_atom_site_label
_atom_site_fract_x
_atom_site_fract_y
_atom_site_fract_z
Si Si1 0.841425 0.815269 0.222958
Si Si2 0.909803 0.312872 0.508516
Si Si3 0.302194 0.684628 0.544016
Si Si4 0.307174 0.815838 0.029038
Si Si5 0.354707 0.317871 0.856857
Si Si6 0.938701 0.312247 0.713937
Si Si7 0.273031 0.816548 0.729461
Si Si8 0.445719 0.186542 0.315354
O O1 0.827156 0.751525 0.123952
O O2 0.788488 0.781216 0.280556
O O3 0.893975 0.747855 0.266198
O O4 0.846658 0.000000 0.218058
O O5 0.905172 0.500000 0.509390
O O6 0.853717 0.235212 0.490663
O O7 0.926500 0.266352 0.609731
O O8 0.945341 0.271262 0.422181
O O9 0.299771 0.500000 0.553977
O O10 0.250000 0.750000 0.500000
O O11 0.304151 0.769340 0.640308
O O12 0.302595 0.000000 0.034896
O O13 0.250000 0.750000 0.000000
O O14 0.349173 0.769064 0.951813
O O15 0.360797 0.500000 0.871157
O O16 0.399270 0.257318 0.787910
O O17 0.299374 0.280974 0.808315
O O18 0.934418 0.500000 0.718197
O O19 0.999219 0.265207 0.729086
O O20 0.278846 0.000000 0.747966
O O21 0.444056 0.000000 0.312114
#
# Coordination Sequence:
#
# PCOD9201466 Si02
#       8
#     8   8   8   8   8   8   8   8
#     4  11  24  41  63  92 127 165 205 257 317 374
#     4  10  20  37  62  89 122 162 212 261 307 367
#     4  12  24  36  53  82 122 164 208 254 310 372
#     4  12  24  41  67  96 127 162 203 254 310 376
#     4  12  24  39  63  95 127 160 202 252 307 369
#     4  10  21  40  65  91 126 168 213 261 309 365
#     4  11  22  38  60  86 122 163 203 250 308 368
#     4  10  22  40  63  92 124 167 215 259 311 370
#
# _framework density 19.67501
#
# number of rings (size 3 to 8) (size 9 to 14) (size 15 to 20)
#    0.000    1.000    2.500    5.250    0.000    6.000 
#    0.000    0.625    0.000    6.000    0.000    0.000 
#    0.000    0.000    0.000    0.000    0.000    0.000 
#
# Total GULP energy -178834.648617 kJ/mol
# GULP energy per Si atom -5588.582769 kJ/mol
# Density = 1.963023 g / cm^3
# Si number density = 19.675010 Si / 1000 Ang^3
#
#
#
# Elastic Constant Matrix: (Units=GPa)
#
#
# Indices 1 2 3 4 5 6 
#
# 1 130.5240 29.9063 35.6065 0.0000 -13.8216 0.0000
# 2 29.9063 30.5490 8.2493 0.0000 -7.0768 0.0000
# 3 35.6065 8.2493 80.7122 0.0000 -10.8512 0.0000
# 4 0.0000 0.0000 0.0000 22.4447 0.0000 0.1114
# 5 -13.8216 -7.0768 -10.8512 0.0000 25.5413 0.0000
# 6 0.0000 0.0000 0.0000 0.1114 0.0000 28.6025
#
#
#
# Elastic Compliance Matrix: (Units=1/GPa)
#
#
# Indices 1 2 3 4 5 6 
#
# 1 0.010992 -0.009357 -0.003650 0.000000 0.001805 0.000000
# 2 -0.009357 0.043392 0.000667 0.000000 0.007243 0.000000
# 3 -0.003650 0.000667 0.014521 0.000000 0.004378 0.000000
# 4 0.000000 0.000000 0.000000 0.044555 0.000000 -0.000173
# 5 0.001805 0.007243 0.004378 0.000000 0.043996 0.000000
# 6 0.000000 0.000000 0.000000 -0.000173 0.000000 0.034963
#
#
# Mechanical properties :
#
#
# Convention : Reuss Voigt Hill
#
# Bulk Modulus (GPa) = 22.61232 43.25660 32.93446
# Shear Modulus (GPa) = 21.56644 26.51921 24.04282
#
# Velocity S-wave (km/s) = 3.31438 3.67531 3.49950
# Velocity P-wave (km/s) = 5.11514 6.32802 5.75363
#
# Compressibility (1/GPa) = 0.04422367
#
# Stress axis : x y z
#
# Youngs Moduli (GPa) = 90.97252 23.04550 68.86795
#
# Poissons Ratio (x) = 0.21564 0.25139
# Poissons Ratio (y) = 0.85125 -0.04591
# Poissons Ratio (z) = 0.33207 -0.01536
#
# Static dielectric constant tensor:
#      x y z
#    x 1.693820 0.000000 -0.010220 
#    y 0.000000 1.654030 0.000000 
#    z -0.010220 0.000000 1.703120 
# 
# From -- ./inp_files/238586.got.cif
#   From: 2010.05.17/outbox.cif.g08.bks.cpg/sg12_120_cif.got.tgz:238586.got - 2010.06.03 13:09:07.
