data_PCOD9201651
_publ_section_title
;
Structure prediction by ZEFSAII (Michael W. Deem and Ramdas Pophale) SiO2 
 PCOD9201651
Probable space group: C 2/M
;
_chemical_formula_sum "Si O2"
_cell_formula_units_Z 56
_cell_length_a 8.550729
_cell_length_b 16.678534
_cell_length_c 19.360936
_cell_angle_alpha 90.000000
_cell_angle_beta 114.869475
_cell_angle_gamma 90.000000
_cell_volume 2505.088390
_symmetry_space_group_name_H-M "C 2/M"
_symmetry_group_IT_number 12
_symmetry_cell_setting 'monoclinic'
loop_
_space_group_symop_operation_xyz
x,y,z
-x,y,-z
-x,-y,-z
x,-y,z
1/2+x,1/2+y,z
1/2-x,1/2+y,-z
1/2-x,1/2-y,-z
1/2+x,1/2-y,z
loop_
_atom_site_type_symbol
_atom_site_label
_atom_site_fract_x
_atom_site_fract_y
_atom_site_fract_z
Si Si1 0.985144 0.908416 0.663480
Si Si2 0.988776 0.309730 0.163173
Si Si3 0.171343 0.909036 0.073858
Si Si4 0.864901 0.413669 0.914203
Si Si5 0.090511 0.597317 0.588607
Si Si6 0.861764 0.402411 0.680562
Si Si7 0.991484 0.120613 0.171591
O O1 0.158742 0.877600 0.656221
O O2 0.019819 0.909278 0.752344
O O3 0.790294 0.872091 0.623980
O O4 0.968602 0.000000 0.635107
O O5 0.818756 0.343126 0.093801
O O6 0.996625 0.216141 0.174536
O O7 0.131779 0.339344 0.136202
O O8 0.030530 0.358042 0.240066
O O9 0.145308 0.908854 0.152183
O O10 0.218062 0.000000 0.062019
O O11 0.000000 0.885885 0.000000
O O12 0.893943 0.500000 0.883809
O O13 0.670249 0.411746 0.901992
O O14 0.000000 0.407067 0.000000
O O15 0.102604 0.500000 0.595160
O O16 0.000000 0.618844 0.500000
O O17 0.962029 0.619395 0.628058
O O18 0.866201 0.500000 0.688607
#
# Coordination Sequence:
#
# PCOD9201651 Si02
#       7
#     8   8   8   8   8   8   8
#     4  10  20  37  63  91 123 166 210 254 310 381
#     4  12  24  38  59  88 119 158 204 262 315 366
#     4  11  24  40  58  82 116 160 208 259 320 382
#     4  11  23  40  61  83 116 162 208 257 315 382
#     4   9  19  36  61  97 131 157 200 261 314 367
#     4  10  20  37  63  91 123 166 210 254 310 381
#     4  12  24  38  59  88 119 158 204 262 315 366
#
# _framework density 22.354500000000002
#
# number of rings (size 3 to 8) (size 9 to 14) (size 15 to 20)
#    0.000    1.286    1.429    5.143    0.000    7.429 
#    0.000    2.857    0.000    0.857    0.000    0.000 
#    0.000    0.000    0.000    0.000    0.000    0.000 
#
# Total GULP energy -156187.598499 kJ/mol
# GULP energy per Si atom -5578.128518 kJ/mol
# Density = 2.230362 g / cm^3
# Si number density = 22.354500 Si / 1000 Ang^3
#
#
#
# Elastic Constant Matrix: (Units=GPa)
#
#
# Indices 1 2 3 4 5 6 
#
# 1 154.5608 24.2385 61.7989 0.0000 7.7255 0.0000
# 2 24.2385 79.0555 19.4790 0.0000 -4.4916 0.0000
# 3 61.7989 19.4790 97.3662 0.0000 6.7689 0.0000
# 4 0.0000 0.0000 0.0000 -8.3729 0.0000 26.7837
# 5 7.7255 -4.4916 6.7689 0.0000 38.4236 0.0000
# 6 0.0000 0.0000 0.0000 26.7837 0.0000 -6.7429
#
#
#
# Elastic Compliance Matrix: (Units=1/GPa)
#
#
# Indices 1 2 3 4 5 6 
#
# 1 0.008853 -0.001479 -0.005252 0.000000 -0.001028 0.000000
# 2 -0.001479 0.013714 -0.001961 0.000000 0.002246 0.000000
# 3 -0.005252 -0.001961 0.014112 0.000000 -0.001659 0.000000
# 4 0.000000 0.000000 0.000000 0.010202 0.000000 0.040525
# 5 -0.001028 0.002246 -0.001659 0.000000 0.026787 0.000000
# 6 0.000000 0.000000 0.000000 0.040525 0.000000 0.012669
#
#
# Mechanical properties :
#
#
# Convention : Reuss Voigt Hill
#
# Bulk Modulus (GPa) = 51.82722 60.22392 56.02557
# Shear Modulus (GPa) = 45.39208 19.69262 32.54235
#
# Velocity S-wave (km/s) = 4.51106 2.97126 3.81956
# Velocity P-wave (km/s) = 7.09700 6.22656 6.67598
#
# Compressibility (1/GPa) = 0.01929488
#
# Stress axis : x y z
#
# Youngs Moduli (GPa) = 112.95504 72.92070 70.86388
#
# Poissons Ratio (x) = 0.10783 0.37217
# Poissons Ratio (y) = 0.16703 0.13897
# Poissons Ratio (z) = 0.59322 0.14300
#
# Static dielectric constant tensor:
#      x y z
#    x 1.963810 0.000000 0.004330 
#    y 0.000000 1.786660 0.000000 
#    z 0.004330 0.000000 1.795840 
# 
# From -- ./inp_files/300905.got.cif
#   From: 2010.05.17/outbox.cif.g08.bks.cpg/sg12_151_cif.got.tgz:300905.got - 2010.06.03 13:09:07.
