data_PCOD9201720
_publ_section_title
;
Structure prediction by ZEFSAII (Michael W. Deem and Ramdas Pophale) SiO2 
 PCOD9201720
Probable space group: C 2/M
;
_chemical_formula_sum "Si O2"
_cell_formula_units_Z 48
_cell_length_a 8.172659
_cell_length_b 21.370055
_cell_length_c 24.637190
_cell_angle_alpha 90.000000
_cell_angle_beta 144.475585
_cell_angle_gamma 90.000000
_cell_volume 2500.193138
_symmetry_space_group_name_H-M "C 2/M"
_symmetry_group_IT_number 12
_symmetry_cell_setting 'monoclinic'
loop_
_space_group_symop_operation_xyz
x,y,z
-x,y,-z
-x,-y,-z
x,-y,z
1/2+x,1/2+y,z
1/2-x,1/2+y,-z
1/2-x,1/2-y,-z
1/2+x,1/2-y,z
loop_
_atom_site_type_symbol
_atom_site_label
_atom_site_fract_x
_atom_site_fract_y
_atom_site_fract_z
Si Si1 0.792597 0.574524 0.393370
Si Si2 0.294838 0.230147 0.073971
Si Si3 0.711553 0.122035 0.207396
Si Si4 0.847356 0.426334 0.203548
Si Si5 0.692312 0.924323 0.399986
Si Si6 0.295090 0.370844 0.107009
O O1 0.718144 0.500000 0.372753
O O2 0.507360 0.614189 0.318047
O O3 0.000000 0.584366 0.500000
O O4 0.966085 0.589477 0.385691
O O5 0.564116 0.189386 0.160726
O O6 0.305346 0.294893 0.110080
O O7 0.250000 0.250000 0.000000
O O8 0.000000 0.192736 0.000000
O O9 0.479888 0.085273 0.180299
O O10 0.785076 0.102388 0.165385
O O11 0.804619 0.500000 0.199521
O O12 0.556457 0.393379 0.141486
O O13 0.074841 0.403749 0.310100
O O14 0.000000 0.900393 0.500000
O O15 0.714391 0.000000 0.403336
O O16 0.000000 0.388074 0.000000
#
# Coordination Sequence:
#
# PCOD9201720 Si02
#       6
#     8   8   8   8   8   8
#     4  10  20  37  63  95 131 170 211 257 320 392
#     4  11  21  41  67  91 118 162 226 274 319 376
#     4  12  23  38  68  95 127 165 221 270 320 381
#     4  11  24  39  59  93 133 169 208 260 328 392
#     4   9  17  33  56  84 121 161 205 254 300 366
#     4  11  24  42  64  91 125 170 216 271 321 380
#
# _framework density 19.198516000000001
#
# number of rings (size 3 to 8) (size 9 to 14) (size 15 to 20)
#    0.000    1.333    5.000    2.500    0.000    3.667 
#    0.000    0.833    0.000    2.000    0.000    0.000 
#    0.000    0.000    0.000    0.000    0.000    0.000 
#
# Total GULP energy -133774.882120 kJ/mol
# GULP energy per Si atom -5573.953422 kJ/mol
# Density = 1.915482 g / cm^3
# Si number density = 19.198516 Si / 1000 Ang^3
#
#
#
# Elastic Constant Matrix: (Units=GPa)
#
#
# Indices 1 2 3 4 5 6 
#
# 1 101.1097 23.7033 48.7499 -0.0174 14.8369 -0.0028
# 2 23.7033 45.5112 45.9665 -0.0064 10.0828 -0.0010
# 3 48.7499 45.9665 128.8930 -0.0448 28.8251 0.0016
# 4 -0.0174 -0.0064 -0.0448 11.4579 -0.0040 3.3816
# 5 14.8369 10.0828 28.8251 -0.0040 38.7244 -0.0005
# 6 -0.0028 -0.0010 0.0016 3.3816 -0.0005 22.4802
#
#
#
# Elastic Compliance Matrix: (Units=1/GPa)
#
#
# Indices 1 2 3 4 5 6 
#
# 1 0.012375 -0.002695 -0.003378 0.000003 -0.001525 0.000001
# 2 -0.002695 0.034931 -0.011559 -0.000032 0.000542 0.000007
# 3 -0.003378 -0.011559 0.014631 0.000046 -0.006587 -0.000009
# 4 0.000003 -0.000032 0.000046 0.091331 -0.000018 -0.013739
# 5 -0.001525 0.000542 -0.006587 -0.000018 0.031170 0.000004
# 6 0.000001 0.000007 -0.000009 -0.013739 0.000004 0.046550
#
#
# Mechanical properties :
#
#
# Convention : Reuss Voigt Hill
#
# Bulk Modulus (GPa) = 37.49212 56.92814 47.21013
# Shear Modulus (GPa) = 18.17232 25.00544 21.58888
#
# Velocity S-wave (km/s) = 3.07994 3.61289 3.35701
# Velocity P-wave (km/s) = 5.67619 6.86445 6.29840
#
# Compressibility (1/GPa) = 0.02667227
#
# Stress axis : x y z
#
# Youngs Moduli (GPa) = 80.81054 28.62782 68.34596
#
# Poissons Ratio (x) = 0.07716 0.23088
# Poissons Ratio (y) = 0.21780 0.79002
# Poissons Ratio (z) = 0.27299 0.33091
#
# Static dielectric constant tensor:
#      x y z
#    x 1.724870 0.000000 -0.012650 
#    y 0.000000 1.665710 0.000000 
#    z -0.012650 0.000000 1.673270 
# 
# From -- ./inp_files/356959.got.cif
#   From: 2010.05.17/outbox.cif.g08.bks.cpg/sg12_179_cif.got.tgz:356959.got - 2010.06.03 13:09:07.
