data_PCOD9201895
_publ_section_title
;
Structure prediction by ZEFSAII (Michael W. Deem and Ramdas Pophale) SiO2 
 PCOD9201895
Probable space group: C 2/M
;
_chemical_formula_sum "Si O2"
_cell_formula_units_Z 64
_cell_length_a 28.781770
_cell_length_b 15.022781
_cell_length_c 10.372861
_cell_angle_alpha 90.000000
_cell_angle_beta 134.572553
_cell_angle_gamma 90.000000
_cell_volume 3194.974048
_symmetry_space_group_name_H-M "C 2/M"
_symmetry_group_IT_number 12
_symmetry_cell_setting 'monoclinic'
loop_
_space_group_symop_operation_xyz
x,y,z
-x,y,-z
-x,-y,-z
x,-y,z
1/2+x,1/2+y,z
1/2-x,1/2+y,-z
1/2-x,1/2-y,-z
1/2+x,1/2-y,z
loop_
_atom_site_type_symbol
_atom_site_label
_atom_site_fract_x
_atom_site_fract_y
_atom_site_fract_z
Si Si1 0.191472 0.599922 0.178176
Si Si2 0.348542 0.796772 0.647652
Si Si3 0.638333 0.604419 0.939023
Si Si4 0.608209 0.259468 0.665285
Si Si5 0.941038 0.830370 0.972775
Si Si6 0.466740 0.809075 0.712628
Si Si7 0.066179 0.595452 0.755753
Si Si8 0.762016 0.267827 0.229006
O O1 0.218105 0.500000 0.238283
O O2 0.180499 0.644417 0.295280
O O3 0.233938 0.668201 0.178134
O O4 0.122073 0.596383 0.972465
O O5 0.380846 0.706478 0.769240
O O6 0.410996 0.841014 0.700387
O O7 0.295634 0.782118 0.433661
O O8 0.651075 0.500000 0.944224
O O9 0.608971 0.652868 0.754851
O O10 0.589974 0.616932 0.967715
O O11 0.704162 0.661483 0.095668
O O12 0.566925 0.260282 0.452923
O O13 0.578667 0.179976 0.691697
O O14 0.681080 0.230604 0.765986
O O15 0.000000 0.871108 0.000000
O O16 0.976507 0.743666 0.103105
O O17 0.498353 0.888297 0.694856
O O18 0.069717 0.500000 0.695796
#
# Coordination Sequence:
#
# PCOD9201895 Si02
#       8
#     8   8   8   8   8   8   8   8
#     4  11  22  37  62  91 123 161 200 247 307 369
#     4  10  20  38  65  90 121 160 201 242 305 370
#     4  12  25  41  64  90 120 164 212 257 305 355
#     4  11  23  41  62  88 122 162 206 254 301 357
#     4  10  20  40  64  91 119 154 198 249 306 363
#     4  10  20  37  66  88 122 161 193 245 307 365
#     4  11  22  37  62  93 122 158 197 240 308 373
#     4  11  23  42  62  89 123 164 206 254 304 358
#
# _framework density 20.031461
#
# number of rings (size 3 to 8) (size 9 to 14) (size 15 to 20)
#    0.000    1.250    5.000    1.125    0.000    3.250 
#    0.000    5.000    0.000    4.500    0.000    0.000 
#    0.000    0.000    0.000    0.000    0.000    0.000 
#
# Total GULP energy -178656.636415 kJ/mol
# GULP energy per Si atom -5583.019888 kJ/mol
# Density = 1.998587 g / cm^3
# Si number density = 20.031461 Si / 1000 Ang^3
#
#
#
# Elastic Constant Matrix: (Units=GPa)
#
#
# Indices 1 2 3 4 5 6 
#
# 1 85.1659 17.9640 -9.4039 0.0000 0.5599 0.0000
# 2 17.9640 84.3982 -0.6208 0.0000 5.3841 0.0000
# 3 -9.4039 -0.6208 59.4771 0.0000 -6.9250 0.0000
# 4 0.0000 0.0000 0.0000 2.4035 0.0000 -0.6264
# 5 0.5599 5.3841 -6.9250 0.0000 29.6539 0.0000
# 6 0.0000 0.0000 0.0000 -0.6264 0.0000 1.4736
#
#
#
# Elastic Compliance Matrix: (Units=1/GPa)
#
#
# Indices 1 2 3 4 5 6 
#
# 1 0.012531 -0.002699 0.002038 0.000000 0.000729 0.000000
# 2 -0.002699 0.012570 -0.000571 0.000000 -0.002365 0.000000
# 3 0.002038 -0.000571 0.017616 0.000000 0.004179 0.000000
# 4 0.000000 0.000000 0.000000 0.467908 0.000000 0.198901
# 5 0.000729 -0.002365 0.004179 0.000000 0.035114 0.000000
# 6 0.000000 0.000000 0.000000 0.198901 0.000000 0.763162
#
#
# Mechanical properties :
#
#
# Convention : Reuss Voigt Hill
#
# Bulk Modulus (GPa) = 24.84233 27.21333 26.02783
# Shear Modulus (GPa) = 3.77421 21.44630 12.61025
#
# Velocity S-wave (km/s) = 1.37413 3.27560 2.51175
# Velocity P-wave (km/s) = 3.86603 5.28402 4.62964
#
# Compressibility (1/GPa) = 0.04025388
#
# Stress axis : x y z
#
# Youngs Moduli (GPa) = 79.80020 79.55651 56.76649
#
# Poissons Ratio (x) = 0.21471 -0.11569
# Poissons Ratio (y) = 0.21537 0.03240
# Poissons Ratio (z) = -0.16264 0.04541
#
# Static dielectric constant tensor:
#      x y z
#    x 1.727400 0.000000 -0.009770 
#    y 0.000000 1.675930 0.000000 
#    z -0.009770 0.000000 1.745230 
# 
# From -- ./inp_files/189486.got.cif
#   From: 2010.05.17/outbox.cif.g08.bks.cpg/sg12_95_cif.got.tgz:189486.got - 2010.06.03 13:09:07.
