data_PCOD9201713
_publ_section_title
;
Structure prediction by ZEFSAII (Michael W. Deem and Ramdas Pophale) SiO2 
 PCOD9201713
Probable space group: C 2/M
;
_chemical_formula_sum "Si O2"
_cell_formula_units_Z 40
_cell_length_a 23.208965
_cell_length_b 12.352614
_cell_length_c 9.993133
_cell_angle_alpha 90.000000
_cell_angle_beta 35.132618
_cell_angle_gamma 90.000000
_cell_volume 1648.692634
_symmetry_space_group_name_H-M "C 2/M"
_symmetry_group_IT_number 12
_symmetry_cell_setting 'monoclinic'
loop_
_space_group_symop_operation_xyz
x,y,z
-x,y,-z
-x,-y,-z
x,-y,z
1/2+x,1/2+y,z
1/2-x,1/2+y,-z
1/2-x,1/2-y,-z
1/2+x,1/2-y,z
loop_
_atom_site_type_symbol
_atom_site_label
_atom_site_fract_x
_atom_site_fract_y
_atom_site_fract_z
Si Si1 0.335266 0.876281 0.333617
Si Si2 0.690446 0.119554 0.165245
Si Si3 0.896698 0.841080 0.630254
Si Si4 0.313615 0.298587 0.180923
Si Si5 0.035144 0.181451 0.788923
O O1 0.318717 0.825869 0.218769
O O2 0.227706 0.860519 0.609158
O O3 0.413122 0.795131 0.261392
O O4 0.366697 0.000000 0.276615
O O5 0.612631 0.216528 0.297123
O O6 0.741123 0.155782 0.208090
O O7 0.646481 0.000000 0.255265
O O8 0.787190 0.117865 0.884707
O O9 0.901095 0.855893 0.460333
O O10 0.000000 0.883564 0.500000
O O11 0.426541 0.317867 0.926596
O O12 0.000000 0.130908 0.000000
#
# Coordination Sequence:
#
# PCOD9201713 Si02
#       5
#     8   8   8   8   8
#     4  10  21  39  66  94 131 179 218 261 327 389
#     4  11  24  43  69  94 129 176 218 265 333 391
#     4  11  23  43  69  95 132 168 220 274 319 386
#     4  10  20  37  63  94 131 167 214 270 313 385
#     4  10  21  38  65  94 132 172 208 268 324 379
#
# _framework density 24.261645999999999
#
# number of rings (size 3 to 8) (size 9 to 14) (size 15 to 20)
#    0.000    1.600    4.000    0.600    0.000    4.400 
#    0.000    4.000    0.000   40.200    0.000    0.000 
#    0.000    0.000    0.000    0.000    0.000    0.000 
#
# Total GULP energy -111346.146458 kJ/mol
# GULP energy per Si atom -5567.307323 kJ/mol
# Density = 2.420643 g / cm^3
# Si number density = 24.261646 Si / 1000 Ang^3
#
#
#
# Elastic Constant Matrix: (Units=GPa)
#
#
# Indices 1 2 3 4 5 6 
#
# 1 43.0023 -2.2037 19.4236 0.0000 26.0881 0.0000
# 2 -2.2037 121.6120 -1.7726 0.0000 1.3583 0.0000
# 3 19.4236 -1.7726 125.5041 0.0000 19.2533 0.0000
# 4 0.0000 0.0000 0.0000 -9.2445 0.0000 6.0456
# 5 26.0881 1.3583 19.2533 0.0000 59.6778 0.0000
# 6 0.0000 0.0000 0.0000 6.0456 0.0000 5.6609
#
#
#
# Elastic Compliance Matrix: (Units=1/GPa)
#
#
# Indices 1 2 3 4 5 6 
#
# 1 0.032758 0.000699 -0.003010 0.000000 -0.013365 0.000000
# 2 0.000699 0.008243 0.000088 0.000000 -0.000522 0.000000
# 3 -0.003010 0.000088 0.008662 0.000000 -0.001481 0.000000
# 4 0.000000 0.000000 0.000000 -0.063690 0.000000 0.068019
# 5 -0.013365 -0.000522 -0.001481 0.000000 0.023089 0.000000
# 6 0.000000 0.000000 0.000000 0.068019 0.000000 0.104010
#
#
# Mechanical properties :
#
#
# Convention : Reuss Voigt Hill
#
# Bulk Modulus (GPa) = 22.11511 35.66811 28.89161
# Shear Modulus (GPa) = 37.71072 29.53024 33.62048
#
# Velocity S-wave (km/s) = 3.94678 3.49256 3.72660
# Velocity P-wave (km/s) = 5.46850 5.56753 5.51824
#
# Compressibility (1/GPa) = 0.04521795
#
# Stress axis : x y z
#
# Youngs Moduli (GPa) = 30.52699 121.32016 115.44566
#
# Poissons Ratio (x) = -0.08480 0.34744
# Poissons Ratio (y) = -0.02134 -0.01019
# Poissons Ratio (z) = 0.09187 -0.01071
#
# Static dielectric constant tensor:
#      x y z
#    x 2.032370 0.000000 0.020700 
#    y 0.000000 1.965170 0.000000 
#    z 0.020700 0.000000 1.990040 
# 
# From -- ./inp_files/183150.got.cif
#   From: 2010.05.17/outbox.cif.g08.bks.cpg/sg12_92_cif.got.tgz:183150.got - 2010.06.03 13:09:07.
