data_PCOD9201896
_publ_section_title
;
Structure prediction by ZEFSAII (Michael W. Deem and Ramdas Pophale) SiO2 
 PCOD9201896
Probable space group: C 2/M
;
_chemical_formula_sum "Si O2"
_cell_formula_units_Z 48
_cell_length_a 9.030079
_cell_length_b 13.941646
_cell_length_c 19.588423
_cell_angle_alpha 90.000000
_cell_angle_beta 109.278874
_cell_angle_gamma 90.000000
_cell_volume 2327.777843
_symmetry_space_group_name_H-M "C 2/M"
_symmetry_group_IT_number 12
_symmetry_cell_setting 'monoclinic'
loop_
_space_group_symop_operation_xyz
x,y,z
-x,y,-z
-x,-y,-z
x,-y,z
1/2+x,1/2+y,z
1/2-x,1/2+y,-z
1/2-x,1/2-y,-z
1/2+x,1/2-y,z
loop_
_atom_site_type_symbol
_atom_site_label
_atom_site_fract_x
_atom_site_fract_y
_atom_site_fract_z
Si Si1 0.123929 0.196301 0.387687
Si Si2 0.951560 0.113604 0.101958
Si Si3 0.695157 0.253196 0.713197
Si Si4 0.255177 0.113993 0.051915
Si Si5 0.016832 0.293601 0.812573
Si Si6 0.348978 0.891740 0.526986
O O1 0.227145 0.191331 0.335123
O O2 0.196813 0.130314 0.457195
O O3 0.139136 0.306358 0.416814
O O4 0.943073 0.183852 0.340748
O O5 0.107136 0.131930 0.079792
O O6 0.965497 0.180053 0.169438
O O7 0.943390 0.000000 0.113824
O O8 0.802664 0.143336 0.032253
O O9 0.836165 0.312112 0.769264
O O10 0.616771 0.188033 0.759848
O O11 0.408226 0.157619 0.109952
O O12 0.274755 0.000000 0.051793
O O13 0.500000 0.882923 0.500000
O O14 0.345406 0.000000 0.553720
#
# Coordination Sequence:
#
# PCOD9201896 Si02
#       6
#     8   8   8   8   8   8
#     4  10  20  41  57  86 116 146 170 238 264 318
#     4   9  18  34  56  80 106 142 190 237 278 322
#     4  10  22  35  57  78 120 152 178 210 286 326
#     4   9  18  34  56  80 106 142 190 237 278 322
#     4  11  19  37  55  83 107 152 186 224 267 343
#     4  10  20  37  66  89 106 143 189 220 264 326
#
# _framework density 20.620522999999999
#
# number of rings (size 3 to 8) (size 9 to 14) (size 15 to 20)
#    0.000    2.167    3.333    1.500    0.000    0.000 
#    0.000   12.500    0.000    2.000    0.000    0.000 
#    0.000    0.000    0.000    0.000    0.000    0.000 
#
# Total GULP energy -133913.580310 kJ/mol
# GULP energy per Si atom -5579.732513 kJ/mol
# Density = 2.057359 g / cm^3
# Si number density = 20.620523 Si / 1000 Ang^3
#
#
#
# Elastic Constant Matrix: (Units=GPa)
#
#
# Indices 1 2 3 4 5 6 
#
# 1 83.4336 7.0712 38.9293 0.0000 30.0049 0.0000
# 2 7.0712 54.4606 22.9930 0.0000 0.3203 0.0000
# 3 38.9293 22.9930 102.1937 0.0000 34.7932 0.0000
# 4 0.0000 0.0000 0.0000 9.1164 0.0000 -0.4230
# 5 30.0049 0.3203 34.7932 0.0000 50.4720 0.0000
# 6 0.0000 0.0000 0.0000 -0.4230 0.0000 8.4400
#
#
#
# Elastic Compliance Matrix: (Units=1/GPa)
#
#
# Indices 1 2 3 4 5 6 
#
# 1 0.016316 -0.000535 -0.003651 0.000000 -0.007180 0.000000
# 2 -0.000535 0.020926 -0.005968 0.000000 0.004300 0.000000
# 3 -0.003651 -0.005968 0.015376 0.000000 -0.008391 0.000000
# 4 0.000000 0.000000 0.000000 0.109949 0.000000 0.005511
# 5 -0.007180 0.004300 -0.008391 0.000000 0.029839 0.000000
# 6 0.000000 0.000000 0.000000 0.005511 0.000000 0.118759
#
#
# Mechanical properties :
#
#
# Convention : Reuss Voigt Hill
#
# Bulk Modulus (GPa) = 30.95002 42.00833 36.47917
# Shear Modulus (GPa) = 14.60954 25.01196 19.81075
#
# Velocity S-wave (km/s) = 2.66465 3.48654 3.10293
# Velocity P-wave (km/s) = 4.95066 6.05180 5.52871
#
# Compressibility (1/GPa) = 0.03231016
#
# Stress axis : x y z
#
# Youngs Moduli (GPa) = 61.28826 47.78782 65.03758
#
# Poissons Ratio (x) = 0.02557 0.23743
# Poissons Ratio (y) = 0.03279 0.38816
# Poissons Ratio (z) = 0.22374 0.28521
#
# Static dielectric constant tensor:
#      x y z
#    x 1.761200 0.000000 0.016320 
#    y 0.000000 1.708050 0.000000 
#    z 0.016320 0.000000 1.752750 
# 
# From -- ./inp_files/255775.got.cif
#   From: 2010.05.17/outbox.cif.g08.bks.cpg/sg12_128_cif.got.tgz:255775.got - 2010.06.03 13:09:07.
