data_PCOD9201889
_publ_section_title
;
Structure prediction by ZEFSAII (Michael W. Deem and Ramdas Pophale) SiO2 
 PCOD9201889
Probable space group: C 2/M
;
_chemical_formula_sum "Si O2"
_cell_formula_units_Z 56
_cell_length_a 8.767929
_cell_length_b 12.869813
_cell_length_c 23.866583
_cell_angle_alpha 90.000000
_cell_angle_beta 106.787598
_cell_angle_gamma 90.000000
_cell_volume 2578.367279
_symmetry_space_group_name_H-M "C 2/M"
_symmetry_group_IT_number 12
_symmetry_cell_setting 'monoclinic'
loop_
_space_group_symop_operation_xyz
x,y,z
-x,y,-z
-x,-y,-z
x,-y,z
1/2+x,1/2+y,z
1/2-x,1/2+y,-z
1/2-x,1/2-y,-z
1/2+x,1/2-y,z
loop_
_atom_site_type_symbol
_atom_site_label
_atom_site_fract_x
_atom_site_fract_y
_atom_site_fract_z
Si Si1 0.572814 0.880987 0.569761
Si Si2 0.182762 0.373157 0.021869
Si Si3 0.280648 0.376717 0.910109
Si Si4 0.068636 0.122815 0.862712
Si Si5 0.714737 0.293240 0.717069
Si Si6 0.905713 0.792627 0.630911
Si Si7 0.961325 0.311210 0.209406
O O1 0.500000 0.873188 0.500000
O O2 0.762792 0.856591 0.587375
O O3 0.481032 0.796861 0.599012
O O4 0.550889 0.000000 0.587755
O O5 0.189344 0.500000 0.021863
O O6 0.266923 0.347631 0.089491
O O7 0.264621 0.340288 0.972188
O O8 0.000000 0.343226 0.000000
O O9 0.300865 0.500000 0.917047
O O10 0.436165 0.341950 0.893367
O O11 0.130799 0.358942 0.853083
O O12 0.035684 0.188026 0.804263
O O13 0.060172 0.000000 0.852756
O O14 0.815316 0.256105 0.674368
O O15 0.559963 0.349055 0.674591
O O16 0.646530 0.194423 0.745938
O O17 0.856989 0.349196 0.766423
#
# Coordination Sequence:
#
# PCOD9201889 Si02
#       7
#     8   8   8   8   8   8   8
#     4  10  20  37  66 101 132 167 213 257 301 359
#     4   9  19  34  53  78 106 132 170 232 297 369
#     4  10  21  37  56  76 102 139 181 228 295 365
#     4  10  21  37  56  76 102 139 181 228 295 365
#     4   9  20  37  58  79 117 160 197 244 292 343
#     4   9  19  40  61  87 128 173 203 248 308 356
#     4  11  20  37  55  83 109 142 189 250 290 340
#
# _framework density 21.719170999999999
#
# number of rings (size 3 to 8) (size 9 to 14) (size 15 to 20)
#    0.000    2.286    1.429    0.857    2.000    2.286 
#    0.000   17.143    0.000    7.714    0.000    0.000 
#    0.000    0.000    0.000    0.000    0.000    0.000 
#
# Total GULP energy -156138.155059 kJ/mol
# GULP energy per Si atom -5576.362681 kJ/mol
# Density = 2.166974 g / cm^3
# Si number density = 21.719171 Si / 1000 Ang^3
#
#
#
# Elastic Constant Matrix: (Units=GPa)
#
#
# Indices 1 2 3 4 5 6 
#
# 1 116.5771 15.3345 42.6028 0.0000 25.4761 0.0000
# 2 15.3345 54.6340 15.0313 0.0000 -8.4559 0.0000
# 3 42.6028 15.0313 93.3802 0.0000 19.3129 0.0000
# 4 0.0000 0.0000 0.0000 5.3126 0.0000 -3.7268
# 5 25.4761 -8.4559 19.3129 0.0000 47.4228 0.0000
# 6 0.0000 0.0000 0.0000 -3.7268 0.0000 18.9829
#
#
#
# Elastic Compliance Matrix: (Units=1/GPa)
#
#
# Indices 1 2 3 4 5 6 
#
# 1 0.011448 -0.003009 -0.003664 0.000000 -0.005194 0.000000
# 2 -0.003009 0.021143 -0.003434 0.000000 0.006785 0.000000
# 3 -0.003664 -0.003434 0.013817 0.000000 -0.004271 0.000000
# 4 0.000000 0.000000 0.000000 0.218297 0.000000 0.042857
# 5 -0.005194 0.006785 -0.004271 0.000000 0.026826 0.000000
# 6 0.000000 0.000000 0.000000 0.042857 0.000000 0.061093
#
#
# Mechanical properties :
#
#
# Convention : Reuss Voigt Hill
#
# Bulk Modulus (GPa) = 38.17741 45.61429 41.89585
# Shear Modulus (GPa) = 13.10376 27.11848 20.11112
#
# Velocity S-wave (km/s) = 2.45894 3.53738 3.04626
# Velocity P-wave (km/s) = 5.06732 6.14260 5.63069
#
# Compressibility (1/GPa) = 0.02619350
#
# Stress axis : x y z
#
# Youngs Moduli (GPa) = 87.35103 47.29688 72.37639
#
# Poissons Ratio (x) = 0.14232 0.26521
# Poissons Ratio (y) = 0.26284 0.24853
# Poissons Ratio (z) = 0.32008 0.16241
#
# Static dielectric constant tensor:
#      x y z
#    x 1.835400 0.000000 0.003770 
#    y 0.000000 1.840360 0.000000 
#    z 0.003770 0.000000 1.858390 
# 
# From -- ./inp_files/332682.got.cif
#   From: 2010.05.17/outbox.cif.g08.bks.cpg/sg12_167_cif.got.tgz:332682.got - 2010.06.03 13:09:07.
