data_PCOD9201630
_publ_section_title
;
Structure prediction by ZEFSAII (Michael W. Deem and Ramdas Pophale) SiO2 
 PCOD9201630
Probable space group: C 2/M
;
_chemical_formula_sum "Si O2"
_cell_formula_units_Z 64
_cell_length_a 16.446776
_cell_length_b 17.482627
_cell_length_c 20.080701
_cell_angle_alpha 90.000000
_cell_angle_beta 146.371289
_cell_angle_gamma 90.000000
_cell_volume 3197.615472
_symmetry_space_group_name_H-M "C 2/M"
_symmetry_group_IT_number 12
_symmetry_cell_setting 'monoclinic'
loop_
_space_group_symop_operation_xyz
x,y,z
-x,y,-z
-x,-y,-z
x,-y,z
1/2+x,1/2+y,z
1/2-x,1/2+y,-z
1/2-x,1/2-y,-z
1/2+x,1/2-y,z
loop_
_atom_site_type_symbol
_atom_site_label
_atom_site_fract_x
_atom_site_fract_y
_atom_site_fract_z
Si Si1 0.393541 0.091264 0.698976
Si Si2 0.204834 0.189494 0.307726
Si Si3 0.716334 0.909090 0.901008
Si Si4 0.755897 0.089791 0.538156
Si Si5 0.158104 0.847825 0.639171
Si Si6 0.106264 0.090233 0.751054
Si Si7 0.628270 0.311278 0.895028
Si Si8 0.848014 0.091100 0.858340
O O1 0.560495 0.116165 0.823621
O O2 0.331077 0.119949 0.585676
O O3 0.284782 0.109883 0.684301
O O4 0.397408 0.000000 0.694242
O O5 0.267198 0.142404 0.413056
O O6 0.303481 0.259315 0.349389
O O7 0.180643 0.133797 0.229107
O O8 0.040321 0.216239 0.217445
O O9 0.726290 0.887553 0.830496
O O10 0.727357 0.000000 0.911584
O O11 0.849637 0.875830 0.033712
O O12 0.928791 0.091388 0.636954
O O13 0.719019 0.000000 0.526219
O O14 0.154164 0.874880 0.712910
O O15 0.000000 0.866420 0.500000
O O16 0.160295 0.145725 0.847290
O O17 0.150326 0.000000 0.787581
O O18 0.750000 0.250000 0.000000
O O19 0.847317 0.000000 0.846862
O O20 0.000000 0.110019 0.000000
#
# Coordination Sequence:
#
# PCOD9201630 Si02
#       8
#     8   8   8   8   8   8   8   8
#     4  10  21  40  65  92 123 165 214 264 320 378
#     4  11  24  38  59  93 128 165 209 262 316 388
#     4  10  21  38  63  93 124 162 208 256 312 383
#     4   9  19  39  65  91 121 162 214 267 317 373
#     4  12  25  41  61  95 132 172 213 264 325 381
#     4  10  22  41  68  95 121 165 223 271 313 373
#     4  11  23  41  62  91 127 170 204 261 324 380
#     4  10  20  37  63  90 118 159 208 257 309 375
#
# _framework density 20.014914999999998
#
# number of rings (size 3 to 8) (size 9 to 14) (size 15 to 20)
#    0.000    1.625    2.500    1.875    1.750    3.000 
#    0.000    1.875    0.000    8.250    0.000    0.000 
#    0.000    0.000    0.000    0.000    0.000    0.000 
#
# Total GULP energy -178627.375166 kJ/mol
# GULP energy per Si atom -5582.105474 kJ/mol
# Density = 1.996936 g / cm^3
# Si number density = 20.014915 Si / 1000 Ang^3
#
#
#
# Elastic Constant Matrix: (Units=GPa)
#
#
# Indices 1 2 3 4 5 6 
#
# 1 89.2275 32.4614 8.7394 -0.0013 -17.3714 0.0004
# 2 32.4614 51.2873 9.5929 0.0007 -11.8086 -0.0001
# 3 8.7394 9.5929 35.2884 0.0011 -13.3224 -0.0008
# 4 -0.0013 0.0007 0.0011 -39.6983 0.0011 41.6549
# 5 -17.3714 -11.8086 -13.3224 0.0011 40.3776 -0.0004
# 6 0.0004 -0.0001 -0.0008 41.6549 -0.0004 8.3937
#
#
#
# Elastic Compliance Matrix: (Units=1/GPa)
#
#
# Indices 1 2 3 4 5 6 
#
# 1 0.015134 -0.008678 0.000127 0.000000 0.004015 0.000000
# 2 -0.008678 0.026351 -0.004014 0.000000 0.002649 0.000000
# 3 0.000127 -0.004014 0.033098 0.000001 0.009801 0.000000
# 4 0.000000 0.000000 0.000001 -0.004058 0.000001 0.020139
# 5 0.004015 0.002649 0.009801 0.000001 0.030502 0.000000
# 6 0.000000 0.000000 0.000000 0.020139 0.000000 0.019193
#
#
# Mechanical properties :
#
#
# Convention : Reuss Voigt Hill
#
# Bulk Modulus (GPa) = 20.22170 30.82117 25.52143
# Shear Modulus (GPa) = 30.89579 10.14857 20.52218
#
# Velocity S-wave (km/s) = 3.93318 2.25422 3.20557
# Velocity P-wave (km/s) = 5.54543 4.71252 5.14586
#
# Compressibility (1/GPa) = 0.04945184
#
# Stress axis : x y z
#
# Youngs Moduli (GPa) = 66.07832 37.94892 30.21339
#
# Poissons Ratio (x) = 0.32932 -0.00383
# Poissons Ratio (y) = 0.57342 0.12129
# Poissons Ratio (z) = -0.00838 0.15234
#
# Static dielectric constant tensor:
#      x y z
#    x 1.711590 0.000000 0.015780 
#    y 0.000000 1.282260 0.000000 
#    z 0.015780 0.000000 1.689900 
# 
# From -- ./inp_files/271711.got.cif
#   From: 2010.05.17/outbox.cif.g08.bks.cpg/sg12_136_cif.got.tgz:271711.got - 2010.06.03 13:09:07.
