data_PCOD9201074
_publ_section_title
;
Structure prediction by ZEFSAII (Michael W. Deem and Ramdas Pophale) SiO2 
 PCOD9201074
Probable space group: C 2/M
;
_chemical_formula_sum "Si O2"
_cell_formula_units_Z 50
_cell_length_a 26.091275
_cell_length_b 7.503386
_cell_length_c 14.594640
_cell_angle_alpha 90.000000
_cell_angle_beta 123.222362
_cell_angle_gamma 90.000000
_cell_volume 2390.221575
_symmetry_space_group_name_H-M "C 2/M"
_symmetry_group_IT_number 12
_symmetry_cell_setting 'monoclinic'
loop_
_space_group_symop_operation_xyz
x,y,z
-x,y,-z
-x,-y,-z
x,-y,z
1/2+x,1/2+y,z
1/2-x,1/2+y,-z
1/2-x,1/2-y,-z
1/2+x,1/2-y,z
loop_
_atom_site_type_symbol
_atom_site_label
_atom_site_fract_x
_atom_site_fract_y
_atom_site_fract_z
Si Si1 0.606929 0.789553 0.336207
Si Si2 0.000000 0.500000 0.000000
Si Si3 0.413733 0.292375 0.961086
Si Si4 0.694876 0.215558 0.258824
Si Si5 0.441319 0.281592 0.382181
Si Si6 0.665905 0.285384 0.591249
Si Si7 0.465611 0.294893 0.203095
O O1 0.654082 0.722088 0.305347
O O2 0.636542 0.759154 0.464653
O O3 0.538994 0.709463 0.266748
O O4 0.598952 0.000000 0.316326
O O5 0.949316 0.658374 0.929160
O O6 0.431233 0.500000 0.968786
O O7 0.342534 0.274279 0.867467
O O8 0.434393 0.219232 0.081028
O O9 0.764533 0.279923 0.332462
O O10 0.696476 0.000000 0.262744
O O11 0.500000 0.227425 0.500000
O O12 0.442496 0.500000 0.381267
O O13 0.379957 0.224087 0.373869
O O14 0.447774 0.217558 0.284194
O O15 0.667639 0.500000 0.598757
O O16 0.445170 0.500000 0.183966
#
# Coordination Sequence:
#
# PCOD9201074 Si02
#       7
#     8   2   8   8   8   8   8
#     4  11  22  33  53  84 120 156 191 246 305 358
#     4  12  22  40  64  86 130 156 208 252 288 362
#     4  11  24  39  61  90 123 166 203 249 304 353
#     4  10  22  39  57  83 122 165 203 244 299 369
#     4   9  16  33  60  86 111 146 196 256 302 352
#     4  10  20  37  61  84 114 159 203 245 302 360
#     4  10  21  37  59  87 116 148 201 249 301 362
#
# _framework density 20.918562000000001
#
# number of rings (size 3 to 8) (size 9 to 14) (size 15 to 20)
#    0.000    1.760    2.400    2.160    3.360    3.200 
#    0.000    2.400    0.000    0.000    0.000    0.000 
#    0.000    0.000    0.000    0.000    0.000    0.000 
#
# Total GULP energy -139444.232457 kJ/mol
# GULP energy per Si atom -5577.769298 kJ/mol
# Density = 2.087095 g / cm^3
# Si number density = 20.918562 Si / 1000 Ang^3
#
#
#
# Elastic Constant Matrix: (Units=GPa)
#
#
# Indices 1 2 3 4 5 6 
#
# 1 147.6892 5.0088 89.9403 0.0000 -7.8782 0.0000
# 2 5.0088 86.6515 -1.3691 0.0000 -3.9508 0.0000
# 3 89.9403 -1.3691 170.5608 0.0000 1.4442 0.0000
# 4 0.0000 0.0000 0.0000 19.9732 0.0000 7.6488
# 5 -7.8782 -3.9508 1.4442 0.0000 24.0605 0.0000
# 6 0.0000 0.0000 0.0000 7.6488 0.0000 5.2149
#
#
#
# Elastic Compliance Matrix: (Units=1/GPa)
#
#
# Indices 1 2 3 4 5 6 
#
# 1 0.010316 -0.000518 -0.005474 0.000000 0.003621 0.000000
# 2 -0.000518 0.011655 0.000352 0.000000 0.001723 0.000000
# 3 -0.005474 0.000352 0.008772 0.000000 -0.002261 0.000000
# 4 0.000000 0.000000 0.000000 0.114226 0.000000 -0.167538
# 5 0.003621 0.001723 -0.002261 0.000000 0.043166 0.000000
# 6 0.000000 0.000000 0.000000 -0.167538 0.000000 0.437491
#
#
# Mechanical properties :
#
#
# Convention : Reuss Voigt Hill
#
# Bulk Modulus (GPa) = 51.38344 65.78462 58.58403
# Shear Modulus (GPa) = 7.77131 30.60449 19.18790
#
# Velocity S-wave (km/s) = 1.92953 3.82911 3.03193
# Velocity P-wave (km/s) = 5.43884 7.14602 6.35007
#
# Compressibility (1/GPa) = 0.01946152
#
# Stress axis : x y z
#
# Youngs Moduli (GPa) = 96.94121 85.80359 114.00222
#
# Poissons Ratio (x) = 0.04442 0.62410
# Poissons Ratio (y) = 0.05018 -0.04012
# Poissons Ratio (z) = 0.53070 -0.03020
#
# Static dielectric constant tensor:
#      x y z
#    x 1.774110 0.000000 -0.035130 
#    y 0.000000 1.873630 0.000000 
#    z -0.035130 0.000000 1.791880 
# 
# From -- ./inp_files/244414.got.cif
#   From: 2010.05.17/outbox.cif.g08.bks.cpg/sg12_123_cif.got.tgz:244414.got - 2010.06.03 13:09:07.
