data_PCOD9201073
_publ_section_title
;
Structure prediction by ZEFSAII (Michael W. Deem and Ramdas Pophale) SiO2 
 PCOD9201073
Probable space group: C 2/M
;
_chemical_formula_sum "Si O2"
_cell_formula_units_Z 64
_cell_length_a 29.207827
_cell_length_b 9.131409
_cell_length_c 18.451833
_cell_angle_alpha 90.000000
_cell_angle_beta 43.096078
_cell_angle_gamma 90.000000
_cell_volume 3362.323835
_symmetry_space_group_name_H-M "C 2/M"
_symmetry_group_IT_number 12
_symmetry_cell_setting 'monoclinic'
loop_
_space_group_symop_operation_xyz
x,y,z
-x,y,-z
-x,-y,-z
x,-y,z
1/2+x,1/2+y,z
1/2-x,1/2+y,-z
1/2-x,1/2-y,-z
1/2+x,1/2-y,z
loop_
_atom_site_type_symbol
_atom_site_label
_atom_site_fract_x
_atom_site_fract_y
_atom_site_fract_z
Si Si1 0.315091 0.323251 0.959312
Si Si2 0.962383 0.178272 0.753238
Si Si3 0.067001 0.171545 0.747627
Si Si4 0.201214 0.828893 0.500498
Si Si5 0.319246 0.674949 0.123907
Si Si6 0.576852 0.826559 0.888041
Si Si7 0.047109 0.171770 0.515393
Si Si8 0.686371 0.825602 0.364989
O O1 0.309075 0.500000 0.960968
O O2 0.384980 0.277186 0.840971
O O3 0.250000 0.250000 0.000000
O O4 0.322351 0.285521 0.035881
O O5 0.000156 0.223999 0.783379
O O6 0.005610 0.223927 0.633700
O O7 0.963280 0.000000 0.752669
O O8 0.126633 0.180949 0.620111
O O9 0.085327 0.258924 0.798358
O O10 0.058851 0.000000 0.776396
O O11 0.250000 0.750000 0.500000
O O12 0.204654 0.749353 0.419886
O O13 0.218130 0.000000 0.473638
O O14 0.330490 0.500000 0.116698
O O15 0.373349 0.754187 0.111708
O O16 0.245185 0.706932 0.240173
O O17 0.588425 0.000000 0.872390
O O18 0.500000 0.799335 0.000000
O O19 0.114673 0.261372 0.426041
O O20 0.000000 0.180597 0.500000
O O21 0.064711 0.000000 0.507010
O O22 0.682512 0.000000 0.378599
#
# Coordination Sequence:
#
# PCOD9201073 Si02
#       8
#     8   8   8   8   8   8   8   8
#     4  10  22  40  63  88 116 151 196 248 295 350
#     4   9  18  37  61  87 115 150 197 242 289 351
#     4  10  20  37  61  84 113 155 199 238 286 353
#     4  11  22  37  58  86 120 156 199 244 292 351
#     4  10  23  42  61  85 120 162 205 241 289 360
#     4  11  24  39  58  89 123 152 195 251 303 350
#     4  10  21  38  62  90 119 155 200 249 300 358
#     4  11  23  39  59  87 124 162 201 245 298 357
#
# _framework density 19.034454
#
# number of rings (size 3 to 8) (size 9 to 14) (size 15 to 20)
#    0.000    1.750    1.250    2.625    1.750    7.750 
#    0.000    1.250    0.000    0.000    0.000    0.000 
#    0.000    0.000    0.000    0.000    0.000    0.000 
#
# Total GULP energy -178818.258044 kJ/mol
# GULP energy per Si atom -5588.070564 kJ/mol
# Density = 1.899113 g / cm^3
# Si number density = 19.034454 Si / 1000 Ang^3
#
#
#
# Elastic Constant Matrix: (Units=GPa)
#
#
# Indices 1 2 3 4 5 6 
#
# 1 112.3127 38.0300 44.7161 -0.0027 -16.4685 0.0006
# 2 38.0300 48.7343 48.6025 -0.0076 -10.2361 0.0027
# 3 44.7161 48.6025 90.6233 -0.0077 -6.6068 0.0030
# 4 -0.0027 -0.0076 -0.0077 24.4293 0.0012 -3.8877
# 5 -16.4685 -10.2361 -6.6068 0.0012 34.5886 -0.0001
# 6 0.0006 0.0027 0.0030 -3.8877 -0.0001 32.0259
#
#
#
# Elastic Compliance Matrix: (Units=1/GPa)
#
#
# Indices 1 2 3 4 5 6 
#
# 1 0.012660 -0.006792 -0.002344 -0.000002 0.003570 0.000000
# 2 -0.006792 0.050471 -0.023187 0.000007 0.007274 -0.000001
# 3 -0.002344 -0.023187 0.024385 0.000000 -0.003320 0.000000
# 4 -0.000002 0.000007 0.000000 0.041741 0.000000 0.005067
# 5 0.003570 0.007274 -0.003320 0.000000 0.032129 0.000000
# 6 0.000000 -0.000001 0.000000 0.005067 0.000000 0.031840
#
#
# Mechanical properties :
#
#
# Convention : Reuss Voigt Hill
#
# Bulk Modulus (GPa) = 43.72411 57.15195 50.43803
# Shear Modulus (GPa) = 18.83268 26.23020 22.53144
#
# Velocity S-wave (km/s) = 3.14888 3.71622 3.44425
# Velocity P-wave (km/s) = 6.02009 6.96451 6.50945
#
# Compressibility (1/GPa) = 0.02287068
#
# Stress axis : x y z
#
# Youngs Moduli (GPa) = 78.98740 19.81317 41.00924
#
# Poissons Ratio (x) = 0.13457 0.09613
# Poissons Ratio (y) = 0.53647 0.95088
# Poissons Ratio (z) = 0.18515 0.45941
#
# Static dielectric constant tensor:
#      x y z
#    x 1.637890 0.000000 -0.013600 
#    y 0.000000 1.639530 0.000000 
#    z -0.013600 0.000000 1.667730 
# 
# From -- ./inp_files/295575.got.cif
#   From: 2010.05.17/outbox.cif.g08.bks.cpg/sg12_148_cif.got.tgz:295575.got - 2010.06.03 13:09:07.
