data_PCOD9201663
_publ_section_title
;
Structure prediction by ZEFSAII (Michael W. Deem and Ramdas Pophale) SiO2 
 PCOD9201663
Probable space group: C 2/M
;
_chemical_formula_sum "Si O2"
_cell_formula_units_Z 48
_cell_length_a 20.503161
_cell_length_b 8.865817
_cell_length_c 34.063186
_cell_angle_alpha 90.000000
_cell_angle_beta 154.991798
_cell_angle_gamma 90.000000
_cell_volume 2617.618850
_symmetry_space_group_name_H-M "C 2/M"
_symmetry_group_IT_number 12
_symmetry_cell_setting 'monoclinic'
loop_
_space_group_symop_operation_xyz
x,y,z
-x,y,-z
-x,-y,-z
x,-y,z
1/2+x,1/2+y,z
1/2-x,1/2+y,-z
1/2-x,1/2-y,-z
1/2+x,1/2-y,z
loop_
_atom_site_type_symbol
_atom_site_label
_atom_site_fract_x
_atom_site_fract_y
_atom_site_fract_z
Si Si1 0.258407 0.681302 0.745590
Si Si2 0.612755 0.680115 0.950772
Si Si3 0.012670 0.819548 0.552843
Si Si4 0.375603 0.319927 0.247121
Si Si5 0.734427 0.678788 0.448744
Si Si6 0.346188 0.176118 0.942264
O O1 0.249226 0.500000 0.739866
O O2 0.439210 0.726178 0.842917
O O3 0.157132 0.747717 0.654799
O O4 0.186084 0.740134 0.747228
O O5 0.620573 0.500000 0.952339
O O6 0.750000 0.750000 0.000000
O O7 0.634503 0.732030 0.007518
O O8 0.000000 0.781655 0.500000
O O9 0.858199 0.758560 0.488895
O O10 0.021999 0.000000 0.562126
O O11 0.346360 0.500000 0.236018
O O12 0.557088 0.298078 0.340284
O O13 0.286847 0.269430 0.159688
O O14 0.765449 0.500000 0.466915
O O15 0.750000 0.750000 0.500000
O O16 0.318116 0.000000 0.937142
O O17 0.500000 0.183034 0.000000
#
# Coordination Sequence:
#
# PCOD9201663 Si02
#       6
#     8   8   8   8   8   8
#     4  11  23  39  63  91 120 159 205 254 309 368
#     4  11  25  42  62  91 126 164 205 254 307 366
#     4  11  25  43  63  89 124 164 206 254 311 369
#     4  10  21  37  61  92 125 162 203 250 305 364
#     4  11  22  37  61  92 124 160 205 253 301 361
#     4  10  20  37  63  92 122 161 204 250 302 359
#
# _framework density 18.337275999999999
#
# number of rings (size 3 to 8) (size 9 to 14) (size 15 to 20)
#    0.000    1.333    3.333    2.000    0.000    6.333 
#    0.000    5.000    0.000    0.000    0.000    0.000 
#    0.000    0.000    0.000    0.000    0.000    0.000 
#
# Total GULP energy -134103.036867 kJ/mol
# GULP energy per Si atom -5587.626536 kJ/mol
# Density = 1.829554 g / cm^3
# Si number density = 18.337276 Si / 1000 Ang^3
#
#
#
# Elastic Constant Matrix: (Units=GPa)
#
#
# Indices 1 2 3 4 5 6 
#
# 1 144.7879 57.8364 85.7557 0.0000 0.0130 0.0002
# 2 57.8364 54.4039 65.6588 0.0003 -3.1599 0.0004
# 3 85.7557 65.6588 172.6468 0.0007 -11.4820 0.0004
# 4 0.0000 0.0003 0.0007 29.1828 0.0000 4.0857
# 5 0.0130 -3.1599 -11.4820 0.0000 23.5351 -0.0001
# 6 0.0002 0.0004 0.0004 4.0857 -0.0001 14.9610
#
#
#
# Elastic Compliance Matrix: (Units=1/GPa)
#
#
# Indices 1 2 3 4 5 6 
#
# 1 0.012561 -0.010658 -0.002358 0.000000 -0.002588 0.000000
# 2 -0.010658 0.043092 -0.011068 0.000000 0.000392 -0.000001
# 3 -0.002358 -0.011068 0.011445 0.000000 0.004099 0.000000
# 4 0.000000 0.000000 0.000000 0.035629 0.000000 -0.009730
# 5 -0.002588 0.000392 0.004099 0.000000 0.044544 0.000000
# 6 0.000000 -0.000001 0.000000 -0.009730 0.000000 0.069497
#
#
# Mechanical properties :
#
#
# Convention : Reuss Voigt Hill
#
# Bulk Modulus (GPa) = 52.82602 87.81559 70.32080
# Shear Modulus (GPa) = 18.43340 24.37498 21.40419
#
# Velocity S-wave (km/s) = 3.17399 3.64986 3.42021
# Velocity P-wave (km/s) = 6.50406 8.10895 7.35044
#
# Compressibility (1/GPa) = 0.01893007
#
# Stress axis : x y z
#
# Youngs Moduli (GPa) = 79.61240 23.20603 87.37156
#
# Poissons Ratio (x) = 0.24733 0.20602
# Poissons Ratio (y) = 0.84850 0.96706
# Poissons Ratio (z) = 0.18772 0.25685
#
# Static dielectric constant tensor:
#      x y z
#    x 1.571310 0.000000 -0.000190 
#    y 0.000000 1.626900 0.000000 
#    z -0.000190 0.000000 1.638180 
# 
# From -- ./inp_files/377904.got.cif
#   From: 2010.05.17/outbox.cif.g08.bks.cpg/sg12_189_cif.got.tgz:377904.got - 2010.06.03 13:09:07.
