data_PCOD9201975
_publ_section_title
;
Structure prediction by ZEFSAII (Michael W. Deem and Ramdas Pophale) SiO2 
 PCOD9201975
Probable space group: C 2/M
;
_chemical_formula_sum "Si O2"
_cell_formula_units_Z 56
_cell_length_a 9.114916
_cell_length_b 22.683741
_cell_length_c 16.593941
_cell_angle_alpha 90.000000
_cell_angle_beta 54.203184
_cell_angle_gamma 90.000000
_cell_volume 2782.846975
_symmetry_space_group_name_H-M "C 2/M"
_symmetry_group_IT_number 12
_symmetry_cell_setting 'monoclinic'
loop_
_space_group_symop_operation_xyz
x,y,z
-x,y,-z
-x,-y,-z
x,-y,z
1/2+x,1/2+y,z
1/2-x,1/2+y,-z
1/2-x,1/2-y,-z
1/2+x,1/2-y,z
loop_
_atom_site_type_symbol
_atom_site_label
_atom_site_fract_x
_atom_site_fract_y
_atom_site_fract_z
Si Si1 0.460450 0.328121 0.602996
Si Si2 0.845424 0.721048 0.107819
Si Si3 0.959647 0.384224 0.859890
Si Si4 0.635373 0.620192 0.085490
Si Si5 0.743161 0.840742 0.215058
Si Si6 0.828282 0.064107 0.756720
Si Si7 0.300441 0.208620 0.600847
O O1 0.500000 0.350699 0.500000
O O2 0.397264 0.381110 0.680703
O O3 0.317918 0.275015 0.631540
O O4 0.638508 0.299718 0.588761
O O5 0.707478 0.681922 0.100348
O O6 0.744349 0.773768 0.182710
O O7 0.949612 0.675292 0.132242
O O8 0.000000 0.746435 0.000000
O O9 0.912683 0.374098 0.782222
O O10 0.111473 0.432865 0.820941
O O11 0.781275 0.395772 0.970735
O O12 0.430984 0.630706 0.126176
O O13 0.631626 0.576186 0.162348
O O14 0.732727 0.835718 0.314205
O O15 0.897337 0.000000 0.709381
O O16 0.500000 0.197686 0.500000
#
# Coordination Sequence:
#
# PCOD9201975 Si02
#       7
#     8   8   8   8   8   8   8
#     4  11  24  43  69  97 128 161 208 257 319 379
#     4   9  18  31  51  83 124 164 201 240 299 373
#     4  10  22  34  58  87 124 165 210 254 303 366
#     4  10  20  38  54  89 122 165 210 254 307 361
#     4  12  21  32  58  87 129 161 204 247 316 374
#     4  11  24  44  66  89 121 168 219 262 302 366
#     4  11  24  39  65 100 129 165 194 260 323 375
#
# _framework density 20.123277999999999
#
# number of rings (size 3 to 8) (size 9 to 14) (size 15 to 20)
#    0.000    1.429    1.429    6.857    6.000    3.714 
#    0.000    0.714    0.000    2.143    0.000    0.000 
#    0.000    0.000    0.000    0.000    0.000    0.000 
#
# Total GULP energy -156399.767829 kJ/mol
# GULP energy per Si atom -5585.705994 kJ/mol
# Density = 2.007748 g / cm^3
# Si number density = 20.123278 Si / 1000 Ang^3
#
#
#
# Elastic Constant Matrix: (Units=GPa)
#
#
# Indices 1 2 3 4 5 6 
#
# 1 100.6309 27.8494 10.3547 0.0000 11.6440 0.0000
# 2 27.8494 76.6493 32.1439 0.0000 -3.1912 0.0000
# 3 10.3547 32.1439 79.7601 0.0000 9.6270 0.0000
# 4 0.0000 0.0000 0.0000 30.4301 0.0000 29.8896
# 5 11.6440 -3.1912 9.6270 0.0000 30.2862 0.0000
# 6 0.0000 0.0000 0.0000 29.8896 0.0000 53.2581
#
#
#
# Elastic Compliance Matrix: (Units=1/GPa)
#
#
# Indices 1 2 3 4 5 6 
#
# 1 0.011834 -0.005003 0.001136 0.000000 -0.005438 0.000000
# 2 -0.005003 0.018249 -0.007455 0.000000 0.006216 0.000000
# 3 0.001136 -0.007455 0.016162 0.000000 -0.006360 0.000000
# 4 0.000000 0.000000 0.000000 0.073231 0.000000 -0.041099
# 5 -0.005438 0.006216 -0.006360 0.000000 0.037786 0.000000
# 6 0.000000 0.000000 0.000000 -0.041099 0.000000 0.041842
#
#
# Mechanical properties :
#
#
# Convention : Reuss Voigt Hill
#
# Bulk Modulus (GPa) = 42.36938 44.19290 43.28114
# Shear Modulus (GPa) = 21.77547 35.24104 28.50825
#
# Velocity S-wave (km/s) = 3.29310 4.18934 3.76796
# Velocity P-wave (km/s) = 5.96322 6.73866 6.36276
#
# Compressibility (1/GPa) = 0.02360195
#
# Stress axis : x y z
#
# Youngs Moduli (GPa) = 84.50154 54.79629 61.87221
#
# Poissons Ratio (x) = 0.27412 -0.07029
# Poissons Ratio (y) = 0.42273 0.46129
# Poissons Ratio (z) = -0.09600 0.40853
#
# Static dielectric constant tensor:
#      x y z
#    x 1.715760 0.000000 0.004690 
#    y 0.000000 1.707400 0.000000 
#    z 0.004690 0.000000 1.757170 
# 
# From -- ./inp_files/259131.got.cif
#   From: 2010.05.17/outbox.cif.g08.bks.cpg/sg12_130_cif.got.tgz:259131.got - 2010.06.03 13:09:07.
