data_PCOD9201868
_publ_section_title
;
Structure prediction by ZEFSAII (Michael W. Deem and Ramdas Pophale) SiO2 
 PCOD9201868
Probable space group: C 2/M
;
_chemical_formula_sum "Si O2"
_cell_formula_units_Z 58
_cell_length_a 11.157059
_cell_length_b 24.112152
_cell_length_c 11.452066
_cell_angle_alpha 90.000000
_cell_angle_beta 112.857098
_cell_angle_gamma 90.000000
_cell_volume 2838.924327
_symmetry_space_group_name_H-M "C 2/M"
_symmetry_group_IT_number 12
_symmetry_cell_setting 'monoclinic'
loop_
_space_group_symop_operation_xyz
x,y,z
-x,y,-z
-x,-y,-z
x,-y,z
1/2+x,1/2+y,z
1/2-x,1/2+y,-z
1/2-x,1/2-y,-z
1/2+x,1/2-y,z
loop_
_atom_site_type_symbol
_atom_site_label
_atom_site_fract_x
_atom_site_fract_y
_atom_site_fract_z
Si Si1 0.500000 0.000000 0.500000
Si Si2 0.940148 0.213669 0.777229
Si Si3 0.897867 0.337977 0.749170
Si Si4 0.051773 0.936008 0.386810
Si Si5 0.734141 0.157509 0.551045
Si Si6 0.861019 0.886043 0.922762
Si Si7 0.662765 0.636241 0.823649
Si Si8 0.891155 0.597433 0.295928
O O1 0.460284 0.048262 0.389476
O O2 0.937854 0.277431 0.810193
O O3 0.837762 0.202469 0.634409
O O4 0.897602 0.169973 0.862829
O O5 0.081504 0.193726 0.787510
O O6 0.832617 0.331145 0.596499
O O7 0.788847 0.362954 0.791969
O O8 0.019407 0.377842 0.772089
O O9 0.181507 0.899293 0.428806
O O10 0.000000 0.932975 0.500000
O O11 0.941929 0.908745 0.263128
O O12 0.076911 0.000000 0.367207
O O13 0.635466 0.146054 0.619292
O O14 0.751410 0.917175 0.808184
O O15 0.806212 0.872714 0.029423
O O16 0.000000 0.914516 0.000000
#
# Coordination Sequence:
#
# PCOD9201868 Si02
#       8
#     2   8   8   8   8   8   8   8
#     4  12  24  48  70  98 138 180 212 276 336 406
#     4   9  22  37  64  89 132 178 219 277 325 395
#     4  12  22  38  62 100 130 176 219 273 340 401
#     4  10  20  37  65  95 126 169 223 287 341 382
#     4  10  20  40  59  91 133 171 220 276 335 399
#     4   9  21  48  66  95 134 174 228 276 313 402
#     4  10  22  41  62  95 135 171 224 279 328 398
#     4  11  25  43  68  96 134 177 226 272 333 406
#
# _framework density 20.430274000000001
#
# number of rings (size 3 to 8) (size 9 to 14) (size 15 to 20)
#    0.000    1.793    2.759    1.241    4.828    1.103 
#    9.931    0.345    0.000    0.828    0.000    0.000 
#    0.000    0.000    0.000    0.000    0.000    0.000 
#
# Total GULP energy -161673.086758 kJ/mol
# GULP energy per Si atom -5574.934026 kJ/mol
# Density = 2.038377 g / cm^3
# Si number density = 20.430274 Si / 1000 Ang^3
#
#
#
# Elastic Constant Matrix: (Units=GPa)
#
#
# Indices 1 2 3 4 5 6 
#
# 1 102.5077 17.2491 22.0140 0.0000 -12.5850 0.0000
# 2 17.2491 87.7337 -0.8445 0.0000 10.5951 0.0000
# 3 22.0140 -0.8445 82.7350 0.0000 1.1128 0.0000
# 4 0.0000 0.0000 0.0000 4.7394 0.0000 -5.0661
# 5 -12.5850 10.5951 1.1128 0.0000 30.5946 0.0000
# 6 0.0000 0.0000 0.0000 -5.0661 0.0000 4.0235
#
#
#
# Elastic Compliance Matrix: (Units=1/GPa)
#
#
# Indices 1 2 3 4 5 6 
#
# 1 0.011696 -0.003054 -0.003224 0.000000 0.005986 0.000000
# 2 -0.003054 0.012695 0.001019 0.000000 -0.005690 0.000000
# 3 -0.003224 0.001019 0.012984 0.000000 -0.002151 0.000000
# 4 0.000000 0.000000 0.000000 -0.609951 0.000000 -0.768005
# 5 0.005986 -0.005690 -0.002151 0.000000 0.037196 0.000000
# 6 0.000000 0.000000 0.000000 -0.768005 0.000000 -0.718476
#
#
# Mechanical properties :
#
#
# Convention : Reuss Voigt Hill
#
# Bulk Modulus (GPa) = 37.23265 38.86817 38.05041
# Shear Modulus (GPa) = -4.05060 23.50870 9.72905
#
# Velocity S-wave (km/s) = -1.40959 3.39585 2.18459
# Velocity P-wave (km/s) = 3.95153 5.86871 5.00282
#
# Compressibility (1/GPa) = 0.02685815
#
# Stress axis : x y z
#
# Youngs Moduli (GPa) = 85.49610 78.76871 77.01841
#
# Poissons Ratio (x) = 0.24052 0.24830
# Poissons Ratio (y) = 0.26107 -0.07845
# Poissons Ratio (z) = 0.27563 -0.08023
#
# Static dielectric constant tensor:
#      x y z
#    x 1.752710 0.000000 0.013950 
#    y 0.000000 1.690520 0.000000 
#    z 0.013950 0.000000 1.735970 
# 
# From -- ./inp_files/135446.got.cif
#   From: 2010.05.17/outbox.cif.g08.bks.cpg/sg12_68_cif.got.tgz:135446.got - 2010.06.03 13:09:07.
