data_PCOD9201579
_publ_section_title
;
Structure prediction by ZEFSAII (Michael W. Deem and Ramdas Pophale) SiO2 
 PCOD9201579
Probable space group: C 2/M
;
_chemical_formula_sum "Si O2"
_cell_formula_units_Z 60
_cell_length_a 8.993210
_cell_length_b 21.754036
_cell_length_c 20.567468
_cell_angle_alpha 90.000000
_cell_angle_beta 49.180437
_cell_angle_gamma 90.000000
_cell_volume 3045.091945
_symmetry_space_group_name_H-M "C 2/M"
_symmetry_group_IT_number 12
_symmetry_cell_setting 'monoclinic'
loop_
_space_group_symop_operation_xyz
x,y,z
-x,y,-z
-x,-y,-z
x,-y,z
1/2+x,1/2+y,z
1/2-x,1/2+y,-z
1/2-x,1/2-y,-z
1/2+x,1/2-y,z
loop_
_atom_site_type_symbol
_atom_site_label
_atom_site_fract_x
_atom_site_fract_y
_atom_site_fract_z
Si Si1 0.761206 0.429774 0.293349
Si Si2 0.949840 0.667978 0.146498
Si Si3 0.919966 0.791283 0.824571
Si Si4 0.152569 0.817712 0.016207
Si Si5 0.000000 0.774553 0.500000
Si Si6 0.488936 0.933027 0.358520
Si Si7 0.344546 0.383346 0.463262
Si Si8 0.223649 0.330283 0.363231
O O1 0.733930 0.500000 0.279142
O O2 0.828496 0.384389 0.217525
O O3 0.927359 0.428557 0.301373
O O4 0.561389 0.407016 0.384856
O O5 0.801970 0.700190 0.137513
O O6 0.019977 0.721047 0.176689
O O7 0.151581 0.643855 0.056556
O O8 0.941741 0.828865 0.886163
O O9 0.067438 0.814090 0.727234
O O10 0.250000 0.750000 0.000000
O O11 0.000000 0.819141 0.000000
O O12 0.140338 0.820355 0.499799
O O13 0.111026 0.731574 0.416495
O O14 0.288465 0.929110 0.457717
O O15 0.610820 0.874110 0.345755
O O16 0.583105 0.000000 0.343718
O O17 0.245536 0.368052 0.423319
#
# Coordination Sequence:
#
# PCOD9201579 Si02
#       8
#     8   8   8   8   4   8   8   8
#     4  11  24  42  65  90 120 168 218 257 302 364
#     4  11  22  39  65  94 130 158 201 257 309 374
#     4  11  23  37  62  97 128 162 199 250 323 375
#     4  10  20  37  62  94 127 161 195 246 308 381
#     4  12  24  38  62  90 134 158 208 254 324 368
#     4  11  25  43  62  83 120 170 217 258 299 357
#     4  12  22  42  62  88 123 166 209 259 304 365
#     4  12  26  37  59  94 126 162 203 259 315 362
#
# _framework density 19.703838999999999
#
# number of rings (size 3 to 8) (size 9 to 14) (size 15 to 20)
#    0.000    0.800    4.000    5.200    3.733    2.667 
#    0.000    0.000    0.000    2.800    0.000    0.000 
#    0.000    0.000    0.000    0.000    0.000    0.000 
#
# Total GULP energy -167574.312460 kJ/mol
# GULP energy per Si atom -5585.810415 kJ/mol
# Density = 1.965899 g / cm^3
# Si number density = 19.703839 Si / 1000 Ang^3
#
#
#
# Elastic Constant Matrix: (Units=GPa)
#
#
# Indices 1 2 3 4 5 6 
#
# 1 87.0213 22.4339 1.3855 0.0000 -2.4706 0.0000
# 2 22.4339 83.4279 10.5315 0.0000 -1.6263 0.0000
# 3 1.3855 10.5315 70.8334 0.0000 -6.8905 0.0000
# 4 0.0000 0.0000 0.0000 27.4134 0.0000 -24.4207
# 5 -2.4706 -1.6263 -6.8905 0.0000 30.8412 0.0000
# 6 0.0000 0.0000 0.0000 -24.4207 0.0000 69.2181
#
#
#
# Elastic Compliance Matrix: (Units=1/GPa)
#
#
# Indices 1 2 3 4 5 6 
#
# 1 0.012376 -0.003354 0.000343 0.000000 0.000891 0.000000
# 2 -0.003354 0.013126 -0.001886 0.000000 0.000002 0.000000
# 3 0.000343 -0.001886 0.014704 0.000000 0.003213 0.000000
# 4 0.000000 0.000000 0.000000 0.053198 0.000000 0.018769
# 5 0.000891 0.000002 0.003213 0.000000 0.033214 0.000000
# 6 0.000000 0.000000 0.000000 0.018769 0.000000 0.021069
#
#
# Mechanical properties :
#
#
# Convention : Reuss Voigt Hill
#
# Bulk Modulus (GPa) = 32.88032 34.44273 33.66152
# Shear Modulus (GPa) = 29.82987 39.29000 34.55994
#
# Velocity S-wave (km/s) = 3.89512 4.47030 4.19259
# Velocity P-wave (km/s) = 6.07888 6.64552 6.36851
#
# Compressibility (1/GPa) = 0.03041333
#
# Stress axis : x y z
#
# Youngs Moduli (GPa) = 80.80227 76.18264 68.00926
#
# Poissons Ratio (x) = 0.25551 -0.02335
# Poissons Ratio (y) = 0.27100 0.12825
# Poissons Ratio (z) = -0.02774 0.14367
#
# Static dielectric constant tensor:
#      x y z
#    x 1.724670 0.000000 -0.008320 
#    y 0.000000 1.683650 0.000000 
#    z -0.008320 0.000000 1.743370 
# 
# From -- ./inp_files/301896.got.cif
#   From: 2010.05.17/outbox.cif.g08.bks.cpg/sg12_151_cif.got.tgz:301896.got - 2010.06.03 13:09:07.
