data_PCOD9201189
_publ_section_title
;
Structure prediction by ZEFSAII (Michael W. Deem and Ramdas Pophale) SiO2 
 PCOD9201189
Probable space group: C 2/M
;
_chemical_formula_sum "Si O2"
_cell_formula_units_Z 56
_cell_length_a 20.425560
_cell_length_b 8.485070
_cell_length_c 18.808798
_cell_angle_alpha 90.000000
_cell_angle_beta 131.348585
_cell_angle_gamma 90.000000
_cell_volume 2447.142680
_symmetry_space_group_name_H-M "C 2/M"
_symmetry_group_IT_number 12
_symmetry_cell_setting 'monoclinic'
loop_
_space_group_symop_operation_xyz
x,y,z
-x,y,-z
-x,-y,-z
x,-y,z
1/2+x,1/2+y,z
1/2-x,1/2+y,-z
1/2-x,1/2-y,-z
1/2+x,1/2-y,z
loop_
_atom_site_type_symbol
_atom_site_label
_atom_site_fract_x
_atom_site_fract_y
_atom_site_fract_z
Si Si1 0.739387 0.311852 0.571714
Si Si2 0.374482 0.317737 0.386771
Si Si3 0.784121 0.315056 0.098268
Si Si4 0.281949 0.676912 0.803815
Si Si5 0.542696 0.188455 0.690659
Si Si6 0.072502 0.810440 0.271262
Si Si7 0.981210 0.820425 0.910833
O O1 0.731695 0.500000 0.565418
O O2 0.750000 0.250000 0.500000
O O3 0.657136 0.250457 0.559457
O O4 0.832205 0.262396 0.671032
O O5 0.398053 0.500000 0.411769
O O6 0.282787 0.299043 0.278473
O O7 0.442508 0.240234 0.380605
O O8 0.796917 0.500000 0.096780
O O9 0.711872 0.291130 0.107826
O O10 0.872495 0.258088 0.201244
O O11 0.750000 0.250000 0.000000
O O12 0.241164 0.500000 0.767064
O O13 0.376734 0.668303 0.839933
O O14 0.463105 0.261535 0.677239
O O15 0.536825 0.000000 0.688541
O O16 0.006856 0.755801 0.160304
O O17 0.077316 0.000000 0.271149
O O18 0.018874 0.000000 0.940342
O O19 0.000000 0.739528 0.000000
#
# Coordination Sequence:
#
# PCOD9201189 Si02
#       7
#     8   8   8   8   8   8   8
#     4  11  24  42  67  96 126 156 195 246 300 364
#     4  10  20  37  61  88 117 150 194 244 291 348
#     4   9  19  31  48  73 107 151 200 250 294 346
#     4   9  17  32  52  75 108 151 196 241 291 348
#     4  10  22  39  58  82 118 161 200 246 304 359
#     4  11  22  38  64  92 123 161 203 252 304 359
#     4   9  18  31  52  82 116 157 202 245 293 353
#
# _framework density 22.883832000000002
#
# number of rings (size 3 to 8) (size 9 to 14) (size 15 to 20)
#    0.000    2.143    1.429    2.571    2.000    4.571 
#    0.000    0.714    0.000    6.429    0.000    0.000 
#    0.000    0.000    0.000    0.000    0.000    0.000 
#
# Total GULP energy -156131.610832 kJ/mol
# GULP energy per Si atom -5576.128958 kJ/mol
# Density = 2.283175 g / cm^3
# Si number density = 22.883832 Si / 1000 Ang^3
#
#
#
# Elastic Constant Matrix: (Units=GPa)
#
#
# Indices 1 2 3 4 5 6 
#
# 1 137.4519 25.4171 31.4019 0.0000 -37.2618 0.0000
# 2 25.4171 36.9227 11.2842 0.0000 -9.0168 0.0000
# 3 31.4019 11.2842 101.4237 0.0000 -37.9712 0.0000
# 4 0.0000 0.0000 0.0000 22.0238 0.0000 -3.8782
# 5 -37.2618 -9.0168 -37.9712 0.0000 41.4587 0.0000
# 6 0.0000 0.0000 0.0000 -3.8782 0.0000 22.8480
#
#
#
# Elastic Compliance Matrix: (Units=1/GPa)
#
#
# Indices 1 2 3 4 5 6 
#
# 1 0.010513 -0.005264 0.000669 0.000000 0.008917 0.000000
# 2 -0.005264 0.031351 -0.001639 0.000000 0.000587 0.000000
# 3 0.000669 -0.001639 0.015106 0.000000 0.014080 0.000000
# 4 0.000000 0.000000 0.000000 0.046804 0.000000 0.007945
# 5 0.008917 0.000587 0.014080 0.000000 0.045158 0.000000
# 6 0.000000 0.000000 0.000000 0.007945 0.000000 0.045116
#
#
# Mechanical properties :
#
#
# Convention : Reuss Voigt Hill
#
# Bulk Modulus (GPa) = 22.47028 45.77829 34.12429
# Shear Modulus (GPa) = 22.58856 31.11243 26.85049
#
# Velocity S-wave (km/s) = 3.14522 3.69125 3.42912
# Velocity P-wave (km/s) = 4.79901 6.18184 5.53379
#
# Compressibility (1/GPa) = 0.04450322
#
# Stress axis : x y z
#
# Youngs Moduli (GPa) = 95.11985 31.89652 66.19767
#
# Poissons Ratio (x) = 0.16790 -0.04428
# Poissons Ratio (y) = 0.50071 0.10848
# Poissons Ratio (z) = -0.06363 0.05227
#
# Static dielectric constant tensor:
#      x y z
#    x 2.071270 0.000000 0.026550 
#    y 0.000000 1.803060 0.000000 
#    z 0.026550 0.000000 1.979770 
# 
# From -- ./inp_files/281753.got.cif
#   From: 2010.05.17/outbox.cif.g08.bks.cpg/sg12_141_cif.got.tgz:281753.got - 2010.06.03 13:09:07.
