data_PCOD9201573
_publ_section_title
;
Structure prediction by ZEFSAII (Michael W. Deem and Ramdas Pophale) SiO2 
 PCOD9201573
Probable space group: C 2/M
;
_chemical_formula_sum "Si O2"
_cell_formula_units_Z 64
_cell_length_a 14.758020
_cell_length_b 8.593431
_cell_length_c 24.403217
_cell_angle_alpha 90.000000
_cell_angle_beta 111.990162
_cell_angle_gamma 90.000000
_cell_volume 2869.708289
_symmetry_space_group_name_H-M "C 2/M"
_symmetry_group_IT_number 12
_symmetry_cell_setting 'monoclinic'
loop_
_space_group_symop_operation_xyz
x,y,z
-x,y,-z
-x,-y,-z
x,-y,z
1/2+x,1/2+y,z
1/2-x,1/2+y,-z
1/2-x,1/2-y,-z
1/2+x,1/2-y,z
loop_
_atom_site_type_symbol
_atom_site_label
_atom_site_fract_x
_atom_site_fract_y
_atom_site_fract_z
Si Si1 0.243996 0.815166 0.854074
Si Si2 0.920840 0.183288 0.646713
Si Si3 0.057875 0.677478 0.235934
Si Si4 0.292443 0.320542 0.278172
Si Si5 0.542700 0.681648 0.116785
Si Si6 0.221131 0.312342 0.552380
Si Si7 0.431114 0.817453 0.398199
Si Si8 0.339064 0.182743 0.055213
O O1 0.199679 0.779692 0.784186
O O2 0.359372 0.773246 0.878170
O O3 0.190836 0.720447 0.889166
O O4 0.233579 0.000000 0.861432
O O5 0.969197 0.266556 0.709636
O O6 0.809629 0.235598 0.612410
O O7 0.977245 0.224124 0.603828
O O8 0.921697 0.000000 0.657145
O O9 0.026519 0.500000 0.218387
O O10 0.176327 0.681320 0.262268
O O11 0.027794 0.784637 0.178422
O O12 0.326801 0.500000 0.293948
O O13 0.349730 0.210075 0.332414
O O14 0.558730 0.500000 0.111142
O O15 0.443126 0.738278 0.066139
O O16 0.219663 0.500000 0.550109
O O17 0.250000 0.250000 0.500000
O O18 0.119385 0.263423 0.556934
O O19 0.455493 0.000000 0.407966
O O20 0.347885 0.000000 0.048337
O O21 0.250000 0.250000 0.000000
#
# Coordination Sequence:
#
# PCOD9201573 Si02
#       8
#     8   8   8   8   8   8   8   8
#     4  10  22  42  65  95 130 167 214 264 319 379
#     4  11  23  40  61  91 125 162 207 255 313 374
#     4  10  20  37  62  93 127 165 208 257 314 374
#     4   9  19  36  61  91 126 163 203 252 312 372
#     4  11  23  41  65  95 130 170 212 262 320 379
#     4  10  24  44  65  88 121 164 209 258 310 370
#     4  11  23  39  60  91 125 161 207 255 309 371
#     4  12  26  45  67  94 128 170 219 267 319 380
#
# _framework density 22.301919000000002
#
# number of rings (size 3 to 8) (size 9 to 14) (size 15 to 20)
#    0.000    1.500    1.250    4.500    1.750    5.500 
#    0.000    5.000    0.000    0.000    0.000    0.000 
#    0.000    0.000    0.000    0.000    0.000    0.000 
#
# Total GULP energy -179034.443793 kJ/mol
# GULP energy per Si atom -5594.826369 kJ/mol
# Density = 2.225116 g / cm^3
# Si number density = 22.301919 Si / 1000 Ang^3
#
#
#
# Elastic Constant Matrix: (Units=GPa)
#
#
# Indices 1 2 3 4 5 6 
#
# 1 65.9759 -16.5921 -4.2725 0.0000 2.2469 0.0000
# 2 -16.5921 44.6634 -2.0798 0.0000 7.0376 0.0000
# 3 -4.2725 -2.0798 14.3404 0.0000 6.3165 0.0000
# 4 0.0000 0.0000 0.0000 31.7927 0.0000 -2.7852
# 5 2.2469 7.0376 6.3165 0.0000 29.2170 0.0000
# 6 0.0000 0.0000 0.0000 -2.7852 0.0000 31.3996
#
#
#
# Elastic Compliance Matrix: (Units=1/GPa)
#
#
# Indices 1 2 3 4 5 6 
#
# 1 0.017875 0.007860 0.008737 0.000000 -0.005157 0.000000
# 2 0.007860 0.027283 0.010455 0.000000 -0.009437 0.000000
# 3 0.008737 0.010455 0.083179 0.000000 -0.021173 0.000000
# 4 0.000000 0.000000 0.000000 0.031700 0.000000 0.002812
# 5 -0.005157 -0.009437 -0.021173 0.000000 0.041474 0.000000
# 6 0.000000 0.000000 0.000000 0.002812 0.000000 0.032097
#
#
# Mechanical properties :
#
#
# Convention : Reuss Voigt Hill
#
# Bulk Modulus (GPa) = 5.48122 8.78787 7.13455
# Shear Modulus (GPa) = 20.80582 28.34347 24.57465
#
# Velocity S-wave (km/s) = 3.05768 3.56883 3.32310
# Velocity P-wave (km/s) = 3.86380 4.57505 4.23438
#
# Compressibility (1/GPa) = 0.18244113
#
# Stress axis : x y z
#
# Youngs Moduli (GPa) = 55.94367 36.65240 12.02233
#
# Poissons Ratio (x) = -0.28808 -0.10504
# Poissons Ratio (y) = -0.43971 -0.12570
# Poissons Ratio (z) = -0.48878 -0.38321
#
# Static dielectric constant tensor:
#      x y z
#    x 1.862910 0.000000 0.003450 
#    y 0.000000 1.748270 0.000000 
#    z 0.003450 0.000000 1.837530 
# 
# From -- ./inp_files/359972.got.cif
#   From: 2010.05.17/outbox.cif.g08.bks.cpg/sg12_180_cif.got.tgz:359972.got - 2010.06.03 13:09:07.
