data_PCOD9201512
_publ_section_title
;
Structure prediction by ZEFSAII (Michael W. Deem and Ramdas Pophale) SiO2 
 PCOD9201512
Probable space group: C 2/M
;
_chemical_formula_sum "Si O2"
_cell_formula_units_Z 48
_cell_length_a 9.344365
_cell_length_b 17.221263
_cell_length_c 13.287683
_cell_angle_alpha 90.000000
_cell_angle_beta 85.233872
_cell_angle_gamma 90.000000
_cell_volume 2130.883596
_symmetry_space_group_name_H-M "C 2/M"
_symmetry_group_IT_number 12
_symmetry_cell_setting 'monoclinic'
loop_
_space_group_symop_operation_xyz
x,y,z
-x,y,-z
-x,-y,-z
x,-y,z
1/2+x,1/2+y,z
1/2-x,1/2+y,-z
1/2-x,1/2-y,-z
1/2+x,1/2-y,z
loop_
_atom_site_type_symbol
_atom_site_label
_atom_site_fract_x
_atom_site_fract_y
_atom_site_fract_z
Si Si1 0.963760 0.084761 0.640507
Si Si2 0.449596 0.298137 0.896356
Si Si3 0.786588 0.858258 0.250870
Si Si4 0.940851 0.384594 0.891470
Si Si5 0.875147 0.256680 0.573544
Si Si6 0.757276 0.583030 0.164146
O O1 0.927906 0.168962 0.595683
O O2 0.850153 0.081574 0.737445
O O3 0.125637 0.090171 0.674147
O O4 0.942102 0.000000 0.592531
O O5 0.579556 0.313733 0.810833
O O6 0.424063 0.207338 0.902434
O O7 0.298995 0.341598 0.889227
O O8 0.500000 0.328938 0.000000
O O9 0.699238 0.903411 0.167816
O O10 0.682230 0.801240 0.322797
O O11 0.078461 0.406568 0.816643
O O12 0.000000 0.410939 0.000000
O O13 0.750000 0.250000 0.500000
O O14 0.000000 0.297106 0.500000
O O15 0.739577 0.500000 0.110398
#
# Coordination Sequence:
#
# PCOD9201512 Si02
#       6
#     8   8   8   8   8   8
#     4  10  23  44  67  94 130 174 217 265 326 391
#     4  10  20  37  62  90 122 171 222 263 318 387
#     4  11  22  40  65  96 135 170 219 280 315 388
#     4  11  22  36  62  95 131 174 220 273 329 376
#     4  12  25  43  70 105 127 173 218 271 334 395
#     4  10  22  38  58  87 126 168 208 262 328 382
#
# _framework density 22.525867000000002
#
# number of rings (size 3 to 8) (size 9 to 14) (size 15 to 20)
#    0.000    1.333    1.667    5.000    2.333    4.333 
#    0.000    3.333    0.000    1.000    0.000    0.000 
#    0.000    0.000    0.000    0.000    0.000    0.000 
#
# Total GULP energy -133664.589842 kJ/mol
# GULP energy per Si atom -5569.357910 kJ/mol
# Density = 2.247460 g / cm^3
# Si number density = 22.525867 Si / 1000 Ang^3
#
#
#
# Elastic Constant Matrix: (Units=GPa)
#
#
# Indices 1 2 3 4 5 6 
#
# 1 126.6035 20.2421 27.6449 0.0000 7.9400 0.0000
# 2 20.2421 112.9142 19.3330 0.0000 -4.9226 0.0000
# 3 27.6449 19.3330 77.1333 0.0000 3.5199 0.0000
# 4 0.0000 0.0000 0.0000 -355.6473 0.0000 267.4539
# 5 7.9400 -4.9226 3.5199 0.0000 42.2227 0.0000
# 6 0.0000 0.0000 0.0000 267.4539 0.0000 -167.8066
#
#
#
# Elastic Compliance Matrix: (Units=1/GPa)
#
#
# Indices 1 2 3 4 5 6 
#
# 1 0.008792 -0.001167 -0.002787 0.000000 -0.001557 0.000000
# 2 -0.001167 0.009477 -0.002025 0.000000 0.001493 0.000000
# 3 -0.002787 -0.002025 0.014513 0.000000 -0.000922 0.000000
# 4 0.000000 0.000000 0.000000 0.014159 0.000000 0.022567
# 5 -0.001557 0.001493 -0.000922 0.000000 0.024228 0.000000
# 6 0.000000 0.000000 0.000000 0.022567 0.000000 0.030008
#
#
# Mechanical properties :
#
#
# Convention : Reuss Voigt Hill
#
# Bulk Modulus (GPa) = 48.02364 50.12121 49.07243
# Shear Modulus (GPa) = 41.63987 -79.61751 -18.98882
#
# Velocity S-wave (km/s) = 4.30412 -5.95161 -2.90656
# Velocity P-wave (km/s) = 6.78721 4.99300 3.25086
#
# Compressibility (1/GPa) = 0.02082308
#
# Stress axis : x y z
#
# Youngs Moduli (GPa) = 113.74604 105.51508 68.90214
#
# Poissons Ratio (x) = 0.12310 0.19206
# Poissons Ratio (y) = 0.13270 0.13956
# Poissons Ratio (z) = 0.31706 0.21371
#
# Static dielectric constant tensor:
#      x y z
#    x 1.770530 0.000000 0.008210 
#    y 0.000000 1.918600 0.000000 
#    z 0.008210 0.000000 1.944170 
# 
# From -- ./inp_files/195909.got.cif
#   From: 2010.05.17/outbox.cif.g08.bks.cpg/sg12_98_cif.got.tgz:195909.got - 2010.06.03 13:09:07.
