data_PCOD9201806
_publ_section_title
;
Structure prediction by ZEFSAII (Michael W. Deem and Ramdas Pophale) SiO2 
 PCOD9201806
Probable space group: C 2/M
;
_chemical_formula_sum "Si O2"
_cell_formula_units_Z 64
_cell_length_a 11.161106
_cell_length_b 19.088423
_cell_length_c 30.168170
_cell_angle_alpha 90.000000
_cell_angle_beta 149.787250
_cell_angle_gamma 90.000000
_cell_volume 3234.278874
_symmetry_space_group_name_H-M "C 2/M"
_symmetry_group_IT_number 12
_symmetry_cell_setting 'monoclinic'
loop_
_space_group_symop_operation_xyz
x,y,z
-x,y,-z
-x,-y,-z
x,-y,z
1/2+x,1/2+y,z
1/2-x,1/2+y,-z
1/2-x,1/2-y,-z
1/2+x,1/2-y,z
loop_
_atom_site_type_symbol
_atom_site_label
_atom_site_fract_x
_atom_site_fract_y
_atom_site_fract_z
Si Si1 0.895645 0.661573 0.840690
Si Si2 0.058952 0.798449 0.256650
Si Si3 0.277195 0.286418 0.075026
Si Si4 0.586327 0.080283 0.642278
Si Si5 0.121492 0.421937 0.989862
Si Si6 0.265498 0.415892 0.398588
Si Si7 0.769522 0.420156 0.456318
Si Si8 0.706313 0.347258 0.686715
O O1 0.649859 0.701436 0.773900
O O2 0.867786 0.635709 0.781268
O O3 0.105733 0.718667 0.909480
O O4 0.946348 0.602898 0.894212
O O5 0.211781 0.868498 0.310188
O O6 0.229630 0.731114 0.308606
O O7 0.921369 0.799455 0.166054
O O8 0.298875 0.356755 0.052770
O O9 0.000000 0.275417 0.000000
O O10 0.472646 0.106664 0.651718
O O11 0.368333 0.079999 0.537867
O O12 0.671321 0.000000 0.673314
O O13 0.214176 0.500000 0.010371
O O14 0.000000 0.424760 0.000000
O O15 0.500000 0.389456 0.500000
O O16 0.270830 0.500000 0.403384
O O17 0.259128 0.394120 0.345749
O O18 0.684071 0.500000 0.419020
O O19 0.563792 0.363746 0.385231
O O20 0.000000 0.407026 0.500000
#
# Coordination Sequence:
#
# PCOD9201806 Si02
#       8
#     8   8   8   8   8   8   8   8
#     4  11  23  41  63  94 131 167 204 260 326 382
#     4  11  24  39  61  95 130 165 209 264 322 374
#     4  10  21  41  66  91 122 168 206 251 312 401
#     4  10  22  40  62  90 125 168 216 262 311 372
#     4  10  20  37  64  95 120 152 202 258 314 375
#     4  10  20  41  67  87 120 174 224 257 307 379
#     4  10  20  39  63  88 124 169 214 259 316 374
#     4  11  24  37  62  95 129 168 215 267 309 378
#
# _framework density 19.788027
#
# number of rings (size 3 to 8) (size 9 to 14) (size 15 to 20)
#    0.000    1.625    3.750    1.500    3.500    2.500 
#    0.000    0.000    0.000    0.375    0.000    0.000 
#    0.000    0.000    0.000    0.000    0.000    0.000 
#
# Total GULP energy -178500.826412 kJ/mol
# GULP energy per Si atom -5578.150825 kJ/mol
# Density = 1.974299 g / cm^3
# Si number density = 19.788027 Si / 1000 Ang^3
#
#
#
# Elastic Constant Matrix: (Units=GPa)
#
#
# Indices 1 2 3 4 5 6 
#
# 1 80.9761 35.8071 21.1953 -0.0087 -1.9464 -0.0013
# 2 35.8071 63.7305 37.6255 -0.0096 19.4253 -0.0011
# 3 21.1953 37.6255 61.2687 -0.0196 2.1938 -0.0024
# 4 -0.0087 -0.0096 -0.0196 265.1981 -0.0104 29.0920
# 5 -1.9464 19.4253 2.1938 -0.0104 41.3369 -0.0015
# 6 -0.0013 -0.0011 -0.0024 29.0920 -0.0015 29.5618
#
#
#
# Elastic Compliance Matrix: (Units=1/GPa)
#
#
# Indices 1 2 3 4 5 6 
#
# 1 0.017893 -0.013118 0.001618 0.000000 0.006921 0.000000
# 2 -0.013118 0.040195 -0.019485 -0.000001 -0.018473 0.000000
# 3 0.001618 -0.019485 0.027449 0.000002 0.007776 0.000000
# 4 0.000000 -0.000001 0.000002 0.004227 0.000001 -0.004160
# 5 0.006921 -0.018473 0.007776 0.000001 0.032785 0.000000
# 6 0.000000 0.000000 0.000000 -0.004160 0.000000 0.037921
#
#
# Mechanical properties :
#
#
# Convention : Reuss Voigt Hill
#
# Bulk Modulus (GPa) = 42.43031 43.91458 43.17245
# Shear Modulus (GPa) = 21.71115 74.64253 48.17684
#
# Velocity S-wave (km/s) = 3.31597 6.14841 4.93957
# Velocity P-wave (km/s) = 6.01248 8.52318 7.37545
#
# Compressibility (1/GPa) = 0.02356806
#
# Stress axis : x y z
#
# Youngs Moduli (GPa) = 55.88831 24.87842 36.43114
#
# Poissons Ratio (x) = 0.32636 -0.05895
# Poissons Ratio (y) = 0.73315 0.70985
# Poissons Ratio (z) = -0.09044 0.48475
#
# Static dielectric constant tensor:
#      x y z
#    x 1.754210 0.000000 -0.012050 
#    y 0.000000 1.696000 0.000000 
#    z -0.012050 0.000000 1.704780 
# 
# From -- ./inp_files/374485.got.cif
#   From: 2010.05.17/outbox.cif.g08.bks.cpg/sg12_188_cif.got.tgz:374485.got - 2010.06.03 13:09:07.
