data_PCOD9201894
_publ_section_title
;
Structure prediction by ZEFSAII (Michael W. Deem and Ramdas Pophale) SiO2 
 PCOD9201894
Probable space group: C 2/M
;
_chemical_formula_sum "Si O2"
_cell_formula_units_Z 64
_cell_length_a 24.094351
_cell_length_b 27.433295
_cell_length_c 8.718352
_cell_angle_alpha 90.000000
_cell_angle_beta 148.854194
_cell_angle_gamma 90.000000
_cell_volume 2980.581497
_symmetry_space_group_name_H-M "C 2/M"
_symmetry_group_IT_number 12
_symmetry_cell_setting 'monoclinic'
loop_
_space_group_symop_operation_xyz
x,y,z
-x,y,-z
-x,-y,-z
x,-y,z
1/2+x,1/2+y,z
1/2-x,1/2+y,-z
1/2-x,1/2-y,-z
1/2+x,1/2-y,z
loop_
_atom_site_type_symbol
_atom_site_label
_atom_site_fract_x
_atom_site_fract_y
_atom_site_fract_z
Si Si1 0.344070 0.441457 0.281349
Si Si2 0.434071 0.760236 0.693600
Si Si3 0.450932 0.441628 0.043306
Si Si4 0.224159 0.892184 0.202089
Si Si5 0.778789 0.728919 0.899289
Si Si6 0.055860 0.632718 0.401706
Si Si7 0.837303 0.382093 0.016616
Si Si8 0.560568 0.693797 0.792884
O O1 0.340124 0.500000 0.258624
O O2 0.462971 0.427391 0.621290
O O3 0.312777 0.417257 0.045595
O O4 0.255957 0.422216 0.195560
O O5 0.309465 0.750008 0.424553
O O6 0.441402 0.808633 0.606336
O O7 0.477668 0.709129 0.727420
O O8 0.500000 0.771852 0.000000
O O9 0.449334 0.500000 0.035389
O O10 0.500000 0.423358 0.000000
O O11 0.332265 0.423153 0.798769
O O12 0.352717 0.885882 0.500931
O O13 0.160078 0.841143 0.061416
O O14 0.750000 0.750000 0.000000
O O15 0.784022 0.671354 0.894461
O O16 0.891137 0.753387 0.131450
O O17 0.103260 0.616562 0.677774
O O18 0.931519 0.615847 0.111729
O O19 0.500000 0.674850 0.500000
#
# Coordination Sequence:
#
# PCOD9201894 Si02
#       8
#     8   8   8   8   8   8   8   8
#     4  10  21  40  64  95 124 151 200 268 317 362
#     4  12  26  40  55  88 128 165 207 266 311 350
#     4  10  22  41  62  88 125 162 195 249 327 389
#     4  11  22  38  64  93 118 157 212 256 308 366
#     4  12  20  37  62  84 115 166 212 249 296 369
#     4  10  20  41  58  86 124 164 205 253 303 373
#     4  10  20  37  66  88 116 165 218 246 309 371
#     4  12  22  36  61  86 118 161 211 251 302 374
#
# _framework density 21.472318999999999
#
# number of rings (size 3 to 8) (size 9 to 14) (size 15 to 20)
#    0.000    1.125    5.000    2.250    1.750    2.000 
#    2.250    5.625    0.000    0.000    0.000    2.625 
#    0.000    0.000    0.000    0.000    0.000    0.000 
#
# Total GULP energy -178581.414725 kJ/mol
# GULP energy per Si atom -5580.669210 kJ/mol
# Density = 2.142345 g / cm^3
# Si number density = 21.472319 Si / 1000 Ang^3
#
#
#
# Elastic Constant Matrix: (Units=GPa)
#
#
# Indices 1 2 3 4 5 6 
#
# 1 93.5669 23.0591 29.6346 0.0000 35.9871 0.0000
# 2 23.0591 63.2614 10.2870 0.0000 12.1484 0.0000
# 3 29.6346 10.2870 57.3204 0.0000 25.0881 0.0000
# 4 0.0000 0.0000 0.000014836.9340 0.0000 4025.3027
# 5 35.9871 12.1484 25.0881 0.0000 36.7592 0.0000
# 6 0.0000 0.0000 0.0000 4025.3027 0.0000 1109.1262
#
#
#
# Elastic Compliance Matrix: (Units=1/GPa)
#
#
# Indices 1 2 3 4 5 6 
#
# 1 0.017959 -0.003314 -0.002102 0.000000 -0.015052 0.000000
# 2 -0.003314 0.017518 -0.000451 0.000000 -0.002237 0.000000
# 3 -0.002102 -0.000451 0.025165 0.000000 -0.014968 0.000000
# 4 0.000000 0.000000 0.000000 0.004384 0.000000 -0.015912
# 5 -0.015052 -0.002237 -0.014968 0.000000 0.052895 0.000000
# 6 0.000000 0.000000 0.000000 -0.015912 0.000000 0.058651
#
#
# Mechanical properties :
#
#
# Convention : Reuss Voigt Hill
#
# Bulk Modulus (GPa) = 20.44684 37.79000 29.11842
# Shear Modulus (GPa) = 24.43676 3206.64175 1615.53926
#
# Velocity S-wave (km/s) = 3.37717 38.68625 27.45935
# Velocity P-wave (km/s) = 4.97495 44.86802 31.92091
#
# Compressibility (1/GPa) = 0.04890732
#
# Stress axis : x y z
#
# Youngs Moduli (GPa) = 55.68147 57.08293 39.73823
#
# Poissons Ratio (x) = 0.18916 0.08354
# Poissons Ratio (y) = 0.18452 0.01794
# Poissons Ratio (z) = 0.11705 0.02577
#
# Static dielectric constant tensor:
#      x y z
#    x 1.936240 0.000000 0.079420 
#    y 0.000000 1.454180 0.000000 
#    z 0.079420 0.000000 1.828060 
# 
# From -- ./inp_files/100235.got.cif
#   From: 2010.05.17/outbox.cif.g08.bks.cpg/sg12_51_cif.got.tgz:100235.got - 2010.06.03 13:09:07.
