data_PCOD9201907
_publ_section_title
;
Structure prediction by ZEFSAII (Michael W. Deem and Ramdas Pophale) SiO2 
 PCOD9201907
Probable space group: C 2/M
;
_chemical_formula_sum "Si O2"
_cell_formula_units_Z 32
_cell_length_a 14.599605
_cell_length_b 9.636813
_cell_length_c 10.954534
_cell_angle_alpha 90.000000
_cell_angle_beta 86.334304
_cell_angle_gamma 90.000000
_cell_volume 1538.080271
_symmetry_space_group_name_H-M "C 2/M"
_symmetry_group_IT_number 12
_symmetry_cell_setting 'monoclinic'
loop_
_space_group_symop_operation_xyz
x,y,z
-x,y,-z
-x,-y,-z
x,-y,z
1/2+x,1/2+y,z
1/2-x,1/2+y,-z
1/2-x,1/2-y,-z
1/2+x,1/2-y,z
loop_
_atom_site_type_symbol
_atom_site_label
_atom_site_fract_x
_atom_site_fract_y
_atom_site_fract_z
Si Si1 0.002562 0.500000 0.666233
Si Si2 0.355932 0.500000 0.469450
Si Si3 0.603544 0.000000 0.082697
Si Si4 0.303801 0.500000 0.201017
Si Si5 0.000000 0.245022 0.500000
Si Si6 0.287464 0.000000 0.298937
Si Si7 0.672611 0.220573 0.906847
O O1 0.972102 0.500000 0.807706
O O2 0.970398 0.355998 0.606726
O O3 0.112716 0.500000 0.646992
O O4 0.300736 0.500000 0.347247
O O5 0.419066 0.639002 0.468686
O O6 0.290378 0.500000 0.592744
O O7 0.701776 0.000000 0.148943
O O8 0.602961 0.130022 0.991413
O O9 0.356731 0.364887 0.148451
O O10 0.286100 0.869379 0.207581
O O11 0.750000 0.250000 0.000000
#
# Coordination Sequence:
#
# PCOD9201907 Si02
#       7
#     4   4   4   4   4   4   8
#     4  11  24  42  65  95 127 169 210 263 315 373
#     4  11  25  43  65  94 129 168 208 267 312 385
#     4   9  21  39  62  91 131 164 208 266 314 369
#     4  10  20  37  66  95 124 168 218 253 317 379
#     4  10  26  44  60  94 136 164 206 260 328 368
#     4  11  24  40  68  93 126 167 221 252 313 382
#     4   9  20  38  60  96 125 164 208 262 307 376
#
# _framework density 20.805157000000001
#
# number of rings (size 3 to 8) (size 9 to 14) (size 15 to 20)
#    0.000    2.000    0.000    2.250   10.500    4.000 
#    0.000    0.000    0.000    3.000    0.000    0.000 
#    0.000    0.000    0.000    0.000    0.000    0.000 
#
# Total GULP energy -89298.642424 kJ/mol
# GULP energy per Si atom -5581.165151 kJ/mol
# Density = 2.075780 g / cm^3
# Si number density = 20.805157 Si / 1000 Ang^3
#
#
#
# Elastic Constant Matrix: (Units=GPa)
#
#
# Indices 1 2 3 4 5 6 
#
# 1 60.7355 24.9923 34.3735 0.0000 -0.9777 0.0000
# 2 24.9923 190.7513 83.8033 0.0000 -11.0870 0.0000
# 3 34.3735 83.8033 167.8826 0.0000 -13.3069 0.0000
# 4 0.0000 0.0000 0.0000 15.7804 0.0000 -5.4123
# 5 -0.9777 -11.0870 -13.3069 0.0000 40.7806 0.0000
# 6 0.0000 0.0000 0.0000 -5.4123 0.0000 -75.9400
#
#
#
# Elastic Compliance Matrix: (Units=1/GPa)
#
#
# Indices 1 2 3 4 5 6 
#
# 1 0.018802 -0.001017 -0.003416 0.000000 -0.000941 0.000000
# 2 -0.001017 0.006793 -0.003119 0.000000 0.000805 0.000000
# 3 -0.003416 -0.003119 0.008355 0.000000 0.001797 0.000000
# 4 0.000000 0.000000 0.000000 0.061858 0.000000 -0.004409
# 5 -0.000941 0.000805 0.001797 0.000000 0.025304 0.000000
# 6 0.000000 0.000000 0.000000 -0.004409 0.000000 -0.012854
#
#
# Mechanical properties :
#
#
# Convention : Reuss Voigt Hill
#
# Bulk Modulus (GPa) = 53.06418 78.41198 65.73808
# Shear Modulus (GPa) = 38.56729 14.53753 26.55241
#
# Velocity S-wave (km/s) = 4.31018 2.64625 3.57633
# Velocity P-wave (km/s) = 7.09442 6.86348 6.97991
#
# Compressibility (1/GPa) = 0.01884510
#
# Stress axis : x y z
#
# Youngs Moduli (GPa) = 53.18648 147.21893 119.68546
#
# Poissons Ratio (x) = 0.14974 0.40890
# Poissons Ratio (y) = 0.05410 0.37326
# Poissons Ratio (z) = 0.18171 0.45913
#
# Static dielectric constant tensor:
#      x y z
#    x 1.768430 0.000000 0.037070 
#    y 0.000000 1.777010 0.000000 
#    z 0.037070 0.000000 1.718580 
# 
# From -- ./inp_files/138798.got.cif
#   From: 2010.05.17/outbox.cif.g08.bks.cpg/sg12_70_cif.got.tgz:138798.got - 2010.06.03 13:09:07.
