data_PCOD9201071
_publ_section_title
;
Structure prediction by ZEFSAII (Michael W. Deem and Ramdas Pophale) SiO2 
 PCOD9201071
Probable space group: C 2/M
;
_chemical_formula_sum "Si O2"
_cell_formula_units_Z 50
_cell_length_a 13.954339
_cell_length_b 7.894706
_cell_length_c 20.948341
_cell_angle_alpha 90.000000
_cell_angle_beta 71.394349
_cell_angle_gamma 90.000000
_cell_volume 2187.170689
_symmetry_space_group_name_H-M "C 2/M"
_symmetry_group_IT_number 12
_symmetry_cell_setting 'monoclinic'
loop_
_space_group_symop_operation_xyz
x,y,z
-x,y,-z
-x,-y,-z
x,-y,z
1/2+x,1/2+y,z
1/2-x,1/2+y,-z
1/2-x,1/2-y,-z
1/2+x,1/2-y,z
loop_
_atom_site_type_symbol
_atom_site_label
_atom_site_fract_x
_atom_site_fract_y
_atom_site_fract_z
Si Si1 0.500000 0.500000 0.500000
Si Si2 0.369710 0.693973 0.161685
Si Si3 0.718635 0.700798 0.415156
Si Si4 0.319464 0.697520 0.719473
Si Si5 0.559314 0.802665 0.198378
Si Si6 0.416264 0.187756 0.443395
Si Si7 0.747271 0.795857 0.074226
O O1 0.483738 0.347722 0.448077
O O2 0.402426 0.500000 0.147649
O O3 0.264546 0.704236 0.222180
O O4 0.453227 0.782613 0.186412
O O5 0.341286 0.765260 0.097791
O O6 0.685225 0.500000 0.433662
O O7 0.686463 0.754009 0.351909
O O8 0.663842 0.809256 0.480502
O O9 0.839384 0.709223 0.400111
O O10 0.290963 0.500000 0.725228
O O11 0.423080 0.717693 0.736650
O O12 0.644939 0.735449 0.131013
O O13 0.577178 0.000000 0.205412
O O14 0.463559 0.000000 0.429599
O O15 0.748126 0.000000 0.078256
O O16 0.750000 0.750000 0.000000
#
# Coordination Sequence:
#
# PCOD9201071 Si02
#       7
#     2   8   8   8   8   8   8
#     4  12  22  40  56  94 120 146 194 252 286 350
#     4  10  21  38  56  82 115 149 190 235 282 337
#     4   9  19  39  60  84 110 151 195 235 284 356
#     4  10  20  37  61  84 113 151 192 236 287 342
#     4  10  21  38  56  82 116 149 190 236 282 338
#     4  10  21  38  62  84 119 155 190 240 302 346
#     4   9  20  36  56  81 111 146 187 234 282 339
#
# _framework density 22.860585
#
# number of rings (size 3 to 8) (size 9 to 14) (size 15 to 20)
#    0.000    2.240    0.800    2.640    1.120    5.760 
#    2.880    3.200    0.000    0.000    0.000    0.000 
#    0.000    0.000    0.000    0.000    0.000    0.000 
#
# Total GULP energy -139422.600512 kJ/mol
# GULP energy per Si atom -5576.904020 kJ/mol
# Density = 2.280855 g / cm^3
# Si number density = 22.860585 Si / 1000 Ang^3
#
#
#
# Elastic Constant Matrix: (Units=GPa)
#
#
# Indices 1 2 3 4 5 6 
#
# 1 89.3605 21.9188 40.7889 0.0000 38.6371 0.0000
# 2 21.9188 89.2428 7.8189 0.0000 12.7203 0.0000
# 3 40.7889 7.8189 144.3430 0.0000 47.8755 0.0000
# 4 0.0000 0.0000 0.0000 23.5728 0.0000 4.0303
# 5 38.6371 12.7203 47.8755 0.0000 33.7369 0.0000
# 6 0.0000 0.0000 0.0000 4.0303 0.0000 35.4930
#
#
#
# Elastic Compliance Matrix: (Units=1/GPa)
#
#
# Indices 1 2 3 4 5 6 
#
# 1 0.023713 -0.001561 0.004149 0.000000 -0.032455 0.000000
# 2 -0.001561 0.012140 0.001339 0.000000 -0.004689 0.000000
# 3 0.004149 0.001339 0.014030 0.000000 -0.025166 0.000000
# 4 0.000000 0.000000 0.000000 0.043262 0.000000 -0.004912
# 5 -0.032455 -0.004689 -0.025166 0.000000 0.104291 0.000000
# 6 0.000000 0.000000 0.000000 -0.004912 0.000000 0.028732
#
#
# Mechanical properties :
#
#
# Convention : Reuss Voigt Hill
#
# Bulk Modulus (GPa) = 17.32059 51.55547 34.43803
# Shear Modulus (GPa) = 21.04723 35.38853 28.21788
#
# Velocity S-wave (km/s) = 3.03756 3.93875 3.51714
# Velocity P-wave (km/s) = 4.46043 6.57922 5.62057
#
# Compressibility (1/GPa) = 0.05773476
#
# Stress axis : x y z
#
# Youngs Moduli (GPa) = 42.17113 82.37268 71.27550
#
# Poissons Ratio (x) = 0.12862 -0.29569
# Poissons Ratio (y) = 0.06585 -0.09543
# Poissons Ratio (z) = -0.17495 -0.11029
#
# Static dielectric constant tensor:
#      x y z
#    x 1.615830 0.000000 0.085570 
#    y 0.000000 1.815090 0.000000 
#    z 0.085570 0.000000 1.845760 
# 
# From -- ./inp_files/308542.got.cif
#   From: 2010.05.17/outbox.cif.g08.bks.cpg/sg12_155_cif.got.tgz:308542.got - 2010.06.03 13:09:07.
