data_PCOD9201838
_publ_section_title
;
Structure prediction by ZEFSAII (Michael W. Deem and Ramdas Pophale) SiO2 
 PCOD9201838
Probable space group: C 2/M
;
_chemical_formula_sum "Si O2"
_cell_formula_units_Z 48
_cell_length_a 13.710691
_cell_length_b 26.400433
_cell_length_c 8.273676
_cell_angle_alpha 90.000000
_cell_angle_beta 43.407762
_cell_angle_gamma 90.000000
_cell_volume 2057.989549
_symmetry_space_group_name_H-M "C 2/M"
_symmetry_group_IT_number 12
_symmetry_cell_setting 'monoclinic'
loop_
_space_group_symop_operation_xyz
x,y,z
-x,y,-z
-x,-y,-z
x,-y,z
1/2+x,1/2+y,z
1/2-x,1/2+y,-z
1/2-x,1/2-y,-z
1/2+x,1/2-y,z
loop_
_atom_site_type_symbol
_atom_site_label
_atom_site_fract_x
_atom_site_fract_y
_atom_site_fract_z
Si Si1 0.713415 0.158864 0.169092
Si Si2 0.749417 0.878905 0.653539
Si Si3 0.923680 0.942326 0.243468
Si Si4 0.070964 0.690927 0.669334
Si Si5 0.285080 0.441089 0.937485
Si Si6 0.493897 0.703346 0.325157
O O1 0.676616 0.177899 0.392431
O O2 0.584803 0.175889 0.207201
O O3 0.724187 0.097749 0.144315
O O4 0.857888 0.183192 0.923790
O O5 0.779878 0.918235 0.474540
O O6 0.623816 0.842169 0.754925
O O7 0.746842 0.911889 0.818462
O O8 0.887591 0.843028 0.478138
O O9 0.044469 0.942176 0.237195
O O10 0.893615 0.000000 0.233357
O O11 0.000000 0.916017 0.000000
O O12 0.067386 0.750853 0.706640
O O13 0.239161 0.500000 0.997080
O O14 0.500000 0.725714 0.500000
#
# Coordination Sequence:
#
# PCOD9201838 Si02
#       6
#     8   8   8   8   8   8
#     4  11  23  47  68  95 136 185 228 283 339 414
#     4  12  23  40  62 106 136 174 228 286 346 401
#     4  10  20  37  65 100 134 177 231 284 337 401
#     4  11  27  42  68  97 140 182 230 278 344 409
#     4  11  23  42  70 100 136 184 229 284 346 408
#     4  12  22  43  71  99 131 182 232 283 342 404
#
# _framework density 23.323732
#
# number of rings (size 3 to 8) (size 9 to 14) (size 15 to 20)
#    0.000    0.833    5.000    3.000    0.000    2.000 
#    0.000    6.667    0.000    0.000    0.000    0.000 
#    0.000    0.000    0.000    0.000    0.000    0.000 
#
# Total GULP energy -134220.729774 kJ/mol
# GULP energy per Si atom -5592.530407 kJ/mol
# Density = 2.327065 g / cm^3
# Si number density = 23.323732 Si / 1000 Ang^3
#
#
#
# Elastic Constant Matrix: (Units=GPa)
#
#
# Indices 1 2 3 4 5 6 
#
# 1 80.1085 22.4401 35.0148 0.0000 5.5499 0.0000
# 2 22.4401 174.1361 50.1318 0.0000 -1.6967 0.0000
# 3 35.0148 50.1318 124.2038 0.0000 2.0419 0.0000
# 4 0.0000 0.0000 0.0000 51.9964 0.0000 7.7587
# 5 5.5499 -1.6967 2.0419 0.0000 26.4643 0.0000
# 6 0.0000 0.0000 0.0000 7.7587 0.0000 39.7860
#
#
#
# Elastic Compliance Matrix: (Units=1/GPa)
#
#
# Indices 1 2 3 4 5 6 
#
# 1 0.014535 -0.000831 -0.003716 0.000000 -0.002815 0.000000
# 2 -0.000831 0.006555 -0.002425 0.000000 0.000782 0.000000
# 3 -0.003716 -0.002425 0.010080 0.000000 -0.000154 0.000000
# 4 0.000000 0.000000 0.000000 0.019808 0.000000 -0.003863
# 5 -0.002815 0.000782 -0.000154 0.000000 0.038439 0.000000
# 6 0.000000 0.000000 0.000000 -0.003863 0.000000 0.025888
#
#
# Mechanical properties :
#
#
# Convention : Reuss Voigt Hill
#
# Bulk Modulus (GPa) = 58.04585 65.95798 62.00192
# Shear Modulus (GPa) = 37.03956 41.70679 39.37317
#
# Velocity S-wave (km/s) = 3.98937 4.23326 4.11313
# Velocity P-wave (km/s) = 6.79420 7.22736 7.01413
#
# Compressibility (1/GPa) = 0.01722776
#
# Stress axis : x y z
#
# Youngs Moduli (GPa) = 68.79930 152.54839 99.20590
#
# Poissons Ratio (x) = 0.12672 0.36866
# Poissons Ratio (y) = 0.05715 0.24053
# Poissons Ratio (z) = 0.25566 0.36986
#
# Static dielectric constant tensor:
#      x y z
#    x 1.960560 0.000000 0.043320 
#    y 0.000000 1.940420 0.000000 
#    z 0.043320 0.000000 1.896380 
# 
# From -- ./inp_files/67334.got.cif
#   From: 2010.05.17/outbox.cif.g08.bks.cpg/sg12_34_cif.got.tgz:67334.got - 2010.06.03 13:09:07.
