data_PCOD9201981
_publ_section_title
;
Structure prediction by ZEFSAII (Michael W. Deem and Ramdas Pophale) SiO2 
 PCOD9201981
Probable space group: C 2/M
;
_chemical_formula_sum "Si O2"
_cell_formula_units_Z 56
_cell_length_a 10.472028
_cell_length_b 15.275310
_cell_length_c 29.165698
_cell_angle_alpha 90.000000
_cell_angle_beta 36.000922
_cell_angle_gamma 90.000000
_cell_volume 2742.341312
_symmetry_space_group_name_H-M "C 2/M"
_symmetry_group_IT_number 12
_symmetry_cell_setting 'monoclinic'
loop_
_space_group_symop_operation_xyz
x,y,z
-x,y,-z
-x,-y,-z
x,-y,z
1/2+x,1/2+y,z
1/2-x,1/2+y,-z
1/2-x,1/2-y,-z
1/2+x,1/2-y,z
loop_
_atom_site_type_symbol
_atom_site_label
_atom_site_fract_x
_atom_site_fract_y
_atom_site_fract_z
Si Si1 0.290388 0.637431 0.533104
Si Si2 0.499088 0.606306 0.721043
Si Si3 0.185230 0.397866 0.291039
Si Si4 0.473470 0.103223 0.162753
Si Si5 0.630724 0.323786 0.006143
Si Si6 0.761821 0.347323 0.554716
Si Si7 0.720145 0.894460 0.178078
O O1 0.500000 0.605709 0.500000
O O2 0.307692 0.615782 0.474319
O O3 0.281315 0.742828 0.541859
O O4 0.059686 0.606066 0.619208
O O5 0.504199 0.500000 0.721780
O O6 0.649747 0.640042 0.718932
O O7 0.249862 0.637835 0.793834
O O8 0.601149 0.632895 0.642809
O O9 0.245506 0.500000 0.268768
O O10 0.196608 0.359558 0.236516
O O11 0.679916 0.116430 0.070059
O O12 0.542602 0.139129 0.192714
O O13 0.438969 0.000000 0.178761
O O14 0.500000 0.287890 0.000000
O O15 0.750000 0.250000 0.000000
O O16 0.454891 0.372180 0.088760
O O17 0.000000 0.380672 0.500000
O O18 0.697669 0.000000 0.185872
#
# Coordination Sequence:
#
# PCOD9201981 Si02
#       7
#     8   8   8   8   8   8   8
#     4  10  22  36  54  78 108 145 184 223 268 325
#     4  10  21  36  57  82 108 140 181 226 271 321
#     4  10  21  37  55  81 112 140 177 226 275 319
#     4   9  19  37  59  81 106 142 185 222 263 320
#     4  10  21  37  57  85 114 143 179 220 267 319
#     4  10  20  38  55  75 107 146 184 220 270 324
#     4   9  19  37  59  80 108 144 180 222 269 316
#
# _framework density 20.420506
#
# number of rings (size 3 to 8) (size 9 to 14) (size 15 to 20)
#    0.000    2.286    1.429    0.429    2.000    5.143 
#    0.000    2.857    0.000    4.286    0.000    0.000 
#    0.000    0.000    0.000    0.000    0.000    0.000 
#
# Total GULP energy -156258.726756 kJ/mol
# GULP energy per Si atom -5580.668813 kJ/mol
# Density = 2.037403 g / cm^3
# Si number density = 20.420506 Si / 1000 Ang^3
#
#
#
# Elastic Constant Matrix: (Units=GPa)
#
#
# Indices 1 2 3 4 5 6 
#
# 1 187.5182 13.6597 79.7228 0.0010 -2.9954 0.0002
# 2 13.6597 22.5676 -11.1876 -0.0005 0.2843 0.0001
# 3 79.7228 -11.1876 91.3408 0.0013 -0.9296 0.0001
# 4 0.0010 -0.0005 0.0013 36.9458 -0.0006 0.4287
# 5 -2.9954 0.2843 -0.9296 -0.0006 41.7997 -0.0003
# 6 0.0002 0.0001 0.0001 0.4287 -0.0003 12.8868
#
#
#
# Elastic Compliance Matrix: (Units=1/GPa)
#
#
# Indices 1 2 3 4 5 6 
#
# 1 0.010880 -0.012028 -0.010963 0.000000 0.000618 0.000000
# 2 -0.012028 0.060474 0.017896 0.000001 -0.000875 -0.000001
# 3 -0.010963 0.017896 0.022704 0.000000 -0.000402 0.000000
# 4 0.000000 0.000001 0.000000 0.027077 0.000000 -0.000901
# 5 0.000618 -0.000875 -0.000402 0.000000 0.023965 0.000000
# 6 0.000000 -0.000001 0.000000 -0.000901 0.000000 0.077629
#
#
# Mechanical properties :
#
#
# Convention : Reuss Voigt Hill
#
# Bulk Modulus (GPa) = 11.92333 51.75736 31.84034
# Shear Modulus (GPa) = 19.16636 32.94191 26.05413
#
# Velocity S-wave (km/s) = 3.06696 4.02080 3.57582
# Velocity P-wave (km/s) = 4.28873 6.85248 5.71619
#
# Compressibility (1/GPa) = 0.08386920
#
# Stress axis : x y z
#
# Youngs Moduli (GPa) = 91.91545 16.53597 44.04488
#
# Poissons Ratio (x) = 0.19889 0.48285
# Poissons Ratio (y) = 1.10552 -0.78822
# Poissons Ratio (z) = 1.00764 -0.29593
#
# Static dielectric constant tensor:
#      x y z
#    x 1.750280 0.000000 0.000010 
#    y 0.000000 1.743260 0.000000 
#    z 0.000010 0.000000 1.690260 
# 
# From -- ./inp_files/256980.got.cif
#   From: 2010.05.17/outbox.cif.g08.bks.cpg/sg12_129_cif.got.tgz:256980.got - 2010.06.03 13:09:07.
