data_PCOD9201857
_publ_section_title
;
Structure prediction by ZEFSAII (Michael W. Deem and Ramdas Pophale) SiO2 
 PCOD9201857
Probable space group: C 2/M
;
_chemical_formula_sum "Si O2"
_cell_formula_units_Z 64
_cell_length_a 14.550746
_cell_length_b 26.632713
_cell_length_c 9.718731
_cell_angle_alpha 90.000000
_cell_angle_beta 125.696884
_cell_angle_gamma 90.000000
_cell_volume 3058.636749
_symmetry_space_group_name_H-M "C 2/M"
_symmetry_group_IT_number 12
_symmetry_cell_setting 'monoclinic'
loop_
_space_group_symop_operation_xyz
x,y,z
-x,y,-z
-x,-y,-z
x,-y,z
1/2+x,1/2+y,z
1/2-x,1/2+y,-z
1/2-x,1/2-y,-z
1/2+x,1/2-y,z
loop_
_atom_site_type_symbol
_atom_site_label
_atom_site_fract_x
_atom_site_fract_y
_atom_site_fract_z
Si Si1 0.368544 0.941096 0.913051
Si Si2 0.346167 0.291748 0.619601
Si Si3 0.882216 0.886744 0.811684
Si Si4 0.261796 0.850362 0.683391
Si Si5 0.773266 0.692224 0.994089
Si Si6 0.287926 0.586870 0.990093
Si Si7 0.009787 0.941646 0.349650
Si Si8 0.018255 0.701488 0.181311
O O1 0.284867 0.907347 0.746485
O O2 0.326508 0.929101 0.031621
O O3 0.357641 0.000000 0.876653
O O4 0.500000 0.926331 0.000000
O O5 0.250000 0.250000 0.500000
O O6 0.331921 0.331627 0.730969
O O7 0.345495 0.328673 0.489017
O O8 0.453974 0.257631 0.744863
O O9 0.910247 0.914090 0.691798
O O10 0.804383 0.921179 0.842637
O O11 0.000000 0.881578 0.000000
O O12 0.374232 0.833821 0.697817
O O13 0.264993 0.818413 0.825270
O O14 0.903527 0.682919 0.148591
O O15 0.750000 0.750000 0.000000
O O16 0.699545 0.647604 0.991137
O O17 0.387185 0.562951 0.168449
O O18 0.000000 0.922946 0.500000
O O19 0.042718 0.000000 0.387241
O O20 0.000000 0.702595 0.000000
#
# Coordination Sequence:
#
# PCOD9201857 Si02
#       8
#     8   8   8   8   8   8   8   8
#     4  10  20  37  65  93 119 159 214 266 316 371
#     4  10  21  35  60  85 119 165 206 251 311 375
#     4  10  23  39  63  90 127 168 206 258 314 384
#     4   9  19  36  55  85 114 152 202 259 303 360
#     4  10  21  32  54  82 113 161 203 243 300 364
#     4  10  22  38  60  92 125 160 208 259 308 379
#     4  10  23  42  65  94 126 163 206 261 323 377
#     4   9  18  34  56  76 114 159 199 251 299 361
#
# _framework density 20.924354000000001
#
# number of rings (size 3 to 8) (size 9 to 14) (size 15 to 20)
#    0.000    2.250    0.000    2.625   12.250    2.750 
#    0.000    0.625    0.000    2.250    0.000    1.750 
#    0.000    0.000    0.000    0.000    0.000    0.000 
#
# Total GULP energy -178212.298856 kJ/mol
# GULP energy per Si atom -5569.134339 kJ/mol
# Density = 2.087673 g / cm^3
# Si number density = 20.924354 Si / 1000 Ang^3
#
#
#
# Elastic Constant Matrix: (Units=GPa)
#
#
# Indices 1 2 3 4 5 6 
#
# 1 84.5839 14.8436 12.3370 0.0000 -24.1139 0.0000
# 2 14.8436 110.9044 26.5893 0.0000 -9.7562 0.0000
# 3 12.3370 26.5893 61.2875 0.0000 -24.4201 0.0000
# 4 0.0000 0.0000 0.0000 29.0363 0.0000 6.5744
# 5 -24.1139 -9.7562 -24.4201 0.0000 20.0599 0.0000
# 6 0.0000 0.0000 0.0000 6.5744 0.0000 21.8284
#
#
#
# Elastic Compliance Matrix: (Units=1/GPa)
#
#
# Indices 1 2 3 4 5 6 
#
# 1 0.022128 -0.002462 0.013080 0.000000 0.041326 0.000000
# 2 -0.002462 0.010344 -0.006150 0.000000 -0.005416 0.000000
# 3 0.013080 -0.006150 0.041606 0.000000 0.063382 0.000000
# 4 0.000000 0.000000 0.000000 0.036960 0.000000 -0.011132
# 5 0.041326 -0.005416 0.063382 0.000000 0.174054 0.000000
# 6 0.000000 0.000000 0.000000 -0.011132 0.000000 0.049165
#
#
# Mechanical properties :
#
#
# Convention : Reuss Voigt Hill
#
# Bulk Modulus (GPa) = 12.04597 40.47953 26.26275
# Shear Modulus (GPa) = 14.16456 27.71865 20.94161
#
# Velocity S-wave (km/s) = 2.60463 3.64360 3.16701
# Velocity P-wave (km/s) = 3.84901 6.09005 5.09429
#
# Compressibility (1/GPa) = 0.08301529
#
# Stress axis : x y z
#
# Youngs Moduli (GPa) = 45.19063 96.67068 24.03471
#
# Poissons Ratio (x) = 0.23803 -0.31438
# Poissons Ratio (y) = 0.11127 0.14782
# Poissons Ratio (z) = -0.59111 0.59454
#
# Static dielectric constant tensor:
#      x y z
#    x 1.869280 0.000000 -0.017980 
#    y 0.000000 1.798340 0.000000 
#    z -0.017980 0.000000 1.806800 
# 
# From -- ./inp_files/68257.got.cif
#   From: 2010.05.17/outbox.cif.g08.bks.cpg/sg12_35_cif.got.tgz:68257.got - 2010.06.03 13:09:07.
