data_PCOD9201320
_publ_section_title
;
Structure prediction by ZEFSAII (Michael W. Deem and Ramdas Pophale) SiO2 
 PCOD9201320
Probable space group: C 2/M
;
_chemical_formula_sum "Si O2"
_cell_formula_units_Z 42
_cell_length_a 12.731225
_cell_length_b 13.040120
_cell_length_c 11.973478
_cell_angle_alpha 90.000000
_cell_angle_beta 115.802302
_cell_angle_gamma 90.000000
_cell_volume 1789.616485
_symmetry_space_group_name_H-M "C 2/M"
_symmetry_group_IT_number 12
_symmetry_cell_setting 'monoclinic'
loop_
_space_group_symop_operation_xyz
x,y,z
-x,y,-z
-x,-y,-z
x,-y,z
1/2+x,1/2+y,z
1/2-x,1/2+y,-z
1/2-x,1/2-y,-z
1/2+x,1/2-y,z
loop_
_atom_site_type_symbol
_atom_site_label
_atom_site_fract_x
_atom_site_fract_y
_atom_site_fract_z
Si Si1 0.302121 0.832193 0.362028
Si Si2 0.430057 0.878223 0.811058
Si Si3 0.327406 0.124674 0.001826
Si Si4 0.500000 0.000000 0.500000
Si Si5 0.217661 0.119203 0.563329
Si Si6 0.865981 0.123397 0.923922
O O1 0.214943 0.844168 0.217661
O O2 0.409488 0.910474 0.410524
O O3 0.224302 0.863453 0.434735
O O4 0.343117 0.714076 0.401911
O O5 0.562417 0.841888 0.871430
O O6 0.351627 0.864295 0.666881
O O7 0.361736 0.845271 0.891742
O O8 0.439573 0.000000 0.827851
O O9 0.205129 0.153783 0.998145
O O10 0.324403 0.000000 0.999780
O O11 0.185559 0.000000 0.574395
O O12 0.869206 0.000000 0.917997
O O13 0.000000 0.156353 0.000000
#
# Coordination Sequence:
#
# PCOD9201320 Si02
#       6
#     8   8   8   2   8   8
#     4  11  24  40  69 106 140 182 240 299 360 426
#     4   8  15  30  57  90 129 175 225 289 344 409
#     4   8  15  29  55  91 128 177 234 281 343 407
#     4  12  24  44  72 108 134 178 244 300 350 438
#     4  10  21  42  67  98 142 184 230 297 365 427
#     4  10  20  37  61  94 142 188 234 292 352 425
#
# _framework density 23.468713999999999
#
# number of rings (size 3 to 8) (size 9 to 14) (size 15 to 20)
#    0.000    2.476    1.905    1.143    2.667    0.000 
#    3.429    5.238    0.000    2.286    0.000    0.000 
#    0.000    0.000    0.000    0.000    0.000    0.000 
#
# Total GULP energy -116982.314651 kJ/mol
# GULP energy per Si atom -5570.586412 kJ/mol
# Density = 2.341530 g / cm^3
# Si number density = 23.468714 Si / 1000 Ang^3
#
#
#
# Elastic Constant Matrix: (Units=GPa)
#
#
# Indices 1 2 3 4 5 6 
#
# 1 120.5327 35.8496 51.1409 0.0000 23.9848 0.0000
# 2 35.8496 198.8385 47.6602 0.0000 21.6029 0.0000
# 3 51.1409 47.6602 101.2246 0.0000 25.7591 0.0000
# 4 0.0000 0.0000 0.0000 30.5453 0.0000 7.2434
# 5 23.9848 21.6029 25.7591 0.0000 24.6822 0.0000
# 6 0.0000 0.0000 0.0000 7.2434 0.0000 20.5002
#
#
#
# Elastic Compliance Matrix: (Units=1/GPa)
#
#
# Indices 1 2 3 4 5 6 
#
# 1 0.011384 -0.000401 -0.003863 0.000000 -0.006680 0.000000
# 2 -0.000401 0.005847 -0.001834 0.000000 -0.002813 0.000000
# 3 -0.003863 -0.001834 0.015428 0.000000 -0.010742 0.000000
# 4 0.000000 0.000000 0.000000 0.035732 0.000000 -0.012625
# 5 -0.006680 -0.002813 -0.010742 0.000000 0.060679 0.000000
# 6 0.000000 0.000000 0.000000 -0.012625 0.000000 0.053241
#
#
# Mechanical properties :
#
#
# Convention : Reuss Voigt Hill
#
# Bulk Modulus (GPa) = 48.86984 76.65525 62.76255
# Shear Modulus (GPa) = 24.83511 34.20855 29.52183
#
# Velocity S-wave (km/s) = 3.25656 3.82203 3.55057
# Velocity P-wave (km/s) = 5.91683 7.22571 6.60377
#
# Compressibility (1/GPa) = 0.02046252
#
# Stress axis : x y z
#
# Youngs Moduli (GPa) = 87.84301 171.03241 64.81802
#
# Poissons Ratio (x) = 0.06855 0.25038
# Poissons Ratio (y) = 0.03521 0.11891
# Poissons Ratio (z) = 0.33932 0.31375
#
# Static dielectric constant tensor:
#      x y z
#    x 1.884990 0.000000 -0.018580 
#    y 0.000000 2.011960 0.000000 
#    z -0.018580 0.000000 1.855710 
# 
# From -- ./inp_files/212441.got.cif
#   From: 2010.05.17/outbox.cif.g08.bks.cpg/sg12_107_cif.got.tgz:212441.got - 2010.06.03 13:09:07.
