data_PCOD9201674
_publ_section_title
;
Structure prediction by ZEFSAII (Michael W. Deem and Ramdas Pophale) SiO2 
 PCOD9201674
Probable space group: C 2/M
;
_chemical_formula_sum "Si O2"
_cell_formula_units_Z 40
_cell_length_a 18.947606
_cell_length_b 14.966785
_cell_length_c 7.124669
_cell_angle_alpha 90.000000
_cell_angle_beta 71.419579
_cell_angle_gamma 90.000000
_cell_volume 1915.136366
_symmetry_space_group_name_H-M "C 2/M"
_symmetry_group_IT_number 12
_symmetry_cell_setting 'monoclinic'
loop_
_space_group_symop_operation_xyz
x,y,z
-x,y,-z
-x,-y,-z
x,-y,z
1/2+x,1/2+y,z
1/2-x,1/2+y,-z
1/2-x,1/2-y,-z
1/2+x,1/2-y,z
loop_
_atom_site_type_symbol
_atom_site_label
_atom_site_fract_x
_atom_site_fract_y
_atom_site_fract_z
Si Si1 0.930803 0.277110 0.460311
Si Si2 0.802139 0.190684 0.819787
Si Si3 0.195289 0.097487 0.816782
Si Si4 0.461601 0.402546 0.234004
Si Si5 0.304242 0.891195 0.408771
O O1 0.870108 0.237889 0.657511
O O2 0.969429 0.190307 0.334020
O O3 0.882879 0.339042 0.358431
O O4 0.000000 0.327187 0.500000
O O5 0.747146 0.140736 0.720968
O O6 0.750000 0.250000 0.000000
O O7 0.834289 0.128259 0.957345
O O8 0.126379 0.094345 0.734540
O O9 0.259437 0.140718 0.634886
O O10 0.226769 0.000000 0.828583
O O11 0.482650 0.500000 0.299754
O O12 0.500000 0.397329 0.000000
O O13 0.311258 0.000000 0.399463
#
# Coordination Sequence:
#
# PCOD9201674 Si02
#       5
#     8   8   8   8   8
#     4  12  25  41  65  98 136 178 221 279 336 399
#     4  12  22  39  68  97 128 172 224 278 331 391
#     4  10  20  37  63  92 127 169 217 270 327 393
#     4  10  21  39  63  96 138 174 212 273 341 401
#     4  11  24  44  67  94 131 177 227 275 326 395
#
# _framework density 20.886240999999998
#
# number of rings (size 3 to 8) (size 9 to 14) (size 15 to 20)
#    0.000    1.000    4.000    3.600    0.000    1.600 
#    0.000    0.000    0.000    1.800    0.000    0.000 
#    0.000    0.000    0.000    0.000    0.000    0.000 
#
# Total GULP energy -111381.579971 kJ/mol
# GULP energy per Si atom -5569.078999 kJ/mol
# Density = 2.083870 g / cm^3
# Si number density = 20.886241 Si / 1000 Ang^3
#
#
#
# Elastic Constant Matrix: (Units=GPa)
#
#
# Indices 1 2 3 4 5 6 
#
# 1 91.2119 26.7603 10.2223 0.0000 10.3499 0.0000
# 2 26.7603 67.9564 34.0355 0.0000 -3.1721 0.0000
# 3 10.2223 34.0355 85.7675 0.0000 5.5391 0.0000
# 4 0.0000 0.0000 0.0000 18.4082 0.0000 -12.9588
# 5 10.3499 -3.1721 5.5391 0.0000 36.3969 0.0000
# 6 0.0000 0.0000 0.0000 -12.9588 0.0000 -9.2691
#
#
#
# Elastic Compliance Matrix: (Units=1/GPa)
#
#
# Indices 1 2 3 4 5 6 
#
# 1 0.013069 -0.005882 0.001060 0.000000 -0.004390 0.000000
# 2 -0.005882 0.021287 -0.008053 0.000000 0.004753 0.000000
# 3 0.001060 -0.008053 0.014941 0.000000 -0.003277 0.000000
# 4 0.000000 0.000000 0.000000 0.027378 0.000000 -0.038277
# 5 -0.004390 0.004753 -0.003277 0.000000 0.029636 0.000000
# 6 0.000000 0.000000 0.000000 -0.038277 0.000000 -0.054373
#
#
# Mechanical properties :
#
#
# Convention : Reuss Voigt Hill
#
# Bulk Modulus (GPa) = 42.47095 42.99689 42.73392
# Shear Modulus (GPa) = 58.45417 20.70171 39.57794
#
# Velocity S-wave (km/s) = 5.29601 3.15169 4.35780
# Velocity P-wave (km/s) = 7.60102 5.82024 6.76944
#
# Compressibility (1/GPa) = 0.02354551
#
# Stress axis : x y z
#
# Youngs Moduli (GPa) = 76.51956 46.97714 66.93193
#
# Poissons Ratio (x) = 0.27632 -0.07096
# Poissons Ratio (y) = 0.45010 0.53902
# Poissons Ratio (z) = -0.08112 0.37832
#
# Static dielectric constant tensor:
#      x y z
#    x 1.909800 0.000000 0.128990 
#    y 0.000000 1.991210 0.000000 
#    z 0.128990 0.000000 1.856470 
# 
# From -- ./inp_files/15120.got.cif
#   From: 2010.05.17/outbox.cif.g08.bks.cpg/sg12_8_cif.got.tgz:15120.got - 2010.06.03 13:09:07.
