data_PCOD9201280
_publ_section_title
;
Structure prediction by ZEFSAII (Michael W. Deem and Ramdas Pophale) SiO2 
 PCOD9201280
Probable space group: C 2/M
;
_chemical_formula_sum "Si O2"
_cell_formula_units_Z 56
_cell_length_a 18.783046
_cell_length_b 13.632804
_cell_length_c 22.005755
_cell_angle_alpha 90.000000
_cell_angle_beta 152.887357
_cell_angle_gamma 90.000000
_cell_volume 2568.064362
_symmetry_space_group_name_H-M "C 2/M"
_symmetry_group_IT_number 12
_symmetry_cell_setting 'monoclinic'
loop_
_space_group_symop_operation_xyz
x,y,z
-x,y,-z
-x,-y,-z
x,-y,z
1/2+x,1/2+y,z
1/2-x,1/2+y,-z
1/2-x,1/2-y,-z
1/2+x,1/2-y,z
loop_
_atom_site_type_symbol
_atom_site_label
_atom_site_fract_x
_atom_site_fract_y
_atom_site_fract_z
Si Si1 0.830996 0.381943 0.046205
Si Si2 0.677655 0.617953 0.238603
Si Si3 0.084870 0.738503 0.007896
Si Si4 0.474437 0.381929 0.757412
Si Si5 0.592757 0.617261 0.432277
Si Si6 0.556050 0.117200 0.325991
Si Si7 0.402345 0.214467 0.318698
O O1 0.843142 0.500000 0.048833
O O2 0.925960 0.352728 0.178224
O O3 0.896841 0.329713 0.036545
O O4 0.647802 0.357540 0.912596
O O5 0.671713 0.500000 0.228154
O O6 0.655093 0.647455 0.291924
O O7 0.831505 0.659600 0.322946
O O8 0.527100 0.669105 0.092527
O O9 0.252356 0.769821 0.160837
O O10 0.000000 0.685340 0.000000
O O11 0.466236 0.500000 0.749314
O O12 0.454152 0.352112 0.672447
O O13 0.571852 0.500000 0.423458
O O14 0.775284 0.641979 0.573331
O O15 0.484062 0.681473 0.393080
O O16 0.523374 0.155198 0.368731
O O17 0.551230 0.000000 0.326594
#
# Coordination Sequence:
#
# PCOD9201280 Si02
#       7
#     8   8   8   8   8   8   8
#     4  10  20  37  61  91 120 156 201 249 299 352
#     4  10  22  38  57  89 127 160 197 244 302 358
#     4  10  22  35  57  90 122 158 196 247 307 351
#     4   9  18  35  62  89 117 154 196 245 295 348
#     4  10  21  39  62  91 121 158 202 248 302 352
#     4  10  22  37  59  89 123 158 200 251 296 352
#     4  11  21  36  60  88 121 161 200 240 299 359
#
# _framework density 21.806308000000001
#
# number of rings (size 3 to 8) (size 9 to 14) (size 15 to 20)
#    0.000    2.000    1.429    1.714    2.000    5.714 
#    0.000    2.857    3.143    3.429    0.000   13.000 
#    0.000    0.000    0.000    0.000    0.000    0.000 
#
# Total GULP energy -156526.146699 kJ/mol
# GULP energy per Si atom -5590.219525 kJ/mol
# Density = 2.175668 g / cm^3
# Si number density = 21.806308 Si / 1000 Ang^3
#
#
#
# Elastic Constant Matrix: (Units=GPa)
#
#
# Indices 1 2 3 4 5 6 
#
# 1 144.6416 62.2690 12.3639 0.0004 16.8461 0.0001
# 2 62.2690 104.3760 26.4113 0.0011 17.7637 0.0004
# 3 12.3639 26.4113 55.8070 0.0013 3.0025 0.0004
# 4 0.0004 0.0011 0.0013 18.1406 0.0001 9.3019
# 5 16.8461 17.7637 3.0025 0.0001 19.9859 -0.0001
# 6 0.0001 0.0004 0.0004 9.3019 -0.0001 41.7733
#
#
#
# Elastic Compliance Matrix: (Units=1/GPa)
#
#
# Indices 1 2 3 4 5 6 
#
# 1 0.009521 -0.005231 0.000552 0.000000 -0.003459 0.000000
# 2 -0.005231 0.015629 -0.005774 0.000000 -0.008614 0.000000
# 3 0.000552 -0.005774 0.020443 -0.000001 0.001595 0.000000
# 4 0.000000 0.000000 -0.000001 0.062230 0.000000 -0.013857
# 5 -0.003459 -0.008614 0.001595 0.000000 0.060368 0.000000
# 6 0.000000 0.000000 0.000000 -0.013857 0.000000 0.027024
#
#
# Mechanical properties :
#
#
# Convention : Reuss Voigt Hill
#
# Bulk Modulus (GPa) = 40.50632 56.32370 48.41501
# Shear Modulus (GPa) = 22.28648 29.56530 25.92589
#
# Velocity S-wave (km/s) = 3.20037 3.68613 3.45181
# Velocity P-wave (km/s) = 5.68088 6.63339 6.17553
#
# Compressibility (1/GPa) = 0.02468751
#
# Stress axis : x y z
#
# Youngs Moduli (GPa) = 105.02615 63.98419 48.91568
#
# Poissons Ratio (x) = 0.33473 -0.02703
# Poissons Ratio (y) = 0.54944 0.28244
# Poissons Ratio (z) = -0.05803 0.36945
#
# Static dielectric constant tensor:
#      x y z
#    x 1.786560 0.000000 -0.000560 
#    y 0.000000 1.810700 0.000000 
#    z -0.000560 0.000000 1.794600 
# 
# From -- ./inp_files/316786.got.cif
#   From: 2010.05.17/outbox.cif.g08.bks.cpg/sg12_159_cif.got.tgz:316786.got - 2010.06.03 13:09:07.
