data_PCOD9201963
_publ_section_title
;
Structure prediction by ZEFSAII (Michael W. Deem and Ramdas Pophale) SiO2 
 PCOD9201963
Probable space group: C 2/M
;
_chemical_formula_sum "Si O2"
_cell_formula_units_Z 38
_cell_length_a 16.829774
_cell_length_b 9.769228
_cell_length_c 11.535557
_cell_angle_alpha 90.000000
_cell_angle_beta 90.647766
_cell_angle_gamma 90.000000
_cell_volume 1896.484699
_symmetry_space_group_name_H-M "C 2/M"
_symmetry_group_IT_number 12
_symmetry_cell_setting 'monoclinic'
loop_
_space_group_symop_operation_xyz
x,y,z
-x,y,-z
-x,-y,-z
x,-y,z
1/2+x,1/2+y,z
1/2-x,1/2+y,-z
1/2-x,1/2-y,-z
1/2+x,1/2-y,z
loop_
_atom_site_type_symbol
_atom_site_label
_atom_site_fract_x
_atom_site_fract_y
_atom_site_fract_z
Si Si1 0.144764 0.000000 0.617449
Si Si2 0.099493 0.764098 0.909885
Si Si3 0.500000 0.500000 0.000000
Si Si4 0.408914 0.791159 0.355633
Si Si5 0.396689 0.000000 0.929510
Si Si6 0.289100 0.500000 0.116710
Si Si7 0.687394 0.000000 0.499508
Si Si8 0.044371 0.500000 0.325907
O O1 0.093187 0.135782 0.603788
O O2 0.180477 0.000000 0.749748
O O3 0.221284 0.000000 0.535020
O O4 0.110913 0.707175 0.781395
O O5 0.173381 0.864663 0.941890
O O6 0.089738 0.637290 0.995810
O O7 0.029094 0.876795 0.911379
O O8 0.341138 0.871136 0.424976
O O9 0.492101 0.870615 0.365915
O O10 0.304447 0.000000 0.892765
O O11 0.447276 0.000000 0.812566
O O12 0.630206 0.000000 0.386047
#
# Coordination Sequence:
#
# PCOD9201963 Si02
#       8
#     4   8   2   8   4   4   4   4
#     4  10  20  39  63  82 111 153 195 232 288 346
#     4  10  21  35  59  84 116 150 194 234 285 341
#     4  10  20  38  52  82 118 146 186 230 288 338
#     4  10  21  37  59  85 113 149 193 237 284 340
#     4  12  20  34  58  86 116 148 198 230 288 348
#     4   9  20  37  53  84 119 153 179 243 295 341
#     4  11  21  40  59  85 113 150 192 242 286 335
#     4  11  23  37  58  86 119 150 189 240 289 334
#
# _framework density 20.037071999999998
#
# number of rings (size 3 to 8) (size 9 to 14) (size 15 to 20)
#    0.000    1.684    1.053    5.684    0.000    1.263 
#    0.000    2.105    0.000    0.000    0.000    0.000 
#    0.000    0.000    0.000    0.000    0.000    0.000 
#
# Total GULP energy -105819.626660 kJ/mol
# GULP energy per Si atom -5569.454035 kJ/mol
# Density = 1.999147 g / cm^3
# Si number density = 20.037072 Si / 1000 Ang^3
#
#
#
# Elastic Constant Matrix: (Units=GPa)
#
#
# Indices 1 2 3 4 5 6 
#
# 1 60.7306 32.1154 14.6314 0.0000 -11.7072 0.0000
# 2 32.1154 178.3487 55.9419 0.0000 -15.6350 0.0000
# 3 14.6314 55.9419 107.8224 0.0000 -28.0276 0.0000
# 4 0.0000 0.0000 0.0000 11.1656 0.0000 -5.0329
# 5 -11.7072 -15.6350 -28.0276 0.0000 31.7238 0.0000
# 6 0.0000 0.0000 0.0000 -5.0329 0.0000 7.7134
#
#
#
# Elastic Compliance Matrix: (Units=1/GPa)
#
#
# Indices 1 2 3 4 5 6 
#
# 1 0.019130 -0.003097 0.000583 0.000000 0.006048 0.000000
# 2 -0.003097 0.007201 -0.003492 0.000000 -0.000680 0.000000
# 3 0.000583 -0.003492 0.013781 0.000000 0.010669 0.000000
# 4 0.000000 0.000000 0.000000 0.126877 0.000000 0.082786
# 5 0.006048 -0.000680 0.010669 0.000000 0.042845 0.000000
# 6 0.000000 0.000000 0.000000 0.082786 0.000000 0.183662
#
#
# Mechanical properties :
#
#
# Convention : Reuss Voigt Hill
#
# Bulk Modulus (GPa) = 35.58951 61.36435 48.47693
# Shear Modulus (GPa) = 12.05186 26.40140 19.22663
#
# Velocity S-wave (km/s) = 2.45517 3.63385 3.10103
# Velocity P-wave (km/s) = 5.08306 6.94971 6.08835
#
# Compressibility (1/GPa) = 0.02809816
#
# Stress axis : x y z
#
# Youngs Moduli (GPa) = 52.27520 138.87792 72.56574
#
# Poissons Ratio (x) = 0.43016 -0.04233
# Poissons Ratio (y) = 0.16192 0.25342
# Poissons Ratio (z) = -0.03050 0.48500
#
# Static dielectric constant tensor:
#      x y z
#    x 1.735820 0.000000 -0.021410 
#    y 0.000000 1.718030 0.000000 
#    z -0.021410 0.000000 1.714670 
# 
# From -- ./inp_files/151826.got.cif
#   From: 2010.05.17/outbox.cif.g08.bks.cpg/sg12_76_cif.got.tgz:151826.got - 2010.06.03 13:09:07.
