data_PCOD9201928
_publ_section_title
;
Structure prediction by ZEFSAII (Michael W. Deem and Ramdas Pophale) SiO2 
 PCOD9201928
Probable space group: C 2/M
;
_chemical_formula_sum "Si O2"
_cell_formula_units_Z 64
_cell_length_a 17.200191
_cell_length_b 30.027341
_cell_length_c 11.703684
_cell_angle_alpha 90.000000
_cell_angle_beta 151.903270
_cell_angle_gamma 90.000000
_cell_volume 2846.807961
_symmetry_space_group_name_H-M "C 2/M"
_symmetry_group_IT_number 12
_symmetry_cell_setting 'monoclinic'
loop_
_space_group_symop_operation_xyz
x,y,z
-x,y,-z
-x,-y,-z
x,-y,z
1/2+x,1/2+y,z
1/2-x,1/2+y,-z
1/2-x,1/2-y,-z
1/2+x,1/2-y,z
loop_
_atom_site_type_symbol
_atom_site_label
_atom_site_fract_x
_atom_site_fract_y
_atom_site_fract_z
Si Si1 0.102425 0.849588 0.002417
Si Si2 0.610123 0.868990 0.799250
Si Si3 0.282944 0.450334 0.432370
Si Si4 0.336547 0.698174 0.506988
Si Si5 0.633849 0.950287 0.496063
Si Si6 0.172523 0.697191 0.524785
Si Si7 0.947639 0.051703 0.070733
Si Si8 0.313356 0.622560 0.293710
O O1 0.260180 0.865356 0.133737
O O2 0.176668 0.825190 0.209684
O O3 0.004874 0.896176 0.893063
O O4 0.000385 0.816119 0.789423
O O5 0.497061 0.912663 0.645881
O O6 0.491633 0.826411 0.645523
O O7 0.707191 0.871411 0.043524
O O8 0.235542 0.500000 0.335461
O O9 0.209216 0.442914 0.465468
O O10 0.483518 0.447865 0.710402
O O11 0.237845 0.414373 0.280542
O O12 0.196568 0.688731 0.420783
O O13 0.331350 0.749807 0.467462
O O14 0.320873 0.667519 0.377171
O O15 0.561121 0.000000 0.403188
O O16 0.777189 0.949464 0.778650
O O17 0.010972 0.000000 0.126931
O O18 0.500000 0.610757 0.500000
#
# Coordination Sequence:
#
# PCOD9201928 Si02
#       8
#     8   8   8   8   8   8   8   8
#     4  12  24  46  72 102 143 182 222 279 344 409
#     4  12  26  43  66 100 138 177 225 274 341 408
#     4  10  21  39  65  98 136 185 235 279 335 405
#     4  11  26  48  70  98 133 176 224 281 343 405
#     4  10  22  39  64 101 142 180 226 285 343 399
#     4  11  27  45  72 103 129 171 229 284 341 402
#     4  10  20  37  67 104 141 179 223 274 337 406
#     4  12  25  45  65  93 135 181 223 277 339 411
#
# _framework density 22.48132
#
# number of rings (size 3 to 8) (size 9 to 14) (size 15 to 20)
#    0.000    1.000    3.750    1.875    1.750    7.250 
#    0.000    2.500    0.000    0.000    0.000    0.000 
#    0.000    0.000    0.000    0.000    0.000    0.000 
#
# Total GULP energy -178531.926584 kJ/mol
# GULP energy per Si atom -5579.122706 kJ/mol
# Density = 2.243015 g / cm^3
# Si number density = 22.481320 Si / 1000 Ang^3
#
#
#
# Elastic Constant Matrix: (Units=GPa)
#
#
# Indices 1 2 3 4 5 6 
#
# 1 83.5334 42.5509 8.1307 0.0000 -4.9943 0.0000
# 2 42.5509 148.8825 21.7358 0.0000 -8.9193 0.0000
# 3 8.1307 21.7358 67.7445 0.0000 -22.7768 0.0000
# 4 0.0000 0.0000 0.0000 33.3028 0.0000 1.8472
# 5 -4.9943 -8.9193 -22.7768 0.0000 33.5248 0.0000
# 6 0.0000 0.0000 0.0000 1.8472 0.0000 -8.2494
#
#
#
# Elastic Compliance Matrix: (Units=1/GPa)
#
#
# Indices 1 2 3 4 5 6 
#
# 1 0.014047 -0.003943 -0.000091 0.000000 0.000982 0.000000
# 2 -0.003943 0.008158 -0.002089 0.000000 0.000164 0.000000
# 3 -0.000091 -0.002089 0.019766 0.000000 0.012860 0.000000
# 4 0.000000 0.000000 0.000000 0.029659 0.000000 0.006641
# 5 0.000982 0.000164 0.012860 0.000000 0.038755 0.000000
# 6 0.000000 0.000000 0.000000 0.006641 0.000000 -0.119734
#
#
# Mechanical properties :
#
#
# Convention : Reuss Voigt Hill
#
# Bulk Modulus (GPa) = 33.64033 49.44390 41.54212
# Shear Modulus (GPa) = 390.43172 26.89851 208.66512
#
# Velocity S-wave (km/s) = 13.19267 3.46277 9.64462
# Velocity P-wave (km/s) = 15.71808 6.16675 11.93916
#
# Compressibility (1/GPa) = 0.02972623
#
# Stress axis : x y z
#
# Youngs Moduli (GPa) = 71.18901 122.57382 50.59119
#
# Poissons Ratio (x) = 0.48326 0.00459
# Poissons Ratio (y) = 0.28067 0.10570
# Poissons Ratio (z) = 0.00646 0.25610
#
# Static dielectric constant tensor:
#      x y z
#    x 1.880110 0.000000 0.064420 
#    y 0.000000 1.794130 0.000000 
#    z 0.064420 0.000000 1.857320 
# 
# From -- ./inp_files/161275.got.cif
#   From: 2010.05.17/outbox.cif.g08.bks.cpg/sg12_81_cif.got.tgz:161275.got - 2010.06.03 13:09:07.
