data_PCOD9201614
_publ_section_title
;
Structure prediction by ZEFSAII (Michael W. Deem and Ramdas Pophale) SiO2 
 PCOD9201614
Probable space group: C 2/M
;
_chemical_formula_sum "Si O2"
_cell_formula_units_Z 56
_cell_length_a 25.077448
_cell_length_b 17.267492
_cell_length_c 5.413793
_cell_angle_alpha 90.000000
_cell_angle_beta 100.421457
_cell_angle_gamma 90.000000
_cell_volume 2305.633585
_symmetry_space_group_name_H-M "C 2/M"
_symmetry_group_IT_number 12
_symmetry_cell_setting 'monoclinic'
loop_
_space_group_symop_operation_xyz
x,y,z
-x,y,-z
-x,-y,-z
x,-y,z
1/2+x,1/2+y,z
1/2-x,1/2+y,-z
1/2-x,1/2-y,-z
1/2+x,1/2-y,z
loop_
_atom_site_type_symbol
_atom_site_label
_atom_site_fract_x
_atom_site_fract_y
_atom_site_fract_z
Si Si1 0.535604 0.146379 0.779434
Si Si2 0.380647 0.414586 0.899219
Si Si3 0.173678 0.797138 0.443080
Si Si4 0.185699 0.500000 0.432058
Si Si5 0.274787 0.587671 0.126237
Si Si6 0.114886 0.500000 0.874721
Si Si7 0.718013 0.156755 0.679719
Si Si8 0.965181 0.823594 0.223879
O O1 0.500000 0.135118 0.500000
O O2 0.578949 0.078005 0.836030
O O3 0.556829 0.235277 0.785551
O O4 0.500000 0.142244 0.000000
O O5 0.395829 0.500000 0.813139
O O6 0.377473 0.339869 0.717826
O O7 0.318969 0.421066 0.941781
O O8 0.419117 0.388379 0.153365
O O9 0.195005 0.855460 0.667276
O O10 0.225805 0.794229 0.301853
O O11 0.169790 0.712879 0.558416
O O12 0.148499 0.500000 0.649159
O O13 0.216570 0.581733 0.503397
O O14 0.149353 0.500000 0.156860
O O15 0.265488 0.500000 0.202255
O O16 0.221689 0.625255 0.959535
O O17 0.000000 0.835711 0.500000
O O18 0.000000 0.830565 0.000000
#
# Coordination Sequence:
#
# PCOD9201614 Si02
#       8
#     8   8   8   4   8   4   8   8
#     4  10  21  43  71  94 128 173 223 269 320 392
#     4  10  23  40  61  96 121 159 218 270 323 389
#     4  10  22  39  66  85 121 173 227 266 319 385
#     4  12  28  41  62 102 142 176 208 277 328 382
#     4  10  20  37  63  88 121 167 221 268 318 382
#     4  12  26  41  66 102 134 176 220 265 334 374
#     4  10  23  40  57  91 127 173 221 265 328 379
#     4  10  24  43  67  97 132 171 208 268 339 392
#
# _framework density 24.288333999999999
#
# number of rings (size 3 to 8) (size 9 to 14) (size 15 to 20)
#    0.000    1.714    0.714    2.143    8.000    1.714 
#    0.000    0.000    0.000    0.000    0.000    0.000 
#    0.000    0.000    0.000    0.000    0.000    0.000 
#
# Total GULP energy -156460.365852 kJ/mol
# GULP energy per Si atom -5587.870209 kJ/mol
# Density = 2.423305 g / cm^3
# Si number density = 24.288334 Si / 1000 Ang^3
#
#
#
# Elastic Constant Matrix: (Units=GPa)
#
#
# Indices 1 2 3 4 5 6 
#
# 1 49.9527 20.9654 11.0582 0.0000 1.5281 0.0000
# 2 20.9654 145.7066 50.7975 0.0000 27.8691 0.0000
# 3 11.0582 50.7975 150.2150 0.0000 14.2781 0.0000
# 4 0.0000 0.0000 0.0000 39.5850 0.0000 0.6569
# 5 1.5281 27.8691 14.2781 0.0000 34.0665 0.0000
# 6 0.0000 0.0000 0.0000 0.6569 0.0000 19.2810
#
#
#
# Elastic Compliance Matrix: (Units=1/GPa)
#
#
# Indices 1 2 3 4 5 6 
#
# 1 0.021463 -0.003228 -0.000675 0.000000 0.001961 0.000000
# 2 -0.003228 0.009390 -0.002314 0.000000 -0.006568 0.000000
# 3 -0.000675 -0.002314 0.007610 0.000000 -0.001266 0.000000
# 4 0.000000 0.000000 0.000000 0.025276 0.000000 -0.000861
# 5 0.001961 -0.006568 -0.001266 0.000000 0.035170 0.000000
# 6 0.000000 0.000000 0.000000 -0.000861 0.000000 0.051894
#
#
# Mechanical properties :
#
#
# Convention : Reuss Voigt Hill
#
# Bulk Modulus (GPa) = 38.41705 56.83517 47.62611
# Shear Modulus (GPa) = 29.08447 36.12337 32.60392
#
# Velocity S-wave (km/s) = 3.46420 3.86070 3.66781
# Velocity P-wave (km/s) = 5.64378 6.58212 6.13093
#
# Compressibility (1/GPa) = 0.02603011
#
# Stress axis : x y z
#
# Youngs Moduli (GPa) = 46.59142 106.49239 131.41392
#
# Poissons Ratio (x) = 0.34377 0.08868
# Poissons Ratio (y) = 0.15040 0.30404
# Poissons Ratio (z) = 0.03144 0.24638
#
# Static dielectric constant tensor:
#      x y z
#    x 2.021680 0.000000 -0.086910 
#    y 0.000000 1.975530 0.000000 
#    z -0.086910 0.000000 1.973280 
# 
# From -- ./inp_files/32110.got.cif
#   From: 2010.05.17/outbox.cif.g08.bks.cpg/sg12_17_cif.got.tgz:32110.got - 2010.06.03 13:09:07.
