data_PCOD9201874
_publ_section_title
;
Structure prediction by ZEFSAII (Michael W. Deem and Ramdas Pophale) SiO2 
 PCOD9201874
Probable space group: C 2/M
;
_chemical_formula_sum "Si O2"
_cell_formula_units_Z 48
_cell_length_a 9.366182
_cell_length_b 26.843003
_cell_length_c 9.374602
_cell_angle_alpha 90.000000
_cell_angle_beta 92.011187
_cell_angle_gamma 90.000000
_cell_volume 2355.477286
_symmetry_space_group_name_H-M "C 2/M"
_symmetry_group_IT_number 12
_symmetry_cell_setting 'monoclinic'
loop_
_space_group_symop_operation_xyz
x,y,z
-x,y,-z
-x,-y,-z
x,-y,z
1/2+x,1/2+y,z
1/2-x,1/2+y,-z
1/2-x,1/2-y,-z
1/2+x,1/2-y,z
loop_
_atom_site_type_symbol
_atom_site_label
_atom_site_fract_x
_atom_site_fract_y
_atom_site_fract_z
Si Si1 0.866294 0.125677 0.176141
Si Si2 0.229650 0.717466 0.643989
Si Si3 0.508348 0.264995 0.840441
Si Si4 0.335642 0.626253 0.494191
Si Si5 0.868099 0.056501 0.735115
Si Si6 0.666858 0.057503 0.980905
O O1 0.908131 0.182197 0.141213
O O2 0.793784 0.125561 0.329374
O O3 0.762627 0.097413 0.066398
O O4 0.012494 0.093821 0.197786
O O5 0.250000 0.750000 0.500000
O O6 0.356142 0.725082 0.762795
O O7 0.090326 0.732095 0.726639
O O8 0.239850 0.661501 0.587412
O O9 0.500000 0.243256 0.000000
O O10 0.500000 0.647159 0.500000
O O11 0.344319 0.573474 0.572269
O O12 0.920335 0.000000 0.747632
O O13 0.723125 0.060326 0.820720
O O14 0.696452 0.000000 0.029115
O O15 0.500000 0.066661 0.000000
#
# Coordination Sequence:
#
# PCOD9201874 Si02
#       6
#     8   8   8   8   8   8
#     4  11  21  39  66  93 126 165 216 264 318 380
#     4  12  22  45  66  90 130 178 213 267 332 391
#     4  12  25  42  66  98 131 168 220 281 323 384
#     4  10  20  39  63  92 125 161 213 265 319 378
#     4  10  20  37  65  96 127 163 209 264 319 380
#     4  10  22  41  62  91 132 172 207 256 325 391
#
# _framework density 20.378034
#
# number of rings (size 3 to 8) (size 9 to 14) (size 15 to 20)
#    0.000    1.167    5.000    3.000    0.000    5.000 
#    3.000    0.833    0.000    3.000    0.000    0.000 
#    0.000    0.000    0.000    0.000    0.000    0.000 
#
# Total GULP energy -134071.352029 kJ/mol
# GULP energy per Si atom -5586.306335 kJ/mol
# Density = 2.033165 g / cm^3
# Si number density = 20.378034 Si / 1000 Ang^3
#
#
#
# Elastic Constant Matrix: (Units=GPa)
#
#
# Indices 1 2 3 4 5 6 
#
# 1 32.7483 4.7291 -2.7781 0.0000 -15.4217 0.0000
# 2 4.7291 48.4014 -4.0061 0.0000 -16.7677 0.0000
# 3 -2.7781 -4.0061 97.0630 0.0000 -14.8000 0.0000
# 4 0.0000 0.0000 0.0000 34.5480 0.0000 0.0240
# 5 -15.4217 -16.7677 -14.8000 0.0000 33.3372 0.0000
# 6 0.0000 0.0000 0.0000 0.0240 0.0000 21.2385
#
#
#
# Elastic Compliance Matrix: (Units=1/GPa)
#
#
# Indices 1 2 3 4 5 6 
#
# 1 0.041455 0.004569 0.004987 0.000000 0.023689 0.000000
# 2 0.004569 0.026465 0.003835 0.000000 0.017127 0.000000
# 3 0.004987 0.003835 0.012066 0.000000 0.009592 0.000000
# 4 0.000000 0.000000 0.000000 0.028945 0.000000 -0.000033
# 5 0.023689 0.017127 0.009592 0.000000 0.053828 0.000000
# 6 0.000000 0.000000 0.000000 -0.000033 0.000000 0.047084
#
#
# Mechanical properties :
#
#
# Convention : Reuss Voigt Hill
#
# Bulk Modulus (GPa) = 9.36619 19.34472 14.35545
# Shear Modulus (GPa) = 22.86749 29.84258 26.35504
#
# Velocity S-wave (km/s) = 3.35351 3.83096 3.60016
# Velocity P-wave (km/s) = 4.42729 5.39276 4.93370
#
# Compressibility (1/GPa) = 0.10676698
#
# Stress axis : x y z
#
# Youngs Moduli (GPa) = 24.12270 37.78602 82.87588
#
# Poissons Ratio (x) = -0.17264 -0.41331
# Poissons Ratio (y) = -0.11022 -0.31779
# Poissons Ratio (z) = -0.12030 -0.14489
#
# Static dielectric constant tensor:
#      x y z
#    x 1.726760 0.000000 -0.022540 
#    y 0.000000 1.739770 0.000000 
#    z -0.022540 0.000000 1.752950 
# 
# From -- ./inp_files/42138.got.cif
#   From: 2010.05.17/outbox.cif.g08.bks.cpg/sg12_22_cif.got.tgz:42138.got - 2010.06.03 13:09:07.
