data_PCOD9201721
_publ_section_title
;
Structure prediction by ZEFSAII (Michael W. Deem and Ramdas Pophale) SiO2 
 PCOD9201721
Probable space group: C 2/M
;
_chemical_formula_sum "Si O2"
_cell_formula_units_Z 56
_cell_length_a 27.897974
_cell_length_b 8.733462
_cell_length_c 12.814540
_cell_angle_alpha 90.000000
_cell_angle_beta 66.380424
_cell_angle_gamma 90.000000
_cell_volume 2860.649709
_symmetry_space_group_name_H-M "C 2/M"
_symmetry_group_IT_number 12
_symmetry_cell_setting 'monoclinic'
loop_
_space_group_symop_operation_xyz
x,y,z
-x,y,-z
-x,-y,-z
x,-y,z
1/2+x,1/2+y,z
1/2-x,1/2+y,-z
1/2-x,1/2-y,-z
1/2+x,1/2-y,z
loop_
_atom_site_type_symbol
_atom_site_label
_atom_site_fract_x
_atom_site_fract_y
_atom_site_fract_z
Si Si1 0.891089 0.814943 0.754500
Si Si2 0.950690 0.676189 0.119289
Si Si3 0.612362 0.683800 0.482081
Si Si4 0.193608 0.317312 0.577526
Si Si5 0.194603 0.682612 0.012692
Si Si6 0.011086 0.816345 0.697762
Si Si7 0.656797 0.680719 0.829539
O O1 0.878680 0.771911 0.645681
O O2 0.851100 0.741122 0.870442
O O3 0.951442 0.773047 0.725173
O O4 0.887220 0.000000 0.765869
O O5 0.931863 0.500000 0.140872
O O6 0.968126 0.732259 0.217717
O O7 0.904826 0.782185 0.115985
O O8 0.000000 0.682458 0.000000
O O9 0.620019 0.500000 0.483944
O O10 0.651451 0.764220 0.528162
O O11 0.552577 0.714981 0.569431
O O12 0.195531 0.500000 0.579922
O O13 0.250000 0.250000 0.500000
O O14 0.177296 0.250705 0.703707
O O15 0.196306 0.500000 0.012989
O O16 0.250000 0.750000 0.000000
O O17 0.182455 0.741120 0.907170
O O18 0.012115 0.000000 0.714918
O O19 0.666055 0.500000 0.823787
#
# Coordination Sequence:
#
# PCOD9201721 Si02
#       7
#     8   8   8   8   8   8   8
#     4  10  22  41  66  97 134 175 221 268 322 385
#     4  11  23  38  60  93 133 173 214 266 325 388
#     4  10  21  40  66  98 135 174 217 266 320 386
#     4  12  26  44  68  98 133 173 218 270 329 390
#     4  12  27  47  69  95 129 171 220 271 328 391
#     4  10  20  37  63  95 131 173 218 263 318 386
#     4  12  25  45  70  97 129 168 219 272 328 390
#
# _framework density 19.575972
#
# number of rings (size 3 to 8) (size 9 to 14) (size 15 to 20)
#    0.000    1.000    1.429    5.571    2.000    6.286 
#    0.000    0.000    0.000    2.571    0.000    0.000 
#    0.000    0.000    0.000    0.000    0.000    0.000 
#
# Total GULP energy -156680.737732 kJ/mol
# GULP energy per Si atom -5595.740633 kJ/mol
# Density = 1.953142 g / cm^3
# Si number density = 19.575972 Si / 1000 Ang^3
#
#
#
# Elastic Constant Matrix: (Units=GPa)
#
#
# Indices 1 2 3 4 5 6 
#
# 1 131.0695 37.4300 -0.6392 0.0000 13.5367 0.0000
# 2 37.4300 65.0661 -57.0164 0.0000 15.5149 0.0000
# 3 -0.6392 -57.0164 -210.4931 0.0000 49.2774 0.0000
# 4 0.0000 0.0000 0.0000 27.8816 0.0000 -0.3458
# 5 13.5367 15.5149 49.2774 0.0000 35.9234 0.0000
# 6 0.0000 0.0000 0.0000 -0.3458 0.0000 34.8288
#
#
#
# Elastic Compliance Matrix: (Units=1/GPa)
#
#
# Indices 1 2 3 4 5 6 
#
# 1 0.009068 -0.004172 0.000548 0.000000 -0.002367 0.000000
# 2 -0.004172 0.014355 -0.003754 0.000000 0.000521 0.000000
# 3 0.000548 -0.003754 -0.002577 0.000000 0.004949 0.000000
# 4 0.000000 0.000000 0.000000 0.035870 0.000000 0.000356
# 5 -0.002367 0.000521 0.004949 0.000000 0.021715 0.000000
# 6 0.000000 0.000000 0.000000 0.000356 0.000000 0.028715
#
#
# Mechanical properties :
#
#
# Convention : Reuss Voigt Hill
#
# Bulk Modulus (GPa) = 164.14818 -6.08987 79.02915
# Shear Modulus (GPa) = 40.34492 20.11797 30.23145
#
# Velocity S-wave (km/s) = 4.54468 3.20923 3.93404
# Velocity P-wave (km/s) = 10.56280 3.25801 7.81624
#
# Compressibility (1/GPa) = 0.00609206
#
# Stress axis : x y z
#
# Youngs Moduli (GPa) = 110.27775 69.66141 -388.05632
#
# Poissons Ratio (x) = 0.29060 0.21274
# Poissons Ratio (y) = 0.46003 -1.45665
# Poissons Ratio (z) = -0.06046 0.26149
#
# Static dielectric constant tensor:
#      x y z
#    x 1.657970 0.000000 -0.003250 
#    y 0.000000 1.661710 0.000000 
#    z -0.003250 0.000000 1.624980 
# 
# From -- ./inp_files/180777.got.cif
#   From: 2010.05.17/outbox.cif.g08.bks.cpg/sg12_91_cif.got.tgz:180777.got - 2010.06.03 13:09:07.
