data_PCOD9201788
_publ_section_title
;
Structure prediction by ZEFSAII (Michael W. Deem and Ramdas Pophale) SiO2 
 PCOD9201788
Probable space group: C 2/M
;
_chemical_formula_sum "Si O2"
_cell_formula_units_Z 60
_cell_length_a 15.775495
_cell_length_b 21.943867
_cell_length_c 9.548696
_cell_angle_alpha 90.000000
_cell_angle_beta 80.627945
_cell_angle_gamma 90.000000
_cell_volume 3261.400210
_symmetry_space_group_name_H-M "C 2/M"
_symmetry_group_IT_number 12
_symmetry_cell_setting 'monoclinic'
loop_
_space_group_symop_operation_xyz
x,y,z
-x,y,-z
-x,-y,-z
x,-y,z
1/2+x,1/2+y,z
1/2-x,1/2+y,-z
1/2-x,1/2-y,-z
1/2+x,1/2-y,z
loop_
_atom_site_type_symbol
_atom_site_label
_atom_site_fract_x
_atom_site_fract_y
_atom_site_fract_z
Si Si1 0.525779 0.826782 0.154748
Si Si2 0.173421 0.114778 0.192186
Si Si3 0.053952 0.429547 0.628761
Si Si4 0.774161 0.318113 0.948063
Si Si5 0.152742 0.110443 0.772292
Si Si6 0.506939 0.310385 0.167849
Si Si7 0.364338 0.500000 0.997772
Si Si8 0.244632 0.927569 0.462762
O O1 0.486917 0.881575 0.253941
O O2 0.629028 0.824161 0.130579
O O3 0.493720 0.759956 0.211321
O O4 0.500000 0.834146 0.000000
O O5 0.196375 0.103858 0.346491
O O6 0.099411 0.164891 0.189144
O O7 0.257327 0.138765 0.086676
O O8 0.143277 0.053687 0.121180
O O9 0.049590 0.500000 0.681394
O O10 0.153542 0.414562 0.572770
O O11 0.000000 0.426818 0.500000
O O12 0.709427 0.342410 0.847550
O O13 0.750000 0.250000 0.000000
O O14 0.065316 0.144529 0.755290
O O15 0.205191 0.090681 0.622090
O O16 0.132756 0.053608 0.879806
O O17 0.500000 0.313587 0.000000
O O18 0.234829 0.000000 0.448541
#
# Coordination Sequence:
#
# PCOD9201788 Si02
#       8
#     8   8   8   8   8   8   4   8
#     4  11  22  40  63  94 123 160 205 266 312 368
#     4  11  22  39  63  95 128 169 200 263 316 363
#     4  10  23  45  67  87 121 167 203 257 324 377
#     4  11  20  39  65  89 123 161 214 256 310 369
#     4  11  23  39  64  95 120 171 214 257 307 384
#     4  11  21  40  63  90 132 162 214 255 310 369
#     4  10  20  37  64  94 117 168 213 250 308 356
#     4  11  23  42  62  92 134 160 209 262 320 374
#
# _framework density 18.397006999999999
#
# number of rings (size 3 to 8) (size 9 to 14) (size 15 to 20)
#    0.000    1.200    5.333    2.400    0.000    1.867 
#    7.200    2.000    0.000    0.000    0.000    0.000 
#    0.000    0.000    0.000    0.000    0.000    0.000 
#
# Total GULP energy -167027.511552 kJ/mol
# GULP energy per Si atom -5567.583718 kJ/mol
# Density = 1.835513 g / cm^3
# Si number density = 18.397007 Si / 1000 Ang^3
#
#
#
# Elastic Constant Matrix: (Units=GPa)
#
#
# Indices 1 2 3 4 5 6 
#
# 1 77.2239 23.6914 7.0849 0.0000 3.8970 0.0000
# 2 23.6914 112.5953 26.7296 0.0000 0.4249 0.0000
# 3 7.0849 26.7296 55.3520 0.0000 16.7631 0.0000
# 4 0.0000 0.0000 0.0000 22.7107 0.0000 -4.9729
# 5 3.8970 0.4249 16.7631 0.0000 25.2169 0.0000
# 6 0.0000 0.0000 0.0000 -4.9729 0.0000 12.7165
#
#
#
# Elastic Compliance Matrix: (Units=1/GPa)
#
#
# Indices 1 2 3 4 5 6 
#
# 1 0.013960 -0.003020 0.000388 0.000000 -0.002364 0.000000
# 2 -0.003020 0.010988 -0.006266 0.000000 0.004447 0.000000
# 3 0.000388 -0.006266 0.026329 0.000000 -0.017457 0.000000
# 4 0.000000 0.000000 0.000000 0.048156 0.000000 0.018832
# 5 -0.002364 0.004447 -0.017457 0.000000 0.051551 0.000000
# 6 0.000000 0.000000 0.000000 0.018832 0.000000 0.086002
#
#
# Mechanical properties :
#
#
# Convention : Reuss Voigt Hill
#
# Bulk Modulus (GPa) = 29.86946 40.02034 34.94490
# Shear Modulus (GPa) = 18.80101 24.63982 21.72042
#
# Velocity S-wave (km/s) = 3.20028 3.66367 3.43979
# Velocity P-wave (km/s) = 5.47056 6.30060 5.90019
#
# Compressibility (1/GPa) = 0.03347901
#
# Stress axis : x y z
#
# Youngs Moduli (GPa) = 71.63460 91.01107 37.98052
#
# Poissons Ratio (x) = 0.27489 -0.01473
# Poissons Ratio (y) = 0.21637 0.23799
# Poissons Ratio (z) = -0.02778 0.57029
#
# Static dielectric constant tensor:
#      x y z
#    x 1.671720 0.000000 -0.011120 
#    y 0.000000 1.620990 0.000000 
#    z -0.011120 0.000000 1.606120 
# 
# From -- ./inp_files/77459.got.cif
#   From: 2010.05.17/outbox.cif.g08.bks.cpg/sg12_39_cif.got.tgz:77459.got - 2010.06.03 13:09:07.
