data_PCOD9201881
_publ_section_title
;
Structure prediction by ZEFSAII (Michael W. Deem and Ramdas Pophale) SiO2 
 PCOD9201881
Probable space group: C 2/M
;
_chemical_formula_sum "Si O2"
_cell_formula_units_Z 48
_cell_length_a 13.486761
_cell_length_b 21.289179
_cell_length_c 7.505971
_cell_angle_alpha 90.000000
_cell_angle_beta 72.292898
_cell_angle_gamma 90.000000
_cell_volume 2053.028032
_symmetry_space_group_name_H-M "C 2/M"
_symmetry_group_IT_number 12
_symmetry_cell_setting 'monoclinic'
loop_
_space_group_symop_operation_xyz
x,y,z
-x,y,-z
-x,-y,-z
x,-y,z
1/2+x,1/2+y,z
1/2-x,1/2+y,-z
1/2-x,1/2-y,-z
1/2+x,1/2-y,z
loop_
_atom_site_type_symbol
_atom_site_label
_atom_site_fract_x
_atom_site_fract_y
_atom_site_fract_z
Si Si1 0.972742 0.928863 0.227406
Si Si2 0.305423 0.849871 0.890182
Si Si3 0.106413 0.799309 0.828358
Si Si4 0.472947 0.185873 0.317742
Si Si5 0.201164 0.071384 0.249512
Si Si6 0.661372 0.927491 0.488399
O O1 0.078899 0.918371 0.280607
O O2 0.907259 0.864609 0.273226
O O3 0.933147 0.000000 0.293738
O O4 0.000000 0.932544 0.000000
O O5 0.211694 0.804914 0.882016
O O6 0.418572 0.819138 0.846485
O O7 0.316522 0.898905 0.718436
O O8 0.267529 0.883663 0.087729
O O9 0.106527 0.735641 0.717502
O O10 0.000000 0.797281 0.000000
O O11 0.500000 0.209809 0.500000
O O12 0.424574 0.117218 0.373501
O O13 0.242415 0.075686 0.426956
O O14 0.220754 0.000000 0.177230
O O15 0.629853 0.000000 0.491511
#
# Coordination Sequence:
#
# PCOD9201881 Si02
#       6
#     8   8   8   8   8   8
#     4   9  17  34  59  91 129 164 210 265 315 379
#     4  11  23  42  68  93 126 180 216 267 333 386
#     4  11  23  40  64  99 128 172 218 266 323 390
#     4  10  26  44  63  94 133 173 220 272 325 390
#     4  10  20  37  65  97 129 168 213 269 324 385
#     4  10  24  44  66  99 134 167 222 276 321 388
#
# _framework density 23.380101
#
# number of rings (size 3 to 8) (size 9 to 14) (size 15 to 20)
#    0.000    1.833    3.333    0.500    2.333   10.333 
#    0.000    1.667    0.000    3.500    0.000    0.000 
#    0.000    0.000    0.000    0.000    0.000    0.000 
#
# Total GULP energy -134237.235472 kJ/mol
# GULP energy per Si atom -5593.218145 kJ/mol
# Density = 2.332689 g / cm^3
# Si number density = 23.380101 Si / 1000 Ang^3
#
#
#
# Elastic Constant Matrix: (Units=GPa)
#
#
# Indices 1 2 3 4 5 6 
#
# 1 81.7120 45.6956 25.4407 0.0000 4.1655 0.0000
# 2 45.6956 143.6377 43.4374 0.0000 -2.9035 0.0000
# 3 25.4407 43.4374 60.5092 0.0000 -8.3607 0.0000
# 4 0.0000 0.0000 0.0000 72.7817 0.0000 -7.4990
# 5 4.1655 -2.9035 -8.3607 0.0000 35.9383 0.0000
# 6 0.0000 0.0000 0.0000 -7.4990 0.0000 46.9400
#
#
#
# Elastic Compliance Matrix: (Units=1/GPa)
#
#
# Indices 1 2 3 4 5 6 
#
# 1 0.015888 -0.003788 -0.004399 0.000000 -0.003171 0.000000
# 2 -0.003788 0.009818 -0.005460 0.000000 -0.000038 0.000000
# 3 -0.004399 -0.005460 0.023046 0.000000 0.005430 0.000000
# 4 0.000000 0.000000 0.000000 0.013970 0.000000 0.002232
# 5 -0.003171 -0.000038 0.005430 0.000000 0.029453 0.000000
# 6 0.000000 0.000000 0.000000 0.002232 0.000000 0.021660
#
#
# Mechanical properties :
#
#
# Convention : Reuss Voigt Hill
#
# Bulk Modulus (GPa) = 46.60481 57.22291 51.91386
# Shear Modulus (GPa) = 33.71984 42.55101 38.13542
#
# Velocity S-wave (km/s) = 3.80181 4.27073 4.04308
# Velocity P-wave (km/s) = 6.26486 6.98907 6.63685
#
# Compressibility (1/GPa) = 0.02145701
#
# Stress axis : x y z
#
# Youngs Moduli (GPa) = 62.94158 101.85795 43.39201
#
# Poissons Ratio (x) = 0.38587 0.19086
# Poissons Ratio (y) = 0.23844 0.23693
# Poissons Ratio (z) = 0.27685 0.55616
#
# Static dielectric constant tensor:
#      x y z
#    x 1.938370 0.000000 -0.034150 
#    y 0.000000 1.868290 0.000000 
#    z -0.034150 0.000000 1.919410 
# 
# From -- ./inp_files/63351.got.cif
#   From: 2010.05.17/outbox.cif.g08.bks.cpg/sg12_32_cif.got.tgz:63351.got - 2010.06.03 13:09:07.
