data_PCOD9201791
_publ_section_title
;
Structure prediction by ZEFSAII (Michael W. Deem and Ramdas Pophale) SiO2 
 PCOD9201791
Probable space group: C 2/M
;
_chemical_formula_sum "Si O2"
_cell_formula_units_Z 48
_cell_length_a 19.766123
_cell_length_b 9.090203
_cell_length_c 15.578593
_cell_angle_alpha 90.000000
_cell_angle_beta 47.658393
_cell_angle_gamma 90.000000
_cell_volume 2068.956162
_symmetry_space_group_name_H-M "C 2/M"
_symmetry_group_IT_number 12
_symmetry_cell_setting 'monoclinic'
loop_
_space_group_symop_operation_xyz
x,y,z
-x,y,-z
-x,-y,-z
x,-y,z
1/2+x,1/2+y,z
1/2-x,1/2+y,-z
1/2-x,1/2-y,-z
1/2+x,1/2-y,z
loop_
_atom_site_type_symbol
_atom_site_label
_atom_site_fract_x
_atom_site_fract_y
_atom_site_fract_z
Si Si1 0.202156 0.766320 0.823562
Si Si2 0.362022 0.176380 0.806297
Si Si3 0.892912 0.661791 0.250040
Si Si4 0.580521 0.333862 0.082731
Si Si5 0.531574 0.672478 0.572281
Si Si6 0.224465 0.335029 0.419429
O O1 0.285975 0.737588 0.815853
O O2 0.149392 0.649645 0.809663
O O3 0.248477 0.852425 0.705203
O O4 0.125267 0.834205 0.950562
O O5 0.361652 0.227406 0.904923
O O6 0.459617 0.231237 0.687380
O O7 0.348771 0.000000 0.809046
O O8 0.919966 0.500000 0.257717
O O9 0.811303 0.736023 0.374778
O O10 0.978347 0.770194 0.170649
O O11 0.582311 0.500000 0.114892
O O12 0.500000 0.678740 0.500000
O O13 0.532610 0.500000 0.596908
O O14 0.630714 0.745061 0.497518
O O15 0.219906 0.500000 0.459126
#
# Coordination Sequence:
#
# PCOD9201791 Si02
#       6
#     8   8   8   8   8   8
#     4  10  24  39  68  93 128 167 217 259 314 374
#     4  12  25  42  64  94 131 170 212 261 319 379
#     4  10  23  41  64  95 128 167 215 264 313 375
#     4  12  25  42  63  92 133 173 212 261 318 379
#     4  11  22  38  62  93 126 163 210 263 315 373
#     4  10  20  37  64  94 121 157 209 260 309 366
#
# _framework density 23.200104
#
# number of rings (size 3 to 8) (size 9 to 14) (size 15 to 20)
#    1.000    0.167    1.667    5.000    0.000    4.667 
#    0.000    0.833    0.000    0.000    0.000    0.000 
#    0.000    0.000    0.000    0.000    0.000    0.000 
#
# Total GULP energy -133983.244078 kJ/mol
# GULP energy per Si atom -5582.635170 kJ/mol
# Density = 2.314730 g / cm^3
# Si number density = 23.200104 Si / 1000 Ang^3
#
#
#
# Elastic Constant Matrix: (Units=GPa)
#
#
# Indices 1 2 3 4 5 6 
#
# 1 92.3932 32.0667 21.2178 0.0000 -7.1047 0.0000
# 2 32.0667 94.6357 16.4241 0.0000 1.1987 0.0001
# 3 21.2178 16.4241 106.3839 0.0000 -18.2318 0.0000
# 4 0.0000 0.0000 0.0000 -275.8574 0.0000 389.0800
# 5 -7.1047 1.1987 -18.2318 0.0000 47.6627 -0.0001
# 6 0.0000 0.0001 0.0000 389.0800 -0.0001 -516.9070
#
#
#
# Elastic Compliance Matrix: (Units=1/GPa)
#
#
# Indices 1 2 3 4 5 6 
#
# 1 0.012713 -0.004033 -0.001681 0.000000 0.001353 0.000000
# 2 -0.004033 0.012180 -0.001318 0.000000 -0.001412 0.000000
# 3 -0.001681 -0.001318 0.010596 0.000000 0.003836 0.000000
# 4 0.000000 0.000000 0.000000 0.058802 0.000000 0.044261
# 5 0.001353 -0.001412 0.003836 0.000000 0.022685 0.000000
# 6 0.000000 0.000000 0.000000 0.044261 0.000000 0.031381
#
#
# Mechanical properties :
#
#
# Convention : Reuss Voigt Hill
#
# Bulk Modulus (GPa) = 46.67431 48.09222 47.38327
# Shear Modulus (GPa) = 29.48750 -134.10673 -52.30961
#
# Velocity S-wave (km/s) = 3.56899 -7.61117 -4.75353
# Velocity P-wave (km/s) = 6.09470 7.51435 3.10806
#
# Compressibility (1/GPa) = 0.02142506
#
# Stress axis : x y z
#
# Youngs Moduli (GPa) = 78.65829 82.10130 94.37518
#
# Poissons Ratio (x) = 0.33113 0.15864
# Poissons Ratio (y) = 0.31725 0.12438
# Poissons Ratio (z) = 0.13222 0.10820
#
# Static dielectric constant tensor:
#      x y z
#    x 1.884270 0.000000 0.045650 
#    y 0.000000 1.554180 0.000000 
#    z 0.045650 0.000000 1.900100 
# 
# From -- ./inp_files/323495.got.cif
#   From: 2010.05.17/outbox.cif.g08.bks.cpg/sg12_162_cif.got.tgz:323495.got - 2010.06.03 13:09:07.
