data_PCOD9201152
_publ_section_title
;
Structure prediction by ZEFSAII (Michael W. Deem and Ramdas Pophale) SiO2 
 PCOD9201152
Probable space group: C 2/M
;
_chemical_formula_sum "Si O2"
_cell_formula_units_Z 64
_cell_length_a 18.503434
_cell_length_b 8.831222
_cell_length_c 31.210737
_cell_angle_alpha 90.000000
_cell_angle_beta 138.016320
_cell_angle_gamma 90.000000
_cell_volume 3411.541282
_symmetry_space_group_name_H-M "C 2/M"
_symmetry_group_IT_number 12
_symmetry_cell_setting 'monoclinic'
loop_
_space_group_symop_operation_xyz
x,y,z
-x,y,-z
-x,-y,-z
x,-y,z
1/2+x,1/2+y,z
1/2-x,1/2+y,-z
1/2-x,1/2-y,-z
1/2+x,1/2-y,z
loop_
_atom_site_type_symbol
_atom_site_label
_atom_site_fract_x
_atom_site_fract_y
_atom_site_fract_z
Si Si1 0.842925 0.180155 0.308769
Si Si2 0.426125 0.180112 0.575224
Si Si3 0.775873 0.318702 0.188487
Si Si4 0.316528 0.680861 0.691964
Si Si5 0.448689 0.817669 0.191138
Si Si6 0.867256 0.682360 0.060592
Si Si7 0.541905 0.817322 0.065876
Si Si8 0.734248 0.318892 0.427561
O O1 0.818708 0.248615 0.251439
O O2 0.753520 0.240018 0.302360
O O3 0.960324 0.236098 0.375602
O O4 0.839514 0.000000 0.304964
O O5 0.358207 0.232436 0.586821
O O6 0.348198 0.215598 0.500617
O O7 0.443978 0.000000 0.584454
O O8 0.772635 0.500000 0.190952
O O9 0.857490 0.279749 0.185846
O O10 0.656948 0.256667 0.126076
O O11 0.311504 0.500000 0.695352
O O12 0.439374 0.736971 0.748796
O O13 0.270689 0.717946 0.624581
O O14 0.409196 0.774720 0.126216
O O15 0.464797 0.000000 0.198978
O O16 0.859351 0.500000 0.055849
O O17 0.953673 0.728665 0.062524
O O18 0.750000 0.750000 0.000000
O O19 0.553497 0.000000 0.073045
O O20 0.500000 0.777713 0.000000
O O21 0.715932 0.500000 0.424317
#
# Coordination Sequence:
#
# PCOD9201152 Si02
#       8
#     8   8   8   8   8   8   8   8
#     4  12  25  40  58  82 116 153 191 239 295 350
#     4  10  20  37  61  87 117 152 193 238 283 340
#     4  11  23  39  61  87 114 150 198 245 291 345
#     4  11  23  39  60  86 115 150 193 236 284 344
#     4  10  22  39  58  84 117 151 189 237 289 338
#     4  10  21  37  57  82 114 150 188 233 285 338
#     4  10  21  37  58  86 120 157 196 238 288 344
#     4   9  20  38  60  87 118 152 190 236 288 340
#
# _framework density 18.759848999999999
#
# number of rings (size 3 to 8) (size 9 to 14) (size 15 to 20)
#    0.000    1.625    0.000    4.500    0.000    7.250 
#    0.000    2.500    0.000    0.000    0.000    0.000 
#    0.000    0.000    0.000    0.000    0.000    0.000 
#
# Total GULP energy -178922.624389 kJ/mol
# GULP energy per Si atom -5591.332012 kJ/mol
# Density = 1.871715 g / cm^3
# Si number density = 18.759849 Si / 1000 Ang^3
#
#
#
# Elastic Constant Matrix: (Units=GPa)
#
#
# Indices 1 2 3 4 5 6 
#
# 1 180.0803 66.6498 103.5190 0.0000 -0.3793 0.0000
# 2 66.6498 51.7902 57.1070 0.0000 1.7968 0.0000
# 3 103.5190 57.1070 132.3382 0.0000 0.8229 0.0000
# 4 0.0000 0.0000 0.0000 34.7265 0.0000 9.9710
# 5 -0.3793 1.7968 0.8229 0.0000 39.6604 0.0000
# 6 0.0000 0.0000 0.0000 9.9710 0.0000 26.1181
#
#
#
# Elastic Compliance Matrix: (Units=1/GPa)
#
#
# Indices 1 2 3 4 5 6 
#
# 1 0.012317 -0.010008 -0.005320 0.000000 0.000682 0.000000
# 2 -0.010008 0.045040 -0.011595 0.000000 -0.001896 0.000000
# 3 -0.005320 -0.011595 0.016721 0.000000 0.000127 0.000000
# 4 0.000000 0.000000 0.000000 0.032342 0.000000 -0.012347
# 5 0.000682 -0.001896 0.000127 0.000000 0.025304 0.000000
# 6 0.000000 0.000000 0.000000 -0.012347 0.000000 0.043001
#
#
# Mechanical properties :
#
#
# Convention : Reuss Voigt Hill
#
# Bulk Modulus (GPa) = 49.43060 90.97336 70.20198
# Shear Modulus (GPa) = 21.24811 29.22987 25.23899
#
# Velocity S-wave (km/s) = 3.36912 3.95157 3.67191
# Velocity P-wave (km/s) = 6.44523 8.33179 7.44848
#
# Compressibility (1/GPa) = 0.02023038
#
# Stress axis : x y z
#
# Youngs Moduli (GPa) = 81.18885 22.20257 59.80582
#
# Poissons Ratio (x) = 0.22221 0.31818
# Poissons Ratio (y) = 0.81256 0.69346
# Poissons Ratio (z) = 0.43194 0.25744
#
# Static dielectric constant tensor:
#      x y z
#    x 1.617490 0.000000 -0.013020 
#    y 0.000000 1.627500 0.000000 
#    z -0.013020 0.000000 1.620790 
# 
# From -- ./inp_files/378328.got.cif
#   From: 2010.05.17/outbox.cif.g08.bks.cpg/sg12_190_cif.got.tgz:378328.got - 2010.06.03 13:09:07.
