data_PCOD9201855
_publ_section_title
;
Structure prediction by ZEFSAII (Michael W. Deem and Ramdas Pophale) SiO2 
 PCOD9201855
Probable space group: C 2/M
;
_chemical_formula_sum "Si O2"
_cell_formula_units_Z 40
_cell_length_a 9.118913
_cell_length_b 22.643208
_cell_length_c 9.185425
_cell_angle_alpha 90.000000
_cell_angle_beta 99.876676
_cell_angle_gamma 90.000000
_cell_volume 1868.510456
_symmetry_space_group_name_H-M "C 2/M"
_symmetry_group_IT_number 12
_symmetry_cell_setting 'monoclinic'
loop_
_space_group_symop_operation_xyz
x,y,z
-x,y,-z
-x,-y,-z
x,-y,z
1/2+x,1/2+y,z
1/2-x,1/2+y,-z
1/2-x,1/2-y,-z
1/2+x,1/2-y,z
loop_
_atom_site_type_symbol
_atom_site_label
_atom_site_fract_x
_atom_site_fract_y
_atom_site_fract_z
Si Si1 0.245199 0.000000 0.153495
Si Si2 0.783609 0.810542 0.713323
Si Si3 0.947170 0.886052 0.336743
Si Si4 0.431479 0.119655 0.150596
Si Si5 0.918294 0.000000 0.182140
Si Si6 0.668796 0.816448 0.372980
O O1 0.347767 0.941688 0.173964
O O2 0.099769 0.000000 0.233633
O O3 0.153548 0.000000 0.987829
O O4 0.687686 0.827663 0.837902
O O5 0.678105 0.813744 0.550166
O O6 0.859286 0.746780 0.706716
O O7 0.912126 0.859456 0.722361
O O8 0.867393 0.938719 0.241348
O O9 0.835453 0.833498 0.353807
O O10 0.000000 0.910586 0.500000
O O11 0.561114 0.134690 0.287751
O O12 0.500000 0.118846 0.000000
#
# Coordination Sequence:
#
# PCOD9201855 Si02
#       6
#     4   8   8   8   4   8
#     4  11  25  42  64  82 126 176 208 254 320 374
#     4  10  21  42  65  93 128 168 204 247 319 378
#     4  10  20  37  65  92 117 158 215 260 304 374
#     4  12  24  41  62  95 130 165 214 259 309 368
#     4  11  21  42  63  85 119 170 210 256 315 378
#     4  10  22  40  67  94 128 164 201 260 317 373
#
# _framework density 21.407425
#
# number of rings (size 3 to 8) (size 9 to 14) (size 15 to 20)
#    0.000    1.400    2.000    3.600    0.000    4.800 
#    0.000    5.000    0.000    0.000    0.000    0.000 
#    0.000    0.000    0.000    0.000    0.000    0.000 
#
# Total GULP energy -111605.526322 kJ/mol
# GULP energy per Si atom -5580.276316 kJ/mol
# Density = 2.135870 g / cm^3
# Si number density = 21.407425 Si / 1000 Ang^3
#
#
#
# Elastic Constant Matrix: (Units=GPa)
#
#
# Indices 1 2 3 4 5 6 
#
# 1 74.7487 17.3346 19.0011 0.0000 -10.8597 0.0000
# 2 17.3346 113.1453 25.5957 0.0000 0.2727 0.0000
# 3 19.0011 25.5957 24.7829 0.0000 -4.8302 0.0000
# 4 0.0000 0.0000 0.0000 30.9843 0.0000 16.5375
# 5 -10.8597 0.2727 -4.8302 0.0000 39.5090 0.0000
# 6 0.0000 0.0000 0.0000 16.5375 0.0000 29.0659
#
#
#
# Elastic Compliance Matrix: (Units=1/GPa)
#
#
# Indices 1 2 3 4 5 6 
#
# 1 0.016997 0.000260 -0.012692 0.000000 0.003119 0.000000
# 2 0.000260 0.011633 -0.012513 0.000000 -0.001539 0.000000
# 3 -0.012692 -0.012513 0.063864 0.000000 0.004405 0.000000
# 4 0.000000 0.000000 0.000000 0.046350 0.000000 -0.026372
# 5 0.003119 -0.001539 0.004405 0.000000 0.026717 0.000000
# 6 0.000000 0.000000 0.000000 -0.026372 0.000000 0.049409
#
#
# Mechanical properties :
#
#
# Convention : Reuss Voigt Hill
#
# Bulk Modulus (GPa) = 23.47298 37.39331 30.43314
# Shear Modulus (GPa) = 17.91710 29.96155 23.93933
#
# Velocity S-wave (km/s) = 2.89616 3.74516 3.34769
# Velocity P-wave (km/s) = 4.70875 6.01723 5.40275
#
# Compressibility (1/GPa) = 0.04260218
#
# Stress axis : x y z
#
# Youngs Moduli (GPa) = 58.83264 85.96304 15.65831
#
# Poissons Ratio (x) = -0.02232 0.19874
# Poissons Ratio (y) = -0.01527 0.19594
# Poissons Ratio (z) = 0.74672 1.07569
#
# Static dielectric constant tensor:
#      x y z
#    x 1.823910 0.000000 -0.035410 
#    y 0.000000 1.763000 0.000000 
#    z -0.035410 0.000000 1.779170 
# 
# From -- ./inp_files/39488.got.cif
#   From: 2010.05.17/outbox.cif.g08.bks.cpg/sg12_20_cif.got.tgz:39488.got - 2010.06.03 13:09:07.
