data_PCOD9201393
_publ_section_title
;
Structure prediction by ZEFSAII (Michael W. Deem and Ramdas Pophale) SiO2 
 PCOD9201393
Probable space group: C 2/M
;
_chemical_formula_sum "Si O2"
_cell_formula_units_Z 56
_cell_length_a 15.350410
_cell_length_b 7.889851
_cell_length_c 25.024839
_cell_angle_alpha 90.000000
_cell_angle_beta 62.902194
_cell_angle_gamma 90.000000
_cell_volume 2698.127199
_symmetry_space_group_name_H-M "C 2/M"
_symmetry_group_IT_number 12
_symmetry_cell_setting 'monoclinic'
loop_
_space_group_symop_operation_xyz
x,y,z
-x,y,-z
-x,-y,-z
x,-y,z
1/2+x,1/2+y,z
1/2-x,1/2+y,-z
1/2-x,1/2-y,-z
1/2+x,1/2-y,z
loop_
_atom_site_type_symbol
_atom_site_label
_atom_site_fract_x
_atom_site_fract_y
_atom_site_fract_z
Si Si1 0.903436 0.304462 0.988558
Si Si2 0.722587 0.208754 0.881513
Si Si3 0.077426 0.205185 0.433066
Si Si4 0.062987 0.801144 0.209915
Si Si5 0.460674 0.201881 0.137296
Si Si6 0.726122 0.795604 0.567630
Si Si7 0.989274 0.700818 0.344913
O O1 0.876046 0.500000 0.985484
O O2 0.946254 0.226057 0.922328
O O3 0.817187 0.231856 0.049407
O O4 0.000000 0.306177 0.000000
O O5 0.830340 0.269053 0.836150
O O6 0.640825 0.262063 0.860553
O O7 0.722401 0.000000 0.882256
O O8 0.184606 0.264006 0.420702
O O9 0.000000 0.261628 0.500000
O O10 0.047061 0.264290 0.383208
O O11 0.076136 0.000000 0.433447
O O12 0.979568 0.730924 0.194008
O O13 0.039347 0.772677 0.278249
O O14 0.066272 0.000000 0.198918
O O15 0.461609 0.000000 0.127661
O O16 0.750000 0.750000 0.500000
O O17 0.620545 0.730237 0.615144
O O18 0.723503 0.000000 0.571170
O O19 0.982603 0.500000 0.338930
#
# Coordination Sequence:
#
# PCOD9201393 Si02
#       7
#     8   8   8   8   8   8   8
#     4   7  11  24  50  80 103 131 177 228 273 321
#     4   8  16  32  54  78 106 143 184 224 272 330
#     4  10  20  37  62  88 113 140 171 214 270 324
#     4  11  23  37  53  76 110 149 185 224 271 324
#     4   9  17  33  57  80 105 139 183 231 274 323
#     4  10  21  37  60  87 113 141 172 213 265 319
#     4  11  24  40  57  81 113 146 185 225 262 316
#
# _framework density 20.755137000000001
#
# number of rings (size 3 to 8) (size 9 to 14) (size 15 to 20)
#    0.000    2.571    1.429    2.571    0.000    3.143 
#    0.000    7.143    0.000    4.714    0.000    0.000 
#    0.000    0.000    0.000    0.000    0.000    0.000 
#
# Total GULP energy -156240.823616 kJ/mol
# GULP energy per Si atom -5580.029415 kJ/mol
# Density = 2.070790 g / cm^3
# Si number density = 20.755137 Si / 1000 Ang^3
#
#
#
# Elastic Constant Matrix: (Units=GPa)
#
#
# Indices 1 2 3 4 5 6 
#
# 1 95.0115 4.0192 20.9403 0.0000 0.3127 0.0000
# 2 4.0192 20.0936 -5.2740 0.0000 -3.6276 0.0000
# 3 20.9403 -5.2740 72.4300 0.0000 5.1846 0.0000
# 4 0.0000 0.0000 0.0000 3.5791 0.0000 -5.4132
# 5 0.3127 -3.6276 5.1846 0.0000 33.1193 0.0000
# 6 0.0000 0.0000 0.0000 -5.4132 0.0000 10.7566
#
#
#
# Elastic Compliance Matrix: (Units=1/GPa)
#
#
# Indices 1 2 3 4 5 6 
#
# 1 0.011442 -0.003203 -0.003548 0.000000 0.000097 0.000000
# 2 -0.003203 0.052477 0.004383 0.000002 0.005092 0.000001
# 3 -0.003548 0.004383 0.015286 0.000000 -0.001879 0.000000
# 4 0.000000 0.000002 0.000000 1.169634 0.000000 0.588611
# 5 0.000097 0.005092 -0.001879 0.000000 0.031045 0.000000
# 6 0.000000 0.000001 0.000000 0.588611 0.000000 0.389180
#
#
# Mechanical properties :
#
#
# Convention : Reuss Voigt Hill
#
# Bulk Modulus (GPa) = 13.42843 25.21180 19.32011
# Shear Modulus (GPa) = 2.94356 20.68098 11.81227
#
# Velocity S-wave (km/s) = 1.19219 3.16005 2.38822
# Velocity P-wave (km/s) = 2.89466 5.04858 4.11505
#
# Compressibility (1/GPa) = 0.07446888
#
# Stress axis : x y z
#
# Youngs Moduli (GPa) = 87.39572 19.05590 65.41980
#
# Poissons Ratio (x) = 0.06103 0.23212
# Poissons Ratio (y) = 0.27989 -0.28670
# Poissons Ratio (z) = 0.31010 -0.08351
#
# Static dielectric constant tensor:
#      x y z
#    x 1.749280 0.000000 -0.022250 
#    y 0.000000 1.777180 0.000000 
#    z -0.022250 0.000000 1.731330 
# 
# From -- ./inp_files/337832.got.cif
#   From: 2010.05.17/outbox.cif.g08.bks.cpg/sg12_169_cif.got.tgz:337832.got - 2010.06.03 13:09:07.
