data_PCOD9201682
_publ_section_title
;
Structure prediction by ZEFSAII (Michael W. Deem and Ramdas Pophale) SiO2 
 PCOD9201682
Probable space group: C 2/M
;
_chemical_formula_sum "Si O2"
_cell_formula_units_Z 56
_cell_length_a 29.495795
_cell_length_b 20.339932
_cell_length_c 8.368773
_cell_angle_alpha 90.000000
_cell_angle_beta 149.243136
_cell_angle_gamma 90.000000
_cell_volume 2567.608179
_symmetry_space_group_name_H-M "C 2/M"
_symmetry_group_IT_number 12
_symmetry_cell_setting 'monoclinic'
loop_
_space_group_symop_operation_xyz
x,y,z
-x,y,-z
-x,-y,-z
x,-y,z
1/2+x,1/2+y,z
1/2-x,1/2+y,-z
1/2-x,1/2-y,-z
1/2+x,1/2-y,z
loop_
_atom_site_type_symbol
_atom_site_label
_atom_site_fract_x
_atom_site_fract_y
_atom_site_fract_z
Si Si1 0.323862 0.100057 0.728360
Si Si2 0.123230 0.926655 0.157209
Si Si3 0.179995 0.419049 0.919784
Si Si4 0.169372 0.735933 0.377068
Si Si5 0.984199 0.573626 0.784893
Si Si6 0.651284 0.653650 0.567883
Si Si7 0.483640 0.308568 0.272510
O O1 0.226341 0.069672 0.417072
O O2 0.328224 0.158078 0.612926
O O3 0.323225 0.114723 0.915840
O O4 0.419343 0.067057 0.999603
O O5 0.119763 0.892750 0.323060
O O6 0.086404 0.000000 0.050291
O O7 0.072503 0.876286 0.890003
O O8 0.185767 0.500000 0.955613
O O9 0.091200 0.399578 0.557997
O O10 0.268296 0.387632 0.111400
O O11 0.250000 0.750000 0.500000
O O12 0.180626 0.778512 0.570092
O O13 0.077802 0.759482 0.016698
O O14 0.949026 0.500000 0.716144
O O15 0.000000 0.609222 0.000000
O O16 0.572942 0.672787 0.449463
O O17 0.500000 0.283095 0.500000
#
# Coordination Sequence:
#
# PCOD9201682 Si02
#       7
#     8   8   8   8   8   8   8
#     4  11  20  36  64  88 117 154 208 258 309 361
#     4  10  20  37  65  92 119 163 206 251 313 369
#     4  10  20  37  63  93 122 161 207 253 306 369
#     4  11  20  42  65  86 120 160 203 260 305 362
#     4  10  22  37  54  86 128 163 202 252 304 364
#     4  10  21  40  65  90 124 160 208 255 305 368
#     4  11  25  41  60  92 128 161 204 254 305 369
#
# _framework density 21.810182000000001
#
# number of rings (size 3 to 8) (size 9 to 14) (size 15 to 20)
#    0.000    1.571    4.286    4.714    0.000    6.571 
#    0.000    2.143    0.000    0.000    0.000    0.000 
#    0.000    0.000    0.000    0.000    0.000    0.000 
#
# Total GULP energy -156062.198192 kJ/mol
# GULP energy per Si atom -5573.649935 kJ/mol
# Density = 2.176054 g / cm^3
# Si number density = 21.810182 Si / 1000 Ang^3
#
#
#
# Elastic Constant Matrix: (Units=GPa)
#
#
# Indices 1 2 3 4 5 6 
#
# 1 80.5018 6.5433 43.7991 0.0000 31.2523 0.0000
# 2 6.5433 64.4196 -2.5357 0.0000 -0.4953 0.0000
# 3 43.7991 -2.5357 72.7591 0.0000 21.2084 0.0000
# 4 0.0000 0.0000 0.0000 19.5197 0.0000 14.0430
# 5 31.2523 -0.4953 21.2084 0.0000 33.8947 0.0000
# 6 0.0000 0.0000 0.0000 14.0430 0.0000 23.0502
#
#
#
# Elastic Compliance Matrix: (Units=1/GPa)
#
#
# Indices 1 2 3 4 5 6 
#
# 1 0.024490 -0.003010 -0.010093 0.000000 -0.016309 0.000000
# 2 -0.003010 0.015915 0.001822 0.000000 0.001868 0.000000
# 3 -0.010093 0.001822 0.020991 0.000000 -0.003802 0.000000
# 4 0.000000 0.000000 0.000000 0.091206 0.000000 -0.055566
# 5 -0.016309 0.001868 -0.003802 0.000000 0.046947 0.000000
# 6 0.000000 0.000000 0.000000 -0.055566 0.000000 0.077236
#
#
# Mechanical properties :
#
#
# Convention : Reuss Voigt Hill
#
# Bulk Modulus (GPa) = 25.75065 34.81045 30.28055
# Shear Modulus (GPa) = 16.01067 26.61783 21.31425
#
# Velocity S-wave (km/s) = 2.71235 3.49726 3.12951
# Velocity P-wave (km/s) = 4.65204 5.68358 5.19348
#
# Compressibility (1/GPa) = 0.03883396
#
# Stress axis : x y z
#
# Youngs Moduli (GPa) = 40.83351 62.83348 47.63840
#
# Poissons Ratio (x) = 0.18914 0.48082
# Poissons Ratio (y) = 0.12292 -0.08681
# Poissons Ratio (z) = 0.41214 -0.11450
#
# Static dielectric constant tensor:
#      x y z
#    x 1.806980 0.000000 0.015180 
#    y 0.000000 1.833980 0.000000 
#    z 0.015180 0.000000 1.846970 
# 
# From -- ./inp_files/113410.got.cif
#   From: 2010.05.17/outbox.cif.g08.bks.cpg/sg12_57_cif.got.tgz:113410.got - 2010.06.03 13:09:07.
