data_PCOD9201392
_publ_section_title
;
Structure prediction by ZEFSAII (Michael W. Deem and Ramdas Pophale) SiO2 
 PCOD9201392
Probable space group: C 2/M
;
_chemical_formula_sum "Si O2"
_cell_formula_units_Z 52
_cell_length_a 12.608908
_cell_length_b 24.210076
_cell_length_c 12.211246
_cell_angle_alpha 90.000000
_cell_angle_beta 47.673793
_cell_angle_gamma 90.000000
_cell_volume 2755.928421
_symmetry_space_group_name_H-M "C 2/M"
_symmetry_group_IT_number 12
_symmetry_cell_setting 'monoclinic'
loop_
_space_group_symop_operation_xyz
x,y,z
-x,y,-z
-x,-y,-z
x,-y,z
1/2+x,1/2+y,z
1/2-x,1/2+y,-z
1/2-x,1/2-y,-z
1/2+x,1/2-y,z
loop_
_atom_site_type_symbol
_atom_site_label
_atom_site_fract_x
_atom_site_fract_y
_atom_site_fract_z
Si Si1 0.839581 0.385820 0.061380
Si Si2 0.371377 0.884511 0.780769
Si Si3 0.777506 0.000000 0.150643
Si Si4 0.363585 0.500000 0.333762
Si Si5 0.187148 0.000000 0.136161
Si Si6 0.788904 0.387747 0.483201
Si Si7 0.829544 0.173342 0.640673
Si Si8 0.326487 0.200270 0.633731
O O1 0.772432 0.446857 0.118702
O O2 0.729057 0.345973 0.201076
O O3 0.848801 0.376012 0.925204
O O4 0.000000 0.382126 0.000000
O O5 0.305904 0.941996 0.783891
O O6 0.539670 0.890756 0.639860
O O7 0.305674 0.832922 0.760866
O O8 0.874631 0.000000 0.192696
O O9 0.817209 0.000000 0.993972
O O10 0.519636 0.500000 0.281484
O O11 0.279871 0.444931 0.429435
O O12 0.736986 0.368615 0.400726
O O13 0.756234 0.337784 0.589611
O O14 0.778454 0.236560 0.660506
O O15 0.000000 0.171964 0.500000
O O16 0.500000 0.201458 0.500000
#
# Coordination Sequence:
#
# PCOD9201392 Si02
#       8
#     8   8   4   4   4   8   8   8
#     4  11  22  42  66  86 125 166 209 247 300 368
#     4  10  20  38  63  94 117 161 208 256 299 364
#     4  10  20  37  62  87 124 154 202 255 313 359
#     4  12  22  36  62  95 124 158 197 260 309 368
#     4  10  24  39  60  87 126 165 198 246 318 371
#     4  11  21  36  62  91 125 156 208 248 309 361
#     4  11  23  40  61  89 126 164 202 253 303 359
#     4   9  20  37  61  89 123 162 202 256 304 356
#
# _framework density 18.868414999999999
#
# number of rings (size 3 to 8) (size 9 to 14) (size 15 to 20)
#    0.000    1.538    3.077    2.308    0.000    1.846 
#    0.000    1.538    6.769    0.000    0.000    0.000 
#    0.000    0.000    0.000    0.000    0.000    0.000 
#
# Total GULP energy -145002.514198 kJ/mol
# GULP energy per Si atom -5577.019777 kJ/mol
# Density = 1.882547 g / cm^3
# Si number density = 18.868415 Si / 1000 Ang^3
#
#
#
# Elastic Constant Matrix: (Units=GPa)
#
#
# Indices 1 2 3 4 5 6 
#
# 1 31.5823 -4.7949 5.0461 0.0000 -0.3368 0.0000
# 2 -4.7949 110.8795 33.9554 0.0000 1.7866 0.0000
# 3 5.0461 33.9554 66.3124 0.0000 -1.4075 0.0000
# 4 0.0000 0.0000 0.0000 22.8515 0.0000 -1.8664
# 5 -0.3368 1.7866 -1.4075 0.0000 30.3893 0.0000
# 6 0.0000 0.0000 0.0000 -1.8664 0.0000 36.3204
#
#
#
# Elastic Compliance Matrix: (Units=1/GPa)
#
#
# Indices 1 2 3 4 5 6 
#
# 1 0.032663 0.002577 -0.003804 0.000000 0.000034 0.000000
# 2 0.002577 0.010923 -0.005808 0.000000 -0.000883 0.000000
# 3 -0.003804 -0.005808 0.018368 0.000000 0.001150 0.000000
# 4 0.000000 0.000000 0.000000 0.043945 0.000000 0.002258
# 5 0.000034 -0.000883 0.001150 0.000000 0.033012 0.000000
# 6 0.000000 0.000000 0.000000 0.002258 0.000000 0.027649
#
#
# Mechanical properties :
#
#
# Convention : Reuss Voigt Hill
#
# Bulk Modulus (GPa) = 20.88418 30.79860 25.84139
# Shear Modulus (GPa) = 25.43344 29.55008 27.49176
#
# Velocity S-wave (km/s) = 3.67541 3.96171 3.82124
# Velocity P-wave (km/s) = 5.39480 6.10615 5.76147
#
# Compressibility (1/GPa) = 0.04788315
#
# Stress axis : x y z
#
# Youngs Moduli (GPa) = 30.61588 91.54925 54.44243
#
# Poissons Ratio (x) = -0.23592 0.20712
# Poissons Ratio (y) = -0.07890 0.31620
# Poissons Ratio (z) = 0.11647 0.53172
#
# Static dielectric constant tensor:
#      x y z
#    x 1.646770 0.000000 -0.001780 
#    y 0.000000 1.627670 0.000000 
#    z -0.001780 0.000000 1.675410 
# 
# From -- ./inp_files/135900.got.cif
#   From: 2010.05.17/outbox.cif.g08.bks.cpg/sg12_68_cif.got.tgz:135900.got - 2010.06.03 13:09:07.
