data_PCOD9201488
_publ_section_title
;
Structure prediction by ZEFSAII (Michael W. Deem and Ramdas Pophale) SiO2 
 PCOD9201488
Probable space group: C 2/M
;
_chemical_formula_sum "Si O2"
_cell_formula_units_Z 56
_cell_length_a 26.639229
_cell_length_b 9.235653
_cell_length_c 17.774252
_cell_angle_alpha 90.000000
_cell_angle_beta 141.033746
_cell_angle_gamma 90.000000
_cell_volume 2750.023029
_symmetry_space_group_name_H-M "C 2/M"
_symmetry_group_IT_number 12
_symmetry_cell_setting 'monoclinic'
loop_
_space_group_symop_operation_xyz
x,y,z
-x,y,-z
-x,-y,-z
x,-y,z
1/2+x,1/2+y,z
1/2-x,1/2+y,-z
1/2-x,1/2-y,-z
1/2+x,1/2-y,z
loop_
_atom_site_type_symbol
_atom_site_label
_atom_site_fract_x
_atom_site_fract_y
_atom_site_fract_z
Si Si1 0.757152 0.668329 0.202081
Si Si2 0.515851 0.830654 0.778660
Si Si3 0.324038 0.670869 0.047464
Si Si4 0.956158 0.669703 0.872152
Si Si5 0.133381 0.168074 0.465980
Si Si6 0.708382 0.672609 0.316168
Si Si7 0.588334 0.333100 0.590477
O O1 0.779723 0.500000 0.230041
O O2 0.721560 0.703313 0.242332
O O3 0.838237 0.756156 0.283315
O O4 0.693977 0.688382 0.062436
O O5 0.592584 0.746847 0.837137
O O6 0.512950 0.820488 0.865968
O O7 0.435432 0.755796 0.655989
O O8 0.517834 0.000000 0.760280
O O9 0.325792 0.500000 0.067197
O O10 0.250000 0.750000 0.000000
O O11 0.933103 0.500000 0.853948
O O12 0.877543 0.763176 0.764766
O O13 0.000000 0.715495 0.000000
O O14 0.218794 0.245978 0.558203
O O15 0.109395 0.171159 0.526481
O O16 0.137095 0.000000 0.446601
O O17 0.712356 0.500000 0.332847
O O18 0.500000 0.269922 0.500000
O O19 0.585887 0.500000 0.612666
#
# Coordination Sequence:
#
# PCOD9201488 Si02
#       7
#     8   8   8   8   8   8   8
#     4   9  20  37  56  83 114 148 190 238 291 346
#     4  11  24  41  61  88 121 156 197 247 298 352
#     4  11  24  41  60  85 118 157 199 242 295 354
#     4  10  22  40  63  90 120 156 200 246 296 354
#     4  10  21  38  59  85 121 160 197 243 296 354
#     4  10  20  37  62  90 120 154 196 246 298 352
#     4   9  19  34  55  83 111 146 193 241 289 344
#
# _framework density 20.363467
#
# number of rings (size 3 to 8) (size 9 to 14) (size 15 to 20)
#    0.000    2.000    0.000    2.571    2.000    4.571 
#    0.000    0.000    0.000    0.000    0.000    0.000 
#    0.000    0.000    0.000    0.000    0.000    0.000 
#
# Total GULP energy -156472.822960 kJ/mol
# GULP energy per Si atom -5588.315106 kJ/mol
# Density = 2.031712 g / cm^3
# Si number density = 20.363467 Si / 1000 Ang^3
#
#
#
# Elastic Constant Matrix: (Units=GPa)
#
#
# Indices 1 2 3 4 5 6 
#
# 1 59.6605 51.2404 26.5814 0.0000 28.2447 0.0000
# 2 51.2404 111.7819 63.3526 0.0000 21.8760 0.0000
# 3 26.5814 63.3526 87.5288 0.0000 23.3352 0.0000
# 4 0.0000 0.0000 0.0000 34.6325 0.0000 10.4908
# 5 28.2447 21.8760 23.3352 0.0000 35.8692 0.0000
# 6 0.0000 0.0000 0.0000 10.4908 0.0000 21.6846
#
#
#
# Elastic Compliance Matrix: (Units=1/GPa)
#
#
# Indices 1 2 3 4 5 6 
#
# 1 0.041563 -0.018162 0.007617 0.000000 -0.026607 0.000000
# 2 -0.018162 0.023300 -0.013760 0.000000 0.009043 0.000000
# 3 0.007617 -0.013760 0.022300 0.000000 -0.012114 0.000000
# 4 0.000000 0.000000 0.000000 0.033833 0.000000 -0.016368
# 5 -0.026607 0.009043 -0.012114 0.000000 0.051196 0.000000
# 6 0.000000 0.000000 0.000000 -0.016368 0.000000 0.054034
#
#
# Mechanical properties :
#
#
# Convention : Reuss Voigt Hill
#
# Bulk Modulus (GPa) = 25.93804 60.14668 43.04236
# Shear Modulus (GPa) = 17.37999 26.29038 21.83519
#
# Velocity S-wave (km/s) = 2.92462 3.59703 3.27811
# Velocity P-wave (km/s) = 4.91627 6.84486 5.95911
#
# Compressibility (1/GPa) = 0.03855341
#
# Stress axis : x y z
#
# Youngs Moduli (GPa) = 24.05990 42.91841 44.84252
#
# Poissons Ratio (x) = 0.77949 -0.34156
# Poissons Ratio (y) = 0.43698 0.61701
# Poissons Ratio (z) = -0.18326 0.59054
#
# Static dielectric constant tensor:
#      x y z
#    x 1.746890 0.000000 -0.039460 
#    y 0.000000 1.690610 0.000000 
#    z -0.039460 0.000000 1.713960 
# 
# From -- ./inp_files/292398.got.cif
#   From: 2010.05.17/outbox.cif.g08.bks.cpg/sg12_147_cif.got.tgz:292398.got - 2010.06.03 13:09:07.
