data_PCOD9201771
_publ_section_title
;
Structure prediction by ZEFSAII (Michael W. Deem and Ramdas Pophale) SiO2 
 PCOD9201771
Probable space group: C 2/M
;
_chemical_formula_sum "Si O2"
_cell_formula_units_Z 40
_cell_length_a 10.847204
_cell_length_b 20.348431
_cell_length_c 8.667506
_cell_angle_alpha 90.000000
_cell_angle_beta 95.568249
_cell_angle_gamma 90.000000
_cell_volume 1904.095564
_symmetry_space_group_name_H-M "C 2/M"
_symmetry_group_IT_number 12
_symmetry_cell_setting 'monoclinic'
loop_
_space_group_symop_operation_xyz
x,y,z
-x,y,-z
-x,-y,-z
x,-y,z
1/2+x,1/2+y,z
1/2-x,1/2+y,-z
1/2-x,1/2-y,-z
1/2+x,1/2-y,z
loop_
_atom_site_type_symbol
_atom_site_label
_atom_site_fract_x
_atom_site_fract_y
_atom_site_fract_z
Si Si1 0.148651 0.744804 0.768862
Si Si2 0.500000 0.689945 0.500000
Si Si3 0.809267 0.376434 0.746979
Si Si4 0.500000 0.825718 0.000000
Si Si5 0.350479 0.500000 0.157410
Si Si6 0.243588 0.123885 0.407102
Si Si7 0.355841 0.500000 0.786968
O O1 0.031355 0.765631 0.650558
O O2 0.237404 0.807889 0.771808
O O3 0.211911 0.683921 0.691527
O O4 0.099105 0.720927 0.926615
O O5 0.615824 0.645575 0.472176
O O6 0.721297 0.435879 0.790402
O O7 0.831672 0.385326 0.566609
O O8 0.932827 0.370204 0.863515
O O9 0.495178 0.500000 0.226048
O O10 0.345331 0.500000 0.970711
O O11 0.211301 0.062271 0.297584
#
# Coordination Sequence:
#
# PCOD9201771 Si02
#       7
#     8   4   8   4   4   8   4
#     4  11  22  39  63  93 125 162 208 254 306 367
#     4  10  20  37  64  91 124 162 204 258 306 361
#     4  11  24  40  63  91 124 164 210 255 304 365
#     4  12  24  39  62  89 128 168 204 260 310 355
#     4  11  25  42  62  95 126 158 201 253 314 373
#     4  11  22  40  65  94 124 162 209 253 303 368
#     4  11  23  41  66  91 126 160 197 257 316 365
#
# _framework density 21.007349000000001
#
# number of rings (size 3 to 8) (size 9 to 14) (size 15 to 20)
#    0.000    1.000    0.000    9.600    0.000    4.800 
#    0.000    1.000    0.000    4.200    0.000    0.000 
#    0.000    0.000    0.000    0.000    0.000    0.000 
#
# Total GULP energy -111853.320832 kJ/mol
# GULP energy per Si atom -5592.666042 kJ/mol
# Density = 2.095954 g / cm^3
# Si number density = 21.007349 Si / 1000 Ang^3
#
#
#
# Elastic Constant Matrix: (Units=GPa)
#
#
# Indices 1 2 3 4 5 6 
#
# 1 31.4967 23.4135 27.9738 0.0000 8.6580 0.0000
# 2 23.4135 146.4923 63.2481 0.0000 9.3061 0.0000
# 3 27.9738 63.2481 129.3197 0.0000 14.2453 0.0000
# 4 0.0000 0.0000 0.0000 32.4834 0.0000 -2.4649
# 5 8.6580 9.3061 14.2453 0.0000 47.3843 0.0000
# 6 0.0000 0.0000 0.0000 -2.4649 0.0000 24.5197
#
#
#
# Elastic Compliance Matrix: (Units=1/GPa)
#
#
# Indices 1 2 3 4 5 6 
#
# 1 0.041678 -0.003411 -0.006808 0.000000 -0.004899 0.000000
# 2 -0.003411 0.008942 -0.003631 0.000000 -0.000041 0.000000
# 3 -0.006808 -0.003631 0.011134 0.000000 -0.001390 0.000000
# 4 0.000000 0.000000 0.000000 0.031022 0.000000 0.003118
# 5 -0.004899 -0.000041 -0.001390 0.000000 0.022425 0.000000
# 6 0.000000 0.000000 0.000000 0.003118 0.000000 0.041097
#
#
# Mechanical properties :
#
#
# Convention : Reuss Voigt Hill
#
# Bulk Modulus (GPa) = 29.36435 59.61995 44.49215
# Shear Modulus (GPa) = 25.59536 33.72237 29.65887
#
# Velocity S-wave (km/s) = 3.49435 4.01092 3.76151
# Velocity P-wave (km/s) = 5.50355 7.06344 6.33171
#
# Compressibility (1/GPa) = 0.03405490
#
# Stress axis : x y z
#
# Youngs Moduli (GPa) = 23.99368 111.83566 89.81230
#
# Poissons Ratio (x) = 0.38145 0.61142
# Poissons Ratio (y) = 0.08184 0.32610
# Poissons Ratio (z) = 0.16334 0.40606
#
# Static dielectric constant tensor:
#      x y z
#    x 1.766860 0.000000 0.047050 
#    y 0.000000 1.715030 0.000000 
#    z 0.047050 0.000000 1.798680 
# 
# From -- ./inp_files/48856.got.cif
#   From: 2010.05.17/outbox.cif.g08.bks.cpg/sg12_25_cif.got.tgz:48856.got - 2010.06.03 13:09:07.
