data_PCOD9201249
_publ_section_title
;
Structure prediction by ZEFSAII (Michael W. Deem and Ramdas Pophale) SiO2 
 PCOD9201249
Probable space group: C 2/M
;
_chemical_formula_sum "Si O2"
_cell_formula_units_Z 48
_cell_length_a 25.775598
_cell_length_b 8.476303
_cell_length_c 12.636363
_cell_angle_alpha 90.000000
_cell_angle_beta 109.132169
_cell_angle_gamma 90.000000
_cell_volume 2608.321568
_symmetry_space_group_name_H-M "C 2/M"
_symmetry_group_IT_number 12
_symmetry_cell_setting 'monoclinic'
loop_
_space_group_symop_operation_xyz
x,y,z
-x,y,-z
-x,-y,-z
x,-y,z
1/2+x,1/2+y,z
1/2-x,1/2+y,-z
1/2-x,1/2-y,-z
1/2+x,1/2-y,z
loop_
_atom_site_type_symbol
_atom_site_label
_atom_site_fract_x
_atom_site_fract_y
_atom_site_fract_z
Si Si1 0.120293 0.690499 0.274714
Si Si2 0.801876 0.814801 0.242691
Si Si3 0.805343 0.689093 0.481260
Si Si4 0.117078 0.687254 0.872579
Si Si5 0.499760 0.192135 0.877358
Si Si6 0.315901 0.685106 0.885983
O O1 0.123721 0.500000 0.263789
O O2 0.145142 0.728911 0.405668
O O3 0.157325 0.767138 0.208100
O O4 0.057279 0.738891 0.215036
O O5 0.810631 0.763369 0.369421
O O6 0.853659 0.771923 0.205194
O O7 0.748295 0.726027 0.162038
O O8 0.790386 0.000000 0.230514
O O9 0.802292 0.500000 0.468710
O O10 0.750000 0.750000 0.500000
O O11 0.116065 0.500000 0.851907
O O12 0.055233 0.743096 0.856194
O O13 0.153065 0.720766 0.001250
O O14 0.501052 0.000000 0.879881
O O15 0.500000 0.244495 0.000000
O O16 0.323245 0.500000 0.910219
#
# Coordination Sequence:
#
# PCOD9201249 Si02
#       6
#     8   8   8   8   8   8
#     4  10  20  37  61  90 119 153 196 242 288 344
#     4  12  25  41  59  83 120 159 200 245 298 354
#     4  11  22  37  61  89 120 155 199 243 293 348
#     4  11  22  39  62  87 120 156 197 243 294 352
#     4   9  17  34  62  90 116 152 196 239 286 347
#     4  12  23  36  58  89 123 154 192 240 299 357
#
# _framework density 18.402640000000002
#
# number of rings (size 3 to 8) (size 9 to 14) (size 15 to 20)
#    0.000    1.167    3.333    4.500    0.000    0.667 
#    0.000    3.333    0.000    5.000    0.000    0.000 
#    0.000    0.000    0.000    0.000    0.000    0.000 
#
# Total GULP energy -134174.816927 kJ/mol
# GULP energy per Si atom -5590.617372 kJ/mol
# Density = 1.836075 g / cm^3
# Si number density = 18.402640 Si / 1000 Ang^3
#
#
#
# Elastic Constant Matrix: (Units=GPa)
#
#
# Indices 1 2 3 4 5 6 
#
# 1 128.0475 -5.5122 25.9367 0.0000 7.8716 0.0000
# 2 -5.5122 20.6187 -3.7791 0.0000 1.3086 0.0000
# 3 25.9367 -3.7791 39.6005 0.0000 13.5128 0.0000
# 4 0.0000 0.0000 0.0000 24.7547 0.0000 -6.9762
# 5 7.8716 1.3086 13.5128 0.0000 33.7428 0.0000
# 6 0.0000 0.0000 0.0000 -6.9762 0.0000 24.5687
#
#
#
# Elastic Compliance Matrix: (Units=1/GPa)
#
#
# Indices 1 2 3 4 5 6 
#
# 1 0.009042 0.001332 -0.005858 0.000000 0.000185 0.000000
# 2 0.001332 0.050130 0.005422 0.000000 -0.004426 0.000000
# 3 -0.005858 0.005422 0.033836 0.000000 -0.012394 0.000000
# 4 0.000000 0.000000 0.000000 0.043910 0.000000 0.012468
# 5 0.000185 -0.004426 -0.012394 0.000000 0.034728 0.000000
# 6 0.000000 0.000000 0.000000 0.012468 0.000000 0.044242
#
#
# Mechanical properties :
#
#
# Convention : Reuss Voigt Hill
#
# Bulk Modulus (GPa) = 10.54861 24.61750 17.58306
# Shear Modulus (GPa) = 20.35025 28.05466 24.20245
#
# Velocity S-wave (km/s) = 3.32901 3.90871 3.63045
# Velocity P-wave (km/s) = 4.53001 5.81179 5.21046
#
# Compressibility (1/GPa) = 0.09479923
#
# Stress axis : x y z
#
# Youngs Moduli (GPa) = 110.59271 19.94795 29.55467
#
# Poissons Ratio (x) = -0.02657 0.17314
# Poissons Ratio (y) = -0.14730 -0.16024
# Poissons Ratio (z) = 0.64788 -0.10816
#
# Static dielectric constant tensor:
#      x y z
#    x 1.618390 0.000000 0.012280 
#    y 0.000000 1.636270 0.000000 
#    z 0.012280 0.000000 1.611850 
# 
# From -- ./inp_files/172032.got.cif
#   From: 2010.05.17/outbox.cif.g08.bks.cpg/sg12_87_cif.got.tgz:172032.got - 2010.06.03 13:09:07.
