data_PCOD9201064
_publ_section_title
;
Structure prediction by ZEFSAII (Michael W. Deem and Ramdas Pophale) SiO2 
 PCOD9201064
Probable space group: C 2/M
;
_chemical_formula_sum "Si O2"
_cell_formula_units_Z 64
_cell_length_a 29.024785
_cell_length_b 8.703359
_cell_length_c 24.899085
_cell_angle_alpha 90.000000
_cell_angle_beta 149.908235
_cell_angle_gamma 90.000000
_cell_volume 3153.637958
_symmetry_space_group_name_H-M "C 2/M"
_symmetry_group_IT_number 12
_symmetry_cell_setting 'monoclinic'
loop_
_space_group_symop_operation_xyz
x,y,z
-x,y,-z
-x,-y,-z
x,-y,z
1/2+x,1/2+y,z
1/2-x,1/2+y,-z
1/2-x,1/2-y,-z
1/2+x,1/2-y,z
loop_
_atom_site_type_symbol
_atom_site_label
_atom_site_fract_x
_atom_site_fract_y
_atom_site_fract_z
Si Si1 0.139806 0.318783 0.649443
Si Si2 0.040490 0.813913 0.733334
Si Si3 0.533401 0.682772 0.225512
Si Si4 0.159518 0.315557 0.169461
Si Si5 0.308436 0.815233 0.183544
Si Si6 0.687197 0.183262 0.315183
Si Si7 0.105014 0.184594 0.504147
Si Si8 0.893673 0.683206 0.998659
O O1 0.124338 0.500000 0.631851
O O2 0.246427 0.276575 0.745364
O O3 0.131924 0.267373 0.703388
O O4 0.087027 0.245096 0.546129
O O5 0.136869 0.740968 0.813192
O O6 0.003621 0.763735 0.754102
O O7 0.967055 0.768078 0.613654
O O8 0.048419 0.000000 0.740948
O O9 0.535026 0.500000 0.228446
O O10 0.633792 0.741695 0.310208
O O11 0.464614 0.738549 0.109909
O O12 0.179659 0.500000 0.187127
O O13 0.133752 0.284238 0.204977
O O14 0.095345 0.280768 0.053965
O O15 0.208853 0.738488 0.089023
O O16 0.298798 0.000000 0.174651
O O17 0.792397 0.232732 0.411440
O O18 0.687121 0.000000 0.322517
O O19 0.105808 0.000000 0.507997
O O20 0.901235 0.500000 0.011993
#
# Coordination Sequence:
#
# PCOD9201064 Si02
#       8
#     8   8   8   8   8   8   8   8
#     4   9  17  30  52  84 116 140 168 215 275 330
#     4  10  23  41  57  76 106 147 193 231 265 317
#     4  11  24  39  54  78 111 144 185 234 276 318
#     4   8  16  32  55  82 110 141 178 217 261 324
#     4  10  21  37  58  85 115 143 175 222 277 327
#     4   9  18  35  58  82 109 141 178 223 273 324
#     4   9  19  37  59  81 108 145 186 224 264 320
#     4  10  20  37  61  84 109 145 184 221 268 326
#
# _framework density 20.294022999999999
#
# number of rings (size 3 to 8) (size 9 to 14) (size 15 to 20)
#    0.000    2.500    0.000    2.250    0.000    7.500 
#    0.000    5.000    0.000    0.000    0.000    0.000 
#    0.000    0.000    0.000    0.000    0.000    0.000 
#
# Total GULP energy -178573.751865 kJ/mol
# GULP energy per Si atom -5580.429746 kJ/mol
# Density = 2.024783 g / cm^3
# Si number density = 20.294023 Si / 1000 Ang^3
#
#
#
# Elastic Constant Matrix: (Units=GPa)
#
#
# Indices 1 2 3 4 5 6 
#
# 1 115.5636 16.2179 0.3291 0.0000 1.7886 0.0000
# 2 16.2179 6.6456 -2.3176 0.0000 -3.7409 0.0000
# 3 0.3291 -2.3176 40.8364 0.0000 1.8401 0.0000
# 4 0.0000 0.0000 0.0000 16.3329 0.0000 -7.3186
# 5 1.7886 -3.7409 1.8401 0.0000 19.2044 0.0000
# 6 0.0000 0.0000 0.0000 -7.3186 0.0000 26.4914
#
#
#
# Elastic Compliance Matrix: (Units=1/GPa)
#
#
# Indices 1 2 3 4 5 6 
#
# 1 0.014659 -0.041727 -0.002067 0.000000 -0.009295 0.000000
# 2 -0.041727 0.290527 0.014161 0.000000 0.059122 0.000000
# 3 -0.002067 0.014161 0.025284 0.000000 0.000528 0.000000
# 4 0.000000 0.000000 0.000000 0.069876 0.000000 0.019304
# 5 -0.009295 0.059122 0.000528 0.000000 0.064403 0.000000
# 6 0.000000 0.000000 0.000000 0.019304 0.000000 0.043081
#
#
# Mechanical properties :
#
#
# Convention : Reuss Voigt Hill
#
# Bulk Modulus (GPa) = 3.68729 21.27826 12.48277
# Shear Modulus (GPa) = 7.60457 22.32683 14.96570
#
# Velocity S-wave (km/s) = 1.93787 3.32048 2.71854
# Velocity P-wave (km/s) = 2.61304 5.02081 4.00228
#
# Compressibility (1/GPa) = 0.27120210
#
# Stress axis : x y z
#
# Youngs Moduli (GPa) = 68.21796 3.44202 39.54997
#
# Poissons Ratio (x) = 0.14363 0.08177
# Poissons Ratio (y) = 2.84655 -0.56005
# Poissons Ratio (z) = 0.14104 -0.04874
#
# Static dielectric constant tensor:
#      x y z
#    x 1.732990 0.000000 -0.001960 
#    y 0.000000 1.680360 0.000000 
#    z -0.001960 0.000000 1.745070 
# 
# From -- ./inp_files/353498.got.cif
#   From: 2010.05.17/outbox.cif.g08.bks.cpg/sg12_177_cif.got.tgz:353498.got - 2010.06.03 13:09:07.
