data_PCOD9201444
_publ_section_title
;
Structure prediction by ZEFSAII (Michael W. Deem and Ramdas Pophale) SiO2 
 PCOD9201444
Probable space group: C 2/M
;
_chemical_formula_sum "Si O2"
_cell_formula_units_Z 56
_cell_length_a 15.185268
_cell_length_b 8.865183
_cell_length_c 25.041696
_cell_angle_alpha 90.000000
_cell_angle_beta 117.443241
_cell_angle_gamma 90.000000
_cell_volume 2991.758404
_symmetry_space_group_name_H-M "C 2/M"
_symmetry_group_IT_number 12
_symmetry_cell_setting 'monoclinic'
loop_
_space_group_symop_operation_xyz
x,y,z
-x,y,-z
-x,-y,-z
x,-y,z
1/2+x,1/2+y,z
1/2-x,1/2+y,-z
1/2-x,1/2-y,-z
1/2+x,1/2-y,z
loop_
_atom_site_type_symbol
_atom_site_label
_atom_site_fract_x
_atom_site_fract_y
_atom_site_fract_z
Si Si1 0.656763 0.819345 0.505820
Si Si2 0.675686 0.181289 0.935778
Si Si3 0.721750 0.318960 0.360852
Si Si4 0.740250 0.680393 0.154516
Si Si5 0.685978 0.680494 0.714974
Si Si6 0.965314 0.181525 0.616314
Si Si7 0.469952 0.819319 0.930505
O O1 0.750000 0.750000 0.500000
O O2 0.684207 0.781487 0.574446
O O3 0.562656 0.753388 0.448633
O O4 0.656585 0.000000 0.501192
O O5 0.703480 0.229007 0.883884
O O6 0.563877 0.220342 0.920407
O O7 0.684952 0.000000 0.941428
O O8 0.750000 0.250000 0.000000
O O9 0.719229 0.500000 0.353316
O O10 0.739316 0.240295 0.309563
O O11 0.621344 0.276162 0.365105
O O12 0.745594 0.500000 0.160190
O O13 0.785601 0.753234 0.219922
O O14 0.627458 0.732873 0.114681
O O15 0.689849 0.500000 0.717828
O O16 0.573811 0.725513 0.667093
O O17 0.960992 0.000000 0.609734
O O18 0.452311 0.000000 0.922610
O O19 0.500000 0.784473 0.000000
#
# Coordination Sequence:
#
# PCOD9201444 Si02
#       7
#     8   8   8   8   8   8   8
#     4   9  17  31  55  85 115 149 189 237 290 342
#     4  10  21  37  60  89 117 147 182 224 277 332
#     4   9  19  37  58  82 115 150 190 238 289 341
#     4  11  24  40  58  84 118 151 191 236 280 338
#     4  11  24  40  58  81 112 153 197 238 285 341
#     4   9  20  38  58  82 115 152 192 238 289 344
#     4  10  20  37  62  89 118 149 182 226 278 332
#
# _framework density 18.718088999999999
#
# number of rings (size 3 to 8) (size 9 to 14) (size 15 to 20)
#    0.000    2.143    1.429    2.143    0.000    7.143 
#    0.000    5.714    0.000    0.000    0.000    0.000 
#    0.000    0.000    0.000    0.000    0.000    0.000 
#
# Total GULP energy -156313.615435 kJ/mol
# GULP energy per Si atom -5582.629123 kJ/mol
# Density = 1.867549 g / cm^3
# Si number density = 18.718089 Si / 1000 Ang^3
#
#
#
# Elastic Constant Matrix: (Units=GPa)
#
#
# Indices 1 2 3 4 5 6 
#
# 1 83.3775 16.5391 26.4609 0.0000 -10.8605 0.0000
# 2 16.5391 19.1785 26.1269 0.0000 -4.5043 0.0000
# 3 26.4609 26.1269 94.8022 0.0000 -14.0808 0.0000
# 4 0.0000 0.0000 0.0000 36.3154 0.0000 1.9174
# 5 -10.8605 -4.5043 -14.0808 0.0000 31.3045 0.0000
# 6 0.0000 0.0000 0.0000 1.9174 0.0000 21.0277
#
#
#
# Elastic Compliance Matrix: (Units=1/GPa)
#
#
# Indices 1 2 3 4 5 6 
#
# 1 0.014830 -0.011278 -0.000545 0.000000 0.003277 0.000000
# 2 -0.011278 0.092155 -0.022355 0.000000 -0.000708 0.000000
# 3 -0.000545 -0.022355 0.017526 0.000000 0.004478 0.000000
# 4 0.000000 0.000000 0.000000 0.027670 0.000000 -0.002523
# 5 0.003277 -0.000708 0.004478 0.000000 0.034994 0.000000
# 6 0.000000 0.000000 0.000000 -0.002523 0.000000 0.047786
#
#
# Mechanical properties :
#
#
# Convention : Reuss Voigt Hill
#
# Bulk Modulus (GPa) = 17.80702 37.29021 27.54861
# Shear Modulus (GPa) = 15.52625 26.27828 20.90226
#
# Velocity S-wave (km/s) = 2.88319 3.75093 3.34531
# Velocity P-wave (km/s) = 4.54067 6.22290 5.44712
#
# Compressibility (1/GPa) = 0.05615763
#
# Stress axis : x y z
#
# Youngs Moduli (GPa) = 67.42862 10.85125 57.05753
#
# Poissons Ratio (x) = 0.12238 0.03107
# Poissons Ratio (y) = 0.76046 1.27551
# Poissons Ratio (z) = 0.03672 0.24258
#
# Static dielectric constant tensor:
#      x y z
#    x 1.642610 0.000000 -0.009910 
#    y 0.000000 1.628300 0.000000 
#    z -0.009910 0.000000 1.620620 
# 
# From -- ./inp_files/338499.got.cif
#   From: 2010.05.17/outbox.cif.g08.bks.cpg/sg12_170_cif.got.tgz:338499.got - 2010.06.03 13:09:07.
