data_PCOD9201450
_publ_section_title
;
Structure prediction by ZEFSAII (Michael W. Deem and Ramdas Pophale) SiO2 
 PCOD9201450
Probable space group: C 2/M
;
_chemical_formula_sum "Si O2"
_cell_formula_units_Z 64
_cell_length_a 15.119291
_cell_length_b 8.728783
_cell_length_c 25.247154
_cell_angle_alpha 90.000000
_cell_angle_beta 82.780035
_cell_angle_gamma 90.000000
_cell_volume 3305.523832
_symmetry_space_group_name_H-M "C 2/M"
_symmetry_group_IT_number 12
_symmetry_cell_setting 'monoclinic'
loop_
_space_group_symop_operation_xyz
x,y,z
-x,y,-z
-x,-y,-z
x,-y,z
1/2+x,1/2+y,z
1/2-x,1/2+y,-z
1/2-x,1/2-y,-z
1/2+x,1/2-y,z
loop_
_atom_site_type_symbol
_atom_site_label
_atom_site_fract_x
_atom_site_fract_y
_atom_site_fract_z
Si Si1 0.464112 0.815700 0.061179
Si Si2 0.594208 0.316816 0.138133
Si Si3 0.262976 0.184216 0.057550
Si Si4 0.237856 0.816947 0.318382
Si Si5 0.191483 0.184644 0.436984
Si Si6 0.115931 0.819082 0.547447
Si Si7 0.435693 0.815662 0.341907
Si Si8 0.902922 0.683084 0.745495
O O1 0.517897 0.735767 0.103579
O O2 0.360483 0.774761 0.070843
O O3 0.474004 0.000000 0.065397
O O4 0.500000 0.773173 0.000000
O O5 0.595386 0.500000 0.142354
O O6 0.685942 0.264764 0.103119
O O7 0.584689 0.246564 0.196727
O O8 0.258907 0.000000 0.053780
O O9 0.250000 0.250000 0.000000
O O10 0.179656 0.785100 0.375872
O O11 0.339389 0.768587 0.324398
O O12 0.189859 0.737834 0.273132
O O13 0.238914 0.000000 0.309971
O O14 0.114481 0.223807 0.485097
O O15 0.281605 0.275039 0.445409
O O16 0.208452 0.000000 0.440949
O O17 0.059547 0.740445 0.597797
O O18 0.101042 0.000000 0.552254
O O19 0.516623 0.762865 0.298948
O O20 0.435177 0.000000 0.343081
O O21 0.905382 0.500000 0.746580
#
# Coordination Sequence:
#
# PCOD9201450 Si02
#       8
#     8   8   8   8   8   8   8   8
#     4  10  20  37  62  89 119 154 188 222 267 326
#     4  11  24  40  59  86 118 151 188 233 280 328
#     4  10  21  37  60  89 120 152 184 221 270 325
#     4   9  18  36  59  79 106 145 187 232 282 336
#     4   8  15  28  47  75 111 147 180 222 285 347
#     4   9  15  25  48  80 108 139 184 233 278 335
#     4   9  20  38  57  77 108 150 187 229 289 345
#     4  11  24  41  59  80 110 148 193 238 281 333
#
# _framework density 19.361530999999999
#
# number of rings (size 3 to 8) (size 9 to 14) (size 15 to 20)
#    0.000    2.375    1.250    1.875    0.000    5.750 
#    0.000    5.625    0.000    3.750    0.000    0.000 
#    0.000    0.000    0.000    0.000    0.000    0.000 
#
# Total GULP energy -178553.531930 kJ/mol
# GULP energy per Si atom -5579.797873 kJ/mol
# Density = 1.931746 g / cm^3
# Si number density = 19.361531 Si / 1000 Ang^3
#
#
#
# Elastic Constant Matrix: (Units=GPa)
#
#
# Indices 1 2 3 4 5 6 
#
# 1 82.4851 15.4638 33.5407 0.0000 -5.9668 0.0000
# 2 15.4638 13.6949 21.9742 0.0000 1.5175 0.0000
# 3 33.5407 21.9742 99.9564 0.0000 -1.6957 0.0000
# 4 0.0000 0.0000 0.0000 35.2390 0.0000 1.3561
# 5 -5.9668 1.5175 -1.6957 0.0000 31.8499 0.0000
# 6 0.0000 0.0000 0.0000 1.3561 0.0000 19.8960
#
#
#
# Elastic Compliance Matrix: (Units=1/GPa)
#
#
# Indices 1 2 3 4 5 6 
#
# 1 0.016069 -0.015443 -0.001935 0.000000 0.003643 0.000000
# 2 -0.015443 0.129103 -0.023374 0.000000 -0.010289 0.000000
# 3 -0.001935 -0.023374 0.015819 0.000000 0.001593 0.000000
# 4 0.000000 0.000000 0.000000 0.028452 0.000000 -0.001939
# 5 0.003643 -0.010289 0.001593 0.000000 0.032655 0.000000
# 6 0.000000 0.000000 0.000000 -0.001939 0.000000 0.050394
#
#
# Mechanical properties :
#
#
# Convention : Reuss Voigt Hill
#
# Bulk Modulus (GPa) = 12.58084 37.56598 25.07341
# Shear Modulus (GPa) = 13.14088 25.74081 19.44085
#
# Velocity S-wave (km/s) = 2.60803 3.65016 3.17219
# Velocity P-wave (km/s) = 3.94729 6.09995 5.13763
#
# Compressibility (1/GPa) = 0.07948596
#
# Stress axis : x y z
#
# Youngs Moduli (GPa) = 62.23154 7.74577 63.21373
#
# Poissons Ratio (x) = 0.11962 0.12233
# Poissons Ratio (y) = 0.96104 1.47758
# Poissons Ratio (z) = 0.12043 0.18105
#
# Static dielectric constant tensor:
#      x y z
#    x 1.685370 0.000000 -0.020850 
#    y 0.000000 1.660860 0.000000 
#    z -0.020850 0.000000 1.668900 
# 
# From -- ./inp_files/338879.got.cif
#   From: 2010.05.17/outbox.cif.g08.bks.cpg/sg12_170_cif.got.tgz:338879.got - 2010.06.03 13:09:07.
