data_PCOD9201794
_publ_section_title
;
Structure prediction by ZEFSAII (Michael W. Deem and Ramdas Pophale) SiO2 
 PCOD9201794
Probable space group: C 2/M
;
_chemical_formula_sum "Si O2"
_cell_formula_units_Z 56
_cell_length_a 24.053264
_cell_length_b 19.020420
_cell_length_c 17.083546
_cell_angle_alpha 90.000000
_cell_angle_beta 160.550635
_cell_angle_gamma 90.000000
_cell_volume 2602.447861
_symmetry_space_group_name_H-M "C 2/M"
_symmetry_group_IT_number 12
_symmetry_cell_setting 'monoclinic'
loop_
_space_group_symop_operation_xyz
x,y,z
-x,y,-z
-x,-y,-z
x,-y,z
1/2+x,1/2+y,z
1/2-x,1/2+y,-z
1/2-x,1/2-y,-z
1/2+x,1/2-y,z
loop_
_atom_site_type_symbol
_atom_site_label
_atom_site_fract_x
_atom_site_fract_y
_atom_site_fract_z
Si Si1 0.642279 0.578960 0.339047
Si Si2 0.117644 0.715926 0.975210
Si Si3 0.455360 0.113026 0.353361
Si Si4 0.370528 0.274542 0.759676
Si Si5 0.995502 0.575293 0.240974
Si Si6 0.598056 0.733841 0.516948
Si Si7 0.087676 0.142424 0.837041
O O1 0.583572 0.500000 0.239276
O O2 0.604503 0.644643 0.232114
O O3 0.842737 0.576165 0.600227
O O4 0.555896 0.601387 0.305738
O O5 0.131126 0.784493 0.939455
O O6 0.937167 0.726432 0.778043
O O7 0.111467 0.643585 0.920589
O O8 0.265661 0.717171 0.235618
O O9 0.500000 0.087905 0.500000
O O10 0.551992 0.081180 0.407008
O O11 0.500053 0.195978 0.410391
O O12 0.261217 0.101054 0.074803
O O13 0.195701 0.254738 0.566202
O O14 0.500000 0.260493 0.000000
O O15 0.909923 0.500000 0.116847
O O16 0.480861 0.668889 0.337400
#
# Coordination Sequence:
#
# PCOD9201794 Si02
#       7
#     8   8   8   8   8   8   8
#     4  10  21  38  60  88 123 167 206 246 308 375
#     4  10  20  37  64  94 123 157 209 259 303 367
#     4  12  24  40  61  93 125 156 208 259 319 366
#     4   9  18  33  59  93 123 154 199 259 310 358
#     4  11  24  42  64  89 128 172 205 249 309 375
#     4  11  20  36  62  94 121 158 206 257 314 359
#     4  11  22  37  64  90 124 159 205 266 307 362
#
# _framework density 21.518203
#
# number of rings (size 3 to 8) (size 9 to 14) (size 15 to 20)
#    0.000    1.429    4.286    1.286    0.000    3.429 
#    0.000    2.143    0.000    6.429    0.000    0.000 
#    0.000    0.000    0.000    0.000    0.000    0.000 
#
# Total GULP energy -156305.240679 kJ/mol
# GULP energy per Si atom -5582.330024 kJ/mol
# Density = 2.146923 g / cm^3
# Si number density = 21.518203 Si / 1000 Ang^3
#
#
#
# Elastic Constant Matrix: (Units=GPa)
#
#
# Indices 1 2 3 4 5 6 
#
# 1 63.6278 37.3861 35.6675 0.0000 -0.5609 0.0000
# 2 37.3861 103.3502 12.7243 0.0000 -2.2327 0.0000
# 3 35.6675 12.7243 82.9924 0.0000 -4.6702 0.0000
# 4 0.0000 0.0000 0.0000 10.5070 0.0000 -1.4392
# 5 -0.5609 -2.2327 -4.6702 0.0000 35.5537 0.0000
# 6 0.0000 0.0000 0.0000 -1.4392 0.0000 -7.5436
#
#
#
# Elastic Compliance Matrix: (Units=1/GPa)
#
#
# Indices 1 2 3 4 5 6 
#
# 1 0.026214 -0.008273 -0.010078 0.000000 -0.001430 0.000000
# 2 -0.008273 0.012479 0.001691 0.000000 0.000875 0.000000
# 3 -0.010078 0.001691 0.016238 0.000000 0.002080 0.000000
# 4 0.000000 0.000000 0.000000 0.092751 0.000000 -0.017696
# 5 -0.001430 0.000875 0.002080 0.000000 0.028432 0.000000
# 6 0.000000 0.000000 0.000000 -0.017696 0.000000 -0.129186
#
#
# Mechanical properties :
#
#
# Convention : Reuss Voigt Hill
#
# Bulk Modulus (GPa) = 46.26960 46.83624 46.55292
# Shear Modulus (GPa) = 57.17438 18.64958 37.91198
#
# Velocity S-wave (km/s) = 5.16022 2.94715 4.20200
# Velocity P-wave (km/s) = 7.55335 5.77876 6.72485
#
# Compressibility (1/GPa) = 0.02161246
#
# Stress axis : x y z
#
# Youngs Moduli (GPa) = 38.14733 80.13360 61.58288
#
# Poissons Ratio (x) = 0.66293 0.62064
# Poissons Ratio (y) = 0.31559 -0.10416
# Poissons Ratio (z) = 0.38445 -0.13554
#
# Static dielectric constant tensor:
#      x y z
#    x 1.847020 0.000000 0.043580 
#    y 0.000000 1.765630 0.000000 
#    z 0.043580 0.000000 1.798420 
# 
# From -- ./inp_files/294109.got.cif
#   From: 2010.05.17/outbox.cif.g08.bks.cpg/sg12_148_cif.got.tgz:294109.got - 2010.06.03 13:09:07.
