data_PCOD9201937
_publ_section_title
;
Structure prediction by ZEFSAII (Michael W. Deem and Ramdas Pophale) SiO2 
 PCOD9201937
Probable space group: C 2/M
;
_chemical_formula_sum "Si O2"
_cell_formula_units_Z 64
_cell_length_a 9.435629
_cell_length_b 14.520621
_cell_length_c 28.265312
_cell_angle_alpha 90.000000
_cell_angle_beta 50.092036
_cell_angle_gamma 90.000000
_cell_volume 2970.627631
_symmetry_space_group_name_H-M "C 2/M"
_symmetry_group_IT_number 12
_symmetry_cell_setting 'monoclinic'
loop_
_space_group_symop_operation_xyz
x,y,z
-x,y,-z
-x,-y,-z
x,-y,z
1/2+x,1/2+y,z
1/2-x,1/2+y,-z
1/2-x,1/2-y,-z
1/2+x,1/2-y,z
loop_
_atom_site_type_symbol
_atom_site_label
_atom_site_fract_x
_atom_site_fract_y
_atom_site_fract_z
Si Si1 0.877866 0.392690 0.477923
Si Si2 0.128273 0.251918 0.675490
Si Si3 0.292688 0.718832 0.236431
Si Si4 0.026513 0.343156 0.942074
Si Si5 0.964338 0.866158 0.059532
Si Si6 0.527785 0.297206 0.593200
Si Si7 0.908126 0.901355 0.869969
Si Si8 0.465619 0.895081 0.849936
O O1 0.889273 0.500000 0.459627
O O2 0.667427 0.362431 0.534845
O O3 0.946218 0.309999 0.428949
O O4 0.000000 0.385640 0.500000
O O5 0.179836 0.202413 0.713471
O O6 0.310290 0.316357 0.631081
O O7 0.092851 0.197596 0.634041
O O8 0.922917 0.289192 0.728793
O O9 0.401266 0.640158 0.186559
O O10 0.391099 0.816550 0.199979
O O11 0.962742 0.238640 0.957221
O O12 0.246877 0.334883 0.888978
O O13 0.959679 0.389667 0.908687
O O14 0.000000 0.385960 0.000000
O O15 0.083101 0.907715 0.075829
O O16 0.747679 0.876015 0.118007
O O17 0.000000 0.903267 0.000000
O O18 0.868043 0.000000 0.856947
O O19 0.516309 0.000000 0.825128
#
# Coordination Sequence:
#
# PCOD9201937 Si02
#       8
#     8   8   8   8   8   8   8   8
#     4  10  20  37  68 101 138 171 199 242 298 356
#     4  10  22  39  66  84 125 172 206 252 306 330
#     4  11  22  43  59  83 119 162 207 260 300 352
#     4  11  22  39  61  87 117 150 188 244 314 387
#     4  11  22  39  61  87 119 152 186 244 322 389
#     4  10  20  41  62 100 129 170 206 248 288 366
#     4  12  24  40  63  86 114 154 201 251 309 373
#     4  12  24  40  63  86 114 154 201 251 309 373
#
# _framework density 21.544269
#
# number of rings (size 3 to 8) (size 9 to 14) (size 15 to 20)
#    0.000    1.125    3.750    3.000    0.000    5.000 
#    0.000    8.750    0.000    0.000    0.000    0.000 
#    0.000    0.000    0.000    0.000    0.000    0.000 
#
# Total GULP energy -178459.550929 kJ/mol
# GULP energy per Si atom -5576.860967 kJ/mol
# Density = 2.149523 g / cm^3
# Si number density = 21.544269 Si / 1000 Ang^3
#
#
#
# Elastic Constant Matrix: (Units=GPa)
#
#
# Indices 1 2 3 4 5 6 
#
# 1 124.7939 0.8281 23.3627 0.0098 -17.8177 -0.0058
# 2 0.8281 105.6804 11.6948 0.0092 6.1071 -0.0054
# 3 23.3627 11.6948 76.5906 -0.0143 -14.6516 0.0083
# 4 0.0098 0.0092 -0.0143********** -0.015911465.4044
# 5 -17.8177 6.1071 -14.6516 -0.0159 49.1538 0.0094
# 6 -0.0058 -0.0054 0.008311465.4044 0.0094-6718.9140
#
#
#
# Elastic Compliance Matrix: (Units=1/GPa)
#
#
# Indices 1 2 3 4 5 6 
#
# 1 0.008786 0.000029 -0.002201 0.000000 0.002525 0.000000
# 2 0.000029 0.009766 -0.001835 0.000000 -0.001750 0.000000
# 3 -0.002201 -0.001835 0.014740 0.000000 0.003824 0.000000
# 4 0.000000 0.000000 0.000000 0.032041 0.000000 0.054675
# 5 0.002525 -0.001750 0.003824 0.000000 0.022617 0.000000
# 6 0.000000 0.000000 0.000000 0.054675 0.000000 0.093151
#
#
# Mechanical properties :
#
#
# Convention : Reuss Voigt Hill
#
# Bulk Modulus (GPa) = 39.56161 42.09290 40.82726
# Shear Modulus (GPa) = 25.31135 -5222.62967 -2598.65916
#
# Velocity S-wave (km/s) = 3.43133 -49.28896 -34.76800
# Velocity P-wave (km/s) = 5.83965 56.74171 39.90940
#
# Compressibility (1/GPa) = 0.02527703
#
# Stress axis : x y z
#
# Youngs Moduli (GPa) = 113.82217 102.39153 67.84489
#
# Poissons Ratio (x) = -0.00295 0.14935
# Poissons Ratio (y) = -0.00328 0.12448
# Poissons Ratio (z) = 0.25056 0.18787
#
# Static dielectric constant tensor:
#      x y z
#    x 1.776230 0.000000 -0.002310 
#    y 0.000000 1.330280 0.000000 
#    z -0.002310 0.000000 1.831260 
# 
# From -- ./inp_files/372566.got.cif
#   From: 2010.05.17/outbox.cif.g08.bks.cpg/sg12_187_cif.got.tgz:372566.got - 2010.06.03 13:09:07.
