data_PCOD9201099
_publ_section_title
;
Structure prediction by ZEFSAII (Michael W. Deem and Ramdas Pophale) SiO2 
 PCOD9201099
Probable space group: C 2/M
;
_chemical_formula_sum "Si O2"
_cell_formula_units_Z 56
_cell_length_a 32.242651
_cell_length_b 19.098838
_cell_length_c 5.034455
_cell_angle_alpha 90.000000
_cell_angle_beta 118.191502
_cell_angle_gamma 90.000000
_cell_volume 2732.436979
_symmetry_space_group_name_H-M "C 2/M"
_symmetry_group_IT_number 12
_symmetry_cell_setting 'monoclinic'
loop_
_space_group_symop_operation_xyz
x,y,z
-x,y,-z
-x,-y,-z
x,-y,z
1/2+x,1/2+y,z
1/2-x,1/2+y,-z
1/2-x,1/2-y,-z
1/2+x,1/2-y,z
loop_
_atom_site_type_symbol
_atom_site_label
_atom_site_fract_x
_atom_site_fract_y
_atom_site_fract_z
Si Si1 0.352250 0.080758 0.108245
Si Si2 0.260285 0.162733 0.752843
Si Si3 0.468729 0.211334 0.144937
Si Si4 0.202032 0.181499 0.093556
Si Si5 0.553221 0.417573 0.269488
Si Si6 0.912362 0.417969 0.771762
Si Si7 0.593677 0.340807 0.899400
O O1 0.391269 0.109617 0.430017
O O2 0.349603 0.000000 0.176437
O O3 0.301137 0.112579 0.975375
O O4 0.371098 0.085803 0.866304
O O5 0.236269 0.141902 0.403654
O O6 0.286967 0.237216 0.808586
O O7 0.219459 0.169498 0.847806
O O8 0.500000 0.203763 0.500000
O O9 0.426570 0.264576 0.083783
O O10 0.500000 0.242026 0.000000
O O11 0.450853 0.135971 0.992127
O O12 0.147848 0.164540 0.976900
O O13 0.560999 0.500000 0.347110
O O14 0.563568 0.373443 0.566065
O O15 0.500000 0.409835 0.000000
O O16 0.586515 0.389434 0.135155
O O17 0.927650 0.500000 0.800191
#
# Coordination Sequence:
#
# PCOD9201099 Si02
#       7
#     8   8   8   8   8   8   8
#     4  10  20  37  61  85 114 155 201 245 285 341
#     4  10  20  38  57  85 116 152 197 235 288 354
#     4  12  25  39  61  91 122 158 198 250 301 341
#     4  10  22  36  59  84 116 154 189 239 296 347
#     4  11  24  43  66  88 117 158 197 241 302 370
#     4  10  22  39  60  88 122 163 204 240 291 352
#     4  12  23  41  63  91 121 152 200 252 297 355
#
# _framework density 20.494527999999999
#
# number of rings (size 3 to 8) (size 9 to 14) (size 15 to 20)
#    0.000    1.286    0.000    6.429    0.000    5.143 
#    0.000    4.286    0.000    0.000    0.000    0.000 
#    0.000    0.000    0.000    0.000    0.000    0.000 
#
# Total GULP energy -156541.501923 kJ/mol
# GULP energy per Si atom -5590.767926 kJ/mol
# Density = 2.044788 g / cm^3
# Si number density = 20.494528 Si / 1000 Ang^3
#
#
#
# Elastic Constant Matrix: (Units=GPa)
#
#
# Indices 1 2 3 4 5 6 
#
# 1 71.0012 27.9025 5.6372 0.0000 9.6666 0.0000
# 2 27.9025 64.2568 14.7915 0.0000 6.6214 0.0000
# 3 5.6372 14.7915 82.3835 0.0000 -11.6595 0.0000
# 4 0.0000 0.0000 0.0000 17.5543 0.0000 -0.2650
# 5 9.6666 6.6214 -11.6595 0.0000 26.0837 0.0000
# 6 0.0000 0.0000 0.0000 -0.2650 0.0000 19.8306
#
#
#
# Elastic Compliance Matrix: (Units=1/GPa)
#
#
# Indices 1 2 3 4 5 6 
#
# 1 0.017555 -0.006950 -0.000667 0.000000 -0.005039 0.000000
# 2 -0.006950 0.019848 -0.003669 0.000000 -0.004103 0.000000
# 3 -0.000667 -0.003669 0.013888 0.000000 0.007386 0.000000
# 4 0.000000 0.000000 0.000000 0.056978 0.000000 0.000761
# 5 -0.005039 -0.004103 0.007386 0.000000 0.044549 0.000000
# 6 0.000000 0.000000 0.000000 0.000761 0.000000 0.050437
#
#
# Mechanical properties :
#
#
# Convention : Reuss Voigt Hill
#
# Bulk Modulus (GPa) = 34.81913 34.92267 34.87090
# Shear Modulus (GPa) = 21.24062 23.98106 22.61084
#
# Velocity S-wave (km/s) = 3.22282 3.42441 3.32514
# Velocity P-wave (km/s) = 5.55654 5.71948 5.63860
#
# Compressibility (1/GPa) = 0.02871984
#
# Stress axis : x y z
#
# Youngs Moduli (GPa) = 56.96516 50.38346 72.00461
#
# Poissons Ratio (x) = 0.35017 0.04800
# Poissons Ratio (y) = 0.39591 0.26416
# Poissons Ratio (z) = 0.03797 0.18484
#
# Static dielectric constant tensor:
#      x y z
#    x 1.706000 0.000000 -0.010920 
#    y 0.000000 1.733420 0.000000 
#    z -0.010920 0.000000 1.766810 
# 
# From -- ./inp_files/32099.got.cif
#   From: 2010.05.17/outbox.cif.g08.bks.cpg/sg12_17_cif.got.tgz:32099.got - 2010.06.03 13:09:07.
