data_PCOD9201897
_publ_section_title
;
Structure prediction by ZEFSAII (Michael W. Deem and Ramdas Pophale) SiO2 
 PCOD9201897
Probable space group: C 2/M
;
_chemical_formula_sum "Si O2"
_cell_formula_units_Z 50
_cell_length_a 14.725078
_cell_length_b 34.362960
_cell_length_c 5.023394
_cell_angle_alpha 90.000000
_cell_angle_beta 110.877694
_cell_angle_gamma 90.000000
_cell_volume 2374.935845
_symmetry_space_group_name_H-M "C 2/M"
_symmetry_group_IT_number 12
_symmetry_cell_setting 'monoclinic'
loop_
_space_group_symop_operation_xyz
x,y,z
-x,y,-z
-x,-y,-z
x,-y,z
1/2+x,1/2+y,z
1/2-x,1/2+y,-z
1/2-x,1/2-y,-z
1/2+x,1/2-y,z
loop_
_atom_site_type_symbol
_atom_site_label
_atom_site_fract_x
_atom_site_fract_y
_atom_site_fract_z
Si Si1 0.798339 0.153666 0.774311
Si Si2 0.268323 0.431981 0.525669
Si Si3 0.741009 0.799602 0.234607
Si Si4 0.071928 0.000000 0.323791
Si Si5 0.827051 0.541875 0.070376
Si Si6 0.409653 0.755644 0.265140
Si Si7 0.500000 0.309703 0.000000
Si Si8 0.500000 0.000000 0.000000
O O1 0.788168 0.108910 0.686850
O O2 0.732376 0.179368 0.506758
O O3 0.908834 0.164965 0.820189
O O4 0.776390 0.168800 0.049383
O O5 0.359197 0.461604 0.615497
O O6 0.225782 0.428648 0.184018
O O7 0.186487 0.450727 0.633265
O O8 0.821340 0.764776 0.335434
O O9 0.643604 0.780932 0.014779
O O10 0.000000 0.000000 0.500000
O O11 0.000000 0.000000 0.000000
O O12 0.775398 0.500000 0.961106
O O13 0.935721 0.533321 0.092145
O O14 0.500000 0.776853 0.500000
O O15 0.462336 0.718936 0.186440
#
# Coordination Sequence:
#
# PCOD9201897 Si02
#       8
#     8   8   8   4   8   8   4   2
#     4  11  24  41  60  92 132 168 211 260 328 382
#     4  12  23  42  63  88 135 174 200 272 325 373
#     4  10  23  39  62  92 124 160 215 258 323 381
#     4  12  24  39  58  93 122 167 226 247 300 374
#     4  10  20  39  66  94 118 154 220 266 315 373
#     4  10  20  37  66  90 121 162 210 271 306 377
#     4  10  22  38  62  94 122 164 226 255 302 385
#     4   8  20  36  72  96 112 142 220 288 296 392
#
# _framework density 21.053203
#
# number of rings (size 3 to 8) (size 9 to 14) (size 15 to 20)
#    0.480    0.960    3.200    1.920    3.360    3.200 
#    2.880    0.000    7.040    0.000    0.000    0.000 
#    0.000    0.000    0.000    0.000    0.000    0.000 
#
# Total GULP energy -139264.057250 kJ/mol
# GULP energy per Si atom -5570.562290 kJ/mol
# Density = 2.100528 g / cm^3
# Si number density = 21.053203 Si / 1000 Ang^3
#
#
#
# Elastic Constant Matrix: (Units=GPa)
#
#
# Indices 1 2 3 4 5 6 
#
# 1 90.1763 16.3249 22.8097 0.0000 -0.2375 0.0000
# 2 16.3249 83.5686 1.7215 0.0000 1.6320 0.0000
# 3 22.8097 1.7215 76.1485 0.0000 -2.4081 0.0000
# 4 0.0000 0.0000 0.0000 19.8429 0.0000 -10.4409
# 5 -0.2375 1.6320 -2.4081 0.0000 40.2579 0.0000
# 6 0.0000 0.0000 0.0000 -10.4409 0.0000 14.0504
#
#
#
# Elastic Compliance Matrix: (Units=1/GPa)
#
#
# Indices 1 2 3 4 5 6 
#
# 1 0.012445 -0.002354 -0.003676 0.000000 -0.000051 0.000000
# 2 -0.002354 0.012427 0.000409 0.000000 -0.000493 0.000000
# 3 -0.003676 0.000409 0.014250 0.000000 0.000814 0.000000
# 4 0.000000 0.000000 0.000000 0.082752 0.000000 0.061494
# 5 -0.000051 -0.000493 0.000814 0.000000 0.024908 0.000000
# 6 0.000000 0.000000 0.000000 0.061494 0.000000 0.116868
#
#
# Mechanical properties :
#
#
# Convention : Reuss Voigt Hill
#
# Bulk Modulus (GPa) = 35.86978 36.84507 36.35743
# Shear Modulus (GPa) = 17.59395 28.76607 23.18001
#
# Velocity S-wave (km/s) = 2.89397 3.70043 3.32176
# Velocity P-wave (km/s) = 5.31426 5.98302 5.65853
#
# Compressibility (1/GPa) = 0.02787862
#
# Stress axis : x y z
#
# Youngs Moduli (GPa) = 80.35104 80.46760 70.17571
#
# Poissons Ratio (x) = 0.18946 0.25799
# Poissons Ratio (y) = 0.18918 -0.02868
# Poissons Ratio (z) = 0.29540 -0.03289
#
# Static dielectric constant tensor:
#      x y z
#    x 1.710360 0.000000 0.080830 
#    y 0.000000 1.766150 0.000000 
#    z 0.080830 0.000000 1.735240 
# 
# From -- ./inp_files/13220.got.cif
#   From: 2010.05.17/outbox.cif.g08.bks.cpg/sg12_7_cif.got.tgz:13220.got - 2010.06.03 13:09:07.
