data_PCOD9201285
_publ_section_title
;
Structure prediction by ZEFSAII (Michael W. Deem and Ramdas Pophale) SiO2 
 PCOD9201285
Probable space group: C 2/M
;
_chemical_formula_sum "Si O2"
_cell_formula_units_Z 64
_cell_length_a 25.471080
_cell_length_b 8.471564
_cell_length_c 14.809118
_cell_angle_alpha 90.000000
_cell_angle_beta 90.039664
_cell_angle_gamma 90.000000
_cell_volume 3195.509004
_symmetry_space_group_name_H-M "C 2/M"
_symmetry_group_IT_number 12
_symmetry_cell_setting 'monoclinic'
loop_
_space_group_symop_operation_xyz
x,y,z
-x,y,-z
-x,-y,-z
x,-y,z
1/2+x,1/2+y,z
1/2-x,1/2+y,-z
1/2-x,1/2-y,-z
1/2+x,1/2-y,z
loop_
_atom_site_type_symbol
_atom_site_label
_atom_site_fract_x
_atom_site_fract_y
_atom_site_fract_z
Si Si1 0.583769 0.685697 0.485633
Si Si2 0.446192 0.688401 0.320566
Si Si3 0.840059 0.309844 0.230408
Si Si4 0.306097 0.817347 0.528372
Si Si5 0.307027 0.189542 0.031379
Si Si6 0.056794 0.687709 0.287391
Si Si7 0.226805 0.185688 0.293337
Si Si8 0.849867 0.690567 0.844974
O O1 0.573691 0.500000 0.474892
O O2 0.553465 0.745221 0.574449
O O3 0.644960 0.718223 0.506846
O O4 0.572272 0.764140 0.389531
O O5 0.446178 0.500000 0.324403
O O6 0.393228 0.743586 0.271926
O O7 0.498637 0.746256 0.272125
O O8 0.844330 0.500000 0.228364
O O9 0.826678 0.252502 0.128961
O O10 0.788219 0.274042 0.289563
O O11 0.250000 0.750000 0.500000
O O12 0.304190 0.793189 0.636096
O O13 0.311856 0.000000 0.503463
O O14 0.302757 0.000000 0.038328
O O15 0.250000 0.250000 0.000000
O O16 0.348237 0.225728 0.951269
O O17 0.055220 0.500000 0.282723
O O18 0.099612 0.741641 0.213416
O O19 0.200160 0.221694 0.198064
O O20 0.220937 0.000000 0.316272
O O21 0.843873 0.500000 0.835028
#
# Coordination Sequence:
#
# PCOD9201285 Si02
#       8
#     8   8   8   8   8   8   8   8
#     4  11  23  40  61  87 118 155 203 252 300 355
#     4  11  25  42  61  86 117 159 204 252 306 355
#     4  10  22  39  60  89 122 158 200 246 301 361
#     4  12  24  37  54  82 120 161 201 242 299 358
#     4  10  20  37  61  91 124 157 196 244 299 361
#     4  11  23  40  63  90 119 159 204 249 300 356
#     4  11  21  35  58  87 120 156 195 242 298 354
#     4  10  21  37  60  90 121 154 195 242 296 357
#
# _framework density 20.028109000000001
#
# number of rings (size 3 to 8) (size 9 to 14) (size 15 to 20)
#    0.000    1.250    2.500    3.750    0.000    7.500 
#    0.000    0.625    0.000    3.750    0.000    0.000 
#    0.000    0.000    0.000    0.000    0.000    0.000 
#
# Total GULP energy -178828.243088 kJ/mol
# GULP energy per Si atom -5588.382597 kJ/mol
# Density = 1.998252 g / cm^3
# Si number density = 20.028109 Si / 1000 Ang^3
#
#
#
# Elastic Constant Matrix: (Units=GPa)
#
#
# Indices 1 2 3 4 5 6 
#
# 1 128.0703 17.6641 33.1436 0.0000 -13.5458 0.0000
# 2 17.6641 18.0539 13.5203 0.0000 -3.3963 0.0000
# 3 33.1436 13.5203 89.7867 0.0000 -12.1438 0.0000
# 4 0.0000 0.0000 0.0000 22.7409 0.0000 3.8444
# 5 -13.5458 -3.3963 -12.1438 0.0000 26.4582 0.0000
# 6 0.0000 0.0000 0.0000 3.8444 0.0000 29.6485
#
#
#
# Elastic Compliance Matrix: (Units=1/GPa)
#
#
# Indices 1 2 3 4 5 6 
#
# 1 0.009678 -0.007357 -0.002050 0.000000 0.003070 0.000000
# 2 -0.007357 0.068410 -0.007365 0.000000 0.001635 0.000000
# 3 -0.002050 -0.007365 0.013576 0.000000 0.004237 0.000000
# 4 0.000000 0.000000 0.000000 0.044959 0.000000 -0.005830
# 5 0.003070 0.001635 0.004237 0.000000 0.041521 0.000000
# 6 0.000000 0.000000 0.000000 -0.005830 0.000000 0.034484
#
#
# Mechanical properties :
#
#
# Convention : Reuss Voigt Hill
#
# Bulk Modulus (GPa) = 17.20502 40.50743 28.85623
# Shear Modulus (GPa) = 18.82920 27.20838 23.01879
#
# Velocity S-wave (km/s) = 3.06949 3.68979 3.39385
# Velocity P-wave (km/s) = 4.60125 6.19855 5.45864
#
# Compressibility (1/GPa) = 0.05812257
#
# Stress axis : x y z
#
# Youngs Moduli (GPa) = 103.32741 14.61771 73.65927
#
# Poissons Ratio (x) = 0.10754 0.15097
# Poissons Ratio (y) = 0.76015 0.54247
# Poissons Ratio (z) = 0.21177 0.10765
#
# Static dielectric constant tensor:
#      x y z
#    x 1.711330 0.000000 -0.003880 
#    y 0.000000 1.678910 0.000000 
#    z -0.003880 0.000000 1.770800 
# 
# From -- ./inp_files/238628.got.cif
#   From: 2010.05.17/outbox.cif.g08.bks.cpg/sg12_120_cif.got.tgz:238628.got - 2010.06.03 13:09:07.
