data_PCOD9201514
_publ_section_title
;
Structure prediction by ZEFSAII (Michael W. Deem and Ramdas Pophale) SiO2 
 PCOD9201514
Probable space group: C 2/M
;
_chemical_formula_sum "Si O2"
_cell_formula_units_Z 56
_cell_length_a 24.646125
_cell_length_b 8.829725
_cell_length_c 15.459258
_cell_angle_alpha 90.000000
_cell_angle_beta 53.103467
_cell_angle_gamma 90.000000
_cell_volume 2690.437849
_symmetry_space_group_name_H-M "C 2/M"
_symmetry_group_IT_number 12
_symmetry_cell_setting 'monoclinic'
loop_
_space_group_symop_operation_xyz
x,y,z
-x,y,-z
-x,-y,-z
x,-y,z
1/2+x,1/2+y,z
1/2-x,1/2+y,-z
1/2-x,1/2-y,-z
1/2+x,1/2-y,z
loop_
_atom_site_type_symbol
_atom_site_label
_atom_site_fract_x
_atom_site_fract_y
_atom_site_fract_z
Si Si1 0.768444 0.682791 0.197224
Si Si2 0.374935 0.820246 0.950123
Si Si3 0.009147 0.168148 0.889795
Si Si4 0.547155 0.180134 0.288390
Si Si5 0.125762 0.681155 0.377892
Si Si6 0.145064 0.322535 0.714770
Si Si7 0.097963 0.820659 0.591143
O O1 0.760489 0.500000 0.206117
O O2 0.696685 0.763161 0.271236
O O3 0.809524 0.725050 0.246154
O O4 0.809780 0.722293 0.069894
O O5 0.437596 0.725107 0.925193
O O6 0.386424 0.798501 0.836376
O O7 0.385164 0.000000 0.956472
O O8 0.067986 0.288091 0.816490
O O9 0.027867 0.000000 0.837796
O O10 0.000000 0.155788 0.000000
O O11 0.567153 0.226466 0.366030
O O12 0.480107 0.265708 0.319555
O O13 0.531509 0.000000 0.302055
O O14 0.124257 0.500000 0.385266
O O15 0.117513 0.750334 0.480359
O O16 0.156473 0.500000 0.689531
O O17 0.147305 0.237074 0.620705
O O18 0.101090 0.000000 0.582825
#
# Coordination Sequence:
#
# PCOD9201514 Si02
#       7
#     8   8   8   8   8   8   8
#     4  10  23  41  62  91 125 166 209 246 299 368
#     4  10  20  37  62  90 124 164 203 246 302 367
#     4  11  21  32  53  90 129 160 200 253 305 357
#     4  10  22  41  66  94 123 160 206 253 307 367
#     4  11  25  44  64  87 121 167 211 255 307 363
#     4  11  22  38  62  91 124 163 204 249 308 371
#     4  12  25  41  65  95 122 156 204 262 317 362
#
# _framework density 20.814456
#
# number of rings (size 3 to 8) (size 9 to 14) (size 15 to 20)
#    0.000    1.286    2.857    3.000    0.000    6.286 
#    0.000    0.000    0.000    0.000    0.000    0.000 
#    0.000    0.000    0.000    0.000    0.000    0.000 
#
# Total GULP energy -156330.732248 kJ/mol
# GULP energy per Si atom -5583.240437 kJ/mol
# Density = 2.076708 g / cm^3
# Si number density = 20.814456 Si / 1000 Ang^3
#
#
#
# Elastic Constant Matrix: (Units=GPa)
#
#
# Indices 1 2 3 4 5 6 
#
# 1 40.2805 20.1714 14.5471 0.0000 1.5156 0.0000
# 2 20.1714 38.5914 24.9596 0.0000 7.4198 0.0000
# 3 14.5471 24.9596 79.2744 0.0000 11.5172 0.0000
# 4 0.0000 0.0000 0.0000 28.8333 0.0000 -7.4101
# 5 1.5156 7.4198 11.5172 0.0000 27.1548 0.0000
# 6 0.0000 0.0000 0.0000 -7.4101 0.0000 13.6106
#
#
#
# Elastic Compliance Matrix: (Units=1/GPa)
#
#
# Indices 1 2 3 4 5 6 
#
# 1 0.033959 -0.017651 -0.001172 0.000000 0.003425 0.000000
# 2 -0.017651 0.042322 -0.009111 0.000000 -0.006715 0.000000
# 3 -0.001172 -0.009111 0.016333 0.000000 -0.004373 0.000000
# 4 0.000000 0.000000 0.000000 0.040324 0.000000 0.021954
# 5 0.003425 -0.006715 -0.004373 0.000000 0.040324 0.000000
# 6 0.000000 0.000000 0.000000 0.021954 0.000000 0.085424
#
#
# Mechanical properties :
#
#
# Convention : Reuss Voigt Hill
#
# Bulk Modulus (GPa) = 27.21234 30.83363 29.02298
# Shear Modulus (GPa) = 15.29975 20.48429 17.89202
#
# Velocity S-wave (km/s) = 2.71413 3.14050 2.93507
# Velocity P-wave (km/s) = 4.78792 5.29113 5.04580
#
# Compressibility (1/GPa) = 0.03674804
#
# Stress axis : x y z
#
# Youngs Moduli (GPa) = 29.44699 23.62842 61.22503
#
# Poissons Ratio (x) = 0.41706 0.07174
# Poissons Ratio (y) = 0.51976 0.55779
# Poissons Ratio (z) = 0.03451 0.21527
#
# Static dielectric constant tensor:
#      x y z
#    x 1.720570 0.000000 0.031670 
#    y 0.000000 1.704380 0.000000 
#    z 0.031670 0.000000 1.822260 
# 
# From -- ./inp_files/238369.got.cif
#   From: 2010.05.17/outbox.cif.g08.bks.cpg/sg12_120_cif.got.tgz:238369.got - 2010.06.03 13:09:07.
