data_PCOD9201251
_publ_section_title
;
Structure prediction by ZEFSAII (Michael W. Deem and Ramdas Pophale) SiO2 
 PCOD9201251
Probable space group: C 2/M
;
_chemical_formula_sum "Si O2"
_cell_formula_units_Z 56
_cell_length_a 26.633354
_cell_length_b 8.839586
_cell_length_c 17.691992
_cell_angle_alpha 90.000000
_cell_angle_beta 43.662255
_cell_angle_gamma 90.000000
_cell_volume 2875.670163
_symmetry_space_group_name_H-M "C 2/M"
_symmetry_group_IT_number 12
_symmetry_cell_setting 'monoclinic'
loop_
_space_group_symop_operation_xyz
x,y,z
-x,y,-z
-x,-y,-z
x,-y,z
1/2+x,1/2+y,z
1/2-x,1/2+y,-z
1/2-x,1/2-y,-z
1/2+x,1/2-y,z
loop_
_atom_site_type_symbol
_atom_site_label
_atom_site_fract_x
_atom_site_fract_y
_atom_site_fract_z
Si Si1 0.818970 0.819203 0.236859
Si Si2 0.173711 0.679891 0.610322
Si Si3 0.697864 0.819566 0.166176
Si Si4 0.067075 0.822495 0.605663
Si Si5 0.647582 0.819657 0.956538
Si Si6 0.593041 0.679108 0.159422
Si Si7 0.350598 0.178581 0.615833
O O1 0.843619 0.748011 0.288658
O O2 0.857803 0.748132 0.121626
O O3 0.732069 0.788350 0.321932
O O4 0.827833 0.000000 0.227179
O O5 0.180319 0.500000 0.607308
O O6 0.250000 0.750000 0.500000
O O7 0.114062 0.727718 0.614155
O O8 0.773891 0.736635 0.098282
O O9 0.656282 0.756962 0.139264
O O10 0.650144 0.792389 0.293825
O O11 0.710541 0.000000 0.146816
O O12 0.092914 0.772435 0.494687
O O13 0.982582 0.797486 0.714757
O O14 0.082885 0.000000 0.599309
O O15 0.644514 0.000000 0.958068
O O16 0.591416 0.751867 0.078092
O O17 0.606805 0.500000 0.138057
O O18 0.363257 0.000000 0.589757
#
# Coordination Sequence:
#
# PCOD9201251 Si02
#       7
#     8   8   8   8   8   8   8
#     4  10  20  37  61  90 120 151 190 241 293 343
#     4  12  23  37  61  90 120 153 193 239 288 346
#     4  10  21  38  61  87 116 153 197 244 292 346
#     4  11  24  39  58  84 119 157 195 241 294 350
#     4  11  22  38  62  89 117 153 196 244 291 343
#     4  11  24  41  58  82 117 158 199 243 294 347
#     4   9  19  35  57  85 117 152 190 236 290 349
#
# _framework density 19.473721999999999
#
# number of rings (size 3 to 8) (size 9 to 14) (size 15 to 20)
#    0.000    1.429    1.429    5.571    0.000    5.714 
#    0.000    3.571    0.000    4.286    0.000    0.000 
#    0.000    0.000    0.000    0.000    0.000    0.000 
#
# Total GULP energy -156568.620236 kJ/mol
# GULP energy per Si atom -5591.736437 kJ/mol
# Density = 1.942940 g / cm^3
# Si number density = 19.473722 Si / 1000 Ang^3
#
#
#
# Elastic Constant Matrix: (Units=GPa)
#
#
# Indices 1 2 3 4 5 6 
#
# 1 31.6535 6.3032 2.2703 -0.0017 17.9694 -0.0003
# 2 6.3032 93.0839 42.8544 -0.0007 8.0952 -0.0011
# 3 2.2703 42.8544 91.0487 -0.0025 25.4027 0.0005
# 4 -0.0017 -0.0007 -0.0025 34.0372 0.0005 8.4667
# 5 17.9694 8.0952 25.4027 0.0005 25.0011 0.0000
# 6 -0.0003 -0.0011 0.0005 8.4667 0.0000 28.4348
#
#
#
# Elastic Compliance Matrix: (Units=1/GPa)
#
#
# Indices 1 2 3 4 5 6 
#
# 1 0.072974 -0.009082 0.022705 0.000007 -0.072578 -0.000002
# 2 -0.009082 0.015004 -0.010190 -0.000001 0.012024 0.000001
# 3 0.022705 -0.010190 0.026302 0.000004 -0.039744 -0.000002
# 4 0.000007 -0.000001 0.000004 0.031730 -0.000009 -0.009448
# 5 -0.072578 0.012024 -0.039744 -0.000009 0.128652 0.000003
# 6 -0.000002 0.000001 -0.000002 -0.009448 0.000003 0.037981
#
#
# Mechanical properties :
#
#
# Convention : Reuss Voigt Hill
#
# Bulk Modulus (GPa) = 8.25466 35.40466 21.82966
# Shear Modulus (GPa) = 14.44422 28.45183 21.44802
#
# Velocity S-wave (km/s) = 2.72642 3.82650 3.32231
# Velocity P-wave (km/s) = 3.76288 6.14353 5.09422
#
# Compressibility (1/GPa) = 0.12114367
#
# Stress axis : x y z
#
# Youngs Moduli (GPa) = 13.70352 66.65023 38.02038
#
# Poissons Ratio (x) = 0.60535 -0.86324
# Poissons Ratio (y) = 0.12446 0.38743
# Poissons Ratio (z) = -0.31113 0.67917
#
# Static dielectric constant tensor:
#      x y z
#    x 1.658010 0.000000 0.011610 
#    y 0.000000 1.644810 0.000000 
#    z 0.011610 0.000000 1.699840 
# 
# From -- ./inp_files/292371.got.cif
#   From: 2010.05.17/outbox.cif.g08.bks.cpg/sg12_147_cif.got.tgz:292371.got - 2010.06.03 13:09:07.
