data_PCOD9201640
_publ_section_title
;
Structure prediction by ZEFSAII (Michael W. Deem and Ramdas Pophale) SiO2 
 PCOD9201640
Probable space group: C 2/M
;
_chemical_formula_sum "Si O2"
_cell_formula_units_Z 64
_cell_length_a 23.730777
_cell_length_b 12.103564
_cell_length_c 11.384091
_cell_angle_alpha 90.000000
_cell_angle_beta 71.212622
_cell_angle_gamma 90.000000
_cell_volume 3095.602906
_symmetry_space_group_name_H-M "C 2/M"
_symmetry_group_IT_number 12
_symmetry_cell_setting 'monoclinic'
loop_
_space_group_symop_operation_xyz
x,y,z
-x,y,-z
-x,-y,-z
x,-y,z
1/2+x,1/2+y,z
1/2-x,1/2+y,-z
1/2-x,1/2-y,-z
1/2+x,1/2-y,z
loop_
_atom_site_type_symbol
_atom_site_label
_atom_site_fract_x
_atom_site_fract_y
_atom_site_fract_z
Si Si1 0.864704 0.120035 0.224404
Si Si2 0.218250 0.127867 0.141169
Si Si3 0.353104 0.226999 0.628118
Si Si4 0.438884 0.371426 0.405015
Si Si5 0.743691 0.876594 0.453203
Si Si6 0.975121 0.679108 0.641428
Si Si7 0.533700 0.127789 0.095260
Si Si8 0.342328 0.763352 0.019549
O O1 0.915179 0.136453 0.287819
O O2 0.802194 0.116071 0.334411
O O3 0.859053 0.213699 0.133525
O O4 0.874513 0.000000 0.160832
O O5 0.193394 0.203024 0.263648
O O6 0.287875 0.151694 0.072047
O O7 0.207628 0.000000 0.172085
O O8 0.183201 0.169403 0.049484
O O9 0.389696 0.308285 0.516757
O O10 0.316615 0.136316 0.580663
O O11 0.404376 0.174617 0.674039
O O12 0.443084 0.500000 0.433754
O O13 0.500365 0.305141 0.373277
O O14 0.750000 0.750000 0.500000
O O15 0.741857 0.000000 0.517300
O O16 0.995775 0.634241 0.754536
O O17 0.000000 0.632405 0.500000
O O18 0.545572 0.000000 0.062472
O O19 0.500000 0.170776 0.000000
O O20 0.596523 0.187589 0.067469
#
# Coordination Sequence:
#
# PCOD9201640 Si02
#       8
#     8   8   8   8   8   8   8   8
#     4  10  20  37  63  90 127 169 213 266 330 399
#     4  11  23  37  60  92 126 166 213 269 328 395
#     4  11  21  40  61  94 130 172 212 270 327 402
#     4  10  21  38  64  94 129 169 215 273 333 395
#     4  11  23  41  65  99 136 180 225 274 338 411
#     4  10  23  42  65  93 128 169 223 273 331 399
#     4  11  24  44  68  92 125 173 220 279 340 404
#     4  11  22  41  60  88 126 163 215 266 330 403
#
# _framework density 20.674485000000001
#
# number of rings (size 3 to 8) (size 9 to 14) (size 15 to 20)
#    0.000    1.375    3.750    1.875    0.000    4.000 
#    0.000    1.875    0.000    2.625    0.000    0.000 
#    0.000    0.000    0.000    0.000    0.000    0.000 
#
# Total GULP energy -178384.188860 kJ/mol
# GULP energy per Si atom -5574.505902 kJ/mol
# Density = 2.062743 g / cm^3
# Si number density = 20.674485 Si / 1000 Ang^3
#
#
#
# Elastic Constant Matrix: (Units=GPa)
#
#
# Indices 1 2 3 4 5 6 
#
# 1 103.6902 14.4847 16.5448 0.0000 12.5615 0.0000
# 2 14.4847 74.8399 11.8498 0.0000 8.7457 0.0000
# 3 16.5448 11.8498 73.7439 0.0000 17.1896 0.0000
# 4 0.0000 0.0000 0.0000 -34.9942 0.0000 38.9069
# 5 12.5615 8.7457 17.1896 0.0000 28.0502 0.0000
# 6 0.0000 0.0000 0.0000 38.9069 0.0000 -19.2365
#
#
#
# Elastic Compliance Matrix: (Units=1/GPa)
#
#
# Indices 1 2 3 4 5 6 
#
# 1 0.010469 -0.001415 -0.001320 0.000000 -0.003438 0.000000
# 2 -0.001415 0.014188 -0.001259 0.000000 -0.003018 0.000000
# 3 -0.001320 -0.001259 0.016134 0.000000 -0.008904 0.000000
# 4 0.000000 0.000000 0.000000 0.022885 0.000000 0.046286
# 5 -0.003438 -0.003018 -0.008904 0.000000 0.043587 0.000000
# 6 0.000000 0.000000 0.000000 0.046286 0.000000 0.041631
#
#
# Mechanical properties :
#
#
# Convention : Reuss Voigt Hill
#
# Bulk Modulus (GPa) = 30.48499 37.55915 34.02207
# Shear Modulus (GPa) = 29.79440 8.72355 19.25897
#
# Velocity S-wave (km/s) = 3.80033 2.05636 3.05541
# Velocity P-wave (km/s) = 5.83386 4.88309 5.37952
#
# Compressibility (1/GPa) = 0.03280303
#
# Stress axis : x y z
#
# Youngs Moduli (GPa) = 95.52061 70.48298 61.97979
#
# Poissons Ratio (x) = 0.09976 0.08181
# Poissons Ratio (y) = 0.13520 0.07801
# Poissons Ratio (z) = 0.12608 0.08872
#
# Static dielectric constant tensor:
#      x y z
#    x 1.737080 0.000000 0.040650 
#    y 0.000000 1.764790 0.000000 
#    z 0.040650 0.000000 1.774140 
# 
# From -- ./inp_files/175243.got.cif
#   From: 2010.05.17/outbox.cif.g08.bks.cpg/sg12_88_cif.got.tgz:175243.got - 2010.06.03 13:09:07.
