data_PCOD9201298
_publ_section_title
;
Structure prediction by ZEFSAII (Michael W. Deem and Ramdas Pophale) SiO2 
 PCOD9201298
Probable space group: C 2/M
;
_chemical_formula_sum "Si O2"
_cell_formula_units_Z 56
_cell_length_a 8.573284
_cell_length_b 26.306618
_cell_length_c 18.427456
_cell_angle_alpha 90.000000
_cell_angle_beta 135.754912
_cell_angle_gamma 90.000000
_cell_volume 2899.775765
_symmetry_space_group_name_H-M "C 2/M"
_symmetry_group_IT_number 12
_symmetry_cell_setting 'monoclinic'
loop_
_space_group_symop_operation_xyz
x,y,z
-x,y,-z
-x,-y,-z
x,-y,z
1/2+x,1/2+y,z
1/2-x,1/2+y,-z
1/2-x,1/2-y,-z
1/2+x,1/2-y,z
loop_
_atom_site_type_symbol
_atom_site_label
_atom_site_fract_x
_atom_site_fract_y
_atom_site_fract_z
Si Si1 0.257126 0.000000 0.384488
Si Si2 0.661911 0.193781 0.229060
Si Si3 0.951900 0.055962 0.068539
Si Si4 0.205053 0.403633 0.705541
Si Si5 0.760869 0.107481 0.379978
Si Si6 0.305690 0.338316 0.997002
Si Si7 0.489848 0.697335 0.786523
Si Si8 0.117016 0.000000 0.617994
O O1 0.500000 0.000000 0.500000
O O2 0.244901 0.051517 0.334008
O O3 0.069165 0.000000 0.382729
O O4 0.725259 0.152390 0.310772
O O5 0.421146 0.179855 0.114975
O O6 0.640189 0.249570 0.256437
O O7 0.837699 0.194981 0.222083
O O8 0.176912 0.075698 0.182032
O O9 0.886776 0.000000 0.075289
O O10 0.783735 0.103346 0.018023
O O11 0.000000 0.050992 0.000000
O O12 0.325910 0.350963 0.727172
O O13 0.943670 0.394382 0.631513
O O14 0.751559 0.052848 0.336305
O O15 0.000000 0.112130 0.500000
O O16 0.500000 0.336190 0.000000
O O17 0.383038 0.307019 0.093380
O O18 0.000000 0.000000 0.500000
#
# Coordination Sequence:
#
# PCOD9201298 Si02
#       8
#     4   8   8   8   8   8   8   4
#     4  12  22  38  63  90 122 163 209 258 309 366
#     4  12  23  42  62  92 126 167 209 265 311 373
#     4   9  17  32  57  90 122 160 202 243 304 371
#     4  11  22  40  64  92 123 167 210 262 315 372
#     4  11  23  42  64  92 126 164 211 261 313 372
#     4  10  20  37  61  92 125 164 207 255 309 379
#     4  11  24  40  65  91 125 162 213 258 319 379
#     4  10  22  40  60  88 119 159 207 258 308 362
#
# _framework density 19.311838000000002
#
# number of rings (size 3 to 8) (size 9 to 14) (size 15 to 20)
#    0.000    1.286    0.714    8.143    0.000    0.000 
#    1.286    3.571    0.000    1.714    0.000    0.000 
#    0.000    0.000    0.000    0.000    0.000    0.000 
#
# Total GULP energy -156392.871116 kJ/mol
# GULP energy per Si atom -5585.459683 kJ/mol
# Density = 1.926788 g / cm^3
# Si number density = 19.311838 Si / 1000 Ang^3
#
#
#
# Elastic Constant Matrix: (Units=GPa)
#
#
# Indices 1 2 3 4 5 6 
#
# 1 158.5028 61.9840 44.1148 0.0000 13.5467 0.0000
# 2 61.9840 187.4771 61.7620 0.0000 5.6353 0.0000
# 3 44.1148 61.7620 74.1500 0.0000 5.9700 0.0000
# 4 0.0000 0.0000 0.0000 15.0396 0.0000 0.4505
# 5 13.5467 5.6353 5.9700 0.0000 27.8886 0.0000
# 6 0.0000 0.0000 0.0000 0.4505 0.0000 23.0584
#
#
#
# Elastic Compliance Matrix: (Units=1/GPa)
#
#
# Indices 1 2 3 4 5 6 
#
# 1 0.008063 -0.001482 -0.003329 0.000000 -0.002905 0.000000
# 2 -0.001482 0.007624 -0.005498 0.000000 0.000356 0.000000
# 3 -0.003329 -0.005498 0.020174 0.000000 -0.001591 0.000000
# 4 0.000000 0.000000 0.000000 0.066530 0.000000 -0.001300
# 5 -0.002905 0.000356 -0.001591 0.000000 0.037536 0.000000
# 6 0.000000 0.000000 0.000000 -0.001300 0.000000 0.043394
#
#
# Mechanical properties :
#
#
# Convention : Reuss Voigt Hill
#
# Bulk Modulus (GPa) = 65.59702 83.98348 74.79025
# Shear Modulus (GPa) = 23.92112 30.01525 26.96818
#
# Velocity S-wave (km/s) = 3.52330 3.94666 3.74098
# Velocity P-wave (km/s) = 7.11284 8.02189 7.58100
#
# Compressibility (1/GPa) = 0.01524460
#
# Stress axis : x y z
#
# Youngs Moduli (GPa) = 124.01810 131.15884 49.56888
#
# Poissons Ratio (x) = 0.19436 0.16502
# Poissons Ratio (y) = 0.18378 0.27251
# Poissons Ratio (z) = 0.41286 0.72106
#
# Static dielectric constant tensor:
#      x y z
#    x 1.635420 0.000000 -0.004010 
#    y 0.000000 1.719430 0.000000 
#    z -0.004010 0.000000 1.673210 
# 
# From -- ./inp_files/259896.got.cif
#   From: 2010.05.17/outbox.cif.g08.bks.cpg/sg12_130_cif.got.tgz:259896.got - 2010.06.03 13:09:07.
