data_PCOD9201459
_publ_section_title
;
Structure prediction by ZEFSAII (Michael W. Deem and Ramdas Pophale) SiO2 
 PCOD9201459
Probable space group: C 2/M
;
_chemical_formula_sum "Si O2"
_cell_formula_units_Z 48
_cell_length_a 9.003446
_cell_length_b 19.072415
_cell_length_c 29.139418
_cell_angle_alpha 90.000000
_cell_angle_beta 152.222083
_cell_angle_gamma 90.000000
_cell_volume 2331.974529
_symmetry_space_group_name_H-M "C 2/M"
_symmetry_group_IT_number 12
_symmetry_cell_setting 'monoclinic'
loop_
_space_group_symop_operation_xyz
x,y,z
-x,y,-z
-x,-y,-z
x,-y,z
1/2+x,1/2+y,z
1/2-x,1/2+y,-z
1/2-x,1/2-y,-z
1/2+x,1/2-y,z
loop_
_atom_site_type_symbol
_atom_site_label
_atom_site_fract_x
_atom_site_fract_y
_atom_site_fract_z
Si Si1 0.173097 0.297939 0.936203
Si Si2 0.430997 0.921496 0.752587
Si Si3 0.272952 0.080407 0.482099
Si Si4 0.868270 0.669228 0.350168
Si Si5 0.907052 0.290041 0.257151
Si Si6 0.760633 0.579783 0.813893
O O1 0.913580 0.256745 0.834014
O O2 0.000865 0.368693 0.905038
O O3 0.500000 0.313469 0.000000
O O4 0.250000 0.250000 0.000000
O O5 0.623901 0.856031 0.785545
O O6 0.361856 0.916001 0.787881
O O7 0.088308 0.916405 0.633880
O O8 0.561957 0.000000 0.779553
O O9 0.500000 0.091957 0.500000
O O10 0.355207 0.138302 0.542368
O O11 0.334139 0.000000 0.515050
O O12 0.959116 0.682903 0.322685
O O13 0.698891 0.739774 0.322372
O O14 0.591528 0.610461 0.277069
O O15 0.777618 0.500000 0.833296
#
# Coordination Sequence:
#
# PCOD9201459 Si02
#       6
#     8   8   8   8   8   8
#     4  11  22  40  63  85 117 153 196 252 306 363
#     4  10  21  39  62  89 124 159 198 249 296 348
#     4  10  20  37  62  89 120 161 206 245 289 348
#     4  11  22  38  60  86 125 162 201 246 294 350
#     4  11  24  41  59  89 120 160 202 248 306 360
#     4  10  20  38  64  90 117 155 199 245 301 360
#
# _framework density 20.583414999999999
#
# number of rings (size 3 to 8) (size 9 to 14) (size 15 to 20)
#    0.000    1.500    1.667    5.500    0.000    3.000 
#    0.000    2.500    0.000    2.000    0.000    0.000 
#    0.000    0.000    0.000    0.000    0.000    0.000 
#
# Total GULP energy -134202.775081 kJ/mol
# GULP energy per Si atom -5591.782295 kJ/mol
# Density = 2.053657 g / cm^3
# Si number density = 20.583415 Si / 1000 Ang^3
#
#
#
# Elastic Constant Matrix: (Units=GPa)
#
#
# Indices 1 2 3 4 5 6 
#
# 1 37.3502 16.0147 -7.4200 -0.0040 -8.9573 -0.0051
# 2 16.0147 143.4896 19.7535 -0.0014 -6.9927 -0.0006
# 3 -7.4200 19.7535 36.0454 0.0023 -6.9036 0.0007
# 4 -0.0040 -0.0014 0.0023 25.2734 0.0000 -5.3398
# 5 -8.9573 -6.9927 -6.9036 0.0000 29.8559 -0.0006
# 6 -0.0051 -0.0006 0.0007 -5.3398 -0.0006 31.3127
#
#
#
# Elastic Compliance Matrix: (Units=1/GPa)
#
#
# Indices 1 2 3 4 5 6 
#
# 1 0.034078 -0.004872 0.011954 0.000005 0.011847 0.000006
# 2 -0.004872 0.008255 -0.005688 0.000000 -0.000844 -0.000001
# 3 0.011954 -0.005688 0.035317 -0.000001 0.010420 0.000001
# 4 0.000005 0.000000 -0.000001 0.041046 0.000001 0.007000
# 5 0.011847 -0.000844 0.010420 0.000001 0.039261 0.000003
# 6 0.000006 -0.000001 0.000001 0.007000 0.000003 0.033130
#
#
# Mechanical properties :
#
#
# Convention : Reuss Voigt Hill
#
# Bulk Modulus (GPa) = 12.43195 30.39796 21.41496
# Shear Modulus (GPa) = 23.24383 29.85753 26.55068
#
# Velocity S-wave (km/s) = 3.36408 3.81276 3.59542
# Velocity P-wave (km/s) = 4.59807 5.84663 5.25953
#
# Compressibility (1/GPa) = 0.08043788
#
# Stress axis : x y z
#
# Youngs Moduli (GPa) = 29.34406 121.14104 28.31533
#
# Poissons Ratio (x) = 0.59017 -0.33848
# Poissons Ratio (y) = 0.14296 0.16106
# Poissons Ratio (z) = -0.35078 0.68908
#
# Static dielectric constant tensor:
#      x y z
#    x 1.735760 0.000000 0.029910 
#    y 0.000000 1.760920 0.000000 
#    z 0.029910 0.000000 1.782350 
# 
# From -- ./inp_files/195947.got.cif
#   From: 2010.05.17/outbox.cif.g08.bks.cpg/sg12_98_cif.got.tgz:195947.got - 2010.06.03 13:09:07.
