data_PCOD9201361
_publ_section_title
;
Structure prediction by ZEFSAII (Michael W. Deem and Ramdas Pophale) SiO2 
 PCOD9201361
Probable space group: C 2/M
;
_chemical_formula_sum "Si O2"
_cell_formula_units_Z 48
_cell_length_a 12.047219
_cell_length_b 12.583330
_cell_length_c 27.921469
_cell_angle_alpha 90.000000
_cell_angle_beta 28.857035
_cell_angle_gamma 90.000000
_cell_volume 2042.824923
_symmetry_space_group_name_H-M "C 2/M"
_symmetry_group_IT_number 12
_symmetry_cell_setting 'monoclinic'
loop_
_space_group_symop_operation_xyz
x,y,z
-x,y,-z
-x,-y,-z
x,-y,z
1/2+x,1/2+y,z
1/2-x,1/2+y,-z
1/2-x,1/2-y,-z
1/2+x,1/2-y,z
loop_
_atom_site_type_symbol
_atom_site_label
_atom_site_fract_x
_atom_site_fract_y
_atom_site_fract_z
Si Si1 0.882064 0.618253 0.759165
Si Si2 0.971504 0.846678 0.693810
Si Si3 0.597477 0.195438 0.514609
Si Si4 0.971508 0.346678 0.193809
Si Si5 0.597475 0.695439 0.014609
Si Si6 0.382068 0.618254 0.259164
O O1 0.898340 0.500000 0.732849
O O2 0.964782 0.717007 0.696293
O O3 0.626150 0.645741 0.875546
O O4 0.038162 0.622211 0.747550
O O5 0.749998 0.883515 0.750000
O O6 0.209453 0.881142 0.580635
O O7 0.961836 0.877789 0.752450
O O8 0.500000 0.247357 0.500000
O O9 0.750000 0.250000 0.500000
O O10 0.373849 0.145741 0.624455
O O11 0.964789 0.217008 0.196291
O O12 0.209457 0.381142 0.080634
O O13 0.500000 0.747360 0.000000
O O14 0.750000 0.750000 0.000000
O O15 0.398344 0.500000 0.232848
#
# Coordination Sequence:
#
# PCOD9201361 Si02
#       6
#     8   8   8   8   8   8
#     4  10  22  39  62  90 120 162 208 250 304 370
#     4  10  20  37  63  86 123 161 200 257 306 359
#     4  10  20  37  62  86 123 161 201 246 308 362
#     4  10  20  37  63  86 123 161 200 257 306 359
#     4  10  20  37  62  86 123 161 201 246 308 362
#     4  10  22  39  62  90 120 162 208 250 304 370
#
# _framework density 23.496873000000001
#
# number of rings (size 3 to 8) (size 9 to 14) (size 15 to 20)
#    0.000    2.000    3.333    0.000    0.000    7.333 
#    0.000    0.000    0.000   26.000    0.000    0.000 
#    0.000    0.000    0.000    0.000    0.000    0.000 
#
# Total GULP energy -133633.404360 kJ/mol
# GULP energy per Si atom -5568.058515 kJ/mol
# Density = 2.344339 g / cm^3
# Si number density = 23.496873 Si / 1000 Ang^3
#
#
#
# Elastic Constant Matrix: (Units=GPa)
#
#
# Indices 1 2 3 4 5 6 
#
# 1 222.6573 17.4354 5.9808 0.0005 -29.2866 0.0003
# 2 17.4354 164.2366 12.0132 0.0012 6.1757 0.0004
# 3 5.9808 12.0132 102.7159 0.0011 -15.5798 0.0007
# 4 0.0005 0.0012 0.0011 -3.1705 0.0006 -3.5466
# 5 -29.2866 6.1757 -15.5798 0.0006 49.2672 0.0003
# 6 0.0003 0.0004 0.0007 -3.5466 0.0003 -26.8402
#
#
#
# Elastic Compliance Matrix: (Units=1/GPa)
#
#
# Indices 1 2 3 4 5 6 
#
# 1 0.004944 -0.000661 0.000260 0.000001 0.003104 0.000000
# 2 -0.000661 0.006281 -0.000919 0.000002 -0.001471 0.000000
# 3 0.000260 -0.000919 0.010366 0.000004 0.003548 0.000000
# 4 0.000001 0.000002 0.000004 -0.370123 0.000006 0.048908
# 5 0.003104 -0.001471 0.003548 0.000006 0.023449 0.000000
# 6 0.000000 0.000000 0.000000 0.048908 0.000000 -0.043720
#
#
# Mechanical properties :
#
#
# Convention : Reuss Voigt Hill
#
# Bulk Modulus (GPa) = 52.76373 62.27429 57.51901
# Shear Modulus (GPa) = -13.89485 34.13000 10.11757
#
# Velocity S-wave (km/s) = -2.43441 3.81535 2.07732
# Velocity P-wave (km/s) = 3.82134 6.78011 5.50330
#
# Compressibility (1/GPa) = 0.01895241
#
# Stress axis : x y z
#
# Youngs Moduli (GPa) = 202.25522 159.19866 96.46821
#
# Poissons Ratio (x) = 0.10517 -0.02510
# Poissons Ratio (y) = 0.13362 0.08868
# Poissons Ratio (z) = -0.05263 0.14635
#
# Static dielectric constant tensor:
#      x y z
#    x 1.984850 0.000000 -0.018380 
#    y 0.000000 1.953260 0.000000 
#    z -0.018380 0.000000 1.850130 
# 
# From -- ./inp_files/374024.got.cif
#   From: 2010.05.17/outbox.cif.g08.bks.cpg/sg12_188_cif.got.tgz:374024.got - 2010.06.03 13:09:07.
