data_PCOD9201128
_publ_section_title
;
Structure prediction by ZEFSAII (Michael W. Deem and Ramdas Pophale) SiO2 
 PCOD9201128
Probable space group: C 2/M
;
_chemical_formula_sum "Si O2"
_cell_formula_units_Z 64
_cell_length_a 30.655935
_cell_length_b 7.680806
_cell_length_c 23.215809
_cell_angle_alpha 90.000000
_cell_angle_beta 147.906086
_cell_angle_gamma 90.000000
_cell_volume 2904.370560
_symmetry_space_group_name_H-M "C 2/M"
_symmetry_group_IT_number 12
_symmetry_cell_setting 'monoclinic'
loop_
_space_group_symop_operation_xyz
x,y,z
-x,y,-z
-x,-y,-z
x,-y,z
1/2+x,1/2+y,z
1/2-x,1/2+y,-z
1/2-x,1/2-y,-z
1/2+x,1/2-y,z
loop_
_atom_site_type_symbol
_atom_site_label
_atom_site_fract_x
_atom_site_fract_y
_atom_site_fract_z
Si Si1 0.372373 0.298087 0.587091
Si Si2 0.055993 0.204422 0.213510
Si Si3 0.165589 0.709445 0.936991
Si Si4 0.243784 0.213150 0.745964
Si Si5 0.473543 0.793721 0.304955
Si Si6 0.922029 0.210159 0.375896
Si Si7 0.626443 0.795009 0.018405
Si Si8 0.725693 0.211354 0.349140
O O1 0.356398 0.500000 0.583284
O O2 0.415273 0.220503 0.692050
O O3 0.438214 0.288787 0.609009
O O4 0.287456 0.222784 0.468034
O O5 0.133268 0.233517 0.258780
O O6 0.971475 0.277893 0.094074
O O7 0.040284 0.000000 0.203478
O O8 0.157744 0.500000 0.930607
O O9 0.089927 0.774547 0.813993
O O10 0.160660 0.778619 0.996366
O O11 0.250000 0.750000 0.000000
O O12 0.162914 0.269543 0.690415
O O13 0.245889 0.270646 0.682162
O O14 0.242457 0.000000 0.742523
O O15 0.324311 0.272466 0.871345
O O16 0.436084 0.760952 0.325639
O O17 0.483737 0.000000 0.308993
O O18 0.000000 0.271684 0.500000
O O19 0.921181 0.000000 0.376769
O O20 0.645324 0.000000 0.038782
O O21 0.728869 0.000000 0.353623
#
# Coordination Sequence:
#
# PCOD9201128 Si02
#       8
#     8   8   8   8   8   8   8   8
#     4  10  21  38  60  85 116 152 193 239 288 349
#     4  11  23  38  58  87 116 149 191 238 296 348
#     4  10  21  35  54  81 112 149 190 233 284 339
#     4   9  19  36  60  86 111 148 199 242 281 338
#     4  11  22  35  55  86 119 151 188 234 292 344
#     4  10  20  37  61  86 116 156 199 241 284 339
#     4  10  20  38  59  80 113 154 193 235 281 339
#     4  10  21  39  62  86 111 146 193 243 292 345
#
# _framework density 22.035755000000002
#
# number of rings (size 3 to 8) (size 9 to 14) (size 15 to 20)
#    0.000    1.875    1.250    2.625    0.000    6.250 
#    0.000    4.375    0.000    0.000    0.000    0.000 
#    0.000    0.000    0.000    0.000    0.000    0.000 
#
# Total GULP energy -178835.116650 kJ/mol
# GULP energy per Si atom -5588.597395 kJ/mol
# Density = 2.198560 g / cm^3
# Si number density = 22.035755 Si / 1000 Ang^3
#
#
#
# Elastic Constant Matrix: (Units=GPa)
#
#
# Indices 1 2 3 4 5 6 
#
# 1 64.9632 -3.6147 8.9971 0.0000 -0.0266 0.0000
# 2 -3.6147 37.5199 2.4800 0.0000 -9.8855 0.0000
# 3 8.9971 2.4800 117.2573 0.0000 -4.0686 0.0000
# 4 0.0000 0.0000 0.0000 9.9043 0.0000 5.7782
# 5 -0.0266 -9.8855 -4.0686 0.0000 40.2699 0.0000
# 6 0.0000 0.0000 0.0000 5.7782 0.0000 11.6379
#
#
#
# Elastic Compliance Matrix: (Units=1/GPa)
#
#
# Indices 1 2 3 4 5 6 
#
# 1 0.015656 0.001667 -0.001226 0.000000 0.000296 0.000000
# 2 0.001667 0.028688 -0.000492 0.000000 0.006994 0.000000
# 3 -0.001226 -0.000492 0.008659 0.000000 0.000753 0.000000
# 4 0.000000 0.000000 0.000000 0.142138 0.000000 -0.070571
# 5 0.000296 0.006994 0.000753 0.000000 0.026626 0.000000
# 6 0.000000 0.000000 0.000000 -0.070571 0.000000 0.120965
#
#
# Mechanical properties :
#
#
# Convention : Reuss Voigt Hill
#
# Bulk Modulus (GPa) = 18.90312 26.16281 22.53296
# Shear Modulus (GPa) = 13.87089 26.48760 20.17925
#
# Velocity S-wave (km/s) = 2.51165 3.47079 3.02942
# Velocity P-wave (km/s) = 4.12410 5.28777 4.74177
#
# Compressibility (1/GPa) = 0.05290132
#
# Stress axis : x y z
#
# Youngs Moduli (GPa) = 63.87298 34.85732 115.48830
#
# Poissons Ratio (x) = -0.05812 0.14162
# Poissons Ratio (y) = -0.10650 0.05682
# Poissons Ratio (z) = 0.07833 0.01715
#
# Static dielectric constant tensor:
#      x y z
#    x 1.779960 0.000000 -0.021470 
#    y 0.000000 1.792360 0.000000 
#    z -0.021470 0.000000 1.811970 
# 
# From -- ./inp_files/249774.got.cif
#   From: 2010.05.17/outbox.cif.g08.bks.cpg/sg12_125_cif.got.tgz:249774.got - 2010.06.03 13:09:07.
