data_PCOD9201364
_publ_section_title
;
Structure prediction by ZEFSAII (Michael W. Deem and Ramdas Pophale) SiO2 
 PCOD9201364
Probable space group: C 2/M
;
_chemical_formula_sum "Si O2"
_cell_formula_units_Z 56
_cell_length_a 15.371123
_cell_length_b 7.820249
_cell_length_c 25.416360
_cell_angle_alpha 90.000000
_cell_angle_beta 117.255421
_cell_angle_gamma 90.000000
_cell_volume 2715.992097
_symmetry_space_group_name_H-M "C 2/M"
_symmetry_group_IT_number 12
_symmetry_cell_setting 'monoclinic'
loop_
_space_group_symop_operation_xyz
x,y,z
-x,y,-z
-x,-y,-z
x,-y,z
1/2+x,1/2+y,z
1/2-x,1/2+y,-z
1/2-x,1/2-y,-z
1/2+x,1/2-y,z
loop_
_atom_site_type_symbol
_atom_site_label
_atom_site_fract_x
_atom_site_fract_y
_atom_site_fract_z
Si Si1 0.154242 0.205249 0.007953
Si Si2 0.317896 0.295556 0.787542
Si Si3 0.741317 0.702189 0.652274
Si Si4 0.530390 0.705084 0.880058
Si Si5 0.780409 0.707170 0.136375
Si Si6 0.478970 0.793267 0.434551
Si Si7 0.672990 0.793634 0.433017
O O1 0.187234 0.264062 0.074779
O O2 0.142975 0.000000 0.008306
O O3 0.250000 0.250000 0.000000
O O4 0.065001 0.270578 0.947352
O O5 0.322211 0.500000 0.795199
O O6 0.284650 0.263480 0.719191
O O7 0.426612 0.227848 0.830894
O O8 0.240722 0.233681 0.810264
O O9 0.755304 0.500000 0.655254
O O10 0.626663 0.739592 0.614678
O O11 0.792769 0.774334 0.613964
O O12 0.521830 0.500000 0.882724
O O13 0.619077 0.736668 0.863592
O O14 0.782883 0.500000 0.135758
O O15 0.500000 0.733700 0.500000
O O16 0.566752 0.732351 0.421823
O O17 0.480891 0.000000 0.436098
O O18 0.750000 0.750000 0.500000
O O19 0.669551 0.000000 0.429170
#
# Coordination Sequence:
#
# PCOD9201364 Si02
#       7
#     8   8   8   8   8   8   8
#     4   8  14  27  49  77 105 134 174 225 276 322
#     4  10  22  38  54  75 107 148 188 223 266 324
#     4  11  24  39  56  82 114 144 181 226 267 315
#     4   9  18  33  54  79 108 141 180 227 276 326
#     4   9  18  33  54  78 106 142 182 226 275 325
#     4  10  20  37  62  87 112 143 174 211 265 323
#     4  10  21  37  59  86 112 139 172 213 264 317
#
# _framework density 20.618615999999999
#
# number of rings (size 3 to 8) (size 9 to 14) (size 15 to 20)
#    0.000    2.429    1.429    0.429    0.000    4.286 
#    0.000    7.143    0.000    0.000    0.000   11.000 
#    0.000    0.000    0.000    0.000    0.000    0.000 
#
# Total GULP energy -156203.357939 kJ/mol
# GULP energy per Si atom -5578.691355 kJ/mol
# Density = 2.057169 g / cm^3
# Si number density = 20.618616 Si / 1000 Ang^3
#
#
#
# Elastic Constant Matrix: (Units=GPa)
#
#
# Indices 1 2 3 4 5 6 
#
# 1 59.2169 -0.9980 7.1283 0.0000 -10.7084 0.0000
# 2 -0.9980 23.7293 -3.2685 0.0000 -1.2977 0.0000
# 3 7.1283 -3.2685 88.1181 0.0000 -11.6376 0.0000
# 4 0.0000 0.0000 0.0000 14.7274 0.0000 -2.8324
# 5 -10.7084 -1.2977 -11.6376 0.0000 34.4966 0.0000
# 6 0.0000 0.0000 0.0000 -2.8324 0.0000 14.2102
#
#
#
# Elastic Compliance Matrix: (Units=1/GPa)
#
#
# Indices 1 2 3 4 5 6 
#
# 1 0.017960 0.000952 -0.000708 0.000000 0.005372 0.000000
# 2 0.000952 0.042572 0.001834 0.000000 0.002516 0.000000
# 3 -0.000708 0.001834 0.011988 0.000000 0.003893 0.000000
# 4 0.000000 0.000000 0.000000 0.070607 0.000000 0.014074
# 5 0.005372 0.002516 0.003893 0.000000 0.032064 0.000000
# 6 0.000000 0.000000 0.000000 0.014074 0.000000 0.073177
#
#
# Mechanical properties :
#
#
# Convention : Reuss Voigt Hill
#
# Bulk Modulus (GPa) = 13.04193 19.64310 16.34252
# Shear Modulus (GPa) = 18.53421 23.90034 21.21727
#
# Velocity S-wave (km/s) = 3.00143 3.40834 3.21134
# Velocity P-wave (km/s) = 4.28375 5.00366 4.65763
#
# Compressibility (1/GPa) = 0.07667576
#
# Stress axis : x y z
#
# Youngs Moduli (GPa) = 55.67996 23.48947 83.41729
#
# Poissons Ratio (x) = -0.02235 0.05907
# Poissons Ratio (y) = -0.05299 -0.15302
# Poissons Ratio (z) = 0.03943 -0.04309
#
# Static dielectric constant tensor:
#      x y z
#    x 1.737440 0.000000 -0.020600 
#    y 0.000000 1.773630 0.000000 
#    z -0.020600 0.000000 1.752950 
# 
# From -- ./inp_files/309011.got.cif
#   From: 2010.05.17/outbox.cif.g08.bks.cpg/sg12_155_cif.got.tgz:309011.got - 2010.06.03 13:09:07.
