data_PCOD9201743
_publ_section_title
;
Structure prediction by ZEFSAII (Michael W. Deem and Ramdas Pophale) SiO2 
 PCOD9201743
Probable space group: C 2/M
;
_chemical_formula_sum "Si O2"
_cell_formula_units_Z 56
_cell_length_a 17.407623
_cell_length_b 32.829433
_cell_length_c 8.749773
_cell_angle_alpha 90.000000
_cell_angle_beta 34.224778
_cell_angle_gamma 90.000000
_cell_volume 2812.396925
_symmetry_space_group_name_H-M "C 2/M"
_symmetry_group_IT_number 12
_symmetry_cell_setting 'monoclinic'
loop_
_space_group_symop_operation_xyz
x,y,z
-x,y,-z
-x,-y,-z
x,-y,z
1/2+x,1/2+y,z
1/2-x,1/2+y,-z
1/2-x,1/2-y,-z
1/2+x,1/2-y,z
loop_
_atom_site_type_symbol
_atom_site_label
_atom_site_fract_x
_atom_site_fract_y
_atom_site_fract_z
Si Si1 0.862714 0.387895 0.290754
Si Si2 0.841557 0.122127 0.646792
Si Si3 0.110954 0.835316 0.134191
Si Si4 0.429269 0.730396 0.277259
Si Si5 0.695617 0.046917 0.033569
Si Si6 0.873796 0.546624 0.499816
Si Si7 0.703903 0.812397 0.448105
O O1 0.761499 0.376417 0.323243
O O2 0.805111 0.421073 0.501517
O O3 0.897354 0.346253 0.321301
O O4 0.000000 0.406573 0.000000
O O5 0.824668 0.157448 0.804299
O O6 0.994177 0.129468 0.330205
O O7 0.801221 0.079400 0.792408
O O8 0.027034 0.794340 0.230007
O O9 0.221584 0.833599 0.817745
O O10 0.367033 0.769269 0.464205
O O11 0.315165 0.699897 0.395353
O O12 0.500000 0.744225 0.000000
O O13 0.537558 0.054972 0.243715
O O14 0.688044 0.050034 0.229325
O O15 0.727155 0.000000 0.940244
O O16 0.858642 0.500000 0.472609
#
# Coordination Sequence:
#
# PCOD9201743 Si02
#       7
#     8   8   8   8   8   8   8
#     4  12  22  34  59  93 127 154 200 256 304 364
#     4  11  22  38  58  88 124 164 203 245 301 363
#     4  10  22  41  61  83 121 161 200 244 299 365
#     4   9  18  37  65  88 116 152 204 255 305 355
#     4   9  18  37  60  86 123 163 202 250 304 359
#     4   9  19  35  59  91 126 160 198 251 313 358
#     4  10  20  37  64  88 113 160 201 248 303 362
#
# _framework density 19.911840999999999
#
# number of rings (size 3 to 8) (size 9 to 14) (size 15 to 20)
#    0.000    2.000    2.857    2.143    0.000    0.857 
#    0.000    4.286    0.000    0.857    0.000   10.000 
#    0.000    0.000    0.000    0.000    0.000    0.000 
#
# Total GULP energy -155960.316730 kJ/mol
# GULP energy per Si atom -5570.011312 kJ/mol
# Density = 1.986652 g / cm^3
# Si number density = 19.911841 Si / 1000 Ang^3
#
#
#
# Elastic Constant Matrix: (Units=GPa)
#
#
# Indices 1 2 3 4 5 6 
#
# 1 93.5577 46.4165 9.7028 0.0000 14.1578 0.0000
# 2 46.4165 90.3427 56.8769 0.0000 23.9589 0.0000
# 3 9.7028 56.8769 79.5954 0.0000 10.0179 0.0000
# 4 0.0000 0.0000 0.0000 42.2436 0.0000 1.1179
# 5 14.1578 23.9589 10.0179 0.0000 15.6965 0.0000
# 6 0.0000 0.0000 0.0000 1.1179 0.0000 21.3343
#
#
#
# Elastic Compliance Matrix: (Units=1/GPa)
#
#
# Indices 1 2 3 4 5 6 
#
# 1 0.016396 -0.013285 0.007398 0.000000 0.000768 0.000000
# 2 -0.013285 0.043935 -0.024838 0.000000 -0.039226 0.000000
# 3 0.007398 -0.024838 0.027704 0.000000 0.013559 0.000000
# 4 0.000000 0.000000 0.000000 0.023705 0.000000 -0.001242
# 5 0.000768 -0.039226 0.013559 0.000000 0.114237 0.000000
# 6 0.000000 0.000000 0.000000 -0.001242 0.000000 0.046938
#
#
# Mechanical properties :
#
#
# Convention : Reuss Voigt Hill
#
# Bulk Modulus (GPa) = 37.61662 54.38759 46.00211
# Shear Modulus (GPa) = 14.56755 25.88819 20.22787
#
# Velocity S-wave (km/s) = 2.70775 3.60966 3.19073
# Velocity P-wave (km/s) = 5.35803 6.68927 6.06031
#
# Compressibility (1/GPa) = 0.02658399
#
# Stress axis : x y z
#
# Youngs Moduli (GPa) = 60.98902 22.76079 36.09567
#
# Poissons Ratio (x) = 0.30239 -0.26704
# Poissons Ratio (y) = 0.81027 0.89656
# Poissons Ratio (z) = -0.45120 0.56534
#
# Static dielectric constant tensor:
#      x y z
#    x 1.726180 0.000000 0.009060 
#    y 0.000000 1.679490 0.000000 
#    z 0.009060 0.000000 1.727070 
# 
# From -- ./inp_files/80420.got.cif
#   From: 2010.05.17/outbox.cif.g08.bks.cpg/sg12_41_cif.got.tgz:80420.got - 2010.06.03 13:09:07.
