data_PCOD9201507
_publ_section_title
;
Structure prediction by ZEFSAII (Michael W. Deem and Ramdas Pophale) SiO2 
 PCOD9201507
Probable space group: C 2/M
;
_chemical_formula_sum "Si O2"
_cell_formula_units_Z 40
_cell_length_a 17.350462
_cell_length_b 12.487841
_cell_length_c 14.871700
_cell_angle_alpha 90.000000
_cell_angle_beta 148.510060
_cell_angle_gamma 90.000000
_cell_volume 1683.137759
_symmetry_space_group_name_H-M "C 2/M"
_symmetry_group_IT_number 12
_symmetry_cell_setting 'monoclinic'
loop_
_space_group_symop_operation_xyz
x,y,z
-x,y,-z
-x,-y,-z
x,-y,z
1/2+x,1/2+y,z
1/2-x,1/2+y,-z
1/2-x,1/2-y,-z
1/2+x,1/2-y,z
loop_
_atom_site_type_symbol
_atom_site_label
_atom_site_fract_x
_atom_site_fract_y
_atom_site_fract_z
Si Si1 0.411385 0.665513 0.210073
Si Si2 0.179307 0.381695 0.828238
Si Si3 0.672759 0.621206 0.682577
Si Si4 0.780067 0.119382 0.544308
Si Si5 0.832685 0.173446 0.799292
O O1 0.432694 0.791509 0.250592
O O2 0.309772 0.627987 0.191751
O O3 0.567838 0.611836 0.360231
O O4 0.324829 0.643917 0.032108
O O5 0.127703 0.500000 0.795523
O O6 0.224475 0.370495 0.769468
O O7 0.500000 0.652610 0.500000
O O8 0.691712 0.500000 0.672104
O O9 0.783620 0.702126 0.745903
O O10 0.750000 0.250000 0.500000
O O11 0.810802 0.119965 0.681882
O O12 0.705145 0.000000 0.451449
O O13 0.000000 0.162421 0.000000
#
# Coordination Sequence:
#
# PCOD9201507 Si02
#       5
#     8   8   8   8   8
#     4  10  21  37  60  90 121 165 216 261 317 385
#     4  10  20  37  62  90 122 160 209 268 324 382
#     4  10  21  39  61  87 128 180 224 264 325 403
#     4  12  26  44  67  96 134 177 219 269 334 401
#     4  11  23  39  64 100 130 166 219 278 338 392
#
# _framework density 23.765135999999998
#
# number of rings (size 3 to 8) (size 9 to 14) (size 15 to 20)
#    0.000    1.400    2.000    3.600    0.000    4.400 
#    0.000    0.000    0.000    6.600    0.000    0.000 
#    0.000    0.000    0.000    0.000    0.000    0.000 
#
# Total GULP energy -111603.304140 kJ/mol
# GULP energy per Si atom -5580.165207 kJ/mol
# Density = 2.371105 g / cm^3
# Si number density = 23.765136 Si / 1000 Ang^3
#
#
#
# Elastic Constant Matrix: (Units=GPa)
#
#
# Indices 1 2 3 4 5 6 
#
# 1 82.4383 30.9154 10.2383 0.0000 -13.6132 0.0000
# 2 30.9154 222.5804 27.1447 0.0000 5.3749 0.0000
# 3 10.2383 27.1447 32.8060 0.0001 -19.1943 0.0001
# 4 0.0000 0.0000 0.0001 7.5521 0.0000 7.4761
# 5 -13.6132 5.3749 -19.1943 0.0000 35.2585 0.0000
# 6 0.0000 0.0000 0.0001 7.4761 0.0000 1.1179
#
#
#
# Elastic Compliance Matrix: (Units=1/GPa)
#
#
# Indices 1 2 3 4 5 6 
#
# 1 0.013865 -0.002232 0.001249 0.000000 0.006373 0.000000
# 2 -0.002232 0.005875 -0.007619 0.000000 -0.005905 0.000000
# 3 0.001249 -0.007619 0.054819 -0.000001 0.031486 0.000000
# 4 0.000000 0.000000 -0.000001 -0.023560 -0.000001 0.157559
# 5 0.006373 -0.005905 0.031486 -0.000001 0.048863 0.000000
# 6 0.000000 0.000000 0.000000 0.157559 0.000000 -0.159160
#
#
# Mechanical properties :
#
#
# Convention : Reuss Voigt Hill
#
# Bulk Modulus (GPa) = 17.43588 52.71351 35.07469
# Shear Modulus (GPa) = -217.62213 26.75411 -95.43401
#
# Velocity S-wave (km/s) = -9.57971 3.35889 -6.34384
# Velocity P-wave (km/s) = 10.72420 6.10508 6.23443
#
# Compressibility (1/GPa) = 0.05735300
#
# Stress axis : x y z
#
# Youngs Moduli (GPa) = 72.12606 170.22598 18.24187
#
# Poissons Ratio (x) = 0.37993 -0.02277
# Poissons Ratio (y) = 0.16098 0.13899
# Poissons Ratio (z) = -0.09005 1.29698
#
# Static dielectric constant tensor:
#      x y z
#    x 1.858770 0.000000 -0.026390 
#    y 0.000000 2.002260 0.000000 
#    z -0.026390 0.000000 1.938150 
# 
# From -- ./inp_files/222886.got.cif
#   From: 2010.05.17/outbox.cif.g08.bks.cpg/sg12_112_cif.got.tgz:222886.got - 2010.06.03 13:09:07.
