data_PCOD9201899
_publ_section_title
;
Structure prediction by ZEFSAII (Michael W. Deem and Ramdas Pophale) SiO2 
 PCOD9201899
Probable space group: C 2/M
;
_chemical_formula_sum "Si O2"
_cell_formula_units_Z 48
_cell_length_a 9.243700
_cell_length_b 13.201171
_cell_length_c 19.020654
_cell_angle_alpha 90.000000
_cell_angle_beta 101.903129
_cell_angle_gamma 90.000000
_cell_volume 2271.138208
_symmetry_space_group_name_H-M "C 2/M"
_symmetry_group_IT_number 12
_symmetry_cell_setting 'monoclinic'
loop_
_space_group_symop_operation_xyz
x,y,z
-x,y,-z
-x,-y,-z
x,-y,z
1/2+x,1/2+y,z
1/2-x,1/2+y,-z
1/2-x,1/2-y,-z
1/2+x,1/2-y,z
loop_
_atom_site_type_symbol
_atom_site_label
_atom_site_fract_x
_atom_site_fract_y
_atom_site_fract_z
Si Si1 0.913961 0.386418 0.555583
Si Si2 0.624120 0.257443 0.209458
Si Si3 0.336038 0.312153 0.114335
Si Si4 0.848364 0.387216 0.027361
Si Si5 0.897768 0.880248 0.420107
Si Si6 0.416610 0.799956 0.311893
O O1 0.872835 0.500000 0.528590
O O2 0.762981 0.341569 0.569633
O O3 0.000000 0.336226 0.500000
O O4 0.030243 0.384983 0.629830
O O5 0.503998 0.326551 0.156707
O O6 0.716288 0.186088 0.165153
O O7 0.522785 0.199711 0.255291
O O8 0.751346 0.310932 0.267312
O O9 0.329661 0.197137 0.084272
O O10 0.281290 0.377755 0.043395
O O11 0.856414 0.500000 0.057017
O O12 0.000000 0.365726 0.000000
O O13 0.937186 0.805298 0.359261
O O14 0.000000 0.879429 0.500000
O O15 0.888220 0.000000 0.396902
#
# Coordination Sequence:
#
# PCOD9201899 Si02
#       6
#     8   8   8   8   8   8
#     4  10  22  39  59  83 112 148 194 245 292 335
#     4  10  22  37  59  82 122 156 188 220 298 334
#     4  10  20  41  59  88 120 152 178 248 274 332
#     4  10  20  37  66  91 112 151 195 228 278 338
#     4  10  22  39  59  83 112 148 194 245 292 335
#     4  11  21  39  59  85 111 158 192 236 275 359
#
# _framework density 21.134779000000002
#
# number of rings (size 3 to 8) (size 9 to 14) (size 15 to 20)
#    0.000    1.833    3.333    0.500    2.333    1.333 
#    0.000   11.667    0.000    0.000    0.000    0.000 
#    0.000    0.000    0.000    0.000    0.000    0.000 
#
# Total GULP energy -133839.905565 kJ/mol
# GULP energy per Si atom -5576.662732 kJ/mol
# Density = 2.108667 g / cm^3
# Si number density = 21.134779 Si / 1000 Ang^3
#
#
#
# Elastic Constant Matrix: (Units=GPa)
#
#
# Indices 1 2 3 4 5 6 
#
# 1 119.1695 3.7916 38.9242 0.0000 21.0152 0.0000
# 2 3.7916 73.0818 15.3480 0.0000 -19.0582 0.0000
# 3 38.9242 15.3480 84.4694 0.0000 13.7556 0.0000
# 4 0.0000 0.0000 0.0000 -10.5283 0.0000 2.6340
# 5 21.0152 -19.0582 13.7556 0.0000 49.4583 0.0000
# 6 0.0000 0.0000 0.0000 2.6340 0.0000 5.3342
#
#
#
# Elastic Compliance Matrix: (Units=1/GPa)
#
#
# Indices 1 2 3 4 5 6 
#
# 1 0.010365 -0.000586 -0.004102 0.000000 -0.003489 0.000000
# 2 -0.000586 0.016576 -0.004004 0.000000 0.007750 0.000000
# 3 -0.004102 -0.004004 0.015108 0.000000 -0.004002 0.000000
# 4 0.000000 0.000000 0.000000 -0.084538 0.000000 0.041744
# 5 -0.003489 0.007750 -0.004002 0.000000 0.025801 0.000000
# 6 0.000000 0.000000 0.000000 0.041744 0.000000 0.166855
#
#
# Mechanical properties :
#
#
# Convention : Reuss Voigt Hill
#
# Bulk Modulus (GPa) = 40.54264 43.64982 42.09623
# Shear Modulus (GPa) = 28.44611 23.42996 25.93803
#
# Velocity S-wave (km/s) = 3.67268 3.33317 3.50704
# Velocity P-wave (km/s) = 6.09995 5.95914 6.02995
#
# Compressibility (1/GPa) = 0.02466539
#
# Stress axis : x y z
#
# Youngs Moduli (GPa) = 96.47765 60.32988 66.19109
#
# Poissons Ratio (x) = 0.03537 0.27149
# Poissons Ratio (y) = 0.05657 0.26500
# Poissons Ratio (z) = 0.39571 0.24154
#
# Static dielectric constant tensor:
#      x y z
#    x 1.791690 0.000000 0.014170 
#    y 0.000000 1.742260 0.000000 
#    z 0.014170 0.000000 1.785590 
# 
# From -- ./inp_files/255772.got.cif
#   From: 2010.05.17/outbox.cif.g08.bks.cpg/sg12_128_cif.got.tgz:255772.got - 2010.06.03 13:09:07.
