data_PCOD9201879
_publ_section_title
;
Structure prediction by ZEFSAII (Michael W. Deem and Ramdas Pophale) SiO2 
 PCOD9201879
Probable space group: C 2/M
;
_chemical_formula_sum "Si O2"
_cell_formula_units_Z 56
_cell_length_a 18.955032
_cell_length_b 14.160879
_cell_length_c 17.677056
_cell_angle_alpha 90.000000
_cell_angle_beta 148.877246
_cell_angle_gamma 90.000000
_cell_volume 2452.498798
_symmetry_space_group_name_H-M "C 2/M"
_symmetry_group_IT_number 12
_symmetry_cell_setting 'monoclinic'
loop_
_space_group_symop_operation_xyz
x,y,z
-x,y,-z
-x,-y,-z
x,-y,z
1/2+x,1/2+y,z
1/2-x,1/2+y,-z
1/2-x,1/2-y,-z
1/2+x,1/2-y,z
loop_
_atom_site_type_symbol
_atom_site_label
_atom_site_fract_x
_atom_site_fract_y
_atom_site_fract_z
Si Si1 0.459710 0.892881 0.616514
Si Si2 0.466410 0.205772 0.780595
Si Si3 0.256812 0.781839 0.919520
Si Si4 0.259867 0.890425 0.201623
Si Si5 0.885766 0.392180 0.839355
Si Si6 0.096588 0.891831 0.656587
Si Si7 0.345563 0.391479 0.727596
O O1 0.470769 0.823624 0.697904
O O2 0.574445 0.880349 0.656342
O O3 0.306610 0.886686 0.446441
O O4 0.482339 0.000000 0.665968
O O5 0.353434 0.157840 0.730055
O O6 0.440771 0.316191 0.772855
O O7 0.601291 0.162170 0.944744
O O8 0.286938 0.687874 0.899691
O O9 0.129333 0.834438 0.763641
O O10 0.250000 0.750000 0.000000
O O11 0.186293 0.870258 0.213460
O O12 0.229898 0.000000 0.156019
O O13 0.926107 0.500000 0.860760
O O14 0.746269 0.392821 0.757693
O O15 0.000000 0.348283 0.000000
O O16 0.000000 0.853613 0.500000
O O17 0.051904 0.000000 0.631647
O O18 0.394482 0.500000 0.766596
#
# Coordination Sequence:
#
# PCOD9201879 Si02
#       7
#     8   8   8   8   8   8   8
#     4  10  21  41  66  94 128 171 221 276 334 395
#     4  12  23  39  65  95 132 171 218 271 341 401
#     4  12  25  42  63  97 133 175 226 271 341 406
#     4  10  22  41  66  93 125 173 226 274 323 388
#     4  10  20  37  65  97 127 166 216 273 335 395
#     4  10  23  44  69  99 135 177 224 277 337 402
#     4  10  23  41  64  96 134 173 219 271 330 398
#
# _framework density 22.833853999999999
#
# number of rings (size 3 to 8) (size 9 to 14) (size 15 to 20)
#    0.000    1.429    2.857    2.143    0.000    5.714 
#    2.571    1.429    0.000    0.000    0.000    0.000 
#    0.000    0.000    0.000    0.000    0.000    0.000 
#
# Total GULP energy -156141.594234 kJ/mol
# GULP energy per Si atom -5576.485508 kJ/mol
# Density = 2.278188 g / cm^3
# Si number density = 22.833854 Si / 1000 Ang^3
#
#
#
# Elastic Constant Matrix: (Units=GPa)
#
#
# Indices 1 2 3 4 5 6 
#
# 1 61.1944 35.9714 8.8885 -0.0002 -26.6634 -0.0001
# 2 35.9714 88.7596 27.4690 -0.0002 -25.0821 -0.0001
# 3 8.8885 27.4690 96.9711 -0.0002 -14.5825 -0.0002
# 4 -0.0002 -0.0002 -0.0002 25.1523 -0.0001 2.4599
# 5 -26.6634 -25.0821 -14.5825 -0.0001 40.6697 -0.0001
# 6 -0.0001 -0.0001 -0.0002 2.4599 -0.0001 32.1998
#
#
#
# Elastic Compliance Matrix: (Units=1/GPa)
#
#
# Indices 1 2 3 4 5 6 
#
# 1 0.026211 -0.007408 0.001684 0.000000 0.013219 0.000000
# 2 -0.007408 0.016468 -0.003371 0.000000 0.004091 0.000000
# 3 0.001684 -0.003371 0.011591 0.000000 0.003181 0.000000
# 4 0.000000 0.000000 0.000000 0.040057 0.000000 -0.003060
# 5 0.013219 0.004091 0.003181 0.000000 0.036919 0.000000
# 6 0.000000 0.000000 0.000000 -0.003060 0.000000 0.031290
#
#
# Mechanical properties :
#
#
# Convention : Reuss Voigt Hill
#
# Bulk Modulus (GPa) = 27.71581 43.50921 35.61251
# Shear Modulus (GPa) = 25.94002 31.24412 28.59207
#
# Velocity S-wave (km/s) = 3.37417 3.70310 3.54245
# Velocity P-wave (km/s) = 5.22919 6.11392 5.68878
#
# Compressibility (1/GPa) = 0.03608049
#
# Stress axis : x y z
#
# Youngs Moduli (GPa) = 38.15149 60.72471 86.27229
#
# Poissons Ratio (x) = 0.44986 -0.14527
# Poissons Ratio (y) = 0.28263 0.29079
# Poissons Ratio (z) = -0.06424 0.20468
#
# Static dielectric constant tensor:
#      x y z
#    x 2.039750 0.000000 0.052370 
#    y 0.000000 1.919810 0.000000 
#    z 0.052370 0.000000 1.921380 
# 
# From -- ./inp_files/284610.got.cif
#   From: 2010.05.17/outbox.cif.g08.bks.cpg/sg12_143_cif.got.tgz:284610.got - 2010.06.03 13:09:07.
