data_PCOD9201877
_publ_section_title
;
Structure prediction by ZEFSAII (Michael W. Deem and Ramdas Pophale) SiO2 
 PCOD9201877
Probable space group: C 2/M
;
_chemical_formula_sum "Si O2"
_cell_formula_units_Z 40
_cell_length_a 14.975570
_cell_length_b 19.100412
_cell_length_c 8.743883
_cell_angle_alpha 90.000000
_cell_angle_beta 141.178603
_cell_angle_gamma 90.000000
_cell_volume 1567.924364
_symmetry_space_group_name_H-M "C 2/M"
_symmetry_group_IT_number 12
_symmetry_cell_setting 'monoclinic'
loop_
_space_group_symop_operation_xyz
x,y,z
-x,y,-z
-x,-y,-z
x,-y,z
1/2+x,1/2+y,z
1/2-x,1/2+y,-z
1/2-x,1/2-y,-z
1/2+x,1/2-y,z
loop_
_atom_site_type_symbol
_atom_site_label
_atom_site_fract_x
_atom_site_fract_y
_atom_site_fract_z
Si Si1 0.002293 0.919076 0.759675
Si Si2 0.971672 0.580907 0.145061
Si Si3 0.665078 0.780199 0.031064
Si Si4 0.921194 0.774964 0.545863
Si Si5 0.240203 0.080505 0.301582
O O1 0.849567 0.893549 0.963817
O O2 0.947383 0.858160 0.578389
O O3 0.877908 0.920267 0.722360
O O4 0.016642 0.000000 0.725210
O O5 0.939605 0.500000 0.140949
O O6 0.847767 0.636420 0.004317
O O7 0.110273 0.605641 0.428488
O O8 0.000000 0.582813 0.000000
O O9 0.504904 0.752317 0.804431
O O10 0.750000 0.750000 0.000000
O O11 0.755548 0.760827 0.300863
O O12 0.000000 0.744803 0.500000
O O13 0.271374 0.000000 0.303474
#
# Coordination Sequence:
#
# PCOD9201877 Si02
#       5
#     8   8   8   8   8
#     4   9  17  33  58  88 124 158 203 255 315 377
#     4  10  20  37  65  97 127 160 212 270 320 371
#     4  10  23  42  60  85 128 169 208 257 317 383
#     4  10  22  39  58  80 114 168 210 257 311 363
#     4   8  16  31  55  89 124 158 189 251 323 374
#
# _framework density 25.511433
#
# number of rings (size 3 to 8) (size 9 to 14) (size 15 to 20)
#    0.000    2.600    0.000    2.400    2.800    2.800 
#    3.600    5.000    0.000    5.400    0.000    0.000 
#    0.000    0.000    0.000    0.000    0.000    0.000 
#
# Total GULP energy -111681.232403 kJ/mol
# GULP energy per Si atom -5584.061620 kJ/mol
# Density = 2.545337 g / cm^3
# Si number density = 25.511433 Si / 1000 Ang^3
#
#
#
# Elastic Constant Matrix: (Units=GPa)
#
#
# Indices 1 2 3 4 5 6 
#
# 1 57.9719 20.7548 13.1742 0.0000 -0.3367 0.0000
# 2 20.7548 110.8908 42.5823 0.0000 10.7582 0.0000
# 3 13.1742 42.5823 232.9103 0.0000 36.9838 0.0000
# 4 0.0000 0.0000 0.0000 50.6547 0.0000 7.1265
# 5 -0.3367 10.7582 36.9838 0.0000 17.0772 0.0000
# 6 0.0000 0.0000 0.0000 7.1265 0.0000 34.3383
#
#
#
# Elastic Compliance Matrix: (Units=1/GPa)
#
#
# Indices 1 2 3 4 5 6 
#
# 1 0.018843 -0.003560 -0.001265 0.000000 0.005354 0.000000
# 2 -0.003560 0.010508 -0.001002 0.000000 -0.004520 0.000000
# 3 -0.001265 -0.001002 0.006785 0.000000 -0.014089 0.000000
# 4 0.000000 0.000000 0.000000 0.020335 0.000000 -0.004220
# 5 0.005354 -0.004520 -0.014089 0.000000 0.092022 0.000000
# 6 0.000000 0.000000 0.000000 -0.004220 0.000000 0.029998
#
#
# Mechanical properties :
#
#
# Convention : Reuss Voigt Hill
#
# Bulk Modulus (GPa) = 40.84808 61.64395 51.24602
# Shear Modulus (GPa) = 25.21350 42.09815 33.65582
#
# Velocity S-wave (km/s) = 3.14717 4.06663 3.63608
# Velocity P-wave (km/s) = 5.40857 6.80189 6.14485
#
# Compressibility (1/GPa) = 0.02448095
#
# Stress axis : x y z
#
# Youngs Moduli (GPa) = 53.07015 95.17008 147.37543
#
# Poissons Ratio (x) = 0.33884 0.18644
# Poissons Ratio (y) = 0.18895 0.14767
# Poissons Ratio (z) = 0.06714 0.09536
#
# Static dielectric constant tensor:
#      x y z
#    x 1.984600 0.000000 0.004420 
#    y 0.000000 2.024030 0.000000 
#    z 0.004420 0.000000 2.080610 
# 
# From -- ./inp_files/155597.got.cif
#   From: 2010.05.17/outbox.cif.g08.bks.cpg/sg12_78_cif.got.tgz:155597.got - 2010.06.03 13:09:07.
