data_PCOD9201882
_publ_section_title
;
Structure prediction by ZEFSAII (Michael W. Deem and Ramdas Pophale) SiO2 
 PCOD9201882
Probable space group: C 2/M
;
_chemical_formula_sum "Si O2"
_cell_formula_units_Z 64
_cell_length_a 14.111332
_cell_length_b 31.911346
_cell_length_c 8.035822
_cell_angle_alpha 90.000000
_cell_angle_beta 122.861556
_cell_angle_gamma 90.000000
_cell_volume 3039.586609
_symmetry_space_group_name_H-M "C 2/M"
_symmetry_group_IT_number 12
_symmetry_cell_setting 'monoclinic'
loop_
_space_group_symop_operation_xyz
x,y,z
-x,y,-z
-x,-y,-z
x,-y,z
1/2+x,1/2+y,z
1/2-x,1/2+y,-z
1/2-x,1/2-y,-z
1/2+x,1/2-y,z
loop_
_atom_site_type_symbol
_atom_site_label
_atom_site_fract_x
_atom_site_fract_y
_atom_site_fract_z
Si Si1 0.867030 0.865867 0.389131
Si Si2 0.384631 0.264862 0.993081
Si Si3 0.018678 0.698785 0.709979
Si Si4 0.751599 0.048325 0.235354
Si Si5 0.163498 0.428444 0.784618
Si Si6 0.779295 0.291539 0.634814
Si Si7 0.426193 0.952869 0.646216
Si Si8 0.256485 0.155495 0.067824
O O1 0.833890 0.914827 0.380953
O O2 0.809659 0.829559 0.449022
O O3 0.000000 0.860507 0.500000
O O4 0.811718 0.856599 0.159004
O O5 0.305457 0.228836 0.839037
O O6 0.310660 0.306133 0.918311
O O7 0.500000 0.270229 0.000000
O O8 0.431976 0.245526 0.209213
O O9 0.116909 0.668121 0.859484
O O10 0.000000 0.692637 0.500000
O O11 0.900985 0.692545 0.689502
O O12 0.641627 0.054260 0.248799
O O13 0.789429 0.000000 0.296679
O O14 0.722370 0.053653 0.009731
O O15 0.151106 0.451167 0.594202
O O16 0.227502 0.385345 0.805582
O O17 0.032987 0.423205 0.717967
O O18 0.750000 0.250000 0.500000
O O19 0.475142 0.000000 0.701205
#
# Coordination Sequence:
#
# PCOD9201882 Si02
#       8
#     8   8   8   8   8   8   8   8
#     4  11  27  44  67  97 134 178 227 281 335 405
#     4  10  23  42  60  88 126 173 223 269 322 395
#     4  11  24  39  67  92 127 172 217 279 334 401
#     4  10  22  42  68  97 132 176 226 278 340 406
#     4  10  21  36  61  98 138 170 214 272 342 404
#     4  11  25  41  65  96 128 177 218 276 336 397
#     4  10  20  37  65  97 136 174 211 270 337 420
#     4  11  24  40  63  94 130 173 218 281 330 393
#
# _framework density 21.055495000000001
#
# number of rings (size 3 to 8) (size 9 to 14) (size 15 to 20)
#    0.000    1.500    1.250    3.000    8.750    2.250 
#    0.000    0.000    0.000    0.000    0.000    4.375 
#    0.000    0.000    0.000    0.000    0.000    0.000 
#
# Total GULP energy -178474.467886 kJ/mol
# GULP energy per Si atom -5577.327121 kJ/mol
# Density = 2.100757 g / cm^3
# Si number density = 21.055495 Si / 1000 Ang^3
#
#
#
# Elastic Constant Matrix: (Units=GPa)
#
#
# Indices 1 2 3 4 5 6 
#
# 1 80.9350 47.7199 20.3236 0.0000 29.7668 0.0000
# 2 47.7199 134.4451 30.8020 0.0000 22.4958 0.0000
# 3 20.3236 30.8020 75.7289 0.0000 13.7856 0.0000
# 4 0.0000 0.0000 0.0000 28.0445 0.0000 5.7050
# 5 29.7668 22.4958 13.7856 0.0000 36.7886 0.0000
# 6 0.0000 0.0000 0.0000 5.7050 0.0000 70.1458
#
#
#
# Elastic Compliance Matrix: (Units=1/GPa)
#
#
# Indices 1 2 3 4 5 6 
#
# 1 0.020233 -0.004740 -0.001126 0.000000 -0.013051 0.000000
# 2 -0.004740 0.009913 -0.002527 0.000000 -0.001280 0.000000
# 3 -0.001126 -0.002527 0.015119 0.000000 -0.003209 0.000000
# 4 0.000000 0.000000 0.000000 0.036257 0.000000 -0.002949
# 5 -0.013051 -0.001280 -0.003209 0.000000 0.039727 0.000000
# 6 0.000000 0.000000 0.000000 -0.002949 0.000000 0.014496
#
#
# Mechanical properties :
#
#
# Convention : Reuss Voigt Hill
#
# Bulk Modulus (GPa) = 35.11350 54.31113 44.71231
# Shear Modulus (GPa) = 30.85929 39.81334 35.33632
#
# Velocity S-wave (km/s) = 3.83249 4.35314 4.10109
# Velocity P-wave (km/s) = 6.02468 7.14959 6.61111
#
# Compressibility (1/GPa) = 0.02847908
#
# Stress axis : x y z
#
# Youngs Moduli (GPa) = 49.42448 100.87317 66.14043
#
# Poissons Ratio (x) = 0.47811 0.07450
# Poissons Ratio (y) = 0.23426 0.16715
# Poissons Ratio (z) = 0.05567 0.25493
#
# Static dielectric constant tensor:
#      x y z
#    x 1.748580 0.000000 -0.066630 
#    y 0.000000 1.821120 0.000000 
#    z -0.066630 0.000000 1.788060 
# 
# From -- ./inp_files/68645.got.cif
#   From: 2010.05.17/outbox.cif.g08.bks.cpg/sg12_35_cif.got.tgz:68645.got - 2010.06.03 13:09:07.
