data_PCOD9201780
_publ_section_title
;
Structure prediction by ZEFSAII (Michael W. Deem and Ramdas Pophale) SiO2 
 PCOD9201780
Probable space group: C 2/M
;
_chemical_formula_sum "Si O2"
_cell_formula_units_Z 56
_cell_length_a 15.661707
_cell_length_b 13.412390
_cell_length_c 13.086963
_cell_angle_alpha 90.000000
_cell_angle_beta 126.605535
_cell_angle_gamma 90.000000
_cell_volume 2206.834672
_symmetry_space_group_name_H-M "C 2/M"
_symmetry_group_IT_number 12
_symmetry_cell_setting 'monoclinic'
loop_
_space_group_symop_operation_xyz
x,y,z
-x,y,-z
-x,-y,-z
x,-y,z
1/2+x,1/2+y,z
1/2-x,1/2+y,-z
1/2-x,1/2-y,-z
1/2+x,1/2-y,z
loop_
_atom_site_type_symbol
_atom_site_label
_atom_site_fract_x
_atom_site_fract_y
_atom_site_fract_z
Si Si1 0.003400 0.329824 0.618851
Si Si2 0.447183 0.680126 0.074099
Si Si3 0.748034 0.109172 0.223162
Si Si4 0.896581 0.115839 0.526992
Si Si5 0.661192 0.388577 0.300701
Si Si6 0.970811 0.610116 0.807068
Si Si7 0.260270 0.185196 0.168823
O O1 0.121859 0.353967 0.742695
O O2 0.000000 0.367695 0.500000
O O3 0.974061 0.211700 0.590626
O O4 0.935543 0.375148 0.663422
O O5 0.532759 0.622641 0.203332
O O6 0.455777 0.795563 0.113229
O O7 0.500000 0.673553 0.000000
O O8 0.328231 0.642887 0.969959
O O9 0.832196 0.120337 0.375724
O O10 0.631291 0.115430 0.191510
O O11 0.766079 0.196597 0.156307
O O12 0.761011 0.000000 0.187277
O O13 0.816420 0.129724 0.565389
O O14 0.937950 0.000000 0.564674
O O15 0.691769 0.500000 0.294135
O O16 0.715604 0.322217 0.253805
O O17 0.018157 0.500000 0.853995
#
# Coordination Sequence:
#
# PCOD9201780 Si02
#       7
#     8   8   8   8   8   8   8
#     4  12  25  40  62  88 131 168 193 246 309 378
#     4  10  20  40  66  92 117 156 208 258 300 350
#     4  10  20  37  64  93 119 155 208 260 302 348
#     4  10  21  39  65  92 118 158 210 259 305 350
#     4  10  21  40  66  93 119 155 207 260 301 353
#     4  11  24  42  62  89 125 161 203 252 304 366
#     4  11  23  37  61  93 123 161 201 246 304 368
#
# _framework density 25.375710999999999
#
# number of rings (size 3 to 8) (size 9 to 14) (size 15 to 20)
#    0.000    1.429    5.714    0.000    2.000    6.857 
#    0.000    0.000    0.000    0.000    0.000    0.000 
#    0.000    0.000    0.000    0.000    0.000    0.000 
#
# Total GULP energy -156497.958050 kJ/mol
# GULP energy per Si atom -5589.212788 kJ/mol
# Density = 2.531796 g / cm^3
# Si number density = 25.375711 Si / 1000 Ang^3
#
#
#
# Elastic Constant Matrix: (Units=GPa)
#
#
# Indices 1 2 3 4 5 6 
#
# 1 34.5568 -14.4248 27.0610 0.0000 8.7489 0.0000
# 2 -14.4248 65.8040 -18.4048 0.0000 11.5938 0.0000
# 3 27.0610 -18.4048 55.4001 0.0000 13.9684 0.0000
# 4 0.0000 0.0000 0.0000 14.0252 0.0000 -4.5746
# 5 8.7489 11.5938 13.9684 0.0000 38.9060 0.0000
# 6 0.0000 0.0000 0.0000 -4.5746 0.0000 8.0720
#
#
#
# Elastic Compliance Matrix: (Units=1/GPa)
#
#
# Indices 1 2 3 4 5 6 
#
# 1 0.048853 0.005909 -0.020546 0.000000 -0.005370 0.000000
# 2 0.005909 0.019857 0.006089 0.000000 -0.009432 0.000000
# 3 -0.020546 0.006089 0.032328 0.000000 -0.008801 0.000000
# 4 0.000000 0.000000 0.000000 0.087469 0.000000 0.049571
# 5 -0.005370 -0.009432 -0.008801 0.000000 0.032881 0.000000
# 6 0.000000 0.000000 0.000000 0.049571 0.000000 0.151978
#
#
# Mechanical properties :
#
#
# Convention : Reuss Voigt Hill
#
# Bulk Modulus (GPa) = 11.91325 16.02485 13.96905
# Shear Modulus (GPa) = 11.94902 22.96929 17.45915
#
# Velocity S-wave (km/s) = 2.17234 3.01187 2.62587
# Velocity P-wave (km/s) = 3.31618 4.29230 3.83542
#
# Compressibility (1/GPa) = 0.08394017
#
# Stress axis : x y z
#
# Youngs Moduli (GPa) = 20.46950 50.36114 30.93254
#
# Poissons Ratio (x) = -0.29756 0.63555
# Poissons Ratio (y) = -0.12094 -0.18834
# Poissons Ratio (z) = 0.42057 -0.30663
#
# Static dielectric constant tensor:
#      x y z
#    x 2.040860 0.000000 0.002350 
#    y 0.000000 1.991750 0.000000 
#    z 0.002350 0.000000 2.033340 
# 
# From -- ./inp_files/225380.got.cif
#   From: 2010.05.17/outbox.cif.g08.bks.cpg/sg12_113_cif.got.tgz:225380.got - 2010.06.03 13:09:07.
