data_PCOD9201970
_publ_section_title
;
Structure prediction by ZEFSAII (Michael W. Deem and Ramdas Pophale) SiO2 
 PCOD9201970
Probable space group: C 2/M
;
_chemical_formula_sum "Si O2"
_cell_formula_units_Z 56
_cell_length_a 30.195361
_cell_length_b 15.677542
_cell_length_c 6.987739
_cell_angle_alpha 90.000000
_cell_angle_beta 119.230639
_cell_angle_gamma 90.000000
_cell_volume 2886.692182
_symmetry_space_group_name_H-M "C 2/M"
_symmetry_group_IT_number 12
_symmetry_cell_setting 'monoclinic'
loop_
_space_group_symop_operation_xyz
x,y,z
-x,y,-z
-x,-y,-z
x,-y,z
1/2+x,1/2+y,z
1/2-x,1/2+y,-z
1/2-x,1/2-y,-z
1/2+x,1/2-y,z
loop_
_atom_site_type_symbol
_atom_site_label
_atom_site_fract_x
_atom_site_fract_y
_atom_site_fract_z
Si Si1 0.626130 0.785169 0.546105
Si Si2 0.438987 0.500000 0.372062
Si Si3 0.939717 0.000000 0.817165
Si Si4 0.060341 0.195002 0.114597
Si Si5 0.313481 0.102393 0.059869
Si Si6 0.274134 0.403914 0.832382
Si Si7 0.791045 0.324812 0.597318
Si Si8 0.381419 0.333055 0.112471
O O1 0.576801 0.756564 0.322700
O O2 0.638952 0.866085 0.709996
O O3 0.665449 0.795025 0.455574
O O4 0.631233 0.710141 0.711693
O O5 0.500000 0.500000 0.500000
O O6 0.427378 0.500000 0.569126
O O7 0.414823 0.416813 0.226815
O O8 0.920947 0.904778 0.834771
O O9 0.000000 0.000000 0.000000
O O10 0.085027 0.222437 0.964364
O O11 0.000000 0.191127 0.000000
O O12 0.262654 0.127395 0.073666
O O13 0.314194 0.000000 0.041860
O O14 0.309803 0.147734 0.846029
O O15 0.289328 0.500000 0.912854
O O16 0.239029 0.401284 0.570971
O O17 0.326083 0.353664 0.911616
O O18 0.750000 0.250000 0.500000
#
# Coordination Sequence:
#
# PCOD9201970 Si02
#       8
#     8   4   4   8   8   8   8   8
#     4  11  23  38  60  90 116 157 205 251 310 361
#     4  12  22  38  60  83 129 182 211 253 295 353
#     4  10  20  38  54  83 119 164 213 245 288 345
#     4  11  23  39  58  86 126 163 206 253 297 357
#     4  10  22  41  64  87 121 158 203 254 313 380
#     4  10  21  36  55  86 118 156 202 250 298 361
#     4  11  21  38  59  85 120 158 197 251 312 366
#     4  12  23  38  59  89 125 166 212 253 302 352
#
# _framework density 19.399366000000001
#
# number of rings (size 3 to 8) (size 9 to 14) (size 15 to 20)
#    0.000    1.143    2.143    6.000    0.000    2.857 
#    0.000    0.000    0.000    0.429    0.000    4.000 
#    0.000    0.000    0.000    0.000    0.000    0.000 
#
# Total GULP energy -155974.052789 kJ/mol
# GULP energy per Si atom -5570.501885 kJ/mol
# Density = 1.935521 g / cm^3
# Si number density = 19.399366 Si / 1000 Ang^3
#
#
#
# Elastic Constant Matrix: (Units=GPa)
#
#
# Indices 1 2 3 4 5 6 
#
# 1 81.4899 34.9596 51.9162 0.0000 -0.0315 0.0000
# 2 34.9596 73.1607 35.3157 0.0000 2.5769 0.0000
# 3 51.9162 35.3157 141.6931 0.0000 -14.9578 0.0000
# 4 0.0000 0.0000 0.0000 29.0822 0.0000 1.6248
# 5 -0.0315 2.5769 -14.9578 0.0000 33.8528 0.0000
# 6 0.0000 0.0000 0.0000 1.6248 0.0000 19.1303
#
#
#
# Elastic Compliance Matrix: (Units=1/GPa)
#
#
# Indices 1 2 3 4 5 6 
#
# 1 0.018318 -0.006081 -0.005397 0.000000 -0.001905 0.000000
# 2 -0.006081 0.017860 -0.002483 0.000000 -0.002462 0.000000
# 3 -0.005397 -0.002483 0.010147 0.000000 0.004667 0.000000
# 4 0.000000 0.000000 0.000000 0.034549 0.000000 -0.002934
# 5 -0.001905 -0.002462 0.004667 0.000000 0.031788 0.000000
# 6 0.000000 0.000000 0.000000 -0.002934 0.000000 0.052522
#
#
# Mechanical properties :
#
#
# Convention : Reuss Voigt Hill
#
# Bulk Modulus (GPa) = 54.34269 60.08075 57.21172
# Shear Modulus (GPa) = 25.09538 28.02320 26.55929
#
# Velocity S-wave (km/s) = 3.60059 3.80484 3.70412
# Velocity P-wave (km/s) = 6.73492 7.09507 6.91734
#
# Compressibility (1/GPa) = 0.01840174
#
# Stress axis : x y z
#
# Youngs Moduli (GPa) = 54.59145 55.99204 98.55450
#
# Poissons Ratio (x) = 0.34047 0.53191
# Poissons Ratio (y) = 0.33196 0.24474
# Poissons Ratio (z) = 0.29464 0.13905
#
# Static dielectric constant tensor:
#      x y z
#    x 1.699690 0.000000 -0.017240 
#    y 0.000000 1.732770 0.000000 
#    z -0.017240 0.000000 1.710350 
# 
# From -- ./inp_files/32124.got.cif
#   From: 2010.05.17/outbox.cif.g08.bks.cpg/sg12_17_cif.got.tgz:32124.got - 2010.06.03 13:09:07.
