data_PCOD9201715
_publ_section_title
;
Structure prediction by ZEFSAII (Michael W. Deem and Ramdas Pophale) SiO2 
 PCOD9201715
Probable space group: C 2/M
;
_chemical_formula_sum "Si O2"
_cell_formula_units_Z 48
_cell_length_a 11.701963
_cell_length_b 24.356981
_cell_length_c 10.080836
_cell_angle_alpha 90.000000
_cell_angle_beta 107.902677
_cell_angle_gamma 90.000000
_cell_volume 2734.160799
_symmetry_space_group_name_H-M "C 2/M"
_symmetry_group_IT_number 12
_symmetry_cell_setting 'monoclinic'
loop_
_space_group_symop_operation_xyz
x,y,z
-x,y,-z
-x,-y,-z
x,-y,z
1/2+x,1/2+y,z
1/2-x,1/2+y,-z
1/2-x,1/2-y,-z
1/2+x,1/2-y,z
loop_
_atom_site_type_symbol
_atom_site_label
_atom_site_fract_x
_atom_site_fract_y
_atom_site_fract_z
Si Si1 0.736284 0.000000 0.090486
Si Si2 0.770746 0.175312 0.371993
Si Si3 0.578037 0.093771 0.662877
Si Si4 0.493224 0.500000 0.706284
Si Si5 0.635298 0.207542 0.594548
Si Si6 0.000000 0.903160 0.500000
Si Si7 0.913538 0.397669 0.852066
Si Si8 0.258495 0.500000 0.782223
O O1 0.664625 0.947034 0.116172
O O2 0.870196 0.000000 0.196168
O O3 0.743728 0.000000 0.934714
O O4 0.709512 0.185397 0.493928
O O5 0.808487 0.235795 0.336549
O O6 0.885486 0.135458 0.429380
O O7 0.674729 0.147298 0.241560
O O8 0.500000 0.089986 0.500000
O O9 0.623570 0.156467 0.689377
O O10 0.494570 0.080988 0.758707
O O11 0.688620 0.052521 0.699391
O O12 0.474317 0.445252 0.611323
O O13 0.395900 0.500000 0.787582
O O14 0.500000 0.220676 0.500000
O O15 0.000000 0.377007 0.000000
#
# Coordination Sequence:
#
# PCOD9201715 Si02
#       8
#     4   8   8   4   8   4   8   4
#     4  12  24  42  59  89 122 168 206 238 316 386
#     4  11  21  38  65  89 128 162 200 253 311 359
#     4  11  22  39  63  94 121 151 212 263 298 355
#     4  11  25  36  59  89 128 158 201 255 305 373
#     4  10  20  37  63  95 120 156 205 258 302 354
#     4  11  22  38  60  96 122 159 204 258 308 361
#     4  12  23  41  65  89 125 165 202 255 306 365
#     4  12  24  41  60  85 126 167 201 246 314 371
#
# _framework density 17.555662000000002
#
# number of rings (size 3 to 8) (size 9 to 14) (size 15 to 20)
#    0.000    0.833    7.500    2.250    0.000    0.000 
#    0.000    0.833    0.000    0.000    0.000    0.000 
#    0.000    0.000    0.000    0.000    0.000    0.000 
#
# Total GULP energy -134047.968822 kJ/mol
# GULP energy per Si atom -5585.332034 kJ/mol
# Density = 1.751571 g / cm^3
# Si number density = 17.555662 Si / 1000 Ang^3
#
#
#
# Elastic Constant Matrix: (Units=GPa)
#
#
# Indices 1 2 3 4 5 6 
#
# 1 114.0109 50.4627 36.5006 0.0000 0.2387 0.0000
# 2 50.4627 122.0194 39.4738 0.0000 12.4035 0.0000
# 3 36.5006 39.4738 84.2308 0.0000 6.4018 0.0000
# 4 0.0000 0.0000 0.0000 -54.0827 0.0000 -179.5334
# 5 0.2387 12.4035 6.4018 0.0000 38.6430 0.0000
# 6 0.0000 0.0000 0.0000 -179.5334 0.0000 -566.5897
#
#
#
# Elastic Compliance Matrix: (Units=1/GPa)
#
#
# Indices 1 2 3 4 5 6 
#
# 1 0.011545 -0.003877 -0.003317 0.000000 0.001723 0.000000
# 2 -0.003877 0.011183 -0.003332 0.000000 -0.003014 0.000000
# 3 -0.003317 -0.003332 0.014977 0.000000 -0.001391 0.000000
# 4 0.000000 0.000000 0.000000 0.356452 0.000000 -0.112948
# 5 0.001723 -0.003014 -0.001391 0.000000 0.027065 0.000000
# 6 0.000000 0.000000 0.000000 -0.112948 0.000000 0.034024
#
#
# Mechanical properties :
#
#
# Convention : Reuss Voigt Hill
#
# Bulk Modulus (GPa) = 60.04697 63.68168 61.86433
# Shear Modulus (GPa) = 10.37671 -103.48429 -46.55379
#
# Velocity S-wave (km/s) = 2.43384 -7.68598 -5.15513
# Velocity P-wave (km/s) = 6.49431 6.51252 0.34408
#
# Compressibility (1/GPa) = 0.01665363
#
# Stress axis : x y z
#
# Youngs Moduli (GPa) = 86.61474 89.42268 66.77019
#
# Poissons Ratio (x) = 0.34667 0.22149
# Poissons Ratio (y) = 0.33578 0.22246
# Poissons Ratio (z) = 0.28732 0.29793
#
# Static dielectric constant tensor:
#      x y z
#    x 1.600520 0.000000 -0.007130 
#    y 0.000000 1.594300 0.000000 
#    z -0.007130 0.000000 1.573760 
# 
# From -- ./inp_files/51414.got.cif
#   From: 2010.05.17/outbox.cif.g08.bks.cpg/sg12_26_cif.got.tgz:51414.got - 2010.06.03 13:09:07.
