data_PCOD9201239
_publ_section_title
;
Structure prediction by ZEFSAII (Michael W. Deem and Ramdas Pophale) SiO2 
 PCOD9201239
Probable space group: C 2/M
;
_chemical_formula_sum "Si O2"
_cell_formula_units_Z 64
_cell_length_a 14.608237
_cell_length_b 8.273920
_cell_length_c 30.301111
_cell_angle_alpha 90.000000
_cell_angle_beta 132.391698
_cell_angle_gamma 90.000000
_cell_volume 2704.888481
_symmetry_space_group_name_H-M "C 2/M"
_symmetry_group_IT_number 12
_symmetry_cell_setting 'monoclinic'
loop_
_space_group_symop_operation_xyz
x,y,z
-x,y,-z
-x,-y,-z
x,-y,z
1/2+x,1/2+y,z
1/2-x,1/2+y,-z
1/2-x,1/2-y,-z
1/2+x,1/2-y,z
loop_
_atom_site_type_symbol
_atom_site_label
_atom_site_fract_x
_atom_site_fract_y
_atom_site_fract_z
Si Si1 0.648528 0.817038 0.231725
Si Si2 0.269761 0.810448 0.145335
Si Si3 0.503084 0.812598 0.050214
Si Si4 0.504701 0.187847 0.277845
Si Si5 0.110904 0.187689 0.401440
Si Si6 0.082143 0.816219 0.888632
Si Si7 0.859925 0.697877 0.447115
Si Si8 0.363454 0.812083 0.350983
O O1 0.588064 0.808348 0.260950
O O2 0.560808 0.704863 0.173958
O O3 0.790016 0.771769 0.287487
O O4 0.636144 0.000000 0.211220
O O5 0.146841 0.706657 0.109588
O O6 0.370263 0.765594 0.215174
O O7 0.335345 0.785370 0.118924
O O8 0.239909 0.000000 0.140642
O O9 0.419367 0.733970 0.060842
O O10 0.467540 0.000000 0.035929
O O11 0.500000 0.739490 0.000000
O O12 0.560345 0.294987 0.334689
O O13 0.499402 0.000000 0.291665
O O14 0.252176 0.249007 0.445479
O O15 0.010774 0.287938 0.396009
O O16 0.107090 0.000000 0.413374
O O17 0.121812 0.000000 0.896575
O O18 0.859265 0.500000 0.447252
O O19 0.825409 0.751985 0.386554
O O20 0.000000 0.751797 0.500000
O O21 0.331961 0.000000 0.338442
#
# Coordination Sequence:
#
# PCOD9201239 Si02
#       8
#     8   8   8   8   8   8   8   8
#     4  10  20  37  61  89 124 159 199 252 305 363
#     4  10  22  41  64  92 125 164 207 257 310 367
#     4  11  25  44  65  91 125 166 212 259 308 366
#     4   9  19  36  59  87 122 156 194 248 304 359
#     4  11  22  36  58  88 119 158 201 245 301 362
#     4  11  23  40  64  93 126 164 206 254 311 371
#     4   9  20  40  62  84 117 160 204 250 300 359
#     4  11  22  37  59  88 120 158 201 247 304 363
#
# _framework density 23.660865000000001
#
# number of rings (size 3 to 8) (size 9 to 14) (size 15 to 20)
#    0.000    1.750    1.250    3.750    1.750    4.500 
#    0.000    0.000    0.000    5.250    0.000    0.000 
#    0.000    0.000    0.000    0.000    0.000    0.000 
#
# Total GULP energy -178966.072343 kJ/mol
# GULP energy per Si atom -5592.689761 kJ/mol
# Density = 2.360701 g / cm^3
# Si number density = 23.660865 Si / 1000 Ang^3
#
#
#
# Elastic Constant Matrix: (Units=GPa)
#
#
# Indices 1 2 3 4 5 6 
#
# 1 78.2222 -15.5350 9.2525 0.0000 -3.8657 0.0000
# 2 -15.5350 36.1515 -3.1010 0.0000 -6.7648 0.0000
# 3 9.2525 -3.1010 27.0752 0.0000 -6.8496 0.0000
# 4 0.0000 0.0000 0.0000 18.5064 0.0000 0.2428
# 5 -3.8657 -6.7648 -6.8496 0.0000 36.2464 0.0000
# 6 0.0000 0.0000 0.0000 0.2428 0.0000 25.5786
#
#
#
# Elastic Compliance Matrix: (Units=1/GPa)
#
#
# Indices 1 2 3 4 5 6 
#
# 1 0.014584 0.006325 -0.003746 0.000000 0.002028 0.000000
# 2 0.006325 0.032030 0.003350 0.000000 0.007286 0.000000
# 3 -0.003746 0.003350 0.040596 0.000000 0.007897 0.000000
# 4 0.000000 0.000000 0.000000 0.054042 0.000000 -0.000513
# 5 0.002028 0.007286 0.007897 0.000000 0.030657 0.000000
# 6 0.000000 0.000000 0.000000 -0.000513 0.000000 0.039100
#
#
# Mechanical properties :
#
#
# Convention : Reuss Voigt Hill
#
# Bulk Modulus (GPa) = 10.09414 13.63130 11.86272
# Shear Modulus (GPa) = 21.53561 26.12177 23.82869
#
# Velocity S-wave (km/s) = 3.02019 3.32627 3.17692
# Velocity P-wave (km/s) = 4.05432 4.53053 4.29902
#
# Compressibility (1/GPa) = 0.09906742
#
# Stress axis : x y z
#
# Youngs Moduli (GPa) = 68.57023 31.22071 24.63299
#
# Poissons Ratio (x) = -0.19747 0.09228
# Poissons Ratio (y) = -0.43371 -0.08253
# Poissons Ratio (z) = 0.25688 -0.10460
#
# Static dielectric constant tensor:
#      x y z
#    x 1.944430 0.000000 0.001120 
#    y 0.000000 1.803730 0.000000 
#    z 0.001120 0.000000 1.927080 
# 
# From -- ./inp_files/375521.got.cif
#   From: 2010.05.17/outbox.cif.g08.bks.cpg/sg12_188_cif.got.tgz:375521.got - 2010.06.03 13:09:07.
