data_PCOD9201933
_publ_section_title
;
Structure prediction by ZEFSAII (Michael W. Deem and Ramdas Pophale) SiO2 
 PCOD9201933
Probable space group: C 2/M
;
_chemical_formula_sum "Si O2"
_cell_formula_units_Z 64
_cell_length_a 11.493819
_cell_length_b 25.091507
_cell_length_c 11.574410
_cell_angle_alpha 90.000000
_cell_angle_beta 108.348817
_cell_angle_gamma 90.000000
_cell_volume 3168.314568
_symmetry_space_group_name_H-M "C 2/M"
_symmetry_group_IT_number 12
_symmetry_cell_setting 'monoclinic'
loop_
_space_group_symop_operation_xyz
x,y,z
-x,y,-z
-x,-y,-z
x,-y,z
1/2+x,1/2+y,z
1/2-x,1/2+y,-z
1/2-x,1/2-y,-z
1/2+x,1/2-y,z
loop_
_atom_site_type_symbol
_atom_site_label
_atom_site_fract_x
_atom_site_fract_y
_atom_site_fract_z
Si Si1 0.866775 0.151380 0.909340
Si Si2 0.448933 0.809639 0.797903
Si Si3 0.276198 0.439260 0.729240
Si Si4 0.193864 0.306580 0.020049
Si Si5 0.733683 0.440798 0.545574
Si Si6 0.353472 0.675336 0.456565
Si Si7 0.502236 0.899354 0.371223
Si Si8 0.296689 0.724701 0.677215
O O1 0.862494 0.097797 0.833814
O O2 0.782780 0.149002 0.996275
O O3 0.800933 0.192353 0.798355
O O4 0.000000 0.167774 0.000000
O O5 0.568464 0.808898 0.911485
O O6 0.462129 0.856033 0.711307
O O7 0.426309 0.755693 0.720595
O O8 0.338765 0.813236 0.856453
O O9 0.286650 0.500000 0.769610
O O10 0.304862 0.436637 0.601433
O O11 0.133089 0.421667 0.696357
O O12 0.250000 0.250000 0.000000
O O13 0.694366 0.500000 0.576159
O O14 0.687271 0.385338 0.588800
O O15 0.882621 0.439400 0.592704
O O16 0.500000 0.676887 0.500000
O O17 0.297484 0.685918 0.567740
O O18 0.300786 0.727490 0.372405
O O19 0.500000 0.875757 0.500000
#
# Coordination Sequence:
#
# PCOD9201933 Si02
#       8
#     8   8   8   8   8   8   8   8
#     4  12  24  41  64  91 127 174 222 268 317 382
#     4  11  22  38  62  89 127 166 210 261 315 380
#     4  10  21  40  66  93 124 163 215 272 320 378
#     4  11  23  38  59  88 122 171 213 254 312 377
#     4  10  20  40  64  94 125 160 213 262 322 389
#     4  11  25  39  61  92 129 170 199 258 336 389
#     4  10  20  37  67  96 124 160 205 265 332 376
#     4  11  24  41  58  93 127 163 210 257 316 394
#
# _framework density 20.200013999999999
#
# number of rings (size 3 to 8) (size 9 to 14) (size 15 to 20)
#    0.000    1.250    5.000    1.125    1.750    3.500 
#    0.000    0.000    0.000    2.250    0.000    0.000 
#    0.000    0.000    0.000    0.000    0.000    0.000 
#
# Total GULP energy -178432.836593 kJ/mol
# GULP energy per Si atom -5576.026144 kJ/mol
# Density = 2.015404 g / cm^3
# Si number density = 20.200014 Si / 1000 Ang^3
#
#
#
# Elastic Constant Matrix: (Units=GPa)
#
#
# Indices 1 2 3 4 5 6 
#
# 1 71.9802 18.9574 23.8600 0.0000 3.2933 0.0000
# 2 18.9574 128.1702 40.6162 0.0000 -11.8073 0.0000
# 3 23.8600 40.6162 81.9020 0.0000 1.7010 0.0000
# 4 0.0000 0.0000 0.0000 21.6705 0.0000 -0.8347
# 5 3.2933 -11.8073 1.7010 0.0000 19.4243 0.0000
# 6 0.0000 0.0000 0.0000 -0.8347 0.0000 20.8589
#
#
#
# Elastic Compliance Matrix: (Units=1/GPa)
#
#
# Indices 1 2 3 4 5 6 
#
# 1 0.015668 -0.001406 -0.003802 0.000000 -0.003178 0.000000
# 2 -0.001406 0.010149 -0.004765 0.000000 0.006825 0.000000
# 3 -0.003802 -0.004765 0.015756 0.000000 -0.003632 0.000000
# 4 0.000000 0.000000 0.000000 0.046217 0.000000 0.001850
# 5 -0.003178 0.006825 -0.003632 0.000000 0.056487 0.000000
# 6 0.000000 0.000000 0.000000 0.001850 0.000000 0.048015
#
#
# Mechanical properties :
#
#
# Convention : Reuss Voigt Hill
#
# Bulk Modulus (GPa) = 46.23557 49.87996 48.05777
# Shear Modulus (GPa) = 22.78463 25.63201 24.20832
#
# Velocity S-wave (km/s) = 3.36214 3.56604 3.46559
# Velocity P-wave (km/s) = 6.16527 6.45772 6.31319
#
# Compressibility (1/GPa) = 0.02162837
#
# Stress axis : x y z
#
# Youngs Moduli (GPa) = 63.82265 98.53421 63.46898
#
# Poissons Ratio (x) = 0.13850 0.24128
# Poissons Ratio (y) = 0.08971 0.30244
# Poissons Ratio (z) = 0.24263 0.46953
#
# Static dielectric constant tensor:
#      x y z
#    x 1.741090 0.000000 0.003720 
#    y 0.000000 1.758280 0.000000 
#    z 0.003720 0.000000 1.743320 
# 
# From -- ./inp_files/135994.got.cif
#   From: 2010.05.17/outbox.cif.g08.bks.cpg/sg12_68_cif.got.tgz:135994.got - 2010.06.03 13:09:07.
