data_PCOD9201541
_publ_section_title
;
Structure prediction by ZEFSAII (Michael W. Deem and Ramdas Pophale) SiO2 
 PCOD9201541
Probable space group: C 2/M
;
_chemical_formula_sum "Si O2"
_cell_formula_units_Z 60
_cell_length_a 26.251956
_cell_length_b 9.841575
_cell_length_c 11.567365
_cell_angle_alpha 90.000000
_cell_angle_beta 112.215813
_cell_angle_gamma 90.000000
_cell_volume 2766.699980
_symmetry_space_group_name_H-M "C 2/M"
_symmetry_group_IT_number 12
_symmetry_cell_setting 'monoclinic'
loop_
_space_group_symop_operation_xyz
x,y,z
-x,y,-z
-x,-y,-z
x,-y,z
1/2+x,1/2+y,z
1/2-x,1/2+y,-z
1/2-x,1/2-y,-z
1/2+x,1/2-y,z
loop_
_atom_site_type_symbol
_atom_site_label
_atom_site_fract_x
_atom_site_fract_y
_atom_site_fract_z
Si Si1 0.942424 0.717063 0.888447
Si Si2 0.789013 0.213753 0.709245
Si Si3 0.097609 0.836667 0.530874
Si Si4 0.979289 0.650172 0.670771
Si Si5 0.889435 0.000000 0.803773
Si Si6 0.680552 0.146064 0.485831
Si Si7 0.107551 0.660201 0.766428
Si Si8 0.664106 0.844858 0.048389
O O1 0.946339 0.657826 0.762583
O O2 0.891463 0.663054 0.920866
O O3 0.933905 0.878180 0.866119
O O4 0.000000 0.685712 0.000000
O O5 0.840929 0.115376 0.743931
O O6 0.732770 0.150892 0.615542
O O7 0.799525 0.336549 0.628453
O O8 0.790359 0.261148 0.842843
O O9 0.042528 0.768790 0.431176
O O10 0.144089 0.776101 0.486104
O O11 0.111098 0.763324 0.663103
O O12 0.095860 0.000000 0.531671
O O13 0.972696 0.500000 0.611579
O O14 0.043845 0.667000 0.751586
O O15 0.652447 0.000000 0.476984
O O16 0.118164 0.500000 0.745953
O O17 0.146438 0.701796 0.905994
O O18 0.681589 0.000000 0.054897
#
# Coordination Sequence:
#
# PCOD9201541 Si02
#       8
#     8   8   8   8   4   8   8   8
#     4  11  21  35  58  96 133 166 202 246 303 370
#     4  10  22  39  65  95 127 157 198 252 319 381
#     4  12  27  43  61  90 123 164 214 266 313 364
#     4  11  23  39  65  93 125 170 210 255 303 366
#     4  10  21  36  52  88 133 165 193 237 308 372
#     4  11  23  41  68  93 123 162 206 256 313 375
#     4  10  22  43  65  88 123 168 216 255 302 366
#     4  10  20  37  62  91 124 162 203 253 305 368
#
# _framework density 21.686485999999999
#
# number of rings (size 3 to 8) (size 9 to 14) (size 15 to 20)
#    0.000    1.333    2.000    4.200    3.733    3.733 
#    4.800    0.667    0.000    0.000    0.000    0.000 
#    0.000    0.000    0.000    0.000    0.000    0.000 
#
# Total GULP energy -167070.943357 kJ/mol
# GULP energy per Si atom -5569.031445 kJ/mol
# Density = 2.163713 g / cm^3
# Si number density = 21.686486 Si / 1000 Ang^3
#
#
#
# Elastic Constant Matrix: (Units=GPa)
#
#
# Indices 1 2 3 4 5 6 
#
# 1 13.0875 -3.6505 1.3171 0.0000 8.1615 0.0000
# 2 -3.6505 140.4116 62.7684 0.0000 -0.9654 0.0000
# 3 1.3171 62.7684 148.3823 0.0000 14.6671 0.0000
# 4 0.0000 0.0000 0.0000 -36.6882 0.0000 -9.0328
# 5 8.1615 -0.9654 14.6671 0.0000 36.2658 0.0000
# 6 0.0000 0.0000 0.0000 -9.0328 0.0000 18.3454
#
#
#
# Elastic Compliance Matrix: (Units=1/GPa)
#
#
# Indices 1 2 3 4 5 6 
#
# 1 0.089565 0.002035 0.000345 0.000000 -0.020242 0.000000
# 2 0.002035 0.008944 -0.003937 0.000000 0.001372 0.000000
# 3 0.000345 -0.003937 0.008771 0.000000 -0.003730 0.000000
# 4 0.000000 0.000000 0.000000 -0.024310 0.000000 -0.011969
# 5 -0.020242 0.001372 -0.003730 0.000000 0.033674 0.000000
# 6 0.000000 0.000000 0.000000 -0.011969 0.000000 0.048616
#
#
# Mechanical properties :
#
#
# Convention : Reuss Voigt Hill
#
# Bulk Modulus (GPa) = 9.60011 46.97237 28.28624
# Shear Modulus (GPa) = 24.61879 19.68103 22.14991
#
# Velocity S-wave (km/s) = 3.37295 3.01578 3.19935
# Velocity P-wave (km/s) = 4.42780 5.81665 5.16908
#
# Compressibility (1/GPa) = 0.10416544
#
# Stress axis : x y z
#
# Youngs Moduli (GPa) = 11.16507 111.80185 114.01841
#
# Poissons Ratio (x) = -0.22754 -0.03932
# Poissons Ratio (y) = -0.02272 0.44893
# Poissons Ratio (z) = -0.00385 0.44021
#
# Static dielectric constant tensor:
#      x y z
#    x 1.812050 0.000000 -0.017450 
#    y 0.000000 1.779030 0.000000 
#    z -0.017450 0.000000 1.818460 
# 
# From -- ./inp_files/187659.got.cif
#   From: 2010.05.17/outbox.cif.g08.bks.cpg/sg12_94_cif.got.tgz:187659.got - 2010.06.03 13:09:07.
