data_PCOD9201523
_publ_section_title
;
Structure prediction by ZEFSAII (Michael W. Deem and Ramdas Pophale) SiO2 
 PCOD9201523
Probable space group: C 2/M
;
_chemical_formula_sum "Si O2"
_cell_formula_units_Z 48
_cell_length_a 16.638809
_cell_length_b 30.206333
_cell_length_c 9.522021
_cell_angle_alpha 90.000000
_cell_angle_beta 29.513769
_cell_angle_gamma 90.000000
_cell_volume 2357.613543
_symmetry_space_group_name_H-M "C 2/M"
_symmetry_group_IT_number 12
_symmetry_cell_setting 'monoclinic'
loop_
_space_group_symop_operation_xyz
x,y,z
-x,y,-z
-x,-y,-z
x,-y,z
1/2+x,1/2+y,z
1/2-x,1/2+y,-z
1/2-x,1/2-y,-z
1/2+x,1/2-y,z
loop_
_atom_site_type_symbol
_atom_site_label
_atom_site_fract_x
_atom_site_fract_y
_atom_site_fract_z
Si Si1 0.135531 0.224234 0.068680
Si Si2 0.674508 0.629378 0.915350
Si Si3 0.332648 0.551922 0.844958
Si Si4 0.177984 0.548612 0.796725
Si Si5 0.256542 0.278289 0.631009
Si Si6 0.790862 0.130535 0.453059
O O1 0.215633 0.175761 0.926238
O O2 0.944863 0.220714 0.399318
O O3 0.250000 0.250000 0.000000
O O4 0.145921 0.252828 0.910303
O O5 0.686830 0.587022 0.999337
O O6 0.484475 0.637451 0.167949
O O7 0.759120 0.625679 0.634006
O O8 0.500000 0.559825 0.500000
O O9 0.333082 0.500000 0.889266
O O10 0.190994 0.557752 0.942983
O O11 0.255253 0.500000 0.660555
O O12 0.265416 0.586060 0.577103
O O13 0.000000 0.547138 0.000000
O O14 0.250000 0.250000 0.500000
O O15 0.210967 0.328143 0.655257
#
# Coordination Sequence:
#
# PCOD9201523 Si02
#       6
#     8   8   8   8   8   8
#     4  11  24  39  60  90 125 161 204 258 309 358
#     4  10  21  38  60  89 120 152 202 256 296 352
#     4  10  20  37  62  91 119 153 198 246 300 363
#     4  10  22  40  60  88 122 155 195 241 299 369
#     4  11  22  42  62  86 121 163 208 253 302 368
#     4  10  21  38  61  86 117 161 201 244 303 357
#
# _framework density 20.359570999999999
#
# number of rings (size 3 to 8) (size 9 to 14) (size 15 to 20)
#    0.000    1.667    3.333    1.000    2.333    2.000 
#    0.000    2.500    0.000    3.000    0.000    0.000 
#    0.000    0.000    0.000    0.000    0.000    0.000 
#
# Total GULP energy -133879.359888 kJ/mol
# GULP energy per Si atom -5578.306662 kJ/mol
# Density = 2.031323 g / cm^3
# Si number density = 20.359571 Si / 1000 Ang^3
#
#
#
# Elastic Constant Matrix: (Units=GPa)
#
#
# Indices 1 2 3 4 5 6 
#
# 1 107.2690 44.5465 6.5648 0.0000 9.8060 0.0000
# 2 44.5465 158.5493 31.4196 0.0000 33.7816 0.0000
# 3 6.5648 31.4196 39.0225 0.0000 10.6349 0.0000
# 4 0.0000 0.0000 0.0000 -6.3067 0.0000 -5.2152
# 5 9.8060 33.7816 10.6349 0.0000 25.1749 0.0000
# 6 0.0000 0.0000 0.0000 -5.2152 0.0000 33.8915
#
#
#
# Elastic Compliance Matrix: (Units=1/GPa)
#
#
# Indices 1 2 3 4 5 6 
#
# 1 0.010573 -0.003048 0.000772 0.000000 -0.000354 0.000000
# 2 -0.003048 0.010430 -0.004966 0.000000 -0.010710 0.000000
# 3 0.000772 -0.004966 0.031373 0.000000 -0.006890 0.000000
# 4 0.000000 0.000000 0.000000 -0.140664 0.000000 -0.021645
# 5 -0.000354 -0.010710 -0.006890 0.000000 0.057142 0.000000
# 6 0.000000 0.000000 0.000000 -0.021645 0.000000 0.026175
#
#
# Mechanical properties :
#
#
# Convention : Reuss Voigt Hill
#
# Bulk Modulus (GPa) = 26.39119 52.21141 39.30130
# Shear Modulus (GPa) = 225.79325 25.37263 125.58294
#
# Velocity S-wave (km/s) = 10.54246 3.53402 7.86234
# Velocity P-wave (km/s) = 12.69575 6.50790 10.08798
#
# Compressibility (1/GPa) = 0.03789144
#
# Stress axis : x y z
#
# Youngs Moduli (GPa) = 94.57733 95.87987 31.87504
#
# Poissons Ratio (x) = 0.29227 -0.02461
# Poissons Ratio (y) = 0.28830 0.15829
# Poissons Ratio (z) = -0.07303 0.47613
#
# Static dielectric constant tensor:
#      x y z
#    x 1.679450 0.000000 0.037590 
#    y 0.000000 1.678330 0.000000 
#    z 0.037590 0.000000 1.689590 
# 
# From -- ./inp_files/80581.got.cif
#   From: 2010.05.17/outbox.cif.g08.bks.cpg/sg12_41_cif.got.tgz:80581.got - 2010.06.03 13:09:07.
