data_PCOD9201652
_publ_section_title
;
Structure prediction by ZEFSAII (Michael W. Deem and Ramdas Pophale) SiO2 
 PCOD9201652
Probable space group: C 2/M
;
_chemical_formula_sum "Si O2"
_cell_formula_units_Z 52
_cell_length_a 9.499198
_cell_length_b 19.635766
_cell_length_c 17.490994
_cell_angle_alpha 90.000000
_cell_angle_beta 126.505007
_cell_angle_gamma 90.000000
_cell_volume 2622.405914
_symmetry_space_group_name_H-M "C 2/M"
_symmetry_group_IT_number 12
_symmetry_cell_setting 'monoclinic'
loop_
_space_group_symop_operation_xyz
x,y,z
-x,y,-z
-x,-y,-z
x,-y,z
1/2+x,1/2+y,z
1/2-x,1/2+y,-z
1/2-x,1/2-y,-z
1/2+x,1/2-y,z
loop_
_atom_site_type_symbol
_atom_site_label
_atom_site_fract_x
_atom_site_fract_y
_atom_site_fract_z
Si Si1 0.498962 0.775393 0.913569
Si Si2 0.858761 0.421686 0.240301
Si Si3 0.615087 0.711433 0.798074
Si Si4 0.157638 0.576947 0.947460
Si Si5 0.469076 0.577685 0.164681
Si Si6 0.887859 0.304608 0.623335
Si Si7 0.000000 0.760193 0.500000
O O1 0.610189 0.738003 0.884522
O O2 0.299316 0.768173 0.822188
O O3 0.551441 0.855154 0.935585
O O4 0.500000 0.746654 0.000000
O O5 0.895435 0.500000 0.273416
O O6 0.833646 0.419247 0.140953
O O7 0.668945 0.402534 0.212412
O O8 0.011564 0.371774 0.316060
O O9 0.605137 0.630624 0.799059
O O10 0.460392 0.744591 0.701000
O O11 0.088363 0.500000 0.944143
O O12 0.345895 0.581605 0.049798
O O13 0.464396 0.500000 0.189279
O O14 0.678018 0.304538 0.564814
O O15 0.953563 0.285748 0.559173
#
# Coordination Sequence:
#
# PCOD9201652 Si02
#       7
#     8   8   8   8   8   8   4
#     4  12  24  37  53  88 124 166 206 249 291 328
#     4  10  20  37  63  91 124 162 202 244 292 355
#     4  12  24  38  62  86 122 159 206 254 296 355
#     4  10  21  37  56  83 127 174 210 243 283 336
#     4  10  21  36  56  87 126 170 211 244 281 333
#     4  11  22  43  65  93 116 150 198 248 319 375
#     4  10  24  42  70  88 116 146 186 258 326 388
#
# _framework density 19.829118999999999
#
# number of rings (size 3 to 8) (size 9 to 14) (size 15 to 20)
#    0.000    1.231    3.077    3.692    0.000    2.769 
#    0.000    0.769    0.000    3.692    0.000    0.000 
#    0.000    0.000    0.000    0.000    0.000    0.000 
#
# Total GULP energy -145218.000631 kJ/mol
# GULP energy per Si atom -5585.307717 kJ/mol
# Density = 1.978399 g / cm^3
# Si number density = 19.829119 Si / 1000 Ang^3
#
#
#
# Elastic Constant Matrix: (Units=GPa)
#
#
# Indices 1 2 3 4 5 6 
#
# 1 82.9852 19.0564 23.7048 0.0000 13.9986 0.0000
# 2 19.0564 90.0074 31.0453 0.0000 9.1853 0.0000
# 3 23.7048 31.0453 82.6285 0.0000 19.4926 0.0000
# 4 0.0000 0.0000 0.0000 24.7613 0.0000 6.1574
# 5 13.9986 9.1853 19.4926 0.0000 30.5839 0.0000
# 6 0.0000 0.0000 0.0000 6.1574 0.0000 23.4395
#
#
#
# Elastic Compliance Matrix: (Units=1/GPa)
#
#
# Indices 1 2 3 4 5 6 
#
# 1 0.013831 -0.001689 -0.002307 0.000000 -0.004354 0.000000
# 2 -0.001689 0.012992 -0.004306 0.000000 -0.000384 0.000000
# 3 -0.002307 -0.004306 0.016275 0.000000 -0.008024 0.000000
# 4 0.000000 0.000000 0.000000 0.043208 0.000000 -0.011351
# 5 -0.004354 -0.000384 -0.008024 0.000000 0.039919 0.000000
# 6 0.000000 0.000000 0.000000 -0.011351 0.000000 0.045645
#
#
# Mechanical properties :
#
#
# Convention : Reuss Voigt Hill
#
# Bulk Modulus (GPa) = 37.74202 44.80379 41.27290
# Shear Modulus (GPa) = 25.34146 27.87793 26.60970
#
# Velocity S-wave (km/s) = 3.57878 3.75361 3.66724
# Velocity P-wave (km/s) = 6.01264 6.43663 6.22824
#
# Compressibility (1/GPa) = 0.02649567
#
# Stress axis : x y z
#
# Youngs Moduli (GPa) = 72.29959 76.96881 61.44426
#
# Poissons Ratio (x) = 0.12996 0.14172
# Poissons Ratio (y) = 0.12208 0.26460
# Poissons Ratio (z) = 0.16676 0.33146
#
# Static dielectric constant tensor:
#      x y z
#    x 1.699870 0.000000 0.006070 
#    y 0.000000 1.714730 0.000000 
#    z 0.006070 0.000000 1.700860 
# 
# From -- ./inp_files/258548.got.cif
#   From: 2010.05.17/outbox.cif.g08.bks.cpg/sg12_130_cif.got.tgz:258548.got - 2010.06.03 13:09:07.
