data_PCOD9201061
_publ_section_title
;
Structure prediction by ZEFSAII (Michael W. Deem and Ramdas Pophale) SiO2 
 PCOD9201061
Probable space group: C 2/M
;
_chemical_formula_sum "Si O2"
_cell_formula_units_Z 56
_cell_length_a 20.725643
_cell_length_b 8.045312
_cell_length_c 19.373401
_cell_angle_alpha 90.000000
_cell_angle_beta 59.756655
_cell_angle_gamma 90.000000
_cell_volume 2790.726243
_symmetry_space_group_name_H-M "C 2/M"
_symmetry_group_IT_number 12
_symmetry_cell_setting 'monoclinic'
loop_
_space_group_symop_operation_xyz
x,y,z
-x,y,-z
-x,-y,-z
x,-y,z
1/2+x,1/2+y,z
1/2-x,1/2+y,-z
1/2-x,1/2-y,-z
1/2+x,1/2-y,z
loop_
_atom_site_type_symbol
_atom_site_label
_atom_site_fract_x
_atom_site_fract_y
_atom_site_fract_z
Si Si1 0.949081 0.299299 0.356790
Si Si2 0.769360 0.800698 0.697518
Si Si3 0.880804 0.200399 0.755726
Si Si4 0.685845 0.199278 0.479963
Si Si5 0.332892 0.301974 0.933827
Si Si6 0.524309 0.200408 0.062053
Si Si7 0.896322 0.703295 0.234797
O O1 0.949287 0.500000 0.357396
O O2 0.894399 0.242586 0.447376
O O3 0.911342 0.244888 0.305130
O O4 0.034513 0.243481 0.309972
O O5 0.823846 0.736209 0.727881
O O6 0.797649 0.764382 0.605194
O O7 0.684177 0.738951 0.748033
O O8 0.766608 0.000000 0.706755
O O9 0.858591 0.262993 0.844280
O O10 0.875585 0.000000 0.760359
O O11 0.750000 0.250000 0.500000
O O12 0.685172 0.000000 0.477612
O O13 0.334437 0.500000 0.929165
O O14 0.393482 0.246994 0.957520
O O15 0.250000 0.250000 0.000000
O O16 0.464291 0.260034 0.150616
O O17 0.520594 0.000000 0.062817
O O18 0.500000 0.261698 0.000000
O O19 0.895888 0.500000 0.234474
#
# Coordination Sequence:
#
# PCOD9201061 Si02
#       7
#     8   8   8   8   8   8   8
#     4  10  20  37  61  83 113 155 195 236 288 350
#     4  10  21  39  60  85 118 154 196 243 290 344
#     4  10  23  40  61  87 118 155 195 242 291 346
#     4  11  22  37  58  87 118 153 196 244 293 345
#     4  11  24  41  61  87 122 159 197 244 296 352
#     4  10  21  37  63  92 117 153 198 241 294 358
#     4   9  17  34  59  84 112 152 194 235 285 344
#
# _framework density 20.066462000000001
#
# number of rings (size 3 to 8) (size 9 to 14) (size 15 to 20)
#    0.000    1.857    2.857    0.857    2.000    3.143 
#    0.000    3.571    0.000    0.000    0.000    0.000 
#    0.000    0.000    0.000    0.000    0.000    0.000 
#
# Total GULP energy -156388.409083 kJ/mol
# GULP energy per Si atom -5585.300324 kJ/mol
# Density = 2.002079 g / cm^3
# Si number density = 20.066462 Si / 1000 Ang^3
#
#
#
# Elastic Constant Matrix: (Units=GPa)
#
#
# Indices 1 2 3 4 5 6 
#
# 1 185.9906 2.6193 65.3810 -0.0001 -9.3655 -0.0002
# 2 2.6193 11.1591 -2.0083 -0.0003 0.8621 -0.0004
# 3 65.3810 -2.0083 94.7826 0.0000 -16.2374 0.0000
# 4 -0.0001 -0.0003 0.0000 22.4396 0.0000 -5.4075
# 5 -9.3655 0.8621 -16.2374 0.0000 40.7899 -0.0001
# 6 -0.0002 -0.0004 0.0000 -5.4075 -0.0001 26.1777
#
#
#
# Elastic Compliance Matrix: (Units=1/GPa)
#
#
# Indices 1 2 3 4 5 6 
#
# 1 0.007175 -0.002570 -0.005057 0.000000 -0.000311 0.000000
# 2 -0.002570 0.090934 0.003509 0.000002 -0.001115 0.000002
# 3 -0.005057 0.003509 0.014919 0.000000 0.004704 0.000000
# 4 0.000000 0.000002 0.000000 0.046899 0.000000 0.009688
# 5 -0.000311 -0.001115 0.004704 0.000000 0.026340 0.000000
# 6 0.000000 0.000002 0.000000 0.009688 0.000000 0.040202
#
#
# Mechanical properties :
#
#
# Convention : Reuss Voigt Hill
#
# Bulk Modulus (GPa) = 9.54286 47.10179 28.32232
# Shear Modulus (GPa) = 18.54356 32.94411 25.74384
#
# Velocity S-wave (km/s) = 3.04321 4.05625 3.58568
# Velocity P-wave (km/s) = 4.13692 6.74250 5.59355
#
# Compressibility (1/GPa) = 0.10479042
#
# Stress axis : x y z
#
# Youngs Moduli (GPa) = 139.37664 10.99701 67.02916
#
# Poissons Ratio (x) = 0.02826 0.33896
# Poissons Ratio (y) = 0.35822 -0.23518
# Poissons Ratio (z) = 0.70482 -0.03858
#
# Static dielectric constant tensor:
#      x y z
#    x 1.812360 0.000000 -0.028640 
#    y 0.000000 1.725780 0.000000 
#    z -0.028640 0.000000 1.726560 
# 
# From -- ./inp_files/280851.got.cif
#   From: 2010.05.17/outbox.cif.g08.bks.cpg/sg12_141_cif.got.tgz:280851.got - 2010.06.03 13:09:07.
