data_PCOD9201578
_publ_section_title
;
Structure prediction by ZEFSAII (Michael W. Deem and Ramdas Pophale) SiO2 
 PCOD9201578
Probable space group: C 2/M
;
_chemical_formula_sum "Si O2"
_cell_formula_units_Z 56
_cell_length_a 15.086250
_cell_length_b 18.086434
_cell_length_c 20.899732
_cell_angle_alpha 90.000000
_cell_angle_beta 29.653925
_cell_angle_gamma 90.000000
_cell_volume 2821.431669
_symmetry_space_group_name_H-M "C 2/M"
_symmetry_group_IT_number 12
_symmetry_cell_setting 'monoclinic'
loop_
_space_group_symop_operation_xyz
x,y,z
-x,y,-z
-x,-y,-z
x,-y,z
1/2+x,1/2+y,z
1/2-x,1/2+y,-z
1/2-x,1/2-y,-z
1/2+x,1/2-y,z
loop_
_atom_site_type_symbol
_atom_site_label
_atom_site_fract_x
_atom_site_fract_y
_atom_site_fract_z
Si Si1 0.861947 0.275793 0.491465
Si Si2 0.222449 0.764638 0.804024
Si Si3 0.594351 0.792661 0.752316
Si Si4 0.155534 0.915059 0.659440
Si Si5 0.177516 0.825096 0.139034
Si Si6 0.340766 0.086177 0.921446
Si Si7 0.443103 0.584102 0.127008
O O1 0.750000 0.250000 0.500000
O O2 0.777949 0.227113 0.601183
O O3 0.812687 0.359915 0.540981
O O4 0.068906 0.268343 0.346544
O O5 0.123796 0.722968 0.808227
O O6 0.217322 0.718532 0.872516
O O7 0.146938 0.848078 0.853131
O O8 0.442383 0.735524 0.823159
O O9 0.513679 0.872228 0.786184
O O10 0.120716 0.910720 0.758195
O O11 0.974341 0.882524 0.741049
O O12 0.186759 0.000000 0.623571
O O13 0.295204 0.870948 0.015617
O O14 0.369607 0.000000 0.914364
O O15 0.158403 0.093428 0.994715
O O16 0.401840 0.500000 0.131208
#
# Coordination Sequence:
#
# PCOD9201578 Si02
#       7
#     8   8   8   8   8   8   8
#     4  11  21  39  59  91 127 166 210 258 305 374
#     4  12  21  36  64  93 127 165 209 261 309 375
#     4  11  22  39  62  90 123 166 213 251 314 375
#     4   9  17  35  59  85 119 159 200 252 309 355
#     4  10  20  37  62  94 121 158 208 256 311 372
#     4  10  21  43  67  90 127 165 205 268 322 365
#     4   9  19  36  62  96 125 159 202 256 322 373
#
# _framework density 19.848078999999998
#
# number of rings (size 3 to 8) (size 9 to 14) (size 15 to 20)
#    0.000    1.714    7.143    2.143    0.000    1.143 
#    0.000    5.000    0.000    2.571    0.000    0.000 
#    0.000    0.000    0.000    0.000    0.000    0.000 
#
# Total GULP energy -156432.736123 kJ/mol
# GULP energy per Si atom -5586.883433 kJ/mol
# Density = 1.980290 g / cm^3
# Si number density = 19.848079 Si / 1000 Ang^3
#
#
#
# Elastic Constant Matrix: (Units=GPa)
#
#
# Indices 1 2 3 4 5 6 
#
# 1 80.1121 41.1004 22.4226 -0.0011 1.6060 -0.0041
# 2 41.1004 137.0206 64.2458 0.0040 -8.0309 -0.0041
# 3 22.4226 64.2458 71.5181 -0.0018 -15.3137 0.0054
# 4 -0.0011 0.0040 -0.0018 16.4855 0.0039 -1.0179
# 5 1.6060 -8.0309 -15.3137 0.0039 19.2321 -0.0004
# 6 -0.0041 -0.0041 0.0054 -1.0179 -0.0004 31.9959
#
#
#
# Elastic Compliance Matrix: (Units=1/GPa)
#
#
# Indices 1 2 3 4 5 6 
#
# 1 0.015151 -0.003659 -0.002485 0.000003 -0.004772 0.000002
# 2 -0.003659 0.013828 -0.012023 -0.000004 -0.003493 0.000003
# 3 -0.002485 -0.012023 0.029573 0.000001 0.018735 -0.000007
# 4 0.000003 -0.000004 0.000001 0.060779 -0.000013 0.001934
# 5 -0.004772 -0.003493 0.018735 -0.000013 0.065854 -0.000004
# 6 0.000002 0.000003 -0.000007 0.001934 -0.000004 0.031316
#
#
# Mechanical properties :
#
#
# Convention : Reuss Voigt Hill
#
# Bulk Modulus (GPa) = 45.00674 60.46538 52.73606
# Shear Modulus (GPa) = 19.21296 24.26818 21.74057
#
# Velocity S-wave (km/s) = 3.11465 3.50050 3.31320
# Velocity P-wave (km/s) = 5.97156 6.84604 6.42370
#
# Compressibility (1/GPa) = 0.02221889
#
# Stress axis : x y z
#
# Youngs Moduli (GPa) = 66.00244 72.31516 33.81407
#
# Poissons Ratio (x) = 0.26462 0.08402
# Poissons Ratio (y) = 0.24152 0.40655
# Poissons Ratio (z) = 0.16399 0.86944
#
# Static dielectric constant tensor:
#      x y z
#    x 1.719720 0.000000 0.030300 
#    y 0.000000 1.703400 0.000000 
#    z 0.030300 0.000000 1.753870 
# 
# From -- ./inp_files/311665.got.cif
#   From: 2010.05.17/outbox.cif.g08.bks.cpg/sg12_156_cif.got.tgz:311665.got - 2010.06.03 13:09:07.
