data_PCOD9201428
_publ_section_title
;
Structure prediction by ZEFSAII (Michael W. Deem and Ramdas Pophale) SiO2 
 PCOD9201428
Probable space group: C 2/M
;
_chemical_formula_sum "Si O2"
_cell_formula_units_Z 64
_cell_length_a 23.026082
_cell_length_b 26.553842
_cell_length_c 13.571188
_cell_angle_alpha 90.000000
_cell_angle_beta 158.153036
_cell_angle_gamma 90.000000
_cell_volume 3087.866575
_symmetry_space_group_name_H-M "C 2/M"
_symmetry_group_IT_number 12
_symmetry_cell_setting 'monoclinic'
loop_
_space_group_symop_operation_xyz
x,y,z
-x,y,-z
-x,-y,-z
x,-y,z
1/2+x,1/2+y,z
1/2-x,1/2+y,-z
1/2-x,1/2-y,-z
1/2+x,1/2-y,z
loop_
_atom_site_type_symbol
_atom_site_label
_atom_site_fract_x
_atom_site_fract_y
_atom_site_fract_z
Si Si1 0.096137 0.647377 0.809452
Si Si2 0.783666 0.863369 0.495395
Si Si3 0.266906 0.869119 0.363777
Si Si4 0.050009 0.942556 0.922752
Si Si5 0.676021 0.188366 0.142171
Si Si6 0.004758 0.761561 0.621935
Si Si7 0.431815 0.288911 0.067268
Si Si8 0.181233 0.555835 0.821685
O O1 0.056644 0.702920 0.703838
O O2 0.195406 0.607453 0.905065
O O3 0.928729 0.621546 0.564348
O O4 0.170937 0.658120 0.032916
O O5 0.701262 0.864512 0.470662
O O6 0.678578 0.848523 0.237821
O O7 0.892687 0.912252 0.649277
O O8 0.910184 0.818823 0.701245
O O9 0.140192 0.912809 0.150531
O O10 0.191623 0.820668 0.191254
O O11 0.181975 0.941456 0.044536
O O12 0.015851 0.000000 0.892837
O O13 0.546366 0.231726 0.933994
O O14 0.831610 0.223287 0.384234
O O15 0.000000 0.778532 0.500000
O O16 0.103642 0.785814 0.869740
O O17 0.200434 0.500000 0.900334
O O18 0.000000 0.556088 0.500000
#
# Coordination Sequence:
#
# PCOD9201428 Si02
#       8
#     8   8   8   8   8   8   8   8
#     4  11  22  36  58  85 120 155 192 240 293 343
#     4  10  23  39  57  84 120 152 198 247 283 339
#     4  11  21  37  58  88 117 151 198 245 287 336
#     4  10  21  39  65  90 113 143 188 242 299 349
#     4  10  22  39  52  83 118 160 200 233 287 346
#     4  10  21  35  54  79 114 158 197 236 282 341
#     4   9  19  37  54  78 111 152 198 239 281 326
#     4  10  20  37  62  89 114 143 181 236 298 351
#
# _framework density 20.726285000000001
#
# number of rings (size 3 to 8) (size 9 to 14) (size 15 to 20)
#    0.000    1.875    2.500    1.875    0.000    7.000 
#    4.500    0.625    0.000    1.500    0.000    2.625 
#    0.000    0.000    0.000    0.000    0.000    0.000 
#
# Total GULP energy -178449.074559 kJ/mol
# GULP energy per Si atom -5576.533580 kJ/mol
# Density = 2.067911 g / cm^3
# Si number density = 20.726285 Si / 1000 Ang^3
#
#
#
# Elastic Constant Matrix: (Units=GPa)
#
#
# Indices 1 2 3 4 5 6 
#
# 1 63.8104 22.6497 8.0744 0.0000 -5.9207 0.0000
# 2 22.6497 118.8769 21.4894 0.0000 -11.1883 0.0000
# 3 8.0744 21.4894 47.2552 0.0000 -15.9397 0.0000
# 4 0.0000 0.0000 0.0000 6.0331 0.0000 -2.0319
# 5 -5.9207 -11.1883 -15.9397 0.0000 35.5789 0.0000
# 6 0.0000 0.0000 0.0000 -2.0319 0.0000 10.3711
#
#
#
# Elastic Compliance Matrix: (Units=1/GPa)
#
#
# Indices 1 2 3 4 5 6 
#
# 1 0.016972 -0.002901 -0.001102 0.000000 0.001418 0.000000
# 2 -0.002901 0.009705 -0.003594 0.000000 0.000959 0.000000
# 3 -0.001102 -0.003594 0.026554 0.000000 0.010583 0.000000
# 4 0.000000 0.000000 0.000000 0.177461 0.000000 0.034767
# 5 0.001418 0.000959 0.010583 0.000000 0.033385 0.000000
# 6 0.000000 0.000000 0.000000 0.034767 0.000000 0.103233
#
#
# Mechanical properties :
#
#
# Convention : Reuss Voigt Hill
#
# Bulk Modulus (GPa) = 26.29077 37.15218 31.72148
# Shear Modulus (GPa) = 12.65233 22.24522 17.44877
#
# Velocity S-wave (km/s) = 2.47341 3.27966 2.90464
# Velocity P-wave (km/s) = 4.56829 5.68380 5.15630
#
# Compressibility (1/GPa) = 0.03803616
#
# Stress axis : x y z
#
# Youngs Moduli (GPa) = 58.91977 103.04243 37.65871
#
# Poissons Ratio (x) = 0.29892 0.04152
# Poissons Ratio (y) = 0.17092 0.13535
# Poissons Ratio (z) = 0.06495 0.37035
#
# Static dielectric constant tensor:
#      x y z
#    x 1.786630 0.000000 -0.000770 
#    y 0.000000 1.740540 0.000000 
#    z -0.000770 0.000000 1.822300 
# 
# From -- ./inp_files/170637.got.cif
#   From: 2010.05.17/outbox.cif.g08.bks.cpg/sg12_86_cif.got.tgz:170637.got - 2010.06.03 13:09:07.
