data_PCOD9201395
_publ_section_title
;
Structure prediction by ZEFSAII (Michael W. Deem and Ramdas Pophale) SiO2 
 PCOD9201395
Probable space group: C 2/M
;
_chemical_formula_sum "Si O2"
_cell_formula_units_Z 64
_cell_length_a 7.552403
_cell_length_b 30.183537
_cell_length_c 15.450080
_cell_angle_alpha 90.000000
_cell_angle_beta 52.867968
_cell_angle_gamma 90.000000
_cell_volume 2807.880881
_symmetry_space_group_name_H-M "C 2/M"
_symmetry_group_IT_number 12
_symmetry_cell_setting 'monoclinic'
loop_
_space_group_symop_operation_xyz
x,y,z
-x,y,-z
-x,-y,-z
x,-y,z
1/2+x,1/2+y,z
1/2-x,1/2+y,-z
1/2-x,1/2-y,-z
1/2+x,1/2-y,z
loop_
_atom_site_type_symbol
_atom_site_label
_atom_site_fract_x
_atom_site_fract_y
_atom_site_fract_z
Si Si1 0.084162 0.699224 0.699937
Si Si2 0.328296 0.893585 0.971562
Si Si3 0.842912 0.609032 0.411727
Si Si4 0.659902 0.616909 0.647897
Si Si5 0.004826 0.950066 0.828117
Si Si6 0.368510 0.796997 0.950230
Si Si7 0.009473 0.450919 0.229562
Si Si8 0.294384 0.792172 0.626114
O O1 0.019091 0.702797 0.819364
O O2 0.864869 0.703613 0.705113
O O3 0.189884 0.653389 0.635575
O O4 0.222926 0.742198 0.631750
O O5 0.238493 0.843910 0.981939
O O6 0.456966 0.913456 0.852016
O O7 0.500000 0.893083 0.000000
O O8 0.140091 0.927978 0.054336
O O9 0.684868 0.605227 0.540426
O O10 0.093968 0.612963 0.379248
O O11 0.839207 0.566957 0.350811
O O12 0.506520 0.583902 0.747025
O O13 0.611540 0.669603 0.665658
O O14 0.254034 0.953012 0.790976
O O15 0.931013 0.000000 0.828865
O O16 0.500000 0.801918 0.000000
O O17 0.250000 0.750000 0.000000
O O18 0.959945 0.500000 0.210365
O O19 0.500000 0.801908 0.500000
#
# Coordination Sequence:
#
# PCOD9201395 Si02
#       8
#     8   8   8   8   8   8   8   8
#     4  11  21  38  58  82 119 153 195 243 286 350
#     4  11  24  41  60  85 120 156 195 242 298 358
#     4   9  17  35  56  85 118 154 184 241 298 349
#     4   9  18  34  57  85 122 149 191 237 295 350
#     4  10  22  38  61  90 115 151 202 250 295 347
#     4  11  25  42  58  87 119 156 199 238 293 351
#     4  10  20  37  62  88 113 149 200 250 296 350
#     4  11  21  35  59  89 116 157 197 234 292 355
#
# _framework density 22.79299
#
# number of rings (size 3 to 8) (size 9 to 14) (size 15 to 20)
#    0.000    1.750    3.750    1.875    1.750    3.500 
#    0.000    2.500    0.000    0.000    0.000    1.750 
#    0.000    0.000    0.000    0.000    0.000    0.000 
#
# Total GULP energy -178777.934465 kJ/mol
# GULP energy per Si atom -5586.810452 kJ/mol
# Density = 2.274111 g / cm^3
# Si number density = 22.792990 Si / 1000 Ang^3
#
#
#
# Elastic Constant Matrix: (Units=GPa)
#
#
# Indices 1 2 3 4 5 6 
#
# 1 39.7399 20.9297 24.6301 0.0000 11.8373 0.0000
# 2 20.9297 166.3582 44.8795 0.0000 5.7067 0.0000
# 3 24.6301 44.8795 120.8442 0.0000 34.3419 0.0000
# 4 0.0000 0.0000 0.0000 47.4996 0.0000 -6.5723
# 5 11.8373 5.7067 34.3419 0.0000 27.4240 0.0000
# 6 0.0000 0.0000 0.0000 -6.5723 0.0000 9.3210
#
#
#
# Elastic Compliance Matrix: (Units=1/GPa)
#
#
# Indices 1 2 3 4 5 6 
#
# 1 0.031138 -0.002907 -0.002514 0.000000 -0.009688 0.000000
# 2 -0.002907 0.007080 -0.003066 0.000000 0.003621 0.000000
# 3 -0.002514 -0.003066 0.014650 0.000000 -0.016622 0.000000
# 4 0.000000 0.000000 0.000000 0.023329 0.000000 0.016449
# 5 -0.009688 0.003621 -0.016622 0.000000 0.060708 0.000000
# 6 0.000000 0.000000 0.000000 0.016449 0.000000 0.118883
#
#
# Mechanical properties :
#
#
# Convention : Reuss Voigt Hill
#
# Bulk Modulus (GPa) = 27.85921 56.42454 42.14188
# Shear Modulus (GPa) = 17.56075 32.61579 25.08827
#
# Velocity S-wave (km/s) = 2.77870 3.78690 3.32128
# Velocity P-wave (km/s) = 4.74807 6.62796 5.76515
#
# Compressibility (1/GPa) = 0.03589477
#
# Stress axis : x y z
#
# Youngs Moduli (GPa) = 32.11467 141.24857 68.26028
#
# Poissons Ratio (x) = 0.41062 0.17159
# Poissons Ratio (y) = 0.09336 0.20927
# Poissons Ratio (z) = 0.08073 0.43303
#
# Static dielectric constant tensor:
#      x y z
#    x 1.912880 0.000000 -0.017200 
#    y 0.000000 1.887290 0.000000 
#    z -0.017200 0.000000 1.802710 
# 
# From -- ./inp_files/201246.got.cif
#   From: 2010.05.17/outbox.cif.g08.bks.cpg/sg12_101_cif.got.tgz:201246.got - 2010.06.03 13:09:07.
