data_PCOD9201778
_publ_section_title
;
Structure prediction by ZEFSAII (Michael W. Deem and Ramdas Pophale) SiO2 
 PCOD9201778
Probable space group: C 2/M
;
_chemical_formula_sum "Si O2"
_cell_formula_units_Z 36
_cell_length_a 21.996823
_cell_length_b 12.443730
_cell_length_c 22.198080
_cell_angle_alpha 90.000000
_cell_angle_beta 162.299737
_cell_angle_gamma 90.000000
_cell_volume 1847.366271
_symmetry_space_group_name_H-M "C 2/M"
_symmetry_group_IT_number 12
_symmetry_cell_setting 'monoclinic'
loop_
_space_group_symop_operation_xyz
x,y,z
-x,y,-z
-x,-y,-z
x,-y,z
1/2+x,1/2+y,z
1/2-x,1/2+y,-z
1/2-x,1/2-y,-z
1/2+x,1/2-y,z
loop_
_atom_site_type_symbol
_atom_site_label
_atom_site_fract_x
_atom_site_fract_y
_atom_site_fract_z
Si Si1 0.102904 0.877561 0.508542
Si Si2 0.806413 0.124076 0.982304
Si Si3 0.406953 0.280891 0.847643
Si Si4 0.500000 0.211722 0.500000
Si Si5 0.535338 0.296495 0.315170
O O1 0.316027 0.824146 0.728125
O O2 0.952913 0.796079 0.401419
O O3 0.065420 0.868506 0.402518
O O4 0.087348 0.000000 0.513621
O O5 0.941133 0.160027 0.052831
O O6 0.937746 0.143016 0.166528
O O7 0.749641 0.000000 0.923161
O O8 0.614156 0.200106 0.807683
O O9 0.200368 0.346047 0.667915
O O10 0.500000 0.255668 0.000000
O O11 0.750000 0.250000 0.500000
#
# Coordination Sequence:
#
# PCOD9201778 Si02
#       5
#     8   8   8   4   8
#     4  10  20  37  64  92 122 164 205 250 316 369
#     4  11  25  42  65  93 124 167 210 256 313 371
#     4  10  21  39  60  91 128 163 207 258 301 367
#     4   8  19  36  57  88 126 162 199 250 301 366
#     4  11  22  45  64  91 127 161 207 267 308 374
#
# _framework density 19.487203999999998
#
# number of rings (size 3 to 8) (size 9 to 14) (size 15 to 20)
#    1.333    0.444    2.222    2.333    0.000    2.667 
#    0.000    1.667    0.000    0.000    0.000    0.000 
#    0.000    0.000    0.000    0.000    0.000    0.000 
#
# Total GULP energy -100261.855247 kJ/mol
# GULP energy per Si atom -5570.103069 kJ/mol
# Density = 1.944285 g / cm^3
# Si number density = 19.487204 Si / 1000 Ang^3
#
#
#
# Elastic Constant Matrix: (Units=GPa)
#
#
# Indices 1 2 3 4 5 6 
#
# 1 121.9028 28.0328 41.2146 0.0028 -4.1280 0.0030
# 2 28.0328 73.4046 22.3630 -0.0147 -1.0774 -0.0040
# 3 41.2146 22.3630 90.4006 -0.0190 2.9934 -0.0064
# 4 0.0028 -0.0147 -0.0190 6.7260 -0.0029 1.1054
# 5 -4.1280 -1.0774 2.9934 -0.0029 51.7031 -0.0006
# 6 0.0030 -0.0040 -0.0064 1.1054 -0.0006 6.9757
#
#
#
# Elastic Compliance Matrix: (Units=1/GPa)
#
#
# Indices 1 2 3 4 5 6 
#
# 1 0.010211 -0.002657 -0.004031 -0.000020 0.000993 -0.000006
# 2 -0.002657 0.015439 -0.002617 0.000027 0.000261 0.000003
# 3 -0.004031 -0.002617 0.013585 0.000033 -0.001163 0.000007
# 4 -0.000020 0.000027 0.000033 0.152654 0.000005 -0.024191
# 5 0.000993 0.000261 -0.001163 0.000005 0.019493 -0.000001
# 6 -0.000006 0.000003 0.000007 -0.024191 -0.000001 0.147188
#
#
# Mechanical properties :
#
#
# Convention : Reuss Voigt Hill
#
# Bulk Modulus (GPa) = 48.48158 52.10319 50.29238
# Shear Modulus (GPa) = 13.01901 26.02079 19.51990
#
# Velocity S-wave (km/s) = 2.58753 3.65811 3.16836
# Velocity P-wave (km/s) = 5.81891 6.68113 6.26487
#
# Compressibility (1/GPa) = 0.02062639
#
# Stress axis : x y z
#
# Youngs Moduli (GPa) = 97.93706 64.77219 73.60880
#
# Poissons Ratio (x) = 0.17209 0.29670
# Poissons Ratio (y) = 0.26020 0.19260
# Poissons Ratio (z) = 0.39476 0.16948
#
# Static dielectric constant tensor:
#      x y z
#    x 1.727080 0.000000 0.004850 
#    y 0.000000 1.652950 0.000000 
#    z 0.004850 0.000000 1.713120 
# 
# From -- ./inp_files/321649.got.cif
#   From: 2010.05.17/outbox.cif.g08.bks.cpg/sg12_161_cif.got.tgz:321649.got - 2010.06.03 13:09:07.
