data_PCOD9201913
_publ_section_title
;
Structure prediction by ZEFSAII (Michael W. Deem and Ramdas Pophale) SiO2 
 PCOD9201913
Probable space group: C 2/M
;
_chemical_formula_sum "Si O2"
_cell_formula_units_Z 56
_cell_length_a 8.842219
_cell_length_b 13.752855
_cell_length_c 26.381652
_cell_angle_alpha 90.000000
_cell_angle_beta 53.870663
_cell_angle_gamma 90.000000
_cell_volume 2591.193224
_symmetry_space_group_name_H-M "C 2/M"
_symmetry_group_IT_number 12
_symmetry_cell_setting 'monoclinic'
loop_
_space_group_symop_operation_xyz
x,y,z
-x,y,-z
-x,-y,-z
x,-y,z
1/2+x,1/2+y,z
1/2-x,1/2+y,-z
1/2-x,1/2-y,-z
1/2+x,1/2-y,z
loop_
_atom_site_type_symbol
_atom_site_label
_atom_site_fract_x
_atom_site_fract_y
_atom_site_fract_z
Si Si1 0.293756 0.885815 0.652446
Si Si2 0.715681 0.748045 0.187454
Si Si3 0.689622 0.202704 0.725256
Si Si4 0.378973 0.306377 0.901796
Si Si5 0.969201 0.884735 0.395169
Si Si6 0.784589 0.891069 0.023889
Si Si7 0.368692 0.881421 0.477805
O O1 0.218749 0.818130 0.711234
O O2 0.159763 0.870239 0.629677
O O3 0.506796 0.855038 0.595378
O O4 0.292078 0.000000 0.663823
O O5 0.530742 0.811997 0.233828
O O6 0.744685 0.681266 0.230994
O O7 0.691156 0.685561 0.141470
O O8 0.897741 0.813862 0.143364
O O9 0.826119 0.156466 0.656806
O O10 0.332403 0.195249 0.927805
O O11 0.288239 0.372734 0.962673
O O12 0.841676 0.847703 0.467488
O O13 0.990262 0.000000 0.397827
O O14 0.721447 0.000000 0.048461
O O15 0.000000 0.880191 0.000000
O O16 0.500000 0.857285 0.500000
O O17 0.639507 0.000000 0.521715
#
# Coordination Sequence:
#
# PCOD9201913 Si02
#       7
#     8   8   8   8   8   8   8
#     4   9  17  32  53  77 105 141 185 235 286 336
#     4  10  22  37  56  79 116 156 188 214 274 314
#     4  11  20  36  54  78 108 149 192 236 256 329
#     4  10  20  41  60  83 122 156 168 226 272 320
#     4   9  17  32  53  77 105 141 185 235 286 336
#     4  10  20  37  66  97 116 141 181 224 272 320
#     4   7  12  25  48  75 102 133 176 231 291 342
#
# _framework density 21.611664000000001
#
# number of rings (size 3 to 8) (size 9 to 14) (size 15 to 20)
#    0.000    2.571    2.857    1.714    0.000    0.571 
#    0.000   10.714    0.000    0.000    0.000    3.000 
#    0.000    0.000    0.000    0.000    0.000    0.000 
#
# Total GULP energy -156186.886544 kJ/mol
# GULP energy per Si atom -5578.103091 kJ/mol
# Density = 2.156247 g / cm^3
# Si number density = 21.611664 Si / 1000 Ang^3
#
#
#
# Elastic Constant Matrix: (Units=GPa)
#
#
# Indices 1 2 3 4 5 6 
#
# 1 52.7685 7.4363 15.8600 0.0000 -10.8695 0.0000
# 2 7.4363 56.5977 25.8134 0.0000 -4.8791 0.0000
# 3 15.8600 25.8134 95.4027 -0.0001 -18.2130 0.0000
# 4 0.0000 0.0000 -0.0001 10.9248 0.0000 -3.1148
# 5 -10.8695 -4.8791 -18.2130 0.0000 31.1744 0.0000
# 6 0.0000 0.0000 0.0000 -3.1148 0.0000 8.2764
#
#
#
# Elastic Compliance Matrix: (Units=1/GPa)
#
#
# Indices 1 2 3 4 5 6 
#
# 1 0.020960 -0.001334 -0.001990 0.000000 0.005937 0.000000
# 2 -0.001334 0.020241 -0.005334 0.000000 -0.000414 0.000000
# 3 -0.001990 -0.005334 0.013466 0.000000 0.006339 0.000000
# 4 0.000000 0.000000 0.000000 0.102538 0.000000 0.038590
# 5 0.005937 -0.000414 0.006339 0.000000 0.037786 0.000000
# 6 0.000000 0.000000 0.000000 0.038590 0.000000 0.135348
#
#
# Mechanical properties :
#
#
# Convention : Reuss Voigt Hill
#
# Bulk Modulus (GPa) = 26.77369 33.66536 30.21952
# Shear Modulus (GPa) = 13.88486 20.45240 17.16863
#
# Velocity S-wave (km/s) = 2.53745 3.07963 2.82159
# Velocity P-wave (km/s) = 4.58261 5.31571 4.96271
#
# Compressibility (1/GPa) = 0.03735010
#
# Stress axis : x y z
#
# Youngs Moduli (GPa) = 47.71060 49.40489 74.26137
#
# Poissons Ratio (x) = 0.06593 0.14778
# Poissons Ratio (y) = 0.06367 0.39609
# Poissons Ratio (z) = 0.09494 0.26351
#
# Static dielectric constant tensor:
#      x y z
#    x 1.812240 0.000000 -0.014410 
#    y 0.000000 1.773280 0.000000 
#    z -0.014410 0.000000 1.801540 
# 
# From -- ./inp_files/332672.got.cif
#   From: 2010.05.17/outbox.cif.g08.bks.cpg/sg12_167_cif.got.tgz:332672.got - 2010.06.03 13:09:07.
