data_PCOD9201563
_publ_section_title
;
Structure prediction by ZEFSAII (Michael W. Deem and Ramdas Pophale) SiO2 
 PCOD9201563
Probable space group: C 2/M
;
_chemical_formula_sum "Si O2"
_cell_formula_units_Z 64
_cell_length_a 23.774738
_cell_length_b 9.318652
_cell_length_c 21.621703
_cell_angle_alpha 90.000000
_cell_angle_beta 143.202356
_cell_angle_gamma 90.000000
_cell_volume 2869.318708
_symmetry_space_group_name_H-M "C 2/M"
_symmetry_group_IT_number 12
_symmetry_cell_setting 'monoclinic'
loop_
_space_group_symop_operation_xyz
x,y,z
-x,y,-z
-x,-y,-z
x,-y,z
1/2+x,1/2+y,z
1/2-x,1/2+y,-z
1/2-x,1/2-y,-z
1/2+x,1/2-y,z
loop_
_atom_site_type_symbol
_atom_site_label
_atom_site_fract_x
_atom_site_fract_y
_atom_site_fract_z
Si Si1 0.112289 0.161764 0.604291
Si Si2 0.944645 0.333497 0.648045
Si Si3 0.444645 0.666503 0.148045
Si Si4 0.112289 0.338236 0.104291
Si Si5 0.369629 0.835631 0.260376
Si Si6 0.630371 0.335631 0.239624
Si Si7 0.212529 0.167495 0.559513
Si Si8 0.787471 0.667495 0.940487
O O1 0.145362 0.273288 0.684671
O O2 0.158584 0.178146 0.578149
O O3 0.000000 0.172719 0.500000
O O4 0.133997 0.000000 0.646313
O O5 0.928422 0.500000 0.649846
O O6 0.019934 0.330178 0.658033
O O7 1.000000 0.250000 0.750000
O O8 0.850247 0.254283 0.544339
O O9 0.428423 0.500000 0.149846
O O10 0.519934 0.669822 0.158032
O O11 0.350246 0.745717 0.044339
O O12 0.133997 0.500000 0.146313
O O13 0.145362 0.226712 0.184671
O O14 0.158584 0.321854 0.078149
O O15 0.000000 0.327281 0.000000
O O16 0.312269 0.739458 0.161303
O O17 0.338032 0.000000 0.227362
O O18 0.661968 0.500000 0.272638
O O19 0.687731 0.239458 0.338697
O O20 0.219451 0.000000 0.549139
O O21 0.780549 0.500000 0.950861
#
# Coordination Sequence:
#
# PCOD9201563 Si02
#       8
#     8   8   8   8   8   8   8   8
#     4  10  20  37  62  92 126 163 202 244 298 363
#     4  11  25  44  65  89 120 160 207 256 306 359
#     4  11  25  44  65  89 120 160 207 256 306 359
#     4  10  20  37  62  92 126 163 202 244 298 363
#     4  11  24  40  62  93 127 161 200 250 307 363
#     4  11  24  40  62  93 127 161 200 250 307 363
#     4  11  23  40  65  93 124 163 204 248 301 361
#     4  11  23  40  65  93 124 163 204 248 301 361
#
# _framework density 22.304946000000001
#
# number of rings (size 3 to 8) (size 9 to 14) (size 15 to 20)
#    0.000    1.250    2.500    3.000    0.000    9.500 
#    0.000    0.000    0.000    0.000    0.000    0.000 
#    0.000    0.000    0.000    0.000    0.000    0.000 
#
# Total GULP energy -179185.412526 kJ/mol
# GULP energy per Si atom -5599.544141 kJ/mol
# Density = 2.225418 g / cm^3
# Si number density = 22.304946 Si / 1000 Ang^3
#
#
#
# Elastic Constant Matrix: (Units=GPa)
#
#
# Indices 1 2 3 4 5 6 
#
# 1 57.2040 10.8470 -2.3973 0.0000 5.3305 0.0000
# 2 10.8470 185.3377 83.8801 0.0000 -9.4106 0.0000
# 3 -2.3973 83.8801 125.9779 0.0000 9.9602 0.0000
# 4 0.0000 0.0000 0.0000 47.3080 0.0000 -4.0748
# 5 5.3305 -9.4106 9.9602 0.0000 39.4889 0.0000
# 6 0.0000 0.0000 0.0000 -4.0748 0.0000 22.9046
#
#
#
# Elastic Compliance Matrix: (Units=1/GPa)
#
#
# Indices 1 2 3 4 5 6 
#
# 1 0.018314 -0.002196 0.002089 0.000000 -0.003522 0.000000
# 2 -0.002196 0.008404 -0.005938 0.000000 0.003797 0.000000
# 3 0.002089 -0.005938 0.012311 0.000000 -0.004802 0.000000
# 4 0.000000 0.000000 0.000000 0.021467 0.000000 0.003819
# 5 -0.003522 0.003797 -0.004802 0.000000 0.027915 0.000000
# 6 0.000000 0.000000 0.000000 0.003819 0.000000 0.044339
#
#
# Mechanical properties :
#
#
# Convention : Reuss Voigt Hill
#
# Bulk Modulus (GPa) = 37.12054 61.46435 49.29245
# Shear Modulus (GPa) = 32.50579 40.35295 36.42937
#
# Velocity S-wave (km/s) = 3.82165 4.25802 4.04572
# Velocity P-wave (km/s) = 6.01263 7.19656 6.63107
#
# Compressibility (1/GPa) = 0.02693926
#
# Stress axis : x y z
#
# Youngs Moduli (GPa) = 54.60438 118.98805 81.22877
#
# Poissons Ratio (x) = 0.26133 -0.16971
# Poissons Ratio (y) = 0.11993 0.48232
# Poissons Ratio (z) = -0.11409 0.70653
#
# Static dielectric constant tensor:
#      x y z
#    x 1.858790 0.000000 0.011720 
#    y 0.000000 1.766100 0.000000 
#    z 0.011720 0.000000 1.769520 
# 
# From -- ./inp_files/353497.got.cif
#   From: 2010.05.17/outbox.cif.g08.bks.cpg/sg12_177_cif.got.tgz:353497.got - 2010.06.03 13:09:07.
