data_PCOD9201370
_publ_section_title
;
Structure prediction by ZEFSAII (Michael W. Deem and Ramdas Pophale) SiO2 
 PCOD9201370
Probable space group: C 2/M
;
_chemical_formula_sum "Si O2"
_cell_formula_units_Z 48
_cell_length_a 15.470562
_cell_length_b 8.859042
_cell_length_c 19.422643
_cell_angle_alpha 90.000000
_cell_angle_beta 90.148929
_cell_angle_gamma 90.000000
_cell_volume 2661.948885
_symmetry_space_group_name_H-M "C 2/M"
_symmetry_group_IT_number 12
_symmetry_cell_setting 'monoclinic'
loop_
_space_group_symop_operation_xyz
x,y,z
-x,y,-z
-x,-y,-z
x,-y,z
1/2+x,1/2+y,z
1/2-x,1/2+y,-z
1/2-x,1/2-y,-z
1/2+x,1/2-y,z
loop_
_atom_site_type_symbol
_atom_site_label
_atom_site_fract_x
_atom_site_fract_y
_atom_site_fract_z
Si Si1 0.624412 0.818172 0.324870
Si Si2 0.220885 0.818950 0.572814
Si Si3 0.722695 0.818026 0.926789
Si Si4 0.475233 0.181559 0.078801
Si Si5 0.877016 0.180778 0.826470
Si Si6 0.534077 0.818295 0.576616
O O1 0.708676 0.775308 0.369518
O O2 0.624366 0.745632 0.250078
O O3 0.539321 0.776296 0.368565
O O4 0.624289 0.000000 0.318291
O O5 0.250000 0.750000 0.500000
O O6 0.125572 0.759515 0.589601
O O7 0.221056 0.000000 0.567299
O O8 0.624337 0.774420 0.909632
O O9 0.791562 0.772284 0.869078
O O10 0.724534 0.000000 0.932701
O O11 0.750000 0.750000 0.000000
O O12 0.540841 0.258953 0.131098
O O13 0.482774 0.000000 0.085971
O O14 0.500000 0.219601 0.000000
O O15 0.879144 0.000000 0.824197
O O16 0.500000 0.779691 0.500000
O O17 0.545384 0.000000 0.578433
#
# Coordination Sequence:
#
# PCOD9201370 Si02
#       6
#     8   8   8   8   8   8
#     4  10  23  42  61  83 121 162 194 237 300 362
#     4  11  22  38  62  92 121 156 202 247 295 355
#     4  10  21  37  59  87 116 151 195 241 289 345
#     4  10  20  37  62  87 114 154 198 236 289 358
#     4  11  24  39  58  88 123 152 192 248 297 342
#     4  10  20  39  63  88 118 155 200 248 299 353
#
# _framework density 18.0319
#
# number of rings (size 3 to 8) (size 9 to 14) (size 15 to 20)
#    0.000    1.667    3.333    1.000    0.000    5.333 
#    0.000    5.000    0.000    0.000    0.000    0.000 
#    0.000    0.000    0.000    0.000    0.000    0.000 
#
# Total GULP energy -134091.097647 kJ/mol
# GULP energy per Si atom -5587.129069 kJ/mol
# Density = 1.799086 g / cm^3
# Si number density = 18.031900 Si / 1000 Ang^3
#
#
#
# Elastic Constant Matrix: (Units=GPa)
#
#
# Indices 1 2 3 4 5 6 
#
# 1 216.1027 57.6568 120.4394 0.0000 0.8604 0.0000
# 2 57.6568 28.2331 56.0804 0.0000 1.9297 0.0000
# 3 120.4394 56.0804 193.1168 0.0000 -0.1542 0.0000
# 4 0.0000 0.0000 0.0000 33.4784 0.0000 1.5030
# 5 0.8604 1.9297 -0.1542 0.0000 31.3496 0.0000
# 6 0.0000 0.0000 0.0000 1.5030 0.0000 32.8132
#
#
#
# Elastic Compliance Matrix: (Units=1/GPa)
#
#
# Indices 1 2 3 4 5 6 
#
# 1 0.010238 -0.019588 -0.000696 0.000000 0.000921 0.000000
# 2 -0.019588 0.122058 -0.023235 0.000000 -0.007090 0.000000
# 3 -0.000696 -0.023235 0.012361 0.000000 0.001510 0.000000
# 4 0.000000 0.000000 0.000000 0.029932 0.000000 -0.001371
# 5 0.000921 -0.007090 0.001510 0.000000 0.032317 0.000000
# 6 0.000000 0.000000 0.000000 -0.001371 0.000000 0.030538
#
#
# Mechanical properties :
#
#
# Convention : Reuss Voigt Hill
#
# Bulk Modulus (GPa) = 17.35530 100.64510 59.00020
# Shear Modulus (GPa) = 14.54819 33.07999 23.81409
#
# Velocity S-wave (km/s) = 2.84351 4.28778 3.63804
# Velocity P-wave (km/s) = 4.51956 8.96937 7.10197
#
# Compressibility (1/GPa) = 0.05761929
#
# Stress axis : x y z
#
# Youngs Moduli (GPa) = 97.67846 8.19286 80.90202
#
# Poissons Ratio (x) = 0.16048 0.05630
# Poissons Ratio (y) = 1.91331 1.87972
# Poissons Ratio (z) = 0.06797 0.19036
#
# Static dielectric constant tensor:
#      x y z
#    x 1.609840 0.000000 -0.012740 
#    y 0.000000 1.606740 0.000000 
#    z -0.012740 0.000000 1.577440 
# 
# From -- ./inp_files/267597.got.cif
#   From: 2010.05.17/outbox.cif.g08.bks.cpg/sg12_134_cif.got.tgz:267597.got - 2010.06.03 13:09:07.
