data_PCOD9201053
_publ_section_title
;
Structure prediction by ZEFSAII (Michael W. Deem and Ramdas Pophale) SiO2 
 PCOD9201053
Probable space group: C 2/M
;
_chemical_formula_sum "Si O2"
_cell_formula_units_Z 56
_cell_length_a 27.077537
_cell_length_b 17.744339
_cell_length_c 7.775072
_cell_angle_alpha 90.000000
_cell_angle_beta 134.610191
_cell_angle_gamma 90.000000
_cell_volume 2659.457748
_symmetry_space_group_name_H-M "C 2/M"
_symmetry_group_IT_number 12
_symmetry_cell_setting 'monoclinic'
loop_
_space_group_symop_operation_xyz
x,y,z
-x,y,-z
-x,-y,-z
x,-y,z
1/2+x,1/2+y,z
1/2-x,1/2+y,-z
1/2-x,1/2-y,-z
1/2+x,1/2-y,z
loop_
_atom_site_type_symbol
_atom_site_label
_atom_site_fract_x
_atom_site_fract_y
_atom_site_fract_z
Si Si1 0.157434 0.706768 0.187935
Si Si2 0.285648 0.372619 0.596256
Si Si3 0.381209 0.793359 0.516891
Si Si4 0.505933 0.580388 0.810447
Si Si5 0.149956 0.881837 0.595695
Si Si6 0.232456 0.416724 0.835887
Si Si7 0.026312 0.758413 0.747012
O O1 0.215992 0.644647 0.315652
O O2 0.191057 0.789721 0.281079
O O3 0.123004 0.694383 0.289235
O O4 0.095771 0.710172 0.902701
O O5 0.335048 0.404654 0.567699
O O6 0.266995 0.413135 0.728456
O O7 0.352839 0.709224 0.411535
O O8 0.328201 0.853733 0.306234
O O9 0.462542 0.787885 0.670974
O O10 0.535605 0.500000 0.818901
O O11 0.427214 0.589816 0.547872
O O12 0.542642 0.661073 0.874268
O O13 0.500000 0.575378 0.000000
O O14 0.207873 0.905333 0.874651
O O15 0.202238 0.500000 0.784764
O O16 0.000000 0.782543 0.500000
#
# Coordination Sequence:
#
# PCOD9201053 Si02
#       7
#     8   8   8   8   8   8   8
#     4   9  18  36  57  86 106 144 186 228 285 323
#     4   9  20  35  60  82 116 142 184 235 273 341
#     4   9  20  38  57  79 113 148 188 241 271 335
#     4  10  21  38  54  77 115 154 186 221 281 345
#     4  10  20  37  61  82 111 156 191 230 277 329
#     4  11  23  36  57  87 117 148 187 234 292 341
#     4  11  22  32  58  85 108 144 191 237 279 329
#
# _framework density 21.056925
#
# number of rings (size 3 to 8) (size 9 to 14) (size 15 to 20)
#    0.000    2.143    0.000    4.714    6.000    1.429 
#    0.000    0.714    0.000    7.286    0.000    0.000 
#    0.000    0.000    0.000    0.000    0.000    0.000 
#
# Total GULP energy -156169.927095 kJ/mol
# GULP energy per Si atom -5577.497396 kJ/mol
# Density = 2.100900 g / cm^3
# Si number density = 21.056925 Si / 1000 Ang^3
#
#
#
# Elastic Constant Matrix: (Units=GPa)
#
#
# Indices 1 2 3 4 5 6 
#
# 1 39.0650 6.0493 0.6181 0.0000 9.3463 0.0000
# 2 6.0493 62.0378 26.6525 0.0000 4.1199 0.0000
# 3 0.6181 26.6525 93.1530 0.0000 3.6433 0.0000
# 4 0.0000 0.0000 0.0000 79.0688 0.0000 3.8267
# 5 9.3463 4.1199 3.6433 0.0000 25.0606 0.0000
# 6 0.0000 0.0000 0.0000 3.8267 0.0000 4.0554
#
#
#
# Elastic Compliance Matrix: (Units=1/GPa)
#
#
# Indices 1 2 3 4 5 6 
#
# 1 0.028441 -0.002485 0.000926 0.000000 -0.010333 0.000000
# 2 -0.002485 0.018725 -0.005287 0.000000 -0.001383 0.000000
# 3 0.000926 -0.005287 0.012291 0.000000 -0.001263 0.000000
# 4 0.000000 0.000000 0.000000 0.013252 0.000000 -0.012505
# 5 -0.010333 -0.001383 -0.001263 0.000000 0.044168 0.000000
# 6 0.000000 0.000000 0.000000 -0.012505 0.000000 0.258383
#
#
# Mechanical properties :
#
#
# Convention : Reuss Voigt Hill
#
# Bulk Modulus (GPa) = 21.85058 28.98840 25.41949
# Shear Modulus (GPa) = 12.36994 32.36602 22.36798
#
# Velocity S-wave (km/s) = 2.42637 3.92481 3.26277
# Velocity P-wave (km/s) = 4.27190 5.85964 5.12760
#
# Compressibility (1/GPa) = 0.04576537
#
# Stress axis : x y z
#
# Youngs Moduli (GPa) = 35.16086 53.40547 81.36081
#
# Poissons Ratio (x) = 0.13272 -0.07537
# Poissons Ratio (y) = 0.08738 0.43014
# Poissons Ratio (z) = -0.03257 0.28235
#
# Static dielectric constant tensor:
#      x y z
#    x 1.820980 0.000000 0.011990 
#    y 0.000000 1.797360 0.000000 
#    z 0.011990 0.000000 1.787980 
# 
# From -- ./inp_files/112656.got.cif
#   From: 2010.05.17/outbox.cif.g08.bks.cpg/sg12_57_cif.got.tgz:112656.got - 2010.06.03 13:09:07.
