data_PCOD9201503
_publ_section_title
;
Structure prediction by ZEFSAII (Michael W. Deem and Ramdas Pophale) SiO2 
 PCOD9201503
Probable space group: C 2/M
;
_chemical_formula_sum "Si O2"
_cell_formula_units_Z 32
_cell_length_a 8.484831
_cell_length_b 18.238154
_cell_length_c 12.570182
_cell_angle_alpha 90.000000
_cell_angle_beta 46.738965
_cell_angle_gamma 90.000000
_cell_volume 1416.574988
_symmetry_space_group_name_H-M "C 2/M"
_symmetry_group_IT_number 12
_symmetry_cell_setting 'monoclinic'
loop_
_space_group_symop_operation_xyz
x,y,z
-x,y,-z
-x,-y,-z
x,-y,z
1/2+x,1/2+y,z
1/2-x,1/2+y,-z
1/2-x,1/2-y,-z
1/2+x,1/2-y,z
loop_
_atom_site_type_symbol
_atom_site_label
_atom_site_fract_x
_atom_site_fract_y
_atom_site_fract_z
Si Si1 0.624810 0.373147 0.332612
Si Si2 0.731107 0.719167 0.836765
Si Si3 0.445980 0.419983 0.194907
Si Si4 0.075671 0.380135 0.087941
O O1 0.500000 0.369924 0.500000
O O2 0.675944 0.290749 0.263860
O O3 0.494825 0.411171 0.297300
O O4 0.858435 0.411986 0.240069
O O5 0.696037 0.648275 0.778501
O O6 0.885874 0.693489 0.861173
O O7 0.500000 0.730772 0.000000
O O8 0.353529 0.500000 0.213686
O O9 0.684505 0.414361 0.028310
O O10 0.000000 0.377273 0.000000
#
# Coordination Sequence:
#
# PCOD9201503 Si02
#       4
#     8   8   8   8
#     4  11  23  38  60  89 123 164 206 246 294 359
#     4  10  20  37  62  90 122 156 199 251 304 359
#     4  10  22  40  63  91 122 156 199 253 309 359
#     4   9  20  36  58  86 118 153 197 245 297 352
#
# _framework density 22.589697000000001
#
# number of rings (size 3 to 8) (size 9 to 14) (size 15 to 20)
#    0.000    2.000    0.000    3.750    0.000   20.500 
#    0.000    0.000    0.000    5.250    0.000    0.000 
#    0.000    0.000    0.000    0.000    0.000    0.000 
#
# Total GULP energy -89287.577842 kJ/mol
# GULP energy per Si atom -5580.473615 kJ/mol
# Density = 2.253828 g / cm^3
# Si number density = 22.589697 Si / 1000 Ang^3
#
#
#
# Elastic Constant Matrix: (Units=GPa)
#
#
# Indices 1 2 3 4 5 6 
#
# 1 77.5450 9.2323 11.2270 0.0000 6.8604 0.0000
# 2 9.2323 132.9800 20.0762 0.0000 7.5514 0.0000
# 3 11.2270 20.0762 148.4846 0.0000 16.9909 0.0000
# 4 0.0000 0.0000 0.0000 3.5155 0.0000 2.1095
# 5 6.8604 7.5514 16.9909 0.0000 16.0753 0.0000
# 6 0.0000 0.0000 0.0000 2.1095 0.0000 11.8729
#
#
#
# Elastic Compliance Matrix: (Units=1/GPa)
#
#
# Indices 1 2 3 4 5 6 
#
# 1 0.013468 -0.000592 -0.000355 0.000000 -0.005094 0.000000
# 2 -0.000592 0.007820 -0.000707 0.000000 -0.002674 0.000000
# 3 -0.000355 -0.000707 0.007738 0.000000 -0.007695 0.000000
# 4 0.000000 0.000000 0.000000 0.318401 0.000000 -0.056572
# 5 -0.005094 -0.002674 -0.007695 0.000000 0.073770 0.000000
# 6 0.000000 0.000000 0.000000 -0.056572 0.000000 0.094277
#
#
# Mechanical properties :
#
#
# Convention : Reuss Voigt Hill
#
# Bulk Modulus (GPa) = 38.88416 48.89785 43.89101
# Shear Modulus (GPa) = 9.48130 27.52435 18.50283
#
# Velocity S-wave (km/s) = 2.05092 3.49441 2.86507
# Velocity P-wave (km/s) = 4.78111 6.16233 5.51513
#
# Compressibility (1/GPa) = 0.02571741
#
# Stress axis : x y z
#
# Youngs Moduli (GPa) = 74.24808 127.88482 129.23887
#
# Poissons Ratio (x) = 0.07573 0.04593
# Poissons Ratio (y) = 0.04396 0.09131
# Poissons Ratio (z) = 0.02639 0.09035
#
# Static dielectric constant tensor:
#      x y z
#    x 1.894970 0.000000 -0.010870 
#    y 0.000000 1.922050 0.000000 
#    z -0.010870 0.000000 1.816490 
# 
# From -- ./inp_files/37519.got.cif
#   From: 2010.05.17/outbox.cif.g08.bks.cpg/sg12_19_cif.got.tgz:37519.got - 2010.06.03 13:09:07.
