data_PCOD9201010
_publ_section_title
;
Structure prediction by ZEFSAII (Michael W. Deem and Ramdas Pophale) SiO2 
 PCOD9201010
Probable space group: C 2/M
;
_chemical_formula_sum "Si O2"
_cell_formula_units_Z 64
_cell_length_a 29.022178
_cell_length_b 8.675747
_cell_length_c 24.332677
_cell_angle_alpha 90.000000
_cell_angle_beta 32.991565
_cell_angle_gamma 90.000000
_cell_volume 3336.084689
_symmetry_space_group_name_H-M "C 2/M"
_symmetry_group_IT_number 12
_symmetry_cell_setting 'monoclinic'
loop_
_space_group_symop_operation_xyz
x,y,z
-x,y,-z
-x,-y,-z
x,-y,z
1/2+x,1/2+y,z
1/2-x,1/2+y,-z
1/2-x,1/2-y,-z
1/2+x,1/2-y,z
loop_
_atom_site_type_symbol
_atom_site_label
_atom_site_fract_x
_atom_site_fract_y
_atom_site_fract_z
Si Si1 0.500361 0.187829 0.936586
Si Si2 0.503542 0.316116 0.432228
Si Si3 0.103534 0.183272 0.146543
Si Si4 0.161989 0.685163 0.972429
Si Si5 0.336212 0.814288 0.296781
Si Si6 0.340828 0.816561 0.792234
Si Si7 0.653597 0.183367 0.476520
Si Si8 0.084793 0.315142 0.665758
O O1 0.585389 0.234879 0.819796
O O2 0.499977 0.000000 0.936972
O O3 0.500000 0.239574 0.000000
O O4 0.417008 0.235360 0.986345
O O5 0.500000 0.275593 0.500000
O O6 0.513414 0.500000 0.417240
O O7 0.582031 0.236729 0.323192
O O8 0.417315 0.264539 0.489150
O O9 0.141464 0.252819 0.164333
O O10 0.004692 0.229342 0.243745
O O11 0.113664 0.000000 0.136833
O O12 0.146194 0.253161 0.049642
O O13 0.163963 0.500000 0.971626
O O14 0.251374 0.748606 0.862303
O O15 0.247683 0.739524 0.369517
O O16 0.361197 0.775025 0.334514
O O17 0.328469 0.000000 0.301071
O O18 0.337128 0.000000 0.797828
O O19 0.632643 0.219364 0.561299
O O20 0.646644 0.000000 0.476481
O O21 0.067881 0.500000 0.684705
#
# Coordination Sequence:
#
# PCOD9201010 Si02
#       8
#     8   8   8   8   8   8   8   8
#     4   9  19  37  62  89 117 157 207 255 300 350
#     4  11  25  45  67  91 120 161 213 259 303 363
#     4  12  23  37  62  93 125 162 205 252 311 372
#     4  11  22  40  64  91 127 165 207 255 308 367
#     4  10  20  37  61  89 124 163 204 249 304 366
#     4  12  25  42  64  93 128 161 202 252 313 375
#     4  11  23  38  61  92 126 161 201 250 309 368
#     4  10  20  37  60  89 123 162 200 248 309 369
#
# _framework density 19.184165
#
# number of rings (size 3 to 8) (size 9 to 14) (size 15 to 20)
#    0.000    1.250    2.500    4.125    0.000    3.000 
#    0.000    2.500    0.000    2.625    0.000    0.000 
#    0.000    0.000    0.000    0.000    0.000    0.000 
#
# Total GULP energy -178974.935883 kJ/mol
# GULP energy per Si atom -5592.966746 kJ/mol
# Density = 1.914050 g / cm^3
# Si number density = 19.184165 Si / 1000 Ang^3
#
#
#
# Elastic Constant Matrix: (Units=GPa)
#
#
# Indices 1 2 3 4 5 6 
#
# 1 92.7861 51.4114 108.9081 0.0082 14.7435 -0.0038
# 2 51.4114 68.3420 49.4725 0.0253 -2.1966 -0.0194
# 3 108.9081 49.4725 113.0786 0.0153 -24.2466 -0.0136
# 4 0.0082 0.0253 0.0153 32.0006 -0.0090 -4.2800
# 5 14.7435 -2.1966 -24.2466 -0.0090 32.8488 0.0061
# 6 -0.0038 -0.0194 -0.0136 -4.2800 0.0061 19.7558
#
#
#
# Elastic Compliance Matrix: (Units=1/GPa)
#
#
# Indices 1 2 3 4 5 6 
#
# 1 -0.015156 -0.002687 0.020425 0.000003 0.021699 0.000002
# 2 -0.002687 0.022179 -0.007769 -0.000012 -0.003045 0.000014
# 3 0.020425 -0.007769 -0.011295 0.000000 -0.018024 -0.000006
# 4 0.000003 -0.000012 0.000000 0.032182 0.000006 0.006972
# 5 0.021699 -0.003045 -0.018024 0.000006 0.007196 -0.000012
# 6 0.000002 0.000014 -0.000006 0.006972 -0.000012 0.052128
#
#
# Mechanical properties :
#
#
# Convention : Reuss Voigt Hill
#
# Bulk Modulus (GPa) = 63.82267 77.08785 70.45526
# Shear Modulus (GPa) = 68.94762 21.21537 45.08149
#
# Velocity S-wave (km/s) = 6.00149 3.32908 4.85287
# Velocity P-wave (km/s) = 9.02023 7.41939 8.25869
#
# Compressibility (1/GPa) = 0.01566841
#
# Stress axis : x y z
#
# Youngs Moduli (GPa) = -65.98091 45.08679 -88.53866
#
# Poissons Ratio (x) = 0.12115 1.80843
# Poissons Ratio (y) = -0.17730 -0.68782
# Poissons Ratio (z) = 1.34768 0.35026
#
# Static dielectric constant tensor:
#      x y z
#    x 1.647580 0.000000 0.001920 
#    y 0.000000 1.645720 0.000000 
#    z 0.001920 0.000000 1.650090 
# 
# From -- ./inp_files/353384.got.cif
#   From: 2010.05.17/outbox.cif.g08.bks.cpg/sg12_177_cif.got.tgz:353384.got - 2010.06.03 13:09:07.
