data_PCOD9201365
_publ_section_title
;
Structure prediction by ZEFSAII (Michael W. Deem and Ramdas Pophale) SiO2 
 PCOD9201365
Probable space group: C 2/M
;
_chemical_formula_sum "Si O2"
_cell_formula_units_Z 64
_cell_length_a 20.242421
_cell_length_b 7.978131
_cell_length_c 27.766108
_cell_angle_alpha 90.000000
_cell_angle_beta 39.182030
_cell_angle_gamma 90.000000
_cell_volume 2833.014353
_symmetry_space_group_name_H-M "C 2/M"
_symmetry_group_IT_number 12
_symmetry_cell_setting 'monoclinic'
loop_
_space_group_symop_operation_xyz
x,y,z
-x,y,-z
-x,-y,-z
x,-y,z
1/2+x,1/2+y,z
1/2-x,1/2+y,-z
1/2-x,1/2-y,-z
1/2+x,1/2-y,z
loop_
_atom_site_type_symbol
_atom_site_label
_atom_site_fract_x
_atom_site_fract_y
_atom_site_fract_z
Si Si1 0.317423 0.303305 0.897588
Si Si2 0.095062 0.304062 0.050417
Si Si3 0.010815 0.796777 0.631372
Si Si4 0.594457 0.704416 0.481834
Si Si5 0.577484 0.307463 0.916297
Si Si6 0.300784 0.794437 0.308445
Si Si7 0.508235 0.198054 0.737055
Si Si8 0.773605 0.198934 0.753561
O O1 0.309991 0.500000 0.912703
O O2 0.371764 0.217855 0.912962
O O3 0.394268 0.277109 0.809694
O O4 0.197494 0.244286 0.962646
O O5 0.074380 0.500000 0.053213
O O6 0.992679 0.206855 0.092212
O O7 0.427999 0.758514 0.450925
O O8 0.051326 0.734615 0.659694
O O9 0.890391 0.735810 0.695418
O O10 0.011494 0.000000 0.631805
O O11 0.500000 0.757406 0.500000
O O12 0.406921 0.500000 0.517426
O O13 0.704803 0.755372 0.397117
O O14 0.595253 0.500000 0.919142
O O15 0.689353 0.228443 0.842806
O O16 0.500000 0.229376 0.000000
O O17 0.409908 0.737532 0.269460
O O18 0.274189 0.736302 0.269731
O O19 0.304620 0.000000 0.305528
O O20 0.496076 0.000000 0.750047
O O21 0.785300 0.000000 0.741024
#
# Coordination Sequence:
#
# PCOD9201365 Si02
#       8
#     8   8   8   8   8   8   8   8
#     4  10  21  38  61  85 113 148 194 243 289 348
#     4  10  21  38  60  85 110 147 193 242 297 352
#     4  10  21  36  59  90 118 150 195 247 298 352
#     4   9  15  31  60  89 115 146 192 246 292 340
#     4  11  25  40  55  81 117 155 197 245 295 347
#     4   9  18  34  58  88 115 148 195 242 288 345
#     4  11  23  36  54  83 123 161 192 235 292 354
#     4  10  20  37  62  87 112 146 199 254 298 350
#
# _framework density 22.590776999999999
#
# number of rings (size 3 to 8) (size 9 to 14) (size 15 to 20)
#    0.000    2.000    1.250    2.250    1.750    4.500 
#    0.000    0.625    0.000    1.875    0.000    0.000 
#    0.000    0.000    0.000    0.000    0.000    0.000 
#
# Total GULP energy -178863.147053 kJ/mol
# GULP energy per Si atom -5589.473345 kJ/mol
# Density = 2.253936 g / cm^3
# Si number density = 22.590777 Si / 1000 Ang^3
#
#
#
# Elastic Constant Matrix: (Units=GPa)
#
#
# Indices 1 2 3 4 5 6 
#
# 1 51.5975 0.8950 -0.6794 -0.0002 2.9148 0.0001
# 2 0.8950 26.1007 -2.3727 -0.0005 -4.3392 0.0011
# 3 -0.6794 -2.3727 105.0697 -0.0003 2.9453 0.0003
# 4 -0.0002 -0.0005 -0.0003 10.0017 0.0000 12.9442
# 5 2.9148 -4.3392 2.9453 0.0000 34.9699 -0.0001
# 6 0.0001 0.0011 0.0003 12.9442 -0.0001 13.5613
#
#
#
# Elastic Compliance Matrix: (Units=1/GPa)
#
#
# Indices 1 2 3 4 5 6 
#
# 1 0.019498 -0.000946 0.000154 -0.000002 -0.001756 0.000002
# 2 -0.000946 0.039225 0.000743 -0.000026 0.004884 0.000022
# 3 0.000154 0.000743 0.009556 -0.000003 -0.000725 0.000002
# 4 -0.000002 -0.000026 -0.000003 -0.424885 -0.000002 0.405553
# 5 -0.001756 0.004884 -0.000725 -0.000002 0.029409 0.000002
# 6 0.000002 0.000022 0.000002 0.405553 0.000002 -0.313362
#
#
# Mechanical properties :
#
#
# Convention : Reuss Voigt Hill
#
# Bulk Modulus (GPa) = 14.66718 19.82819 17.24768
# Shear Modulus (GPa) = -8.09412 24.03491 7.97040
#
# Velocity S-wave (km/s) = -1.89492 3.26533 1.88038
# Velocity P-wave (km/s) = 1.31112 4.79715 3.51651
#
# Compressibility (1/GPa) = 0.06817942
#
# Stress axis : x y z
#
# Youngs Moduli (GPa) = 51.28629 25.49396 104.65071
#
# Poissons Ratio (x) = 0.02413 -0.01611
# Poissons Ratio (y) = 0.04854 -0.07773
# Poissons Ratio (z) = -0.00789 -0.01894
#
# Static dielectric constant tensor:
#      x y z
#    x 1.841850 0.000000 0.017290 
#    y 0.000000 1.809270 0.000000 
#    z 0.017290 0.000000 1.837620 
# 
# From -- ./inp_files/377967.got.cif
#   From: 2010.05.17/outbox.cif.g08.bks.cpg/sg12_189_cif.got.tgz:377967.got - 2010.06.03 13:09:07.
