data_PCOD9201438
_publ_section_title
;
Structure prediction by ZEFSAII (Michael W. Deem and Ramdas Pophale) SiO2 
 PCOD9201438
Probable space group: C 2/M
;
_chemical_formula_sum "Si O2"
_cell_formula_units_Z 64
_cell_length_a 14.371960
_cell_length_b 8.455102
_cell_length_c 32.669281
_cell_angle_alpha 90.000000
_cell_angle_beta 49.768032
_cell_angle_gamma 90.000000
_cell_volume 3030.727829
_symmetry_space_group_name_H-M "C 2/M"
_symmetry_group_IT_number 12
_symmetry_cell_setting 'monoclinic'
loop_
_space_group_symop_operation_xyz
x,y,z
-x,y,-z
-x,-y,-z
x,-y,z
1/2+x,1/2+y,z
1/2-x,1/2+y,-z
1/2-x,1/2-y,-z
1/2+x,1/2-y,z
loop_
_atom_site_type_symbol
_atom_site_label
_atom_site_fract_x
_atom_site_fract_y
_atom_site_fract_z
Si Si1 0.366672 0.687992 0.942974
Si Si2 0.618247 0.313127 0.357778
Si Si3 0.121261 0.689472 0.874214
Si Si4 0.372165 0.186377 0.554786
Si Si5 0.615722 0.811386 0.623219
Si Si6 0.369676 0.689971 0.849336
Si Si7 0.266743 0.308884 0.757079
Si Si8 0.503333 0.814954 0.736907
O O1 0.358304 0.500000 0.943718
O O2 0.496416 0.736188 0.924819
O O3 0.371478 0.751438 0.894971
O O4 0.250000 0.750000 0.000000
O O5 0.628777 0.500000 0.363803
O O6 0.624223 0.217781 0.397773
O O7 0.488759 0.276507 0.372714
O O8 0.721174 0.273026 0.294333
O O9 0.111028 0.500000 0.879785
O O10 0.240782 0.738762 0.865570
O O11 0.151479 0.731023 0.818098
O O12 0.500000 0.244386 0.500000
O O13 0.252286 0.270990 0.571367
O O14 0.361642 0.000000 0.549436
O O15 0.601632 0.761762 0.675220
O O16 0.593760 0.000000 0.627216
O O17 0.370480 0.500000 0.850127
O O18 0.477866 0.739608 0.788086
O O19 0.285891 0.500000 0.755609
O O20 0.378804 0.220300 0.747099
O O21 0.521901 0.000000 0.738566
#
# Coordination Sequence:
#
# PCOD9201438 Si02
#       8
#     8   8   8   8   8   8   8   8
#     4  11  24  40  56  78 107 142 187 231 271 320
#     4  10  20  37  62  89 117 150 187 231 284 339
#     4   9  18  36  59  81 109 144 178 217 267 323
#     4  11  25  42  58  80 111 150 198 244 285 335
#     4  10  21  38  60  87 118 151 187 230 283 341
#     4   9  20  38  58  80 111 149 181 215 271 335
#     4   8  16  32  55  83 115 148 179 214 270 339
#     4   9  17  30  54  87 116 141 177 224 271 324
#
# _framework density 21.117039999999999
#
# number of rings (size 3 to 8) (size 9 to 14) (size 15 to 20)
#    0.000    2.375    0.000    2.625    0.000    8.000 
#    0.000    6.250    0.000    0.000    0.000    0.000 
#    0.000    0.000    0.000    0.000    0.000    0.000 
#
# Total GULP energy -178642.049688 kJ/mol
# GULP energy per Si atom -5582.564053 kJ/mol
# Density = 2.106898 g / cm^3
# Si number density = 21.117040 Si / 1000 Ang^3
#
#
#
# Elastic Constant Matrix: (Units=GPa)
#
#
# Indices 1 2 3 4 5 6 
#
# 1 52.7893 0.2613 23.0349 0.0000 -14.2872 0.0000
# 2 0.2613 11.9876 10.3756 -0.0001 -7.2191 0.0000
# 3 23.0349 10.3756 83.0965 0.0000 -30.1619 0.0001
# 4 0.0000 -0.0001 0.0000 30.1117 0.0000 -0.2517
# 5 -14.2872 -7.2191 -30.1619 0.0000 39.4891 0.0000
# 6 0.0000 0.0000 0.0001 -0.2517 0.0000 20.9896
#
#
#
# Elastic Compliance Matrix: (Units=1/GPa)
#
#
# Indices 1 2 3 4 5 6 
#
# 1 0.022679 0.007355 -0.005173 0.000000 0.005599 0.000000
# 2 0.007355 0.099716 -0.009556 0.000000 0.013591 0.000000
# 3 -0.005173 -0.009556 0.018468 0.000000 0.010487 0.000000
# 4 0.000000 0.000000 0.000000 0.033213 0.000000 0.000398
# 5 0.005599 0.013591 0.010487 0.000000 0.037844 0.000000
# 6 0.000000 0.000000 0.000000 0.000398 0.000000 0.047648
#
#
# Mechanical properties :
#
#
# Convention : Reuss Voigt Hill
#
# Bulk Modulus (GPa) = 7.92933 23.91300 15.92116
# Shear Modulus (GPa) = 15.80505 25.73152 20.76829
#
# Velocity S-wave (km/s) = 2.73875 3.49452 3.13946
# Velocity P-wave (km/s) = 3.71000 5.25650 4.54945
#
# Compressibility (1/GPa) = 0.12611408
#
# Stress axis : x y z
#
# Youngs Moduli (GPa) = 44.09300 10.02852 54.14764
#
# Poissons Ratio (x) = -0.07376 0.28010
# Poissons Ratio (y) = -0.32429 0.51745
# Poissons Ratio (z) = 0.22809 0.09583
#
# Static dielectric constant tensor:
#      x y z
#    x 1.785430 0.000000 0.012530 
#    y 0.000000 1.721020 0.000000 
#    z 0.012530 0.000000 1.776480 
# 
# From -- ./inp_files/375506.got.cif
#   From: 2010.05.17/outbox.cif.g08.bks.cpg/sg12_188_cif.got.tgz:375506.got - 2010.06.03 13:09:07.
