data_PCOD9201617
_publ_section_title
;
Structure prediction by ZEFSAII (Michael W. Deem and Ramdas Pophale) SiO2 
 PCOD9201617
Probable space group: C 2/M
;
_chemical_formula_sum "Si O2"
_cell_formula_units_Z 56
_cell_length_a 24.512821
_cell_length_b 8.501940
_cell_length_c 31.288731
_cell_angle_alpha 90.000000
_cell_angle_beta 25.973416
_cell_angle_gamma 90.000000
_cell_volume 2855.800428
_symmetry_space_group_name_H-M "C 2/M"
_symmetry_group_IT_number 12
_symmetry_cell_setting 'monoclinic'
loop_
_space_group_symop_operation_xyz
x,y,z
-x,y,-z
-x,-y,-z
x,-y,z
1/2+x,1/2+y,z
1/2-x,1/2+y,-z
1/2-x,1/2-y,-z
1/2+x,1/2-y,z
loop_
_atom_site_type_symbol
_atom_site_label
_atom_site_fract_x
_atom_site_fract_y
_atom_site_fract_z
Si Si1 0.128180 0.186121 0.883610
Si Si2 0.192944 0.689248 0.477063
Si Si3 0.153529 0.688312 0.032170
Si Si4 0.934548 0.689720 0.345465
Si Si5 0.877608 0.687133 0.207905
Si Si6 0.718657 0.809163 0.143188
Si Si7 0.869765 0.309796 0.572256
O O1 0.122609 0.271745 0.842336
O O2 0.232925 0.237584 0.843888
O O3 0.145596 0.000000 0.862514
O O4 0.000000 0.204546 0.000000
O O5 0.191232 0.500000 0.478823
O O6 0.114058 0.743199 0.573682
O O7 0.334090 0.745770 0.383234
O O8 0.139061 0.744665 0.470390
O O9 0.153172 0.500000 0.035353
O O10 0.008874 0.743265 0.136419
O O11 0.250000 0.750000 0.000000
O O12 0.201331 0.739841 0.951734
O O13 0.931134 0.500000 0.346966
O O14 0.075492 0.738229 0.238204
O O15 0.873437 0.500000 0.215927
O O16 0.754078 0.758161 0.315866
O O17 0.728217 0.000000 0.134450
O O18 0.871902 0.500000 0.571183
O O19 0.000000 0.253483 0.500000
#
# Coordination Sequence:
#
# PCOD9201617 Si02
#       7
#     8   8   8   8   8   8   8
#     4  10  20  37  63  89 116 153 197 241 290 354
#     4   9  19  37  58  84 114 148 194 242 291 348
#     4  11  25  42  61  87 123 162 202 247 297 360
#     4   9  19  35  58  85 116 150 187 239 296 348
#     4  11  25  42  61  88 123 160 198 250 309 358
#     4  10  21  37  61  91 119 153 196 244 295 353
#     4  10  23  41  64  88 116 157 205 250 295 356
#
# _framework density 19.609211999999999
#
# number of rings (size 3 to 8) (size 9 to 14) (size 15 to 20)
#    0.000    2.000    1.429    0.857    4.000    4.000 
#    0.000    0.000    0.000    0.000    0.000    0.000 
#    0.000    0.000    0.000    0.000    0.000    0.000 
#
# Total GULP energy -156336.370510 kJ/mol
# GULP energy per Si atom -5583.441804 kJ/mol
# Density = 1.956458 g / cm^3
# Si number density = 19.609212 Si / 1000 Ang^3
#
#
#
# Elastic Constant Matrix: (Units=GPa)
#
#
# Indices 1 2 3 4 5 6 
#
# 1 142.3205 18.6635 55.1112 -0.0019 -27.3647 0.0137
# 2 18.6635 10.0569 16.6136 -0.0059 -6.1619 0.0396
# 3 55.1112 16.6136 115.8077 -0.0005 -32.6994 0.0073
# 4 -0.0019 -0.0059 -0.0005 24.3069 -0.0006 -6.1321
# 5 -27.3647 -6.1619 -32.6994 -0.0006 27.2076 -0.0031
# 6 0.0137 0.0396 0.0073 -6.1321 -0.0031 18.1594
#
#
#
# Elastic Compliance Matrix: (Units=1/GPa)
#
#
# Indices 1 2 3 4 5 6 
#
# 1 0.010455 -0.013553 -0.001406 0.000004 0.005756 0.000024
# 2 -0.013553 0.149967 -0.014112 -0.000047 0.003371 -0.000326
# 3 -0.001406 -0.014112 0.015177 0.000005 0.013631 0.000030
# 4 0.000004 -0.000047 0.000005 0.044972 0.000002 0.015186
# 5 0.005756 0.003371 0.013631 0.000002 0.059690 -0.000006
# 6 0.000024 -0.000326 0.000030 0.015186 -0.000006 0.060197
#
#
# Mechanical properties :
#
#
# Convention : Reuss Voigt Hill
#
# Bulk Modulus (GPa) = 8.51378 49.88463 29.19921
# Shear Modulus (GPa) = 11.42202 25.78791 18.60496
#
# Velocity S-wave (km/s) = 2.41609 3.63035 3.08358
# Velocity P-wave (km/s) = 3.48345 6.56256 5.25365
#
# Compressibility (1/GPa) = 0.11745659
#
# Stress axis : x y z
#
# Youngs Moduli (GPa) = 95.64963 6.66815 65.88797
#
# Poissons Ratio (x) = 0.09037 0.09261
# Poissons Ratio (y) = 1.29635 0.92983
# Poissons Ratio (z) = 0.13445 0.09410
#
# Static dielectric constant tensor:
#      x y z
#    x 1.686820 0.000000 -0.018340 
#    y 0.000000 1.677210 0.000000 
#    z -0.018340 0.000000 1.673980 
# 
# From -- ./inp_files/380583.got.cif
#   From: 2010.05.17/outbox.cif.g08.bks.cpg/sg12_191_cif.got.tgz:380583.got - 2010.06.03 13:09:07.
