data_PCOD9201271
_publ_section_title
;
Structure prediction by ZEFSAII (Michael W. Deem and Ramdas Pophale) SiO2 
 PCOD9201271
Probable space group: C 2/M
;
_chemical_formula_sum "Si O2"
_cell_formula_units_Z 56
_cell_length_a 8.508679
_cell_length_b 22.632246
_cell_length_c 14.585129
_cell_angle_alpha 90.000000
_cell_angle_beta 73.473566
_cell_angle_gamma 90.000000
_cell_volume 2692.635902
_symmetry_space_group_name_H-M "C 2/M"
_symmetry_group_IT_number 12
_symmetry_cell_setting 'monoclinic'
loop_
_space_group_symop_operation_xyz
x,y,z
-x,y,-z
-x,-y,-z
x,-y,z
1/2+x,1/2+y,z
1/2-x,1/2+y,-z
1/2-x,1/2-y,-z
1/2+x,1/2-y,z
loop_
_atom_site_type_symbol
_atom_site_label
_atom_site_fract_x
_atom_site_fract_y
_atom_site_fract_z
Si Si1 0.233367 0.269257 0.609864
Si Si2 0.530454 0.663913 0.663303
Si Si3 0.828801 0.062230 0.477033
Si Si4 0.683228 0.428665 0.987578
Si Si5 0.072992 0.570139 0.209308
Si Si6 0.534210 0.881584 0.601950
Si Si7 0.293421 0.429386 0.802219
O O1 0.250000 0.250000 0.500000
O O2 0.397289 0.298828 0.624574
O O3 0.099552 0.320660 0.629860
O O4 0.156529 0.213994 0.677850
O O5 0.644856 0.621147 0.584254
O O6 0.426165 0.617502 0.741823
O O7 0.684890 0.072049 0.573694
O O8 0.000000 0.057477 0.500000
O O9 0.797391 0.000000 0.432241
O O10 0.680407 0.500000 0.977935
O O11 0.809010 0.406184 0.890042
O O12 0.500000 0.406490 0.000000
O O13 0.728182 0.418690 0.085605
O O14 0.094407 0.500000 0.209813
O O15 0.101204 0.595200 0.306030
O O16 0.883605 0.581169 0.213919
O O17 0.500000 0.875550 0.500000
O O18 0.337609 0.500000 0.781665
#
# Coordination Sequence:
#
# PCOD9201271 Si02
#       7
#     8   8   8   8   8   8   8
#     4  12  23  41  61  84 121 173 227 264 303 362
#     4  12  23  40  62  91 122 168 218 265 309 370
#     4  11  21  37  59  85 123 165 206 257 316 372
#     4   9  19  37  63  96 130 160 197 253 323 393
#     4  10  20  37  61  90 126 166 207 252 314 384
#     4  12  24  38  58  91 128 174 215 263 312 368
#     4  10  20  39  67  98 126 160 207 260 321 383
#
# _framework density 20.797464000000002
#
# number of rings (size 3 to 8) (size 9 to 14) (size 15 to 20)
#    0.000    1.143    4.286    2.571    0.000    6.286 
#    0.000    1.429    0.000    0.857    0.000    0.000 
#    0.000    0.000    0.000    0.000    0.000    0.000 
#
# Total GULP energy -156287.217807 kJ/mol
# GULP energy per Si atom -5581.686350 kJ/mol
# Density = 2.075013 g / cm^3
# Si number density = 20.797464 Si / 1000 Ang^3
#
#
#
# Elastic Constant Matrix: (Units=GPa)
#
#
# Indices 1 2 3 4 5 6 
#
# 1 66.1358 36.3148 48.1067 0.0000 -3.8700 0.0000
# 2 36.3148 114.4513 51.4515 0.0000 -12.5489 0.0000
# 3 48.1067 51.4515 115.9989 0.0000 -18.4318 0.0000
# 4 0.0000 0.0000 0.0000 19.1739 0.0000 3.3068
# 5 -3.8700 -12.5489 -18.4318 0.0000 32.8079 0.0000
# 6 0.0000 0.0000 0.0000 3.3068 0.0000 34.7028
#
#
#
# Elastic Compliance Matrix: (Units=1/GPa)
#
#
# Indices 1 2 3 4 5 6 
#
# 1 0.023224 -0.003964 -0.008432 0.000000 -0.003514 0.000000
# 2 -0.003964 0.011667 -0.003180 0.000000 0.002208 0.000000
# 3 -0.008432 -0.003180 0.014468 0.000000 0.005918 0.000000
# 4 0.000000 0.000000 0.000000 0.053026 0.000000 -0.005053
# 5 -0.003514 0.002208 0.005918 0.000000 0.034235 0.000000
# 6 0.000000 0.000000 0.000000 -0.005053 0.000000 0.029298
#
#
# Mechanical properties :
#
#
# Convention : Reuss Voigt Hill
#
# Bulk Modulus (GPa) = 54.91968 63.14799 59.03384
# Shear Modulus (GPa) = 24.61373 28.05112 26.33242
#
# Velocity S-wave (km/s) = 3.44393 3.67655 3.56214
# Velocity P-wave (km/s) = 6.50219 6.96074 6.73537
#
# Compressibility (1/GPa) = 0.01820841
#
# Stress axis : x y z
#
# Youngs Moduli (GPa) = 43.05800 85.71370 69.11630
#
# Poissons Ratio (x) = 0.33975 0.58277
# Poissons Ratio (y) = 0.17067 0.21979
# Poissons Ratio (z) = 0.36306 0.27258
#
# Static dielectric constant tensor:
#      x y z
#    x 1.832330 0.000000 0.021940 
#    y 0.000000 1.774700 0.000000 
#    z 0.021940 0.000000 1.764630 
# 
# From -- ./inp_files/198383.got.cif
#   From: 2010.05.17/outbox.cif.g08.bks.cpg/sg12_100_cif.got.tgz:198383.got - 2010.06.03 13:09:07.
