data_PCOD9201117
_publ_section_title
;
Structure prediction by ZEFSAII (Michael W. Deem and Ramdas Pophale) SiO2 
 PCOD9201117
Probable space group: C 2/M
;
_chemical_formula_sum "Si O2"
_cell_formula_units_Z 64
_cell_length_a 19.475298
_cell_length_b 9.089177
_cell_length_c 32.300771
_cell_angle_alpha 90.000000
_cell_angle_beta 143.341321
_cell_angle_gamma 90.000000
_cell_volume 3413.735811
_symmetry_space_group_name_H-M "C 2/M"
_symmetry_group_IT_number 12
_symmetry_cell_setting 'monoclinic'
loop_
_space_group_symop_operation_xyz
x,y,z
-x,y,-z
-x,-y,-z
x,-y,z
1/2+x,1/2+y,z
1/2-x,1/2+y,-z
1/2-x,1/2-y,-z
1/2+x,1/2-y,z
loop_
_atom_site_type_symbol
_atom_site_label
_atom_site_fract_x
_atom_site_fract_y
_atom_site_fract_z
Si Si1 0.573852 0.326433 0.431755
Si Si2 0.281991 0.176517 0.206358
Si Si3 0.295489 0.824061 0.980541
Si Si4 0.355459 0.323024 0.700583
Si Si5 0.318276 0.173791 0.594272
Si Si6 0.841331 0.677165 0.329442
Si Si7 0.615121 0.323724 0.822591
Si Si8 0.519816 0.328331 0.058754
O O1 0.556637 0.500000 0.417236
O O2 0.600592 0.249088 0.400798
O O3 0.687932 0.306060 0.514663
O O4 0.461959 0.253690 0.397737
O O5 0.311249 0.217088 0.267518
O O6 0.361342 0.251139 0.210339
O O7 0.149614 0.215338 0.132438
O O8 0.292788 0.000000 0.207707
O O9 0.213058 0.777579 0.902472
O O10 0.290400 0.000000 0.981269
O O11 0.250000 0.750000 0.000000
O O12 0.423957 0.769663 0.033958
O O13 0.348400 0.500000 0.692109
O O14 0.331759 0.246730 0.645354
O O15 0.261471 0.280239 0.689382
O O16 0.487024 0.287684 0.776388
O O17 0.343199 0.000000 0.608005
O O18 0.853815 0.500000 0.337413
O O19 0.622206 0.500000 0.821504
O O20 0.504594 0.500000 0.063538
O O21 0.500000 0.318140 0.000000
#
# Coordination Sequence:
#
# PCOD9201117 Si02
#       8
#     8   8   8   8   8   8   8   8
#     4  10  21  38  61  87 117 150 189 235 283 335
#     4  10  21  37  60  85 113 150 191 237 285 338
#     4  11  24  39  59  85 116 152 191 238 289 343
#     4  10  22  39  58  83 117 155 191 231 284 339
#     4  10  21  38  61  88 116 150 190 234 281 335
#     4  10  22  38  58  85 117 153 192 234 282 338
#     4  10  22  39  59  82 113 151 190 236 287 339
#     4  10  20  37  61  86 114 149 190 236 287 342
#
# _framework density 18.747788
#
# number of rings (size 3 to 8) (size 9 to 14) (size 15 to 20)
#    0.000    1.875    1.250    1.875    1.750    6.750 
#    0.000    2.500    0.000    0.000    0.000    0.000 
#    0.000    0.000    0.000    0.000    0.000    0.000 
#
# Total GULP energy -178792.793597 kJ/mol
# GULP energy per Si atom -5587.274800 kJ/mol
# Density = 1.870512 g / cm^3
# Si number density = 18.747788 Si / 1000 Ang^3
#
#
#
# Elastic Constant Matrix: (Units=GPa)
#
#
# Indices 1 2 3 4 5 6 
#
# 1 111.7975 33.5811 23.7840 0.0000 21.2969 0.0000
# 2 33.5811 28.4013 19.1381 0.0000 10.1308 0.0001
# 3 23.7840 19.1381 43.7039 0.0000 13.8982 0.0000
# 4 0.0000 0.0000 0.0000 23.9942 0.0000 0.9001
# 5 21.2969 10.1308 13.8982 0.0000 32.2224 0.0000
# 6 0.0000 0.0001 0.0000 0.9001 0.0000 36.0837
#
#
#
# Elastic Compliance Matrix: (Units=1/GPa)
#
#
# Indices 1 2 3 4 5 6 
#
# 1 0.014490 -0.015785 0.000572 0.000000 -0.004861 0.000000
# 2 -0.015785 0.068656 -0.020778 0.000000 -0.002191 0.000000
# 3 0.000572 -0.020778 0.034434 0.000000 -0.008698 0.000000
# 4 0.000000 0.000000 0.000000 0.041716 0.000000 -0.001041
# 5 -0.004861 -0.002191 -0.008698 0.000000 0.038688 0.000000
# 6 0.000000 0.000000 0.000000 -0.001041 0.000000 0.027739
#
#
# Mechanical properties :
#
#
# Convention : Reuss Voigt Hill
#
# Bulk Modulus (GPa) = 21.92957 37.43433 29.68195
# Shear Modulus (GPa) = 15.97936 25.62004 20.79970
#
# Velocity S-wave (km/s) = 2.92264 3.70072 3.33445
# Velocity P-wave (km/s) = 4.80746 6.18636 5.53998
#
# Compressibility (1/GPa) = 0.04560053
#
# Stress axis : x y z
#
# Youngs Moduli (GPa) = 69.01127 14.56541 29.04075
#
# Poissons Ratio (x) = 0.22991 -0.01662
# Poissons Ratio (y) = 1.08933 0.60340
# Poissons Ratio (z) = -0.03950 0.30263
#
# Static dielectric constant tensor:
#      x y z
#    x 1.619720 0.000000 0.015580 
#    y 0.000000 1.626700 0.000000 
#    z 0.015580 0.000000 1.651480 
# 
# From -- ./inp_files/378319.got.cif
#   From: 2010.05.17/outbox.cif.g08.bks.cpg/sg12_190_cif.got.tgz:378319.got - 2010.06.03 13:09:07.
