data_PCOD9201735
_publ_section_title
;
Structure prediction by ZEFSAII (Michael W. Deem and Ramdas Pophale) SiO2 
 PCOD9201735
Probable space group: C 2/M
;
_chemical_formula_sum "Si O2"
_cell_formula_units_Z 56
_cell_length_a 11.425219
_cell_length_b 23.688536
_cell_length_c 21.695975
_cell_angle_alpha 90.000000
_cell_angle_beta 151.458122
_cell_angle_gamma 90.000000
_cell_volume 2805.620665
_symmetry_space_group_name_H-M "C 2/M"
_symmetry_group_IT_number 12
_symmetry_cell_setting 'monoclinic'
loop_
_space_group_symop_operation_xyz
x,y,z
-x,y,-z
-x,-y,-z
x,-y,z
1/2+x,1/2+y,z
1/2-x,1/2+y,-z
1/2-x,1/2-y,-z
1/2+x,1/2-y,z
loop_
_atom_site_type_symbol
_atom_site_label
_atom_site_fract_x
_atom_site_fract_y
_atom_site_fract_z
Si Si1 0.403699 0.437663 0.318834
Si Si2 0.231278 0.064237 0.350496
Si Si3 0.994751 0.741301 0.571486
Si Si4 0.161031 0.348872 0.270031
Si Si5 0.347976 0.066544 0.621380
Si Si6 0.342921 0.710461 0.985520
Si Si7 0.716832 0.361784 0.233850
O O1 0.297768 0.500000 0.280600
O O2 0.545804 0.437066 0.320837
O O3 0.204742 0.388691 0.231492
O O4 0.622998 0.428824 0.469757
O O5 0.500000 0.082619 0.500000
O O6 0.121140 0.105543 0.249134
O O7 0.267048 0.000000 0.343457
O O8 0.750000 0.750000 0.500000
O O9 0.000000 0.726585 0.500000
O O10 0.137523 0.800340 0.638643
O O11 0.139200 0.692649 0.674239
O O12 0.197820 0.392879 0.342263
O O13 0.901256 0.318413 0.153933
O O14 0.592149 0.093251 0.705454
O O15 0.373120 0.000000 0.647939
O O16 0.514942 0.662013 0.094341
O O17 0.500000 0.735770 0.000000
O O18 0.250000 0.750000 0.000000
#
# Coordination Sequence:
#
# PCOD9201735 Si02
#       7
#     8   8   8   8   8   8   8
#     4  10  21  38  66 102 139 177 216 273 349 416
#     4  10  20  37  64 100 136 171 216 274 340 408
#     4  12  27  40  67 104 137 172 219 288 348 411
#     4  12  24  44  66  95 138 179 233 276 346 405
#     4  11  22  41  69 102 140 176 218 284 350 411
#     4  12  28  50  70  93 133 189 235 282 334 405
#     4  12  23  42  67  96 133 171 228 272 342 396
#
# _framework density 19.959932999999999
#
# number of rings (size 3 to 8) (size 9 to 14) (size 15 to 20)
#    0.000    0.714    4.286    4.286    2.000    2.286 
#    0.000    3.571    0.000    1.714    0.000    0.000 
#    0.000    0.000    0.000    0.000    0.000    0.000 
#
# Total GULP energy -156300.311522 kJ/mol
# GULP energy per Si atom -5582.153983 kJ/mol
# Density = 1.991450 g / cm^3
# Si number density = 19.959933 Si / 1000 Ang^3
#
#
#
# Elastic Constant Matrix: (Units=GPa)
#
#
# Indices 1 2 3 4 5 6 
#
# 1 127.1581 52.9639 35.6463 -0.0024 11.5557 0.0030
# 2 52.9639 122.1360 28.7413 -0.0019 7.0367 0.0080
# 3 35.6463 28.7413 42.6537 -0.0272 8.2859 0.0649
# 4 -0.0024 -0.0019 -0.0272 10.1317 0.0116 -0.4581
# 5 11.5557 7.0367 8.2859 0.0116 27.3674 0.0014
# 6 0.0030 0.0080 0.0649 -0.4581 0.0014 32.6946
#
#
#
# Elastic Compliance Matrix: (Units=1/GPa)
#
#
# Indices 1 2 3 4 5 6 
#
# 1 0.011296 -0.003155 -0.006955 -0.000014 -0.001853 0.000013
# 2 -0.003155 0.010620 -0.004513 -0.000011 -0.000032 0.000007
# 3 -0.006955 -0.004513 0.033470 0.000091 -0.006037 -0.000063
# 4 -0.000014 -0.000011 0.000091 0.098763 -0.000061 0.001384
# 5 -0.001853 -0.000032 -0.006037 -0.000061 0.039158 0.000010
# 6 0.000013 0.000007 -0.000063 0.001384 0.000010 0.030606
#
#
# Mechanical properties :
#
#
# Convention : Reuss Voigt Hill
#
# Bulk Modulus (GPa) = 38.25364 58.51676 48.38520
# Shear Modulus (GPa) = 19.09327 25.67847 22.38587
#
# Velocity S-wave (km/s) = 3.09622 3.59067 3.35257
# Velocity P-wave (km/s) = 5.65587 6.82432 6.26739
#
# Compressibility (1/GPa) = 0.02614130
#
# Stress axis : x y z
#
# Youngs Moduli (GPa) = 88.52342 94.16478 29.87725
#
# Poissons Ratio (x) = 0.29712 0.20778
# Poissons Ratio (y) = 0.27932 0.13483
# Poissons Ratio (z) = 0.61564 0.42494
#
# Static dielectric constant tensor:
#      x y z
#    x 1.851760 0.000010 -0.000270 
#    y 0.000010 1.700690 0.000000 
#    z -0.000270 0.000000 1.681750 
# 
# From -- ./inp_files/336800.got.cif
#   From: 2010.05.17/outbox.cif.g08.bks.cpg/sg12_169_cif.got.tgz:336800.got - 2010.06.03 13:09:07.
