data_PCOD9201213
_publ_section_title
;
Structure prediction by ZEFSAII (Michael W. Deem and Ramdas Pophale) SiO2 
 PCOD9201213
Probable space group: C 2/M
;
_chemical_formula_sum "Si O2"
_cell_formula_units_Z 60
_cell_length_a 9.577158
_cell_length_b 16.743071
_cell_length_c 20.935133
_cell_angle_alpha 90.000000
_cell_angle_beta 91.870689
_cell_angle_gamma 90.000000
_cell_volume 3355.181164
_symmetry_space_group_name_H-M "C 2/M"
_symmetry_group_IT_number 12
_symmetry_cell_setting 'monoclinic'
loop_
_space_group_symop_operation_xyz
x,y,z
-x,y,-z
-x,-y,-z
x,-y,z
1/2+x,1/2+y,z
1/2-x,1/2+y,-z
1/2-x,1/2-y,-z
1/2+x,1/2-y,z
loop_
_atom_site_type_symbol
_atom_site_label
_atom_site_fract_x
_atom_site_fract_y
_atom_site_fract_z
Si Si1 0.224315 0.908166 0.356597
Si Si2 0.088197 0.000000 0.849316
Si Si3 0.713353 0.228257 0.858556
Si Si4 0.009340 0.842316 0.076228
Si Si5 0.864332 0.291926 0.456993
Si Si6 0.259153 0.872467 0.765726
Si Si7 0.438811 0.858688 0.253216
Si Si8 0.450398 0.697253 0.333651
O O1 0.297337 0.866121 0.418183
O O2 0.330145 0.901270 0.298500
O O3 0.087239 0.856987 0.337970
O O4 0.189360 0.000000 0.367991
O O5 0.163902 0.068621 0.804937
O O6 0.021086 0.071949 0.892540
O O7 0.839325 0.189466 0.899340
O O8 0.604772 0.278017 0.899934
O O9 0.773953 0.291681 0.808069
O O10 0.632832 0.162490 0.814991
O O11 0.000000 0.847524 0.000000
O O12 0.750000 0.250000 0.500000
O O13 0.912054 0.230087 0.402664
O O14 0.000000 0.314395 0.500000
O O15 0.414665 0.902179 0.754285
O O16 0.177736 0.849882 0.699984
O O17 0.473908 0.774361 0.288950
#
# Coordination Sequence:
#
# PCOD9201213 Si02
#       8
#     8   4   8   8   8   8   8   8
#     4  11  25  38  60  95 124 153 199 259 305 354
#     4  10  25  38  62  85 128 161 198 245 323 371
#     4  10  20  37  64  89 115 158 207 254 296 360
#     4  11  22  40  62  90 121 161 208 253 303 365
#     4  11  22  42  66  86 118 168 207 240 297 368
#     4  10  21  37  59  88 120 155 199 250 305 361
#     4  10  20  37  61  88 122 154 201 249 307 366
#     4  10  21  38  63  89 119 157 203 248 298 364
#
# _framework density 17.882788999999999
#
# number of rings (size 3 to 8) (size 9 to 14) (size 15 to 20)
#    0.000    1.600    2.667    3.000    7.467    0.267 
#    0.000    1.333    0.000    0.800    0.000    0.000 
#    0.000    0.000    0.000    0.000    0.000    0.000 
#
# Total GULP energy -167002.115715 kJ/mol
# GULP energy per Si atom -5566.737190 kJ/mol
# Density = 1.784209 g / cm^3
# Si number density = 17.882789 Si / 1000 Ang^3
#
#
#
# Elastic Constant Matrix: (Units=GPa)
#
#
# Indices 1 2 3 4 5 6 
#
# 1 98.4278 37.2313 48.6214 0.0000 12.3421 0.0000
# 2 37.2313 92.4734 40.5021 0.0000 12.4444 0.0000
# 3 48.6214 40.5021 79.1115 0.0000 13.6474 0.0000
# 4 0.0000 0.0000 0.0000 0.7605 0.0000 -6.3265
# 5 12.3421 12.4444 13.6474 0.0000 34.7351 0.0000
# 6 0.0000 0.0000 0.0000 -6.3265 0.0000 12.3669
#
#
#
# Elastic Compliance Matrix: (Units=1/GPa)
#
#
# Indices 1 2 3 4 5 6 
#
# 1 0.015120 -0.002492 -0.007771 0.000000 -0.001427 0.000000
# 2 -0.002492 0.014531 -0.005538 0.000000 -0.002145 0.000000
# 3 -0.007771 -0.005538 0.020846 0.000000 -0.003445 0.000000
# 4 0.000000 0.000000 0.000000 -0.403892 0.000000 -0.206618
# 5 -0.001427 -0.002145 -0.003445 0.000000 0.031418 0.000000
# 6 0.000000 0.000000 0.000000 -0.206618 0.000000 -0.024838
#
#
# Mechanical properties :
#
#
# Convention : Reuss Voigt Hill
#
# Bulk Modulus (GPa) = 52.92219 58.08027 55.50123
# Shear Modulus (GPa) = -16.18567 19.14969 1.48201
#
# Velocity S-wave (km/s) = -3.01175 3.27593 0.91134
# Velocity P-wave (km/s) = 4.19094 6.84527 5.67546
#
# Compressibility (1/GPa) = 0.01889567
#
# Stress axis : x y z
#
# Youngs Moduli (GPa) = 66.13853 68.81622 47.97167
#
# Poissons Ratio (x) = 0.17150 0.37277
# Poissons Ratio (y) = 0.16482 0.26566
# Poissons Ratio (z) = 0.51393 0.38110
#
# Static dielectric constant tensor:
#      x y z
#    x 1.616730 0.000000 0.002250 
#    y 0.000000 1.601830 0.000000 
#    z 0.002250 0.000000 1.591310 
# 
# From -- ./inp_files/300840.got.cif
#   From: 2010.05.17/outbox.cif.g08.bks.cpg/sg12_151_cif.got.tgz:300840.got - 2010.06.03 13:09:07.
