data_PCOD9201149
_publ_section_title
;
Structure prediction by ZEFSAII (Michael W. Deem and Ramdas Pophale) SiO2 
 PCOD9201149
Probable space group: C 2/M
;
_chemical_formula_sum "Si O2"
_cell_formula_units_Z 48
_cell_length_a 20.588873
_cell_length_b 13.911259
_cell_length_c 14.864666
_cell_angle_alpha 90.000000
_cell_angle_beta 141.787216
_cell_angle_gamma 90.000000
_cell_volume 2633.617226
_symmetry_space_group_name_H-M "C 2/M"
_symmetry_group_IT_number 12
_symmetry_cell_setting 'monoclinic'
loop_
_space_group_symop_operation_xyz
x,y,z
-x,y,-z
-x,-y,-z
x,-y,z
1/2+x,1/2+y,z
1/2-x,1/2+y,-z
1/2-x,1/2-y,-z
1/2+x,1/2-y,z
loop_
_atom_site_type_symbol
_atom_site_label
_atom_site_fract_x
_atom_site_fract_y
_atom_site_fract_z
Si Si1 0.500794 0.886588 0.108571
Si Si2 0.127663 0.265854 0.888098
Si Si3 0.214122 0.889440 0.220125
Si Si4 0.423115 0.889675 0.334281
Si Si5 0.473845 0.611741 0.120260
Si Si6 0.177748 0.757063 0.334694
O O1 0.410607 0.827766 0.065466
O O2 0.613847 0.842335 0.257738
O O3 0.491272 0.000000 0.116899
O O4 0.500000 0.871638 0.000000
O O5 0.072825 0.319498 0.745488
O O6 0.084330 0.160107 0.859538
O O7 0.250000 0.250000 0.000000
O O8 0.304908 0.888248 0.244011
O O9 0.237480 0.802429 0.313981
O O10 0.214643 0.000000 0.258153
O O11 0.102648 0.873827 0.049092
O O12 0.500000 0.864351 0.500000
O O13 0.448190 0.000000 0.334674
O O14 0.488799 0.500000 0.146519
O O15 0.583936 0.665123 0.236297
O O16 0.250000 0.750000 0.500000
#
# Coordination Sequence:
#
# PCOD9201149 Si02
#       6
#     8   8   8   8   8   8
#     4  10  23  41  61  86 121 161 200 243 296 364
#     4  11  21  37  63  90 120 158 199 253 296 358
#     4  10  20  37  61  87 116 153 201 251 302 356
#     4  10  22  37  59  90 122 153 196 253 306 354
#     4  10  21  38  59  86 116 152 199 245 297 355
#     4  11  23  36  58  86 116 156 195 249 301 356
#
# _framework density 18.225881999999999
#
# number of rings (size 3 to 8) (size 9 to 14) (size 15 to 20)
#    0.000    1.667    1.667    3.500    4.667    3.333 
#    0.000    0.000    0.000    0.500    0.000    0.000 
#    0.000    0.000    0.000    0.000    0.000    0.000 
#
# Total GULP energy -133783.994150 kJ/mol
# GULP energy per Si atom -5574.333090 kJ/mol
# Density = 1.818440 g / cm^3
# Si number density = 18.225882 Si / 1000 Ang^3
#
#
#
# Elastic Constant Matrix: (Units=GPa)
#
#
# Indices 1 2 3 4 5 6 
#
# 1 57.0996 11.3421 16.2688 0.0000 -7.8062 0.0000
# 2 11.3421 58.4225 35.4454 0.0000 -7.1930 0.0000
# 3 16.2688 35.4454 113.5411 0.0000 -4.4649 0.0000
# 4 0.0000 0.0000 0.0000 20.5516 0.0000 -2.2816
# 5 -7.8062 -7.1930 -4.4649 0.0000 20.3363 0.0000
# 6 0.0000 0.0000 0.0000 -2.2816 0.0000 30.9170
#
#
#
# Elastic Compliance Matrix: (Units=1/GPa)
#
#
# Indices 1 2 3 4 5 6 
#
# 1 0.019292 -0.001774 -0.001961 0.000000 0.006347 0.000000
# 2 -0.001774 0.022050 -0.006405 0.000000 0.005712 0.000000
# 3 -0.001961 -0.006405 0.011065 0.000000 -0.000589 0.000000
# 4 0.000000 0.000000 0.000000 0.049060 0.000000 0.003620
# 5 0.006347 0.005712 -0.000589 0.000000 0.053501 0.000000
# 6 0.000000 0.000000 0.000000 0.003620 0.000000 0.032612
#
#
# Mechanical properties :
#
#
# Convention : Reuss Voigt Hill
#
# Bulk Modulus (GPa) = 31.12619 39.46397 35.29508
# Shear Modulus (GPa) = 22.87614 25.42811 24.15212
#
# Velocity S-wave (km/s) = 3.54665 3.73924 3.64422
# Velocity P-wave (km/s) = 5.82123 6.35156 6.09217
#
# Compressibility (1/GPa) = 0.03212729
#
# Stress axis : x y z
#
# Youngs Moduli (GPa) = 51.83464 45.35098 90.37797
#
# Poissons Ratio (x) = 0.08046 0.17721
# Poissons Ratio (y) = 0.09197 0.57885
# Poissons Ratio (z) = 0.10164 0.29046
#
# Static dielectric constant tensor:
#      x y z
#    x 1.735340 0.000000 -0.001250 
#    y 0.000000 1.649210 0.000000 
#    z -0.001250 0.000000 1.614520 
# 
# From -- ./inp_files/167533.got.cif
#   From: 2010.05.17/outbox.cif.g08.bks.cpg/sg12_84_cif.got.tgz:167533.got - 2010.06.03 13:09:07.
