data_PCOD9201977
_publ_section_title
;
Structure prediction by ZEFSAII (Michael W. Deem and Ramdas Pophale) SiO2 
 PCOD9201977
Probable space group: C 2/M
;
_chemical_formula_sum "Si O2"
_cell_formula_units_Z 56
_cell_length_a 5.294392
_cell_length_b 19.056662
_cell_length_c 28.142251
_cell_angle_alpha 90.000000
_cell_angle_beta 77.523801
_cell_angle_gamma 90.000000
_cell_volume 2772.319159
_symmetry_space_group_name_H-M "C 2/M"
_symmetry_group_IT_number 12
_symmetry_cell_setting 'monoclinic'
loop_
_space_group_symop_operation_xyz
x,y,z
-x,y,-z
-x,-y,-z
x,-y,z
1/2+x,1/2+y,z
1/2-x,1/2+y,-z
1/2-x,1/2-y,-z
1/2+x,1/2-y,z
loop_
_atom_site_type_symbol
_atom_site_label
_atom_site_fract_x
_atom_site_fract_y
_atom_site_fract_z
Si Si1 0.712666 0.581894 0.532362
Si Si2 0.582605 0.084194 0.141771
Si Si3 0.023471 0.914859 0.199250
Si Si4 0.630116 0.705036 0.608472
Si Si5 0.507839 0.704646 0.275527
Si Si6 0.735398 0.721305 0.055664
Si Si7 0.031103 0.922548 0.054879
O O1 0.500000 0.594221 0.500000
O O2 0.694344 0.500000 0.547307
O O3 0.661942 0.634214 0.577590
O O4 0.000000 0.593683 0.500000
O O5 0.287654 0.107038 0.160884
O O6 0.771842 0.102909 0.177914
O O7 0.758014 0.099792 0.088676
O O8 0.565811 0.000000 0.142433
O O9 0.019168 0.868176 0.246582
O O10 0.026532 0.000000 0.206645
O O11 0.395400 0.750875 0.596887
O O12 0.562329 0.691482 0.666427
O O13 0.779998 0.746080 0.263819
O O14 0.451945 0.747544 0.080044
O O15 0.736924 0.637906 0.055214
O O16 0.750000 0.750000 0.000000
O O17 0.103007 0.000000 0.070625
O O18 0.000000 0.926475 0.000000
#
# Coordination Sequence:
#
# PCOD9201977 Si02
#       7
#     8   8   8   8   8   8   8
#     4  10  21  36  54  80 118 159 199 248 291 333
#     4   9  20  37  57  85 113 138 180 230 269 327
#     4  10  20  39  62  82 110 146 182 225 281 335
#     4  10  21  36  56  84 113 153 195 240 291 339
#     4  10  21  38  60  85 120 145 184 242 288 338
#     4  10  20  38  55  73 107 138 165 211 259 299
#     4  10  20  38  62  85 109 147 187 221 267 325
#
# _framework density 20.199695999999999
#
# number of rings (size 3 to 8) (size 9 to 14) (size 15 to 20)
#    0.000    2.143    1.429    1.714    0.000    3.429 
#    0.000    7.857    0.000   10.286    0.000    0.000 
#    0.000    0.000    0.000    0.000    0.000    0.000 
#
# Total GULP energy -156353.078418 kJ/mol
# GULP energy per Si atom -5584.038515 kJ/mol
# Density = 2.015372 g / cm^3
# Si number density = 20.199696 Si / 1000 Ang^3
#
#
#
# Elastic Constant Matrix: (Units=GPa)
#
#
# Indices 1 2 3 4 5 6 
#
# 1 130.6122 36.4917 25.3608 0.0000 2.5299 0.0000
# 2 36.4917 106.4310 49.6925 0.0000 3.0671 0.0000
# 3 25.3608 49.6925 67.5348 0.0000 4.2091 0.0000
# 4 0.0000 0.0000 0.0000 -61.3433 0.0000 4.3546
# 5 2.5299 3.0671 4.2091 0.0000 7.9554 0.0000
# 6 0.0000 0.0000 0.0000 4.3546 0.0000 14.9571
#
#
#
# Elastic Compliance Matrix: (Units=1/GPa)
#
#
# Indices 1 2 3 4 5 6 
#
# 1 0.008590 -0.002193 -0.001546 0.000000 -0.001068 0.000000
# 2 -0.002193 0.014873 -0.010140 0.000000 0.000328 0.000000
# 3 -0.001546 -0.010140 0.023345 0.000000 -0.007950 0.000000
# 4 0.000000 0.000000 0.000000 -0.015972 0.000000 0.004650
# 5 -0.001068 0.000328 -0.007950 0.000000 0.130120 0.000000
# 6 0.000000 0.000000 0.000000 0.004650 0.000000 0.065504
#
#
# Mechanical properties :
#
#
# Convention : Reuss Voigt Hill
#
# Bulk Modulus (GPa) = 52.49542 58.62980 55.56261
# Shear Modulus (GPa) = 19.18892 5.18270 12.18581
#
# Velocity S-wave (km/s) = 3.08549 1.60353 2.45881
# Velocity P-wave (km/s) = 6.22401 5.70232 5.96887
#
# Compressibility (1/GPa) = 0.01904928
#
# Stress axis : x y z
#
# Youngs Moduli (GPa) = 116.41889 67.23745 42.83662
#
# Poissons Ratio (x) = 0.14743 0.06621
# Poissons Ratio (y) = 0.25527 0.43438
# Poissons Ratio (z) = 0.17994 0.68182
#
# Static dielectric constant tensor:
#      x y z
#    x 1.756880 0.000000 -0.013890 
#    y 0.000000 1.736820 0.000000 
#    z -0.013890 0.000000 1.707530 
# 
# From -- ./inp_files/354941.got.cif
#   From: 2010.05.17/outbox.cif.g08.bks.cpg/sg12_178_cif.got.tgz:354941.got - 2010.06.03 13:09:07.
