data_PCOD9201672
_publ_section_title
;
Structure prediction by ZEFSAII (Michael W. Deem and Ramdas Pophale) SiO2 
 PCOD9201672
Probable space group: C 2/M
;
_chemical_formula_sum "Si O2"
_cell_formula_units_Z 64
_cell_length_a 14.646663
_cell_length_b 13.894028
_cell_length_c 18.075674
_cell_angle_alpha 90.000000
_cell_angle_beta 123.589083
_cell_angle_gamma 90.000000
_cell_volume 3064.222263
_symmetry_space_group_name_H-M "C 2/M"
_symmetry_group_IT_number 12
_symmetry_cell_setting 'monoclinic'
loop_
_space_group_symop_operation_xyz
x,y,z
-x,y,-z
-x,-y,-z
x,-y,z
1/2+x,1/2+y,z
1/2-x,1/2+y,-z
1/2-x,1/2-y,-z
1/2+x,1/2-y,z
loop_
_atom_site_type_symbol
_atom_site_label
_atom_site_fract_x
_atom_site_fract_y
_atom_site_fract_z
Si Si1 0.262840 0.107601 0.225749
Si Si2 0.616726 0.299084 0.045804
Si Si3 0.355490 0.390534 0.091004
Si Si4 0.328072 0.784821 0.600190
Si Si5 0.083010 0.106257 0.268850
Si Si6 0.319656 0.611977 0.343839
Si Si7 0.462509 0.204875 0.399876
Si Si8 0.170507 0.607126 0.130088
O O1 0.224745 0.160263 0.134793
O O2 0.151953 0.104959 0.224207
O O3 0.354402 0.154807 0.318607
O O4 0.298456 0.000000 0.223903
O O5 0.596930 0.200029 0.082725
O O6 0.500000 0.353904 0.000000
O O7 0.641029 0.309957 0.970120
O O8 0.365969 0.500000 0.063990
O O9 0.457417 0.376885 0.191996
O O10 0.248060 0.390015 0.092903
O O11 0.250000 0.750000 0.500000
O O12 0.366927 0.690900 0.661528
O O13 0.258657 0.852432 0.624090
O O14 0.438345 0.821979 0.610364
O O15 0.093811 0.000000 0.308508
O O16 0.349773 0.500000 0.365729
O O17 0.424521 0.682688 0.385076
O O18 0.246328 0.620832 0.236447
O O19 0.500000 0.178826 0.500000
O O20 0.119915 0.500000 0.112975
#
# Coordination Sequence:
#
# PCOD9201672 Si02
#       8
#     8   8   8   8   8   8   8   8
#     4  11  23  41  64  95 134 173 220 276 347 409
#     4  12  22  37  64  94 131 174 224 283 341 399
#     4  10  21  37  62  95 125 166 222 280 339 406
#     4  12  24  43  69 100 137 175 227 281 346 412
#     4  10  20  37  63  92 125 168 221 276 338 402
#     4  11  24  46  71 101 139 184 232 286 343 412
#     4  12  24  45  72  99 139 180 226 285 344 417
#     4  10  22  42  63  89 130 175 225 276 335 410
#
# _framework density 20.886213999999999
#
# number of rings (size 3 to 8) (size 9 to 14) (size 15 to 20)
#    0.000    1.000    5.000    1.500    0.000    3.750 
#    0.000    0.000    0.000    0.000    0.000    0.000 
#    0.000    0.000    0.000    0.000    0.000    0.000 
#
# Total GULP energy -178586.274037 kJ/mol
# GULP energy per Si atom -5580.821064 kJ/mol
# Density = 2.083868 g / cm^3
# Si number density = 20.886214 Si / 1000 Ang^3
#
#
#
# Elastic Constant Matrix: (Units=GPa)
#
#
# Indices 1 2 3 4 5 6 
#
# 1 48.3702 -17.2754 -8.2868 0.0000 -6.5478 0.0000
# 2 -17.2754 68.1009 24.7043 0.0000 -2.0550 0.0000
# 3 -8.2868 24.7043 79.6742 0.0000 0.9821 0.0000
# 4 0.0000 0.0000 0.0000 -4.6853 0.0000 9.8619
# 5 -6.5478 -2.0550 0.9821 0.0000 34.8761 0.0000
# 6 0.0000 0.0000 0.0000 9.8619 0.0000 14.2974
#
#
#
# Elastic Compliance Matrix: (Units=1/GPa)
#
#
# Indices 1 2 3 4 5 6 
#
# 1 0.023522 0.005909 0.000556 0.000000 0.004749 0.000000
# 2 0.005909 0.018073 -0.005018 0.000000 0.002316 0.000000
# 3 0.000556 -0.005018 0.014172 0.000000 -0.000590 0.000000
# 4 0.000000 0.000000 0.000000 -0.087049 0.000000 0.060044
# 5 0.004749 0.002316 -0.000590 0.000000 0.029717 0.000000
# 6 0.000000 0.000000 0.000000 0.060044 0.000000 0.028526
#
#
# Mechanical properties :
#
#
# Convention : Reuss Voigt Hill
#
# Bulk Modulus (GPa) = 17.04719 21.60327 19.32523
# Shear Modulus (GPa) = 114.62114 22.03121 68.32618
#
# Velocity S-wave (km/s) = 7.41606 3.25132 5.72578
# Velocity P-wave (km/s) = 9.02831 4.94576 7.27911
#
# Compressibility (1/GPa) = 0.05866071
#
# Stress axis : x y z
#
# Youngs Moduli (GPa) = 42.51304 55.33083 70.56125
#
# Poissons Ratio (x) = -0.32693 -0.03923
# Poissons Ratio (y) = -0.25119 0.35407
# Poissons Ratio (z) = -0.02363 0.27764
#
# Static dielectric constant tensor:
#      x y z
#    x 1.713040 0.000000 0.002760 
#    y 0.000000 1.887300 0.000000 
#    z 0.002760 0.000000 1.733770 
# 
# From -- ./inp_files/270726.got.cif
#   From: 2010.05.17/outbox.cif.g08.bks.cpg/sg12_136_cif.got.tgz:270726.got - 2010.06.03 13:09:07.
