data_PCOD9201999
_publ_section_title
;
Structure prediction by ZEFSAII (Michael W. Deem and Ramdas Pophale) SiO2 
 PCOD9201999
Probable space group: C 2/M
;
_chemical_formula_sum "Si O2"
_cell_formula_units_Z 64
_cell_length_a 9.754763
_cell_length_b 30.667267
_cell_length_c 17.746870
_cell_angle_alpha 90.000000
_cell_angle_beta 37.706271
_cell_angle_gamma 90.000000
_cell_volume 3247.063067
_symmetry_space_group_name_H-M "C 2/M"
_symmetry_group_IT_number 12
_symmetry_cell_setting 'monoclinic'
loop_
_space_group_symop_operation_xyz
x,y,z
-x,y,-z
-x,-y,-z
x,-y,z
1/2+x,1/2+y,z
1/2-x,1/2+y,-z
1/2-x,1/2-y,-z
1/2+x,1/2-y,z
loop_
_atom_site_type_symbol
_atom_site_label
_atom_site_fract_x
_atom_site_fract_y
_atom_site_fract_z
Si Si1 0.205837 0.643728 0.243848
Si Si2 0.327036 0.453186 0.427055
Si Si3 0.684686 0.047505 0.313478
Si Si4 0.649774 0.204270 0.509523
Si Si5 0.255018 0.744428 0.086615
Si Si6 0.946834 0.135765 0.685489
Si Si7 0.170291 0.162459 0.108646
Si Si8 0.981189 0.661965 0.828448
O O1 0.245094 0.594646 0.255897
O O2 0.437622 0.667418 0.164973
O O3 0.147245 0.637209 0.181830
O O4 0.011206 0.673495 0.367401
O O5 0.437169 0.500000 0.395921
O O6 0.265362 0.452296 0.365082
O O7 0.462477 0.409874 0.384960
O O8 0.085386 0.452193 0.571284
O O9 0.759223 0.000000 0.249153
O O10 0.500000 0.213651 0.500000
O O11 0.750000 0.250000 0.500000
O O12 0.855918 0.171786 0.399583
O O13 0.225491 0.792746 0.129805
O O14 0.056378 0.711207 0.185917
O O15 0.500000 0.727172 0.000000
O O16 0.250000 0.750000 0.000000
O O17 0.862487 0.129196 0.808642
O O18 0.738111 0.151106 0.726817
O O19 0.357126 0.155473 0.963126
#
# Coordination Sequence:
#
# PCOD9201999 Si02
#       8
#     8   8   8   8   8   8   8   8
#     4  12  23  40  66  88 131 161 204 257 307 378
#     4   9  17  35  64  93 116 149 207 264 303 360
#     4   9  17  35  64  93 115 150 208 261 305 362
#     4  12  28  44  61  91 128 170 205 244 319 375
#     4  10  20  38  56  79 114 156 216 252 276 332
#     4  12  23  40  66  88 130 160 207 255 306 376
#     4  11  22  40  64  86 121 166 216 259 296 353
#     4  11  26  38  58  94 123 169 208 255 306 355
#
# _framework density 19.710118999999999
#
# number of rings (size 3 to 8) (size 9 to 14) (size 15 to 20)
#    0.000    1.250    3.750    4.500    5.250    0.000 
#    0.000    0.625    0.000    6.000    0.000    0.000 
#    0.000    0.000    0.000    0.000    0.000    0.000 
#
# Total GULP energy -178321.863213 kJ/mol
# GULP energy per Si atom -5572.558225 kJ/mol
# Density = 1.966526 g / cm^3
# Si number density = 19.710119 Si / 1000 Ang^3
#
#
#
# Elastic Constant Matrix: (Units=GPa)
#
#
# Indices 1 2 3 4 5 6 
#
# 1 92.8045 28.1584 16.9405 0.0000 -29.0360 0.0000
# 2 28.1584 125.4714 29.1631 0.0000 -16.6234 0.0000
# 3 16.9405 29.1631 50.0385 0.0000 -21.4622 0.0000
# 4 0.0000 0.0000 0.0000 22.0288 0.0000 -5.3311
# 5 -29.0360 -16.6234 -21.4622 0.0000 35.3898 0.0000
# 6 0.0000 0.0000 0.0000 -5.3311 0.0000 1.6481
#
#
#
# Elastic Compliance Matrix: (Units=1/GPa)
#
#
# Indices 1 2 3 4 5 6 
#
# 1 0.014943 -0.002060 0.001331 0.000000 0.012100 0.000000
# 2 -0.002060 0.009558 -0.004963 0.000000 -0.000211 0.000000
# 3 0.001331 -0.004963 0.029593 0.000000 0.016707 0.000000
# 4 0.000000 0.000000 0.000000 0.209019 0.000000 0.676117
# 5 0.012100 -0.000211 0.016707 0.000000 0.048218 0.000000
# 6 0.000000 0.000000 0.000000 0.676117 0.000000 2.793814
#
#
# Mechanical properties :
#
#
# Convention : Reuss Voigt Hill
#
# Bulk Modulus (GPa) = 23.41373 46.31537 34.86455
# Shear Modulus (GPa) = 1.59705 24.75015 13.17360
#
# Velocity S-wave (km/s) = 0.90113 3.54744 2.58808
# Velocity P-wave (km/s) = 3.60382 6.35046 5.16314
#
# Compressibility (1/GPa) = 0.04270999
#
# Stress axis : x y z
#
# Youngs Moduli (GPa) = 66.92038 104.62466 33.79218
#
# Poissons Ratio (x) = 0.21552 -0.04499
# Poissons Ratio (y) = 0.13785 0.16773
# Poissons Ratio (z) = -0.08910 0.51930
#
# Static dielectric constant tensor:
#      x y z
#    x 1.386340 0.000000 -0.223820 
#    y 0.000000 1.821790 0.000000 
#    z -0.223820 0.000000 1.522860 
# 
# From -- ./inp_files/260327.got.cif
#   From: 2010.05.17/outbox.cif.g08.bks.cpg/sg12_131_cif.got.tgz:260327.got - 2010.06.03 13:09:07.
