data_PCOD9201139
_publ_section_title
;
Structure prediction by ZEFSAII (Michael W. Deem and Ramdas Pophale) SiO2 
 PCOD9201139
Probable space group: C 2/M
;
_chemical_formula_sum "Si O2"
_cell_formula_units_Z 64
_cell_length_a 29.976014
_cell_length_b 8.266669
_cell_length_c 14.706153
_cell_angle_alpha 90.000000
_cell_angle_beta 49.352547
_cell_angle_gamma 90.000000
_cell_volume 2764.979730
_symmetry_space_group_name_H-M "C 2/M"
_symmetry_group_IT_number 12
_symmetry_cell_setting 'monoclinic'
loop_
_space_group_symop_operation_xyz
x,y,z
-x,y,-z
-x,-y,-z
x,-y,z
1/2+x,1/2+y,z
1/2-x,1/2+y,-z
1/2-x,1/2-y,-z
1/2+x,1/2-y,z
loop_
_atom_site_type_symbol
_atom_site_label
_atom_site_fract_x
_atom_site_fract_y
_atom_site_fract_z
Si Si1 0.638212 0.810770 0.197952
Si Si2 0.697169 0.685308 0.290331
Si Si3 0.881881 0.192450 0.212167
Si Si4 0.748113 0.693939 0.606470
Si Si5 0.993735 0.302058 0.611393
Si Si6 0.559444 0.693610 0.041944
Si Si7 0.054232 0.688803 0.704090
Si Si8 0.188668 0.186920 0.956007
O O1 0.654281 0.786192 0.281961
O O2 0.571518 0.754405 0.270541
O O3 0.681380 0.717500 0.072998
O O4 0.642311 0.000000 0.170061
O O5 0.679165 0.500000 0.310735
O O6 0.704774 0.741140 0.384177
O O7 0.760997 0.708685 0.157767
O O8 0.816744 0.251118 0.275504
O O9 0.929947 0.250211 0.075852
O O10 0.898662 0.230366 0.292857
O O11 0.880668 0.000000 0.202359
O O12 0.750686 0.500000 0.605401
O O13 0.750000 0.750000 0.500000
O O14 0.995201 0.500000 0.609804
O O15 0.000000 0.247180 0.500000
O O16 0.042525 0.246136 0.618347
O O17 0.545069 0.500000 0.062792
O O18 0.508215 0.785850 0.161896
O O19 0.623521 0.715356 0.002291
O O20 0.068716 0.500000 0.679394
O O21 0.204390 0.000000 0.917102
#
# Coordination Sequence:
#
# PCOD9201139 Si02
#       8
#     8   8   8   8   8   8   8   8
#     4  11  22  39  63  91 124 162 204 254 312 370
#     4  12  25  41  63  93 126 161 205 254 307 368
#     4  10  22  41  62  87 121 161 199 241 302 370
#     4  11  24  45  67  91 123 163 210 257 307 363
#     4   9  20  39  60  84 117 157 201 249 300 354
#     4  10  20  37  61  86 120 162 197 240 305 372
#     4  11  22  36  59  93 123 153 201 253 301 360
#     4  11  21  38  63  91 123 161 203 250 311 374
#
# _framework density 23.146643000000001
#
# number of rings (size 3 to 8) (size 9 to 14) (size 15 to 20)
#    0.000    1.375    2.500    3.375    0.000    4.500 
#    0.000    1.250    0.000    5.250    0.000    0.000 
#    0.000    0.000    0.000    0.000    0.000    0.000 
#
# Total GULP energy -178999.781007 kJ/mol
# GULP energy per Si atom -5593.743156 kJ/mol
# Density = 2.309396 g / cm^3
# Si number density = 23.146643 Si / 1000 Ang^3
#
#
#
# Elastic Constant Matrix: (Units=GPa)
#
#
# Indices 1 2 3 4 5 6 
#
# 1 105.6046 -12.3925 4.6182 0.0000 27.7548 -0.0003
# 2 -12.3925 16.9335 -6.5048 -0.0001 -2.4041 -0.0007
# 3 4.6182 -6.5048 48.4964 0.0000 28.5560 0.0000
# 4 0.0000 -0.0001 0.0000 18.9767 0.0000 6.7301
# 5 27.7548 -2.4041 28.5560 0.0000 41.2823 0.0000
# 6 -0.0003 -0.0007 0.0000 6.7301 0.0000 26.3718
#
#
#
# Elastic Compliance Matrix: (Units=1/GPa)
#
#
# Indices 1 2 3 4 5 6 
#
# 1 0.014579 0.012074 0.009430 0.000000 -0.015621 0.000001
# 2 0.012074 0.072586 0.018352 -0.000001 -0.016585 0.000002
# 3 0.009430 0.018352 0.042665 0.000000 -0.034783 0.000001
# 4 0.000000 -0.000001 0.000000 0.057940 0.000000 -0.014786
# 5 -0.015621 -0.016585 -0.034783 0.000000 0.057821 -0.000001
# 6 0.000001 0.000002 0.000001 -0.014786 -0.000001 0.041693
#
#
# Mechanical properties :
#
#
# Convention : Reuss Voigt Hill
#
# Bulk Modulus (GPa) = 4.77231 15.83069 10.30150
# Shear Modulus (GPa) = 18.02321 29.68042 23.85181
#
# Velocity S-wave (km/s) = 2.79346 3.58477 3.21357
# Velocity P-wave (km/s) = 3.53141 4.89778 4.26961
#
# Compressibility (1/GPa) = 0.20954195
#
# Stress axis : x y z
#
# Youngs Moduli (GPa) = 68.58985 13.77675 23.43836
#
# Poissons Ratio (x) = -0.16634 -0.22101
# Poissons Ratio (y) = -0.82817 -0.43014
# Poissons Ratio (z) = -0.64677 -0.25283
#
# Static dielectric constant tensor:
#      x y z
#    x 1.886580 0.000000 0.019220 
#    y 0.000000 1.792420 0.000000 
#    z 0.019220 0.000000 1.897030 
# 
# From -- ./inp_files/249667.got.cif
#   From: 2010.05.17/outbox.cif.g08.bks.cpg/sg12_125_cif.got.tgz:249667.got - 2010.06.03 13:09:07.
