data_PCOD9201426
_publ_section_title
;
Structure prediction by ZEFSAII (Michael W. Deem and Ramdas Pophale) SiO2 
 PCOD9201426
Probable space group: C 2/M
;
_chemical_formula_sum "Si O2"
_cell_formula_units_Z 40
_cell_length_a 13.774906
_cell_length_b 26.683763
_cell_length_c 5.138266
_cell_angle_alpha 90.000000
_cell_angle_beta 62.442526
_cell_angle_gamma 90.000000
_cell_volume 1674.380530
_symmetry_space_group_name_H-M "C 2/M"
_symmetry_group_IT_number 12
_symmetry_cell_setting 'monoclinic'
loop_
_space_group_symop_operation_xyz
x,y,z
-x,y,-z
-x,-y,-z
x,-y,z
1/2+x,1/2+y,z
1/2-x,1/2+y,-z
1/2-x,1/2-y,-z
1/2+x,1/2-y,z
loop_
_atom_site_type_symbol
_atom_site_label
_atom_site_fract_x
_atom_site_fract_y
_atom_site_fract_z
Si Si1 0.759840 0.285925 0.244034
Si Si2 0.786359 0.873608 0.347308
Si Si3 0.093053 0.942176 0.170988
Si Si4 0.168001 0.556382 0.852247
Si Si5 0.900611 0.349837 0.800616
O O1 0.750000 0.250000 0.500000
O O2 0.690460 0.335174 0.441671
O O3 0.750000 0.250000 0.000000
O O4 0.877557 0.312489 0.065354
O O5 0.700155 0.915997 0.547549
O O6 0.714851 0.846663 0.212825
O O7 0.885906 0.903216 0.090028
O O8 0.212492 0.943664 0.158704
O O9 0.000000 0.929386 0.500000
O O10 0.073444 0.000000 0.113413
O O11 0.129647 0.500000 0.873007
O O12 0.090188 0.593723 0.106158
O O13 0.000000 0.335245 0.500000
#
# Coordination Sequence:
#
# PCOD9201426 Si02
#       5
#     8   8   8   8   8
#     4  11  22  42  68  88 119 158 206 264 324 373
#     4  10  20  37  62  88 130 165 212 262 316 376
#     4   9  18  34  58  90 128 173 216 257 312 379
#     4   9  19  34  57  90 128 169 208 255 311 371
#     4  10  22  40  65  92 122 167 211 260 312 379
#
# _framework density 23.889430000000001
#
# number of rings (size 3 to 8) (size 9 to 14) (size 15 to 20)
#    0.000    2.200    2.000    0.600    0.000    5.200 
#    0.000    5.000   13.200    0.000    0.000    0.000 
#    0.000    0.000    0.000    0.000    0.000    0.000 
#
# Total GULP energy -111480.975218 kJ/mol
# GULP energy per Si atom -5574.048761 kJ/mol
# Density = 2.383506 g / cm^3
# Si number density = 23.889430 Si / 1000 Ang^3
#
#
#
# Elastic Constant Matrix: (Units=GPa)
#
#
# Indices 1 2 3 4 5 6 
#
# 1 59.1186 6.2900 30.2388 0.0000 5.1350 0.0000
# 2 6.2900 204.7309 100.2432 0.0000 4.4997 0.0000
# 3 30.2388 100.2432 204.6468 0.0000 -8.5080 0.0000
# 4 0.0000 0.0000 0.0000 -293.6025 0.0000 -76.7664
# 5 5.1350 4.4997 -8.5080 0.0000 38.2237 0.0000
# 6 0.0000 0.0000 0.0000 -76.7664 0.0000 -19.8000
#
#
#
# Elastic Compliance Matrix: (Units=1/GPa)
#
#
# Indices 1 2 3 4 5 6 
#
# 1 0.018896 0.001228 -0.003538 0.000000 -0.003470 0.000000
# 2 0.001228 0.006588 -0.003480 0.000000 -0.001715 0.000000
# 3 -0.003538 -0.003480 0.007217 0.000000 0.002491 0.000000
# 4 0.000000 0.000000 0.000000 0.248264 0.000000 -0.962543
# 5 -0.003470 -0.001715 0.002491 0.000000 0.027384 0.000000
# 6 0.000000 0.000000 0.000000 -0.962543 0.000000 3.681362
#
#
# Mechanical properties :
#
#
# Convention : Reuss Voigt Hill
#
# Bulk Modulus (GPa) = 47.34472 82.44894 64.89683
# Shear Modulus (GPa) = 1.24740 -32.92080 -15.83670
#
# Velocity S-wave (km/s) = 0.72339 -3.71624 -2.57751
# Velocity P-wave (km/s) = 4.53421 4.02166 4.28560
#
# Compressibility (1/GPa) = 0.02112168
#
# Stress axis : x y z
#
# Youngs Moduli (GPa) = 52.92262 151.78360 138.55417
#
# Poissons Ratio (x) = -0.18639 0.49018
# Poissons Ratio (y) = -0.06499 0.48216
# Poissons Ratio (z) = 0.18723 0.52820
#
# Static dielectric constant tensor:
#      x y z
#    x 2.701360 0.000000 0.185850 
#    y 0.000000 1.983920 0.000000 
#    z 0.185850 0.000000 1.994030 
# 
# From -- ./inp_files/7607.got.cif
#   From: 2010.05.17/outbox.cif.g08.bks.cpg/sg12_4_cif.got.tgz:7607.got - 2010.06.03 13:09:07.
