data_PCOD9201258
_publ_section_title
;
Structure prediction by ZEFSAII (Michael W. Deem and Ramdas Pophale) SiO2 
 PCOD9201258
Probable space group: C 2/M
;
_chemical_formula_sum "Si O2"
_cell_formula_units_Z 64
_cell_length_a 18.510383
_cell_length_b 15.125310
_cell_length_c 16.804198
_cell_angle_alpha 90.000000
_cell_angle_beta 42.104297
_cell_angle_gamma 90.000000
_cell_volume 3154.458170
_symmetry_space_group_name_H-M "C 2/M"
_symmetry_group_IT_number 12
_symmetry_cell_setting 'monoclinic'
loop_
_space_group_symop_operation_xyz
x,y,z
-x,y,-z
-x,-y,-z
x,-y,z
1/2+x,1/2+y,z
1/2-x,1/2+y,-z
1/2-x,1/2-y,-z
1/2+x,1/2-y,z
loop_
_atom_site_type_symbol
_atom_site_label
_atom_site_fract_x
_atom_site_fract_y
_atom_site_fract_z
Si Si1 0.381673 0.249043 0.620136
Si Si2 0.120334 0.097008 0.869588
Si Si3 0.338037 0.101038 0.780937
Si Si4 0.809147 0.901566 0.785432
Si Si5 0.950157 0.900383 0.339203
Si Si6 0.937910 0.242444 0.207709
Si Si7 0.230154 0.201927 0.433473
Si Si8 0.165480 0.675121 0.041676
O O1 0.500000 0.281531 0.500000
O O2 0.390248 0.169686 0.676194
O O3 0.310217 0.325328 0.718980
O O4 0.325526 0.229676 0.582192
O O5 0.210121 0.108842 0.864599
O O6 0.112598 0.181926 0.820065
O O7 0.146051 0.000000 0.810921
O O8 0.000000 0.090300 0.000000
O O9 0.359081 0.124682 0.855451
O O10 0.370205 0.000000 0.739164
O O11 0.931285 0.897737 0.719424
O O12 0.789752 0.000000 0.769922
O O13 0.726740 0.880687 0.924179
O O14 0.950143 0.826765 0.270655
O O15 0.855743 0.874843 0.478505
O O16 0.932863 0.000000 0.322983
O O17 0.849392 0.316220 0.302788
O O18 0.055325 0.283226 0.097725
O O19 0.250000 0.250000 0.500000
O O20 0.250000 0.750000 0.000000
#
# Coordination Sequence:
#
# PCOD9201258 Si02
#       8
#     8   8   8   8   8   8   8   8
#     4  12  23  42  68  94 131 169 221 275 325 391
#     4  10  21  35  56  92 126 157 205 267 327 381
#     4  11  24  42  64  96 136 176 218 269 328 401
#     4  11  24  41  67  99 129 168 220 278 324 382
#     4  10  20  37  61  90 121 160 211 271 321 374
#     4  11  21  38  63  88 126 169 212 264 331 396
#     4  10  23  40  60  92 124 168 213 265 331 391
#     4  12  22  40  67  96 133 175 221 266 334 397
#
# _framework density 20.288744999999999
#
# number of rings (size 3 to 8) (size 9 to 14) (size 15 to 20)
#    0.000    1.125    5.000    1.500    1.750    1.000 
#    0.000    1.250    0.000    0.750    0.000    0.000 
#    0.000    0.000    0.000    0.000    0.000    0.000 
#
# Total GULP energy -178506.146095 kJ/mol
# GULP energy per Si atom -5578.317065 kJ/mol
# Density = 2.024257 g / cm^3
# Si number density = 20.288745 Si / 1000 Ang^3
#
#
#
# Elastic Constant Matrix: (Units=GPa)
#
#
# Indices 1 2 3 4 5 6 
#
# 1 72.3657 17.3789 23.9769 0.0000 0.3394 0.0000
# 2 17.3789 99.9585 39.3657 0.0000 8.3929 0.0000
# 3 23.9769 39.3657 84.4546 0.0000 -1.7743 0.0000
# 4 0.0000 0.0000 0.0000 -8.7154 0.0000 -8.9614
# 5 0.3394 8.3929 -1.7743 0.0000 39.5867 0.0000
# 6 0.0000 0.0000 0.0000 -8.9614 0.0000 6.2795
#
#
#
# Elastic Compliance Matrix: (Units=1/GPa)
#
#
# Indices 1 2 3 4 5 6 
#
# 1 0.015364 -0.001161 -0.003822 0.000000 -0.000057 0.000000
# 2 -0.001161 0.012673 -0.005639 0.000000 -0.002930 0.000000
# 3 -0.003822 -0.005639 0.015595 0.000000 0.001927 0.000000
# 4 0.000000 0.000000 0.000000 -0.046502 0.000000 -0.066363
# 5 -0.000057 -0.002930 0.001927 0.000000 0.025969 0.000000
# 6 0.000000 0.000000 0.000000 -0.066363 0.000000 0.064542
#
#
# Mechanical properties :
#
#
# Convention : Reuss Voigt Hill
#
# Bulk Modulus (GPa) = 44.66778 46.46908 45.56843
# Shear Modulus (GPa) = 42.97520 19.16729 31.07125
#
# Velocity S-wave (km/s) = 4.60736 3.07697 3.91762
# Velocity P-wave (km/s) = 7.09701 5.96467 6.55533
#
# Compressibility (1/GPa) = 0.02238750
#
# Stress axis : x y z
#
# Youngs Moduli (GPa) = 65.08655 78.90968 64.12509
#
# Poissons Ratio (x) = 0.09164 0.24507
# Poissons Ratio (y) = 0.07559 0.36159
# Poissons Ratio (z) = 0.24875 0.44496
#
# Static dielectric constant tensor:
#      x y z
#    x 1.747520 0.000000 0.004650 
#    y 0.000000 1.763670 0.000000 
#    z 0.004650 0.000000 1.766850 
# 
# From -- ./inp_files/225687.got.cif
#   From: 2010.05.17/outbox.cif.g08.bks.cpg/sg12_113_cif.got.tgz:225687.got - 2010.06.03 13:09:07.
