data_PCOD9201537
_publ_section_title
;
Structure prediction by ZEFSAII (Michael W. Deem and Ramdas Pophale) SiO2 
 PCOD9201537
Probable space group: C 2/M
;
_chemical_formula_sum "Si O2"
_cell_formula_units_Z 40
_cell_length_a 10.663940
_cell_length_b 27.119527
_cell_length_c 8.836812
_cell_angle_alpha 90.000000
_cell_angle_beta 52.420630
_cell_angle_gamma 90.000000
_cell_volume 2025.348564
_symmetry_space_group_name_H-M "C 2/M"
_symmetry_group_IT_number 12
_symmetry_cell_setting 'monoclinic'
loop_
_space_group_symop_operation_xyz
x,y,z
-x,y,-z
-x,-y,-z
x,-y,z
1/2+x,1/2+y,z
1/2-x,1/2+y,-z
1/2-x,1/2-y,-z
1/2+x,1/2-y,z
loop_
_atom_site_type_symbol
_atom_site_label
_atom_site_fract_x
_atom_site_fract_y
_atom_site_fract_z
Si Si1 0.673801 0.553747 0.791293
Si Si2 0.811522 0.352396 0.146916
Si Si3 0.820750 0.054144 0.575386
Si Si4 0.688635 0.748931 0.373562
Si Si5 0.311933 0.655596 0.102805
O O1 0.745458 0.500000 0.776993
O O2 0.667701 0.557668 0.614641
O O3 0.754940 0.603937 0.783787
O O4 0.500000 0.553649 0.000000
O O5 0.758751 0.399647 0.283948
O O6 0.762060 0.301205 0.257642
O O7 0.727383 0.349030 0.045117
O O8 0.000000 0.354205 0.000000
O O9 0.000000 0.053827 0.500000
O O10 0.749293 0.000000 0.665172
O O11 0.500000 0.745921 0.500000
O O12 0.750000 0.750000 0.500000
O O13 0.741113 0.796481 0.236929
O O14 0.500000 0.657455 0.000000
#
# Coordination Sequence:
#
# PCOD9201537 Si02
#       5
#     8   8   8   8   8
#     4   9  18  34  59  90 120 154 199 250 301 357
#     4  12  25  41  61  90 128 164 203 252 309 367
#     4  10  20  37  62  91 123 162 209 254 302 364
#     4  12  24  41  64  89 120 159 208 258 309 365
#     4  11  22  39  62  88 121 160 204 251 305 368
#
# _framework density 19.749687999999999
#
# number of rings (size 3 to 8) (size 9 to 14) (size 15 to 20)
#    0.000    1.200    0.000    7.800    0.000    2.800 
#    0.000    0.000    0.000    3.000    0.000    0.000 
#    0.000    0.000    0.000    0.000    0.000    0.000 
#
# Total GULP energy -111626.840231 kJ/mol
# GULP energy per Si atom -5581.342012 kJ/mol
# Density = 1.970474 g / cm^3
# Si number density = 19.749688 Si / 1000 Ang^3
#
#
#
# Elastic Constant Matrix: (Units=GPa)
#
#
# Indices 1 2 3 4 5 6 
#
# 1 102.8079 41.2624 61.2408 0.0000 15.2027 0.0000
# 2 41.2624 246.8492 106.0689 0.0000 15.5118 0.0000
# 3 61.2408 106.0689 114.8964 0.0000 16.1561 0.0000
# 4 0.0000 0.0000 0.0000 52.3024 0.0000 10.8187
# 5 15.2027 15.5118 16.1561 0.0000 47.1332 0.0000
# 6 0.0000 0.0000 0.0000 10.8187 0.0000 24.6497
#
#
#
# Elastic Compliance Matrix: (Units=1/GPa)
#
#
# Indices 1 2 3 4 5 6 
#
# 1 0.014790 0.001526 -0.008983 0.000000 -0.002193 0.000000
# 2 0.001526 0.006872 -0.007113 0.000000 -0.000316 0.000000
# 3 -0.008983 -0.007113 0.020300 0.000000 -0.001720 0.000000
# 4 0.000000 0.000000 0.000000 0.021029 0.000000 -0.009229
# 5 -0.002193 -0.000316 -0.001720 0.000000 0.022617 0.000000
# 6 0.000000 0.000000 0.000000 -0.009229 0.000000 0.044619
#
#
# Mechanical properties :
#
#
# Convention : Reuss Voigt Hill
#
# Bulk Modulus (GPa) = 77.99691 97.96644 87.98168
# Shear Modulus (GPa) = 30.55438 41.88248 36.21843
#
# Velocity S-wave (km/s) = 3.93756 4.61006 4.28702
# Velocity P-wave (km/s) = 7.76215 8.83452 8.31564
#
# Compressibility (1/GPa) = 0.01282102
#
# Stress axis : x y z
#
# Youngs Moduli (GPa) = 67.61306 145.51156 49.26100
#
# Poissons Ratio (x) = -0.22199 0.44252
# Poissons Ratio (y) = -0.10315 0.35040
# Poissons Ratio (z) = 0.60738 1.03503
#
# Static dielectric constant tensor:
#      x y z
#    x 1.719430 0.000000 0.120160 
#    y 0.000000 1.756750 0.000000 
#    z 0.120160 0.000000 1.922660 
# 
# From -- ./inp_files/52331.got.cif
#   From: 2010.05.17/outbox.cif.g08.bks.cpg/sg12_27_cif.got.tgz:52331.got - 2010.06.03 13:09:07.
