data_PCOD9201060
_publ_section_title
;
Structure prediction by ZEFSAII (Michael W. Deem and Ramdas Pophale) SiO2 
 PCOD9201060
Probable space group: C 2/M
;
_chemical_formula_sum "Si O2"
_cell_formula_units_Z 32
_cell_length_a 11.672393
_cell_length_b 13.908101
_cell_length_c 8.327851
_cell_angle_alpha 90.000000
_cell_angle_beta 88.137590
_cell_angle_gamma 90.000000
_cell_volume 1351.236003
_symmetry_space_group_name_H-M "C 2/M"
_symmetry_group_IT_number 12
_symmetry_cell_setting 'monoclinic'
loop_
_space_group_symop_operation_xyz
x,y,z
-x,y,-z
-x,-y,-z
x,-y,z
1/2+x,1/2+y,z
1/2-x,1/2+y,-z
1/2-x,1/2-y,-z
1/2+x,1/2-y,z
loop_
_atom_site_type_symbol
_atom_site_label
_atom_site_fract_x
_atom_site_fract_y
_atom_site_fract_z
Si Si1 0.892093 0.687528 0.097921
Si Si2 0.125592 0.647666 0.526905
Si Si3 0.620227 0.639539 0.409257
Si Si4 0.847383 0.106039 0.966198
O O1 0.887254 0.676584 0.287082
O O2 0.786932 0.627802 0.033505
O O3 0.888506 0.801426 0.061732
O O4 0.000000 0.648209 0.000000
O O5 0.257030 0.606728 0.517483
O O6 0.127732 0.744025 0.419017
O O7 0.000000 0.600704 0.500000
O O8 0.500000 0.612579 0.500000
O O9 0.616070 0.611055 0.222806
O O10 0.872907 0.000000 0.029971
#
# Coordination Sequence:
#
# PCOD9201060 Si02
#       4
#     8   8   8   8
#     4  10  20  37  61  83 112 156 196 240 298 350
#     4   9  17  31  55  84 112 148 195 238 287 354
#     4   9  17  32  55  80 112 149 188 237 293 344
#     4  10  22  38  57  86 117 148 198 252 292 344
#
# _framework density 23.682020000000001
#
# number of rings (size 3 to 8) (size 9 to 14) (size 15 to 20)
#    0.000    2.500    0.000    3.000    0.000    3.500 
#    0.000    1.250    0.000   12.750    0.000    0.000 
#    0.000    9.000    0.000    0.000    0.000    0.000 
#
# Total GULP energy -89229.510152 kJ/mol
# GULP energy per Si atom -5576.844384 kJ/mol
# Density = 2.362812 g / cm^3
# Si number density = 23.682020 Si / 1000 Ang^3
#
#
#
# Elastic Constant Matrix: (Units=GPa)
#
#
# Indices 1 2 3 4 5 6 
#
# 1 234.0269 34.3098 51.8525 0.0000 -35.3819 0.0000
# 2 34.3098 105.5711 3.7606 0.0000 -8.7048 0.0000
# 3 51.8525 3.7606 43.3113 0.0000 -37.8384 0.0000
# 4 0.0000 0.0000 0.0000 27.2160 0.0000 5.1966
# 5 -35.3819 -8.7048 -37.8384 0.0000 45.8008 0.0000
# 6 0.0000 0.0000 0.0000 5.1966 0.0000 -133.9277
#
#
#
# Elastic Compliance Matrix: (Units=1/GPa)
#
#
# Indices 1 2 3 4 5 6 
#
# 1 0.006537 -0.002161 -0.012886 0.000000 -0.006006 0.000000
# 2 -0.002161 0.010429 0.007025 0.000000 0.006117 0.000000
# 3 -0.012886 0.007025 0.109169 0.000000 0.081571 0.000000
# 4 0.000000 0.000000 0.000000 0.036473 0.000000 0.001415
# 5 -0.006006 0.006117 0.081571 0.000000 0.085746 0.000000
# 6 0.000000 0.000000 0.000000 0.001415 0.000000 -0.007412
#
#
# Mechanical properties :
#
#
# Convention : Reuss Voigt Hill
#
# Bulk Modulus (GPa) = 9.08334 62.52835 35.80585
# Shear Modulus (GPa) = 17.02524 7.35025 12.18775
#
# Velocity S-wave (km/s) = 2.68416 1.76365 2.27103
# Velocity P-wave (km/s) = 3.66744 5.53244 4.69351
#
# Compressibility (1/GPa) = 0.11009164
#
# Stress axis : x y z
#
# Youngs Moduli (GPa) = 152.98240 95.89034 9.16011
#
# Poissons Ratio (x) = 0.20718 0.11803
# Poissons Ratio (y) = 0.33054 -0.06435
# Poissons Ratio (z) = 1.97127 -0.67362
#
# Static dielectric constant tensor:
#      x y z
#    x 2.002580 0.000000 -0.003710 
#    y 0.000000 1.875640 0.000000 
#    z -0.003710 0.000000 1.796980 
# 
# From -- ./inp_files/44941.got.cif
#   From: 2010.05.17/outbox.cif.g08.bks.cpg/sg12_23_cif.got.tgz:44941.got - 2010.06.03 13:09:07.
