data_PCOD9201835
_publ_section_title
;
Structure prediction by ZEFSAII (Michael W. Deem and Ramdas Pophale) SiO2 
 PCOD9201835
Probable space group: C 2/M
;
_chemical_formula_sum "Si O2"
_cell_formula_units_Z 60
_cell_length_a 12.295797
_cell_length_b 19.938992
_cell_length_c 23.498667
_cell_angle_alpha 90.000000
_cell_angle_beta 149.921690
_cell_angle_gamma 90.000000
_cell_volume 2887.351151
_symmetry_space_group_name_H-M "C 2/M"
_symmetry_group_IT_number 12
_symmetry_cell_setting 'monoclinic'
loop_
_space_group_symop_operation_xyz
x,y,z
-x,y,-z
-x,-y,-z
x,-y,z
1/2+x,1/2+y,z
1/2-x,1/2+y,-z
1/2-x,1/2-y,-z
1/2+x,1/2-y,z
loop_
_atom_site_type_symbol
_atom_site_label
_atom_site_fract_x
_atom_site_fract_y
_atom_site_fract_z
Si Si1 0.433469 0.421260 0.092852
Si Si2 0.525905 0.782743 0.377928
Si Si3 0.028678 0.580072 0.076341
Si Si4 0.969783 0.140525 0.318295
Si Si5 0.667698 0.328181 0.292302
Si Si6 0.128434 0.078682 0.616942
Si Si7 0.500000 0.367629 0.000000
Si Si8 0.988283 0.320543 0.234459
O O1 0.456300 0.500000 0.117985
O O2 0.551455 0.375242 0.193055
O O3 0.509840 0.409023 0.063211
O O4 0.179841 0.401698 0.981296
O O5 0.750000 0.750000 0.500000
O O6 0.397851 0.716060 0.300460
O O7 0.408352 0.817887 0.377030
O O8 0.529359 0.824758 0.321558
O O9 0.030604 0.500000 0.074218
O O10 0.257801 0.602679 0.201893
O O11 0.000000 0.608057 0.000000
O O12 0.028791 0.104528 0.403755
O O13 0.137228 0.142734 0.341925
O O14 0.562961 0.253704 0.248875
O O15 0.347630 0.123462 0.716474
O O16 0.000000 0.088011 0.500000
O O17 0.179483 0.000000 0.647366
O O18 0.267369 0.329353 0.894693
#
# Coordination Sequence:
#
# PCOD9201835 Si02
#       8
#     8   8   8   8   8   8   4   8
#     4  11  24  42  65  96 140 187 229 277 347 424
#     4  11  24  45  69  98 136 180 235 293 356 420
#     4  10  20  37  64  99 135 178 223 272 336 414
#     4  11  22  39  69  98 132 174 229 283 339 413
#     4  11  24  43  69 101 134 179 228 296 349 408
#     4  11  24  44  71 103 141 183 238 299 347 414
#     4  12  25  42  64  98 143 186 230 288 355 430
#     4  11  25  42  69 103 137 185 236 289 355 427
#
# _framework density 20.780293
#
# number of rings (size 3 to 8) (size 9 to 14) (size 15 to 20)
#    0.000    1.067    4.000    2.200    0.000    6.933 
#    0.000    0.000    0.000    0.800    0.000    9.333 
#    0.000    0.000    0.000    0.000    0.000    0.000 
#
# Total GULP energy -167497.675781 kJ/mol
# GULP energy per Si atom -5583.255859 kJ/mol
# Density = 2.073300 g / cm^3
# Si number density = 20.780293 Si / 1000 Ang^3
#
#
#
# Elastic Constant Matrix: (Units=GPa)
#
#
# Indices 1 2 3 4 5 6 
#
# 1 185.9286 55.5916 47.4650 0.0000 -9.8233 -0.0002
# 2 55.5916 78.2175 32.2769 0.0009 -0.5075 -0.0001
# 3 47.4650 32.2769 83.0559 0.0013 2.3594 -0.0014
# 4 0.0000 0.0009 0.0013 27.7935 0.0007 -14.1487
# 5 -9.8233 -0.5075 2.3594 0.0007 36.4116 0.0003
# 6 -0.0002 -0.0001 -0.0014 -14.1487 0.0003 14.9087
#
#
#
# Elastic Compliance Matrix: (Units=1/GPa)
#
#
# Indices 1 2 3 4 5 6 
#
# 1 0.007417 -0.004149 -0.002686 0.000000 0.002117 0.000000
# 2 -0.004149 0.017561 -0.004437 -0.000001 -0.000587 -0.000001
# 3 -0.002686 -0.004437 0.015350 0.000000 -0.001781 0.000002
# 4 0.000000 -0.000001 0.000000 0.069608 -0.000002 0.066060
# 5 0.002117 -0.000587 -0.001781 -0.000002 0.028142 -0.000002
# 6 0.000000 -0.000001 0.000002 0.066060 -0.000002 0.129767
#
#
# Mechanical properties :
#
#
# Convention : Reuss Voigt Hill
#
# Bulk Modulus (GPa) = 56.23170 68.65210 62.44190
# Shear Modulus (GPa) = 16.87387 29.94733 23.41060
#
# Velocity S-wave (km/s) = 2.85268 3.80035 3.36009
# Velocity P-wave (km/s) = 6.16192 7.23642 6.72068
#
# Compressibility (1/GPa) = 0.01778356
#
# Stress axis : x y z
#
# Youngs Moduli (GPa) = 134.83395 56.94556 65.14674
#
# Poissons Ratio (x) = 0.23626 0.17500
# Poissons Ratio (y) = 0.55942 0.28903
# Poissons Ratio (z) = 0.36219 0.25265
#
# Static dielectric constant tensor:
#      x y z
#    x 1.806470 0.000000 -0.021000 
#    y 0.000000 1.736300 0.000000 
#    z -0.021000 0.000000 1.768240 
# 
# From -- ./inp_files/336887.got.cif
#   From: 2010.05.17/outbox.cif.g08.bks.cpg/sg12_169_cif.got.tgz:336887.got - 2010.06.03 13:09:07.
