data_PCOD9201269
_publ_section_title
;
Structure prediction by ZEFSAII (Michael W. Deem and Ramdas Pophale) SiO2 
 PCOD9201269
Probable space group: C 2/M
;
_chemical_formula_sum "Si O2"
_cell_formula_units_Z 56
_cell_length_a 29.945203
_cell_length_b 8.731017
_cell_length_c 13.763851
_cell_angle_alpha 90.000000
_cell_angle_beta 53.315002
_cell_angle_gamma 90.000000
_cell_volume 2885.822754
_symmetry_space_group_name_H-M "C 2/M"
_symmetry_group_IT_number 12
_symmetry_cell_setting 'monoclinic'
loop_
_space_group_symop_operation_xyz
x,y,z
-x,y,-z
-x,-y,-z
x,-y,z
1/2+x,1/2+y,z
1/2-x,1/2+y,-z
1/2-x,1/2-y,-z
1/2+x,1/2-y,z
loop_
_atom_site_type_symbol
_atom_site_label
_atom_site_fract_x
_atom_site_fract_y
_atom_site_fract_z
Si Si1 0.233764 0.682117 0.416751
Si Si2 0.546567 0.184967 0.016577
Si Si3 0.116499 0.185644 0.497366
Si Si4 0.093094 0.184590 0.306503
Si Si5 0.690829 0.817776 0.047253
Si Si6 0.327932 0.183209 0.156558
Si Si7 0.501540 0.684810 0.275569
O O1 0.230984 0.500000 0.426355
O O2 0.250000 0.750000 0.500000
O O3 0.174235 0.746224 0.459194
O O4 0.281471 0.732636 0.279265
O O5 0.531080 0.248363 0.142411
O O6 0.546475 0.000000 0.022552
O O7 0.500000 0.233758 0.000000
O O8 0.608627 0.230995 0.903547
O O9 0.102852 0.234430 0.404408
O O10 0.062895 0.230837 0.631072
O O11 0.120682 0.000000 0.493225
O O12 0.142963 0.243121 0.174406
O O13 0.035920 0.231191 0.327419
O O14 0.093558 0.000000 0.307454
O O15 0.690287 0.000000 0.062733
O O16 0.750000 0.750000 0.000000
O O17 0.680657 0.788412 0.946697
O O18 0.322579 0.000000 0.180169
O O19 0.503351 0.500000 0.268021
#
# Coordination Sequence:
#
# PCOD9201269 Si02
#       7
#     8   8   8   8   8   8   8
#     4  12  27  45  66  91 121 160 207 257 308 365
#     4  10  22  40  63  91 123 161 201 250 311 368
#     4  10  22  41  63  91 127 166 207 252 304 362
#     4  10  20  37  61  90 126 164 202 247 304 365
#     4  11  22  36  58  87 123 161 202 250 303 359
#     4  10  22  42  63  88 124 162 200 250 306 362
#     4  10  21  38  63  94 126 162 205 252 303 364
#
# _framework density 19.405211000000001
#
# number of rings (size 3 to 8) (size 9 to 14) (size 15 to 20)
#    0.000    1.571    1.429    3.000    2.000    8.286 
#    0.000    0.000    0.000    2.571    0.000    0.000 
#    0.000    0.000    0.000    0.000    0.000    0.000 
#
# Total GULP energy -156507.735843 kJ/mol
# GULP energy per Si atom -5589.561994 kJ/mol
# Density = 1.936104 g / cm^3
# Si number density = 19.405211 Si / 1000 Ang^3
#
#
#
# Elastic Constant Matrix: (Units=GPa)
#
#
# Indices 1 2 3 4 5 6 
#
# 1 160.3977 32.3961 40.5724 0.0000 -22.9278 0.0000
# 2 32.3961 20.8674 18.7792 0.0000 -4.4364 0.0000
# 3 40.5724 18.7792 77.6983 0.0000 -23.2933 0.0000
# 4 0.0000 0.0000 0.0000 32.0263 0.0000 0.4370
# 5 -22.9278 -4.4364 -23.2933 0.0000 37.8741 0.0000
# 6 0.0000 0.0000 0.0000 0.4370 0.0000 22.2840
#
#
#
# Elastic Compliance Matrix: (Units=1/GPa)
#
#
# Indices 1 2 3 4 5 6 
#
# 1 0.009713 -0.013724 -0.000581 0.000000 0.003915 0.000000
# 2 -0.013724 0.080806 -0.014734 0.000000 -0.007904 0.000000
# 3 -0.000581 -0.014734 0.019754 0.000000 0.010071 0.000000
# 4 0.000000 0.000000 0.000000 0.031233 0.000000 -0.000612
# 5 0.003915 -0.007904 0.010071 0.000000 0.034041 0.000000
# 6 0.000000 0.000000 0.000000 -0.000612 0.000000 0.044887
#
#
# Mechanical properties :
#
#
# Convention : Reuss Voigt Hill
#
# Bulk Modulus (GPa) = 19.15853 49.16208 34.16031
# Shear Modulus (GPa) = 16.89696 29.58458 23.24077
#
# Velocity S-wave (km/s) = 2.95404 3.90881 3.46447
# Velocity P-wave (km/s) = 4.63998 6.76470 5.80046
#
# Compressibility (1/GPa) = 0.05219607
#
# Stress axis : x y z
#
# Youngs Moduli (GPa) = 102.95495 12.37527 50.62211
#
# Poissons Ratio (x) = 0.16983 0.02943
# Poissons Ratio (y) = 1.41292 0.74585
# Poissons Ratio (z) = 0.05985 0.18233
#
# Static dielectric constant tensor:
#      x y z
#    x 1.673930 0.000000 0.000580 
#    y 0.000000 1.655450 0.000000 
#    z 0.000580 0.000000 1.642980 
# 
# From -- ./inp_files/187185.got.cif
#   From: 2010.05.17/outbox.cif.g08.bks.cpg/sg12_94_cif.got.tgz:187185.got - 2010.06.03 13:09:07.
