data_PCOD9201961
_publ_section_title
;
Structure prediction by ZEFSAII (Michael W. Deem and Ramdas Pophale) SiO2 
 PCOD9201961
Probable space group: C 2/M
;
_chemical_formula_sum "Si O2"
_cell_formula_units_Z 64
_cell_length_a 19.389047
_cell_length_b 30.571377
_cell_length_c 5.468213
_cell_angle_alpha 90.000000
_cell_angle_beta 83.595083
_cell_angle_gamma 90.000000
_cell_volume 3221.051568
_symmetry_space_group_name_H-M "C 2/M"
_symmetry_group_IT_number 12
_symmetry_cell_setting 'monoclinic'
loop_
_space_group_symop_operation_xyz
x,y,z
-x,y,-z
-x,-y,-z
x,-y,z
1/2+x,1/2+y,z
1/2-x,1/2+y,-z
1/2-x,1/2-y,-z
1/2+x,1/2-y,z
loop_
_atom_site_type_symbol
_atom_site_label
_atom_site_fract_x
_atom_site_fract_y
_atom_site_fract_z
Si Si1 0.671905 0.950758 0.954001
Si Si2 0.682954 0.360436 0.644057
Si Si3 0.696514 0.718060 0.262554
Si Si4 0.045303 0.285046 0.723748
Si Si5 0.305386 0.188526 0.826731
Si Si6 0.082358 0.363457 0.958012
Si Si7 0.237792 0.048612 0.579913
Si Si8 0.919527 0.800699 0.082706
O O1 0.620512 0.909723 0.947945
O O2 0.717629 0.949072 0.687996
O O3 0.640091 0.000000 0.973253
O O4 0.715893 0.946956 0.189676
O O5 0.686445 0.324669 0.429415
O O6 0.753333 0.348989 0.761435
O O7 0.685322 0.411050 0.584268
O O8 0.616744 0.345118 0.821741
O O9 0.697908 0.768864 0.346050
O O10 0.767313 0.707823 0.083945
O O11 0.628604 0.717460 0.114332
O O12 0.088888 0.329836 0.726701
O O13 0.083518 0.238575 0.718620
O O14 0.000000 0.286114 0.500000
O O15 0.000000 0.284247 0.000000
O O16 0.378972 0.166637 0.853875
O O17 0.000000 0.372014 0.000000
O O18 0.206459 0.000000 0.603234
O O19 0.000000 0.808052 0.000000
#
# Coordination Sequence:
#
# PCOD9201961 Si02
#       8
#     8   8   8   8   8   8   8   8
#     4  10  22  42  65  89 122 161 210 268 318 368
#     4  11  22  35  64  88 121 164 204 258 312 374
#     4  10  21  36  57  84 124 165 205 251 311 361
#     4  10  23  40  56  82 125 171 209 243 293 367
#     4  10  20  38  51  88 126 160 207 263 305 367
#     4  11  22  38  61  88 127 171 215 261 316 364
#     4  10  22  42  68  93 120 160 206 262 319 376
#     4  10  23  38  57  87 126 162 205 247 302 374
#
# _framework density 19.869287
#
# number of rings (size 3 to 8) (size 9 to 14) (size 15 to 20)
#    0.000    1.750    2.500    1.125    5.250    2.250 
#    6.750    0.000    0.000    3.000    0.000    0.875 
#    0.000    0.000    0.000    0.000    0.000    0.000 
#
# Total GULP energy -178349.868317 kJ/mol
# GULP energy per Si atom -5573.433385 kJ/mol
# Density = 1.982406 g / cm^3
# Si number density = 19.869287 Si / 1000 Ang^3
#
#
#
# Elastic Constant Matrix: (Units=GPa)
#
#
# Indices 1 2 3 4 5 6 
#
# 1 88.1971 44.0103 16.2412 0.0000 -0.2851 0.0000
# 2 44.0103 200.9385 19.4262 0.0000 0.4639 0.0000
# 3 16.2412 19.4262 76.6719 0.0000 7.0974 0.0000
# 4 0.0000 0.0000 0.0000 -26.8806 0.0000 17.4640
# 5 -0.2851 0.4639 7.0974 0.0000 21.6986 0.0000
# 6 0.0000 0.0000 0.0000 17.4640 0.0000 31.9505
#
#
#
# Elastic Compliance Matrix: (Units=1/GPa)
#
#
# Indices 1 2 3 4 5 6 
#
# 1 0.013067 -0.002653 -0.002183 0.000000 0.000942 0.000000
# 2 -0.002653 0.005643 -0.000880 0.000000 0.000132 0.000000
# 3 -0.002183 -0.000880 0.014158 0.000000 -0.004641 0.000000
# 4 0.000000 0.000000 0.000000 -0.027453 0.000000 0.015005
# 5 0.000942 0.000132 -0.004641 0.000000 0.047613 0.000000
# 6 0.000000 0.000000 0.000000 0.015005 0.000000 0.023096
#
#
# Mechanical properties :
#
#
# Convention : Reuss Voigt Hill
#
# Bulk Modulus (GPa) = 46.65231 58.35144 52.50188
# Shear Modulus (GPa) = 52.79745 24.42903 38.61324
#
# Velocity S-wave (km/s) = 5.16043 3.51021 4.41314
# Velocity P-wave (km/s) = 7.68358 6.77201 7.24215
#
# Compressibility (1/GPa) = 0.02143517
#
# Stress axis : x y z
#
# Youngs Moduli (GPa) = 76.52744 177.22609 70.63387
#
# Poissons Ratio (x) = 0.47021 0.15419
# Poissons Ratio (y) = 0.20304 0.06215
# Poissons Ratio (z) = 0.16706 0.15594
#
# Static dielectric constant tensor:
#      x y z
#    x 1.729580 0.000000 -0.022910 
#    y 0.000000 1.707560 0.000000 
#    z -0.022910 0.000000 1.820660 
# 
# From -- ./inp_files/18304.got.cif
#   From: 2010.05.17/outbox.cif.g08.bks.cpg/sg12_10_cif.got.tgz:18304.got - 2010.06.03 13:09:07.
