data_PCOD9201303
_publ_section_title
;
Structure prediction by ZEFSAII (Michael W. Deem and Ramdas Pophale) SiO2 
 PCOD9201303
Probable space group: C 2/M
;
_chemical_formula_sum "Si O2"
_cell_formula_units_Z 36
_cell_length_a 20.528662
_cell_length_b 14.073105
_cell_length_c 5.185922
_cell_angle_alpha 90.000000
_cell_angle_beta 63.621846
_cell_angle_gamma 90.000000
_cell_volume 1342.230147
_symmetry_space_group_name_H-M "C 2/M"
_symmetry_group_IT_number 12
_symmetry_cell_setting 'monoclinic'
loop_
_space_group_symop_operation_xyz
x,y,z
-x,y,-z
-x,-y,-z
x,-y,z
1/2+x,1/2+y,z
1/2-x,1/2+y,-z
1/2-x,1/2-y,-z
1/2+x,1/2-y,z
loop_
_atom_site_type_symbol
_atom_site_label
_atom_site_fract_x
_atom_site_fract_y
_atom_site_fract_z
Si Si1 0.414399 0.691594 0.589816
Si Si2 0.051294 0.000000 0.664335
Si Si3 0.704658 0.112354 0.766393
Si Si4 0.586684 0.894436 0.350956
Si Si5 0.204389 0.114046 0.879343
O O1 0.500000 0.696239 0.500000
O O2 0.403529 0.597852 0.432538
O O3 0.394592 0.797330 0.530696
O O4 0.370478 0.666652 0.926363
O O5 0.000000 0.000000 0.500000
O O6 0.000000 0.000000 0.000000
O O7 0.749125 0.148714 0.443919
O O8 0.711382 0.000000 0.718825
O O9 0.621078 0.123314 0.006760
O O10 0.748121 0.136159 0.950222
O O11 0.500000 0.900874 0.500000
O O12 0.614118 0.000000 0.389698
O O13 0.191071 0.000000 0.893593
#
# Coordination Sequence:
#
# PCOD9201303 Si02
#       5
#     8   4   8   8   8
#     4  10  21  38  62  95 130 172 216 262 321 383
#     4  10  22  40  62  92 130 164 205 260 315 376
#     4   9  20  38  61  91 126 166 212 261 319 382
#     4   9  19  40  67  94 128 170 218 269 320 380
#     4  10  20  37  61  92 128 165 209 262 321 381
#
# _framework density 26.821031999999999
#
# number of rings (size 3 to 8) (size 9 to 14) (size 15 to 20)
#    0.000    2.444    1.111    0.000    0.000    5.333 
#    0.000    7.778    0.000   10.000    0.000    0.000 
#    0.000    0.000    0.000    0.000    0.000    0.000 
#
# Total GULP energy -100629.630999 kJ/mol
# GULP energy per Si atom -5590.535055 kJ/mol
# Density = 2.675999 g / cm^3
# Si number density = 26.821032 Si / 1000 Ang^3
#
#
#
# Elastic Constant Matrix: (Units=GPa)
#
#
# Indices 1 2 3 4 5 6 
#
# 1 76.2321 14.7251 80.2290 0.0000 -26.7576 0.0000
# 2 14.7251 279.5605 62.4888 0.0000 3.8133 0.0000
# 3 80.2290 62.4888 279.1293 0.0000 -29.0966 0.0000
# 4 0.0000 0.0000 0.0000 -93.9326 0.0000 52.3484
# 5 -26.7576 3.8133 -29.0966 0.0000 54.4812 0.0000
# 6 0.0000 0.0000 0.0000 52.3484 0.0000 -30.1646
#
#
#
# Elastic Compliance Matrix: (Units=1/GPa)
#
#
# Indices 1 2 3 4 5 6 
#
# 1 0.021462 -0.000037 -0.005360 0.000000 0.007681 0.000000
# 2 -0.000037 0.003795 -0.000920 0.000000 -0.000775 0.000000
# 3 -0.005360 -0.000920 0.005360 0.000000 0.000294 0.000000
# 4 0.000000 0.000000 0.000000 -0.324062 0.000000 -0.562385
# 5 0.007681 -0.000775 0.000294 0.000000 0.022339 0.000000
# 6 0.000000 0.000000 0.000000 -0.562385 0.000000 -1.009130
#
#
# Mechanical properties :
#
#
# Convention : Reuss Voigt Hill
#
# Bulk Modulus (GPa) = 55.60710 105.53419 80.57064
# Shear Modulus (GPa) = -3.96319 17.90875 6.97278
#
# Velocity S-wave (km/s) = -1.21690 2.58682 1.61412
# Velocity P-wave (km/s) = 4.33626 6.95379 5.79475
#
# Compressibility (1/GPa) = 0.01798332
#
# Stress axis : x y z
#
# Youngs Moduli (GPa) = 46.59476 263.49365 186.57863
#
# Poissons Ratio (x) = 0.00980 1.00000
# Poissons Ratio (y) = 0.00173 0.17160
# Poissons Ratio (z) = 0.24973 0.24234
#
# Static dielectric constant tensor:
#      x y z
#    x 2.241860 0.000000 0.055670 
#    y 0.000000 2.146550 0.000000 
#    z 0.055670 0.000000 2.096980 
# 
# From -- ./inp_files/31391.got.cif
#   From: 2010.05.17/outbox.cif.g08.bks.cpg/sg12_16_cif.got.tgz:31391.got - 2010.06.03 13:09:07.
