data_PCOD9201686
_publ_section_title
;
Structure prediction by ZEFSAII (Michael W. Deem and Ramdas Pophale) SiO2 
 PCOD9201686
Probable space group: C 2/M
;
_chemical_formula_sum "Si O2"
_cell_formula_units_Z 56
_cell_length_a 17.145156
_cell_length_b 19.621007
_cell_length_c 8.587588
_cell_angle_alpha 90.000000
_cell_angle_beta 60.326059
_cell_angle_gamma 90.000000
_cell_volume 2510.048551
_symmetry_space_group_name_H-M "C 2/M"
_symmetry_group_IT_number 12
_symmetry_cell_setting 'monoclinic'
loop_
_space_group_symop_operation_xyz
x,y,z
-x,y,-z
-x,-y,-z
x,-y,z
1/2+x,1/2+y,z
1/2-x,1/2+y,-z
1/2-x,1/2-y,-z
1/2+x,1/2-y,z
loop_
_atom_site_type_symbol
_atom_site_label
_atom_site_fract_x
_atom_site_fract_y
_atom_site_fract_z
Si Si1 0.177130 0.812957 0.407144
Si Si2 0.660908 0.168071 0.518126
Si Si3 0.907555 0.427967 0.182182
Si Si4 0.624008 0.580974 0.986195
Si Si5 0.401934 0.080273 0.674065
Si Si6 0.213466 0.624184 0.955610
Si Si7 0.930805 0.917524 0.305874
O O1 0.248158 0.820617 0.477774
O O2 0.133572 0.738698 0.466398
O O3 0.235976 0.816876 0.191143
O O4 0.109882 0.875219 0.509667
O O5 0.593524 0.138673 0.712570
O O6 0.665823 0.107038 0.390492
O O7 0.901168 0.500000 0.278483
O O8 0.823088 0.422946 0.149107
O O9 0.000000 0.429979 0.000000
O O10 0.618983 0.500000 0.979093
O O11 0.615786 0.603512 0.813807
O O12 0.710811 0.598442 0.001166
O O13 0.534630 0.601101 0.170354
O O14 0.500000 0.089584 0.500000
O O15 0.391588 0.000000 0.723860
O O16 0.375402 0.126593 0.848576
O O17 0.922277 0.000000 0.336037
#
# Coordination Sequence:
#
# PCOD9201686 Si02
#       7
#     8   8   8   8   8   8   8
#     4  10  23  40  58  85 124 166 210 251 305 371
#     4  10  22  41  59  82 123 167 205 249 307 381
#     4  10  20  37  63  93 123 159 207 263 318 371
#     4   9  18  35  59  89 120 155 200 254 309 360
#     4  11  23  40  64  93 121 154 203 263 320 381
#     4  11  22  36  60  92 125 156 200 257 313 369
#     4   9  19  37  60  86 120 160 208 258 305 365
#
# _framework density 22.310324000000001
#
# number of rings (size 3 to 8) (size 9 to 14) (size 15 to 20)
#    0.000    2.000    0.000    4.286    0.000    8.571 
#    5.143    2.857    0.000    0.000    0.000    0.000 
#    0.000    0.000    0.000    0.000    0.000    0.000 
#
# Total GULP energy -156029.234890 kJ/mol
# GULP energy per Si atom -5572.472675 kJ/mol
# Density = 2.225954 g / cm^3
# Si number density = 22.310324 Si / 1000 Ang^3
#
#
#
# Elastic Constant Matrix: (Units=GPa)
#
#
# Indices 1 2 3 4 5 6 
#
# 1 85.3596 11.2260 20.2777 0.0000 -8.9366 0.0000
# 2 11.2260 86.4460 68.0895 0.0000 -18.2662 0.0000
# 3 20.2777 68.0895 132.2710 0.0000 -13.3047 0.0000
# 4 0.0000 0.0000 0.0000 5.7093 0.0000 -25.7026
# 5 -8.9366 -18.2662 -13.3047 0.0000 26.0541 0.0000
# 6 0.0000 0.0000 0.0000 -25.7026 0.0000 -30.6030
#
#
#
# Elastic Compliance Matrix: (Units=1/GPa)
#
#
# Indices 1 2 3 4 5 6 
#
# 1 0.012469 0.000648 -0.001865 0.000000 0.003779 0.000000
# 2 0.000648 0.021716 -0.010251 0.000000 0.010212 0.000000
# 3 -0.001865 -0.010251 0.013004 0.000000 -0.001186 0.000000
# 4 0.000000 0.000000 0.000000 0.036635 0.000000 -0.030769
# 5 0.003779 0.010212 -0.001186 0.000000 0.046232 0.000000
# 6 0.000000 0.000000 0.000000 -0.030769 0.000000 -0.006835
#
#
# Mechanical properties :
#
#
# Convention : Reuss Voigt Hill
#
# Bulk Modulus (GPa) = 41.23232 55.91808 48.57520
# Shear Modulus (GPa) = 32.41701 13.86430 23.14065
#
# Velocity S-wave (km/s) = 3.81597 2.49555 3.22408
# Velocity P-wave (km/s) = 6.15929 5.78117 5.97322
#
# Compressibility (1/GPa) = 0.02425282
#
# Stress axis : x y z
#
# Youngs Moduli (GPa) = 80.20162 46.04961 76.90107
#
# Poissons Ratio (x) = -0.02986 0.14343
# Poissons Ratio (y) = -0.05200 0.78830
# Poissons Ratio (z) = 0.14959 0.47205
#
# Static dielectric constant tensor:
#      x y z
#    x 1.865920 0.000000 0.044910 
#    y 0.000000 1.805010 0.000000 
#    z 0.044910 0.000000 2.017110 
# 
# From -- ./inp_files/77361.got.cif
#   From: 2010.05.17/outbox.cif.g08.bks.cpg/sg12_39_cif.got.tgz:77361.got - 2010.06.03 13:09:07.
