data_PCOD9201134
_publ_section_title
;
Structure prediction by ZEFSAII (Michael W. Deem and Ramdas Pophale) SiO2 
 PCOD9201134
Probable space group: C 2/M
;
_chemical_formula_sum "Si O2"
_cell_formula_units_Z 50
_cell_length_a 24.437888
_cell_length_b 10.605944
_cell_length_c 13.728938
_cell_angle_alpha 90.000000
_cell_angle_beta 52.477689
_cell_angle_gamma 90.000000
_cell_volume 2822.193451
_symmetry_space_group_name_H-M "C 2/M"
_symmetry_group_IT_number 12
_symmetry_cell_setting 'monoclinic'
loop_
_space_group_symop_operation_xyz
x,y,z
-x,y,-z
-x,-y,-z
x,-y,z
1/2+x,1/2+y,z
1/2-x,1/2+y,-z
1/2-x,1/2-y,-z
1/2+x,1/2-y,z
loop_
_atom_site_type_symbol
_atom_site_label
_atom_site_fract_x
_atom_site_fract_y
_atom_site_fract_z
Si Si1 0.800635 0.140636 0.480296
Si Si2 0.414363 0.287095 0.206290
Si Si3 0.955287 0.349758 0.842115
Si Si4 0.000000 0.000000 0.000000
Si Si5 0.568213 0.148808 0.359516
Si Si6 0.163001 0.651253 0.882042
Si Si7 0.820425 0.147869 0.690240
O O1 0.750000 0.250000 0.500000
O O2 0.869038 0.154789 0.341753
O O3 0.816937 0.153776 0.576657
O O4 0.770747 0.000000 0.497754
O O5 0.475845 0.206223 0.186341
O O6 0.450472 0.391550 0.101868
O O7 0.365080 0.207275 0.188413
O O8 0.958263 0.500000 0.849046
O O9 0.948990 0.322543 0.734544
O O10 0.888317 0.305707 0.976117
O O11 0.500000 0.161450 0.500000
O O12 0.625027 0.249712 0.331872
O O13 0.590111 0.000000 0.342106
O O14 0.159461 0.500000 0.879377
O O15 0.243324 0.681729 0.810623
O O16 0.835477 0.000000 0.699894
#
# Coordination Sequence:
#
# PCOD9201134 Si02
#       7
#     8   8   8   2   8   8   8
#     4  11  23  37  58  86 120 156 195 240 294 356
#     4  12  21  38  58  87 124 157 195 244 304 351
#     4  10  21  37  62  86 111 154 205 244 291 350
#     4  12  24  36  54  88 134 160 190 256 296 358
#     4  10  22  42  61  84 114 151 199 248 290 351
#     4  10  20  37  61  86 118 151 195 246 294 362
#     4  10  22  40  58  87 119 151 193 243 295 353
#
# _framework density 17.716716000000002
#
# number of rings (size 3 to 8) (size 9 to 14) (size 15 to 20)
#    0.000    1.440    4.000    1.440    0.000    3.520 
#    2.880    0.000    0.000    0.000    0.000    0.000 
#    0.000    0.000    0.000    0.000    0.000    0.000 
#
# Total GULP energy -139242.544888 kJ/mol
# GULP energy per Si atom -5569.701796 kJ/mol
# Density = 1.767639 g / cm^3
# Si number density = 17.716716 Si / 1000 Ang^3
#
#
#
# Elastic Constant Matrix: (Units=GPa)
#
#
# Indices 1 2 3 4 5 6 
#
# 1 104.0255 78.6348 32.3159 0.0000 -10.9453 0.0000
# 2 78.6348 87.8855 32.0924 0.0000 -7.3848 0.0000
# 3 32.3159 32.0924 91.8127 0.0000 -11.0062 0.0000
# 4 0.0000 0.0000 0.0000 27.9731 0.0000 -5.0077
# 5 -10.9453 -7.3848 -11.0062 0.0000 23.0648 0.0000
# 6 0.0000 0.0000 0.0000 -5.0077 0.0000 57.2254
#
#
#
# Elastic Compliance Matrix: (Units=1/GPa)
#
#
# Indices 1 2 3 4 5 6 
#
# 1 0.030509 -0.026538 -0.000790 0.000000 0.005604 0.000000
# 2 -0.026538 0.036226 -0.003650 0.000000 -0.002736 0.000000
# 3 -0.000790 -0.003650 0.013005 0.000000 0.004662 0.000000
# 4 0.000000 0.000000 0.000000 0.036318 0.000000 0.003178
# 5 0.005604 -0.002736 0.004662 0.000000 0.047364 0.000000
# 6 0.000000 0.000000 0.000000 0.003178 0.000000 0.017753
#
#
# Mechanical properties :
#
#
# Convention : Reuss Voigt Hill
#
# Bulk Modulus (GPa) = 56.23402 63.31221 59.77311
# Shear Modulus (GPa) = 20.07571 31.03137 25.55354
#
# Velocity S-wave (km/s) = 3.36988 4.18967 3.80194
# Velocity P-wave (km/s) = 6.85208 7.69532 7.28591
#
# Compressibility (1/GPa) = 0.01778283
#
# Stress axis : x y z
#
# Youngs Moduli (GPa) = 32.77757 27.60462 76.89604
#
# Poissons Ratio (x) = 0.73257 0.06078
# Poissons Ratio (y) = 0.86985 0.28065
# Poissons Ratio (z) = 0.02591 0.10075
#
# Static dielectric constant tensor:
#      x y z
#    x 1.575220 0.000000 -0.009160 
#    y 0.000000 1.596440 0.000000 
#    z -0.009160 0.000000 1.622260 
# 
# From -- ./inp_files/243532.got.cif
#   From: 2010.05.17/outbox.cif.g08.bks.cpg/sg12_122_cif.got.tgz:243532.got - 2010.06.03 13:09:07.
