data_PCOD9201092
_publ_section_title
;
Structure prediction by ZEFSAII (Michael W. Deem and Ramdas Pophale) SiO2 
 PCOD9201092
Probable space group: C 2/M
;
_chemical_formula_sum "Si O2"
_cell_formula_units_Z 48
_cell_length_a 27.722636
_cell_length_b 14.183317
_cell_length_c 8.393357
_cell_angle_alpha 90.000000
_cell_angle_beta 133.805298
_cell_angle_gamma 90.000000
_cell_volume 2381.784480
_symmetry_space_group_name_H-M "C 2/M"
_symmetry_group_IT_number 12
_symmetry_cell_setting 'monoclinic'
loop_
_space_group_symop_operation_xyz
x,y,z
-x,y,-z
-x,-y,-z
x,-y,z
1/2+x,1/2+y,z
1/2-x,1/2+y,-z
1/2-x,1/2-y,-z
1/2+x,1/2-y,z
loop_
_atom_site_type_symbol
_atom_site_label
_atom_site_fract_x
_atom_site_fract_y
_atom_site_fract_z
Si Si1 0.683521 0.726731 0.449680
Si Si2 0.101712 0.110287 0.707688
Si Si3 0.569685 0.223809 0.399878
Si Si4 0.234781 0.110340 0.869317
Si Si5 0.613576 0.111311 0.789681
Si Si6 0.076269 0.769154 0.948217
O O1 0.750000 0.750000 0.500000
O O2 0.632293 0.797862 0.426935
O O3 0.711473 0.663623 0.657637
O O4 0.628515 0.690778 0.195959
O O5 0.081960 0.175084 0.513584
O O6 0.182260 0.124699 0.891934
O O7 0.070400 0.154216 0.793607
O O8 0.087063 0.000000 0.655034
O O9 0.568287 0.149378 0.541794
O O10 0.496611 0.237665 0.160647
O O11 0.232559 0.000000 0.825127
O O12 0.310116 0.132856 0.088017
O O13 0.603873 0.175076 0.923652
O O14 0.605161 0.000000 0.797053
#
# Coordination Sequence:
#
# PCOD9201092 Si02
#       6
#     8   8   8   8   8   8
#     4  11  22  38  58  78 113 154 185 227 283 333
#     4   9  19  35  59  86 114 144 187 235 279 329
#     4  10  23  37  57  85 116 147 190 231 280 335
#     4   9  19  36  57  86 115 146 189 235 278 331
#     4  10  20  37  61  85 113 147 191 238 281 328
#     4  11  22  36  58  88 114 148 187 230 282 341
#
# _framework density 20.152956
#
# number of rings (size 3 to 8) (size 9 to 14) (size 15 to 20)
#    0.000    2.000    1.667    2.500    2.333    5.333 
#    0.000    1.667    0.000    7.000    0.000    0.000 
#    0.000    0.000    0.000    0.000    0.000    0.000 
#
# Total GULP energy -133627.380854 kJ/mol
# GULP energy per Si atom -5567.807536 kJ/mol
# Density = 2.010709 g / cm^3
# Si number density = 20.152956 Si / 1000 Ang^3
#
#
#
# Elastic Constant Matrix: (Units=GPa)
#
#
# Indices 1 2 3 4 5 6 
#
# 1 88.5158 13.9984 35.0748 0.0000 4.2367 0.0000
# 2 13.9984 80.6376 -4.1650 0.0000 3.5960 0.0000
# 3 35.0748 -4.1650 74.1132 0.0000 19.3328 0.0000
# 4 0.0000 0.0000 0.0000 10.8753 0.0000 7.3004
# 5 4.2367 3.5960 19.3328 0.0000 32.5780 0.0000
# 6 0.0000 0.0000 0.0000 7.3004 0.0000 17.3809
#
#
#
# Elastic Compliance Matrix: (Units=1/GPa)
#
#
# Indices 1 2 3 4 5 6 
#
# 1 0.014817 -0.003128 -0.008016 0.000000 0.003175 0.000000
# 2 -0.003128 0.013222 0.002955 0.000000 -0.002806 0.000000
# 3 -0.008016 0.002955 0.020428 0.000000 -0.011406 0.000000
# 4 0.000000 0.000000 0.000000 0.128058 0.000000 -0.053787
# 5 0.003175 -0.002806 -0.011406 0.000000 0.037361 0.000000
# 6 0.000000 0.000000 0.000000 -0.053787 0.000000 0.080126
#
#
# Mechanical properties :
#
#
# Convention : Reuss Voigt Hill
#
# Bulk Modulus (GPa) = 31.16284 37.00921 34.08603
# Shear Modulus (GPa) = 15.57215 25.39073 20.48144
#
# Velocity S-wave (km/s) = 2.78276 3.55336 3.19140
# Velocity P-wave (km/s) = 5.08151 5.93626 5.52544
#
# Compressibility (1/GPa) = 0.03208950
#
# Stress axis : x y z
#
# Youngs Moduli (GPa) = 67.49226 75.63191 48.95217
#
# Poissons Ratio (x) = 0.23656 0.39241
# Poissons Ratio (y) = 0.21110 -0.14467
# Poissons Ratio (z) = 0.54103 -0.22352
#
# Static dielectric constant tensor:
#      x y z
#    x 1.787700 0.000000 0.043200 
#    y 0.000000 1.692480 0.000000 
#    z 0.043200 0.000000 1.741060 
# 
# From -- ./inp_files/111780.got.cif
#   From: 2010.05.17/outbox.cif.g08.bks.cpg/sg12_56_cif.got.tgz:111780.got - 2010.06.03 13:09:07.
