data_PCOD9201121
_publ_section_title
;
Structure prediction by ZEFSAII (Michael W. Deem and Ramdas Pophale) SiO2 
 PCOD9201121
Probable space group: C 2/M
;
_chemical_formula_sum "Si O2"
_cell_formula_units_Z 48
_cell_length_a 15.302936
_cell_length_b 8.897749
_cell_length_c 18.135663
_cell_angle_alpha 90.000000
_cell_angle_beta 97.499488
_cell_angle_gamma 90.000000
_cell_volume 2448.259377
_symmetry_space_group_name_H-M "C 2/M"
_symmetry_group_IT_number 12
_symmetry_cell_setting 'monoclinic'
loop_
_space_group_symop_operation_xyz
x,y,z
-x,y,-z
-x,-y,-z
x,-y,z
1/2+x,1/2+y,z
1/2-x,1/2+y,-z
1/2-x,1/2-y,-z
1/2+x,1/2-y,z
loop_
_atom_site_type_symbol
_atom_site_label
_atom_site_fract_x
_atom_site_fract_y
_atom_site_fract_z
Si Si1 0.853837 0.176237 0.431424
Si Si2 0.405806 0.321173 0.188237
Si Si3 0.169123 0.823388 0.394706
Si Si4 0.487956 0.178385 0.340096
Si Si5 0.765636 0.319278 0.921266
Si Si6 0.464317 0.177166 0.912743
O O1 0.848802 0.191951 0.519268
O O2 0.762061 0.242511 0.390317
O O3 0.936404 0.262364 0.406301
O O4 0.861373 0.000000 0.414602
O O5 0.405782 0.500000 0.201415
O O6 0.430556 0.235205 0.265065
O O7 0.311935 0.276226 0.143099
O O8 0.478221 0.276321 0.135458
O O9 0.085225 0.749744 0.346491
O O10 0.175671 0.000000 0.378473
O O11 0.494872 0.000000 0.342151
O O12 0.763840 0.500000 0.929109
O O13 0.862025 0.278659 0.902300
O O14 0.750000 0.250000 0.000000
O O15 0.472063 0.000000 0.893094
O O16 0.500000 0.191780 0.000000
#
# Coordination Sequence:
#
# PCOD9201121 Si02
#       6
#     8   8   8   8   8   8
#     4  10  21  39  64  93 125 161 202 250 301 361
#     4  11  24  40  58  85 119 155 199 249 302 363
#     4  10  21  39  64  93 124 160 204 251 302 360
#     4  12  25  40  60  86 123 166 207 254 307 361
#     4  10  21  37  60  86 113 147 187 237 293 352
#     4  10  20  37  61  86 115 149 188 239 297 362
#
# _framework density 19.605765000000002
#
# number of rings (size 3 to 8) (size 9 to 14) (size 15 to 20)
#    0.000    1.500    1.667    3.500    0.000    7.000 
#    0.000    5.000    0.000    0.000    0.000    0.000 
#    0.000    0.000    0.000    0.000    0.000    0.000 
#
# Total GULP energy -134204.396540 kJ/mol
# GULP energy per Si atom -5591.849856 kJ/mol
# Density = 1.956114 g / cm^3
# Si number density = 19.605765 Si / 1000 Ang^3
#
#
#
# Elastic Constant Matrix: (Units=GPa)
#
#
# Indices 1 2 3 4 5 6 
#
# 1 121.3426 24.3043 11.5708 0.0000 27.3593 0.0000
# 2 24.3043 68.7417 22.7772 0.0000 17.3216 0.0000
# 3 11.5708 22.7772 26.8863 0.0000 16.2958 0.0000
# 4 0.0000 0.0000 0.0000 30.9472 0.0000 -3.6034
# 5 27.3593 17.3216 16.2958 0.0000 30.7152 0.0000
# 6 0.0000 0.0000 0.0000 -3.6034 0.0000 33.2822
#
#
#
# Elastic Compliance Matrix: (Units=1/GPa)
#
#
# Indices 1 2 3 4 5 6 
#
# 1 0.010640 -0.002411 0.003513 0.000000 -0.009982 0.000000
# 2 -0.002411 0.021016 -0.016044 0.000000 -0.001193 0.000000
# 3 0.003513 -0.016044 0.067341 0.000000 -0.029809 0.000000
# 4 0.000000 0.000000 0.000000 0.032726 0.000000 0.003543
# 5 -0.009982 -0.001193 -0.029809 0.000000 0.057936 0.000000
# 6 0.000000 0.000000 0.000000 0.003543 0.000000 0.030430
#
#
# Mechanical properties :
#
#
# Convention : Reuss Voigt Hill
#
# Bulk Modulus (GPa) = 14.46883 37.14168 25.80525
# Shear Modulus (GPa) = 18.31446 29.54346 23.92896
#
# Velocity S-wave (km/s) = 3.05968 3.88606 3.49736
# Velocity P-wave (km/s) = 4.45849 6.25465 5.43133
#
# Compressibility (1/GPa) = 0.06911407
#
# Stress axis : x y z
#
# Youngs Moduli (GPa) = 93.98921 47.58266 14.84981
#
# Poissons Ratio (x) = 0.11470 -0.05217
# Poissons Ratio (y) = 0.22657 0.23825
# Poissons Ratio (z) = -0.33021 0.76341
#
# Static dielectric constant tensor:
#      x y z
#    x 1.673130 0.000000 0.009890 
#    y 0.000000 1.657170 0.000000 
#    z 0.009890 0.000000 1.682190 
# 
# From -- ./inp_files/267730.got.cif
#   From: 2010.05.17/outbox.cif.g08.bks.cpg/sg12_134_cif.got.tgz:267730.got - 2010.06.03 13:09:07.
