data_PCOD9201996
_publ_section_title
;
Structure prediction by ZEFSAII (Michael W. Deem and Ramdas Pophale) SiO2 
 PCOD9201996
Probable space group: C 2/M
;
_chemical_formula_sum "Si O2"
_cell_formula_units_Z 60
_cell_length_a 19.881187
_cell_length_b 26.619274
_cell_length_c 8.402225
_cell_angle_alpha 90.000000
_cell_angle_beta 137.773529
_cell_angle_gamma 90.000000
_cell_volume 2988.427087
_symmetry_space_group_name_H-M "C 2/M"
_symmetry_group_IT_number 12
_symmetry_cell_setting 'monoclinic'
loop_
_space_group_symop_operation_xyz
x,y,z
-x,y,-z
-x,-y,-z
x,-y,z
1/2+x,1/2+y,z
1/2-x,1/2+y,-z
1/2-x,1/2-y,-z
1/2+x,1/2-y,z
loop_
_atom_site_type_symbol
_atom_site_label
_atom_site_fract_x
_atom_site_fract_y
_atom_site_fract_z
Si Si1 0.500000 0.583081 0.000000
Si Si2 0.090969 0.152231 0.409715
Si Si3 0.199849 0.133176 0.916919
Si Si4 0.704924 0.143045 0.425329
Si Si5 0.618521 0.176352 0.975971
Si Si6 0.210309 0.057439 0.217929
Si Si7 0.732903 0.719530 0.203666
Si Si8 0.053598 0.257194 0.441583
O O1 0.483538 0.617565 0.816524
O O2 0.395273 0.557015 0.867016
O O3 0.116161 0.136319 0.633779
O O4 0.196040 0.142926 0.507756
O O5 0.063532 0.210809 0.339495
O O6 0.307126 0.147044 0.017476
O O7 0.200449 0.083051 0.025477
O O8 0.178809 0.177205 0.007518
O O9 0.617681 0.147174 0.142579
O O10 0.713974 0.094668 0.554479
O O11 0.721687 0.192895 0.560564
O O12 0.670840 0.229997 0.109901
O O13 0.509586 0.194133 0.722898
O O14 0.244274 0.000000 0.265633
O O15 0.836170 0.732699 0.298667
O O16 0.000000 0.235293 0.500000
#
# Coordination Sequence:
#
# PCOD9201996 Si02
#       8
#     4   8   8   8   8   8   8   8
#     4  10  23  36  56  88 120 144 194 256 279 350
#     4  10  22  35  53  83 120 167 192 225 283 344
#     4  10  20  38  56  77 116 158 196 240 283 337
#     4   9  21  38  55  80 116 156 192 243 289 337
#     4  11  21  34  54  84 123 156 196 236 277 348
#     4  10  22  41  63  81 108 153 198 251 311 348
#     4  11  20  36  53  80 123 162 195 234 278 345
#     4  12  23  30  55  85 122 169 200 223 282 339
#
# _framework density 20.077451
#
# number of rings (size 3 to 8) (size 9 to 14) (size 15 to 20)
#    0.000    1.600    4.000    1.800    7.467    0.533 
#    0.000    7.333    0.000    0.000    0.000   14.933 
#    0.000    0.000    0.000    0.000    0.000    0.000 
#
# Total GULP energy -167228.812525 kJ/mol
# GULP energy per Si atom -5574.293751 kJ/mol
# Density = 2.003175 g / cm^3
# Si number density = 20.077451 Si / 1000 Ang^3
#
#
#
# Elastic Constant Matrix: (Units=GPa)
#
#
# Indices 1 2 3 4 5 6 
#
# 1 35.6788 16.4158 11.3077 0.0000 -11.4693 0.0000
# 2 16.4158 101.5432 17.6169 0.0000 -10.3691 0.0000
# 3 11.3077 17.6169 63.3190 0.0000 -6.4377 0.0000
# 4 0.0000 0.0000 0.0000 10.4821 0.0000 1.0345
# 5 -11.4693 -10.3691 -6.4377 0.0000 32.2388 0.0000
# 6 0.0000 0.0000 0.0000 1.0345 0.0000 16.2878
#
#
#
# Elastic Compliance Matrix: (Units=1/GPa)
#
#
# Indices 1 2 3 4 5 6 
#
# 1 0.034334 -0.003810 -0.004036 0.000000 0.010183 0.000000
# 2 -0.003810 0.011026 -0.002209 0.000000 0.001750 0.000000
# 3 -0.004036 -0.002209 0.017261 0.000000 0.001300 0.000000
# 4 0.000000 0.000000 0.000000 0.096003 0.000000 -0.006098
# 5 0.010183 0.001750 0.001300 0.000000 0.035464 0.000000
# 6 0.000000 0.000000 0.000000 -0.006098 0.000000 0.061783
#
#
# Mechanical properties :
#
#
# Convention : Reuss Voigt Hill
#
# Bulk Modulus (GPa) = 23.52451 32.35798 27.94125
# Shear Modulus (GPa) = 17.23244 22.14845 19.69044
#
# Velocity S-wave (km/s) = 2.93285 3.32497 3.13505
# Velocity P-wave (km/s) = 4.81779 5.55807 5.20112
#
# Compressibility (1/GPa) = 0.04250886
#
# Stress axis : x y z
#
# Youngs Moduli (GPa) = 29.12601 90.69485 57.93513
#
# Poissons Ratio (x) = 0.34559 0.23382
# Poissons Ratio (y) = 0.11098 0.12800
# Poissons Ratio (z) = 0.11755 0.20038
#
# Static dielectric constant tensor:
#      x y z
#    x 1.880500 0.000000 0.008990 
#    y 0.000000 1.711200 0.000000 
#    z 0.008990 0.000000 1.794380 
# 
# From -- ./inp_files/91249.got.cif
#   From: 2010.05.17/outbox.cif.g08.bks.cpg/sg12_46_cif.got.tgz:91249.got - 2010.06.03 13:09:07.
