data_PCOD9201079
_publ_section_title
;
Structure prediction by ZEFSAII (Michael W. Deem and Ramdas Pophale) SiO2 
 PCOD9201079
Probable space group: C 2/M
;
_chemical_formula_sum "Si O2"
_cell_formula_units_Z 44
_cell_length_a 8.340798
_cell_length_b 25.345000
_cell_length_c 11.889632
_cell_angle_alpha 90.000000
_cell_angle_beta 113.535876
_cell_angle_gamma 90.000000
_cell_volume 2304.346353
_symmetry_space_group_name_H-M "C 2/M"
_symmetry_group_IT_number 12
_symmetry_cell_setting 'monoclinic'
loop_
_space_group_symop_operation_xyz
x,y,z
-x,y,-z
-x,-y,-z
x,-y,z
1/2+x,1/2+y,z
1/2-x,1/2+y,-z
1/2-x,1/2-y,-z
1/2+x,1/2-y,z
loop_
_atom_site_type_symbol
_atom_site_label
_atom_site_fract_x
_atom_site_fract_y
_atom_site_fract_z
Si Si1 0.012908 0.784682 0.166194
Si Si2 0.681243 0.058752 0.487174
Si Si3 0.539481 0.646812 0.383232
Si Si4 0.000000 0.407900 0.000000
Si Si5 0.691005 0.182701 0.928650
Si Si6 0.260510 0.558003 0.255413
O O1 0.972371 0.722865 0.134670
O O2 0.048735 0.804130 0.301784
O O3 0.173882 0.807464 0.136929
O O4 0.824956 0.805959 0.069214
O O5 0.500000 0.060196 0.500000
O O6 0.795576 0.107679 0.561195
O O7 0.660349 0.062636 0.346653
O O8 0.760311 0.000000 0.529259
O O9 0.500000 0.663380 0.500000
O O10 0.391449 0.607109 0.294755
O O11 0.137261 0.439057 0.113446
O O12 0.895628 0.372140 0.061833
O O13 0.346749 0.500000 0.280942
#
# Coordination Sequence:
#
# PCOD9201079 Si02
#       6
#     8   8   8   4   8   8
#     4  10  20  38  58  86 109 148 193 238 288 339
#     4   9  19  36  59  85 114 150 193 238 287 343
#     4  10  20  37  61  84 118 151 193 231 288 348
#     4  12  21  36  60  86 116 154 193 240 288 340
#     4  10  21  35  60  81 113 148 193 238 283 340
#     4  10  21  36  57  85 118 154 192 234 286 345
#
# _framework density 19.094353000000002
#
# number of rings (size 3 to 8) (size 9 to 14) (size 15 to 20)
#    0.000    2.000    1.818    3.000    2.545    2.182 
#    0.000    0.909    0.000    1.091    0.000    0.000 
#    0.000    0.000    0.000    0.000    0.000    0.000 
#
# Total GULP energy -122513.432535 kJ/mol
# GULP energy per Si atom -5568.792388 kJ/mol
# Density = 1.905089 g / cm^3
# Si number density = 19.094353 Si / 1000 Ang^3
#
#
#
# Elastic Constant Matrix: (Units=GPa)
#
#
# Indices 1 2 3 4 5 6 
#
# 1 82.7711 25.5028 37.0872 0.0000 -8.5443 0.0000
# 2 25.5028 60.5495 40.2156 0.0000 -8.4159 0.0000
# 3 37.0872 40.2156 123.5348 0.0000 1.4641 0.0000
# 4 0.0000 0.0000 0.0000 39.3282 0.0000 10.0877
# 5 -8.5443 -8.4159 1.4641 0.0000 12.1509 0.0000
# 6 0.0000 0.0000 0.0000 10.0877 0.0000 -1.3008
#
#
#
# Elastic Compliance Matrix: (Units=1/GPa)
#
#
# Indices 1 2 3 4 5 6 
#
# 1 0.015664 -0.002619 -0.003965 0.000000 0.009678 0.000000
# 2 -0.002619 0.024864 -0.007501 0.000000 0.016283 0.000000
# 3 -0.003965 -0.007501 0.011838 0.000000 -0.009409 0.000000
# 4 0.000000 0.000000 0.000000 0.008507 0.000000 0.065966
# 5 0.009678 0.016283 -0.009409 0.000000 0.101515 0.000000
# 6 0.000000 0.000000 0.000000 0.065966 0.000000 -0.257179
#
#
# Mechanical properties :
#
#
# Convention : Reuss Voigt Hill
#
# Bulk Modulus (GPa) = 41.32747 52.49629 46.91188
# Shear Modulus (GPa) = -85.38760 20.97230 -32.20765
#
# Velocity S-wave (km/s) = -6.69446 3.31773 -4.11148
# Velocity P-wave (km/s) = 6.16958 6.49840 1.44319
#
# Compressibility (1/GPa) = 0.02419698
#
# Stress axis : x y z
#
# Youngs Moduli (GPa) = 63.84064 40.21951 84.47026
#
# Poissons Ratio (x) = 0.10534 0.33490
# Poissons Ratio (y) = 0.16720 0.63359
# Poissons Ratio (z) = 0.25311 0.30168
#
# Static dielectric constant tensor:
#      x y z
#    x 1.659150 0.000000 -0.009390 
#    y 0.000000 1.680820 0.000000 
#    z -0.009390 0.000000 1.653910 
# 
# From -- ./inp_files/121760.got.cif
#   From: 2010.05.17/outbox.cif.g08.bks.cpg/sg12_61_cif.got.tgz:121760.got - 2010.06.03 13:09:07.
