data_PCOD9201494
_publ_section_title
;
Structure prediction by ZEFSAII (Michael W. Deem and Ramdas Pophale) SiO2 
 PCOD9201494
Probable space group: C 2/M
;
_chemical_formula_sum "Si O2"
_cell_formula_units_Z 60
_cell_length_a 17.195941
_cell_length_b 14.525593
_cell_length_c 12.449569
_cell_angle_alpha 90.000000
_cell_angle_beta 94.214991
_cell_angle_gamma 90.000000
_cell_volume 3101.258004
_symmetry_space_group_name_H-M "C 2/M"
_symmetry_group_IT_number 12
_symmetry_cell_setting 'monoclinic'
loop_
_space_group_symop_operation_xyz
x,y,z
-x,y,-z
-x,-y,-z
x,-y,z
1/2+x,1/2+y,z
1/2-x,1/2+y,-z
1/2-x,1/2-y,-z
1/2+x,1/2-y,z
loop_
_atom_site_type_symbol
_atom_site_label
_atom_site_fract_x
_atom_site_fract_y
_atom_site_fract_z
Si Si1 0.344608 0.892872 0.348802
Si Si2 0.307699 0.609354 0.013679
Si Si3 0.404110 0.606173 0.220927
Si Si4 0.912885 0.786442 0.445534
Si Si5 0.000000 0.679626 0.000000
Si Si6 0.340604 0.391963 0.633180
Si Si7 0.566784 0.337717 0.151745
Si Si8 0.351342 0.891279 0.104485
O O1 0.384074 0.818341 0.429787
O O2 0.251374 0.889534 0.353830
O O3 0.361706 0.861546 0.228368
O O4 0.368992 0.000000 0.366686
O O5 0.298477 0.500000 0.029957
O O6 0.374070 0.621719 0.930263
O O7 0.225576 0.647433 0.962349
O O8 0.341053 0.645640 0.129872
O O9 0.385884 0.500000 0.245909
O O10 0.410238 0.664561 0.329451
O O11 0.486928 0.608292 0.167415
O O12 0.860374 0.844232 0.522969
O O13 0.000000 0.789013 0.500000
O O14 0.928695 0.625182 0.044444
O O15 0.037067 0.742672 0.097537
O O16 0.365165 0.500000 0.637152
O O17 0.386335 0.338612 0.732028
O O18 0.336576 0.000000 0.112914
#
# Coordination Sequence:
#
# PCOD9201494 Si02
#       8
#     8   8   8   8   4   8   8   8
#     4  10  23  44  68  88 117 164 216 262 306 364
#     4  10  20  37  62  90 120 160 205 251 305 371
#     4  11  22  37  60  95 135 167 200 252 316 377
#     4  12  25  39  63  93 128 161 210 259 314 364
#     4  12  25  36  57  94 130 162 202 256 320 364
#     4  11  23  42  65  90 123 166 211 254 306 372
#     4  12  21  35  57  92 126 161 201 245 302 374
#     4  10  22  42  65  87 119 165 213 258 310 372
#
# _framework density 19.346986999999999
#
# number of rings (size 3 to 8) (size 9 to 14) (size 15 to 20)
#    0.000    1.067    4.000    3.000    0.000    3.467 
#    0.000    0.000    0.000    0.000    0.000    0.000 
#    0.000    0.000    0.000    0.000    0.000    0.000 
#
# Total GULP energy -167587.326229 kJ/mol
# GULP energy per Si atom -5586.244208 kJ/mol
# Density = 1.930295 g / cm^3
# Si number density = 19.346987 Si / 1000 Ang^3
#
#
#
# Elastic Constant Matrix: (Units=GPa)
#
#
# Indices 1 2 3 4 5 6 
#
# 1 43.8285 -4.4785 30.8525 0.0000 -8.5419 0.0000
# 2 -4.4785 46.1319 29.6367 0.0000 2.2636 0.0000
# 3 30.8525 29.6367 122.2326 0.0000 0.8807 0.0000
# 4 0.0000 0.0000 0.0000 25.1082 0.0000 -17.3027
# 5 -8.5419 2.2636 0.8807 0.0000 18.5744 0.0000
# 6 0.0000 0.0000 0.0000 -17.3027 0.0000 61.2969
#
#
#
# Elastic Compliance Matrix: (Units=1/GPa)
#
#
# Indices 1 2 3 4 5 6 
#
# 1 0.034741 0.009862 -0.011270 0.000000 0.015309 0.000000
# 2 0.009862 0.028626 -0.009441 0.000000 0.001494 0.000000
# 3 -0.011270 -0.009441 0.013349 0.000000 -0.004665 0.000000
# 4 0.000000 0.000000 0.000000 0.049446 0.000000 0.013957
# 5 0.015309 0.001494 -0.004665 0.000000 0.060917 0.000000
# 6 0.000000 0.000000 0.000000 0.013957 0.000000 0.020254
#
#
# Mechanical properties :
#
#
# Convention : Reuss Voigt Hill
#
# Bulk Modulus (GPa) = 18.17606 36.02384 27.09995
# Shear Modulus (GPa) = 20.21262 31.40805 25.81033
#
# Velocity S-wave (km/s) = 3.23575 4.03352 3.65646
# Velocity P-wave (km/s) = 4.83480 6.35238 5.64482
#
# Compressibility (1/GPa) = 0.05501743
#
# Stress axis : x y z
#
# Youngs Moduli (GPa) = 28.78426 34.93317 74.91475
#
# Poissons Ratio (x) = -0.34451 0.84432
# Poissons Ratio (y) = -0.28387 0.70725
# Poissons Ratio (z) = 0.32441 0.32979
#
# Static dielectric constant tensor:
#      x y z
#    x 1.665240 0.000000 0.013770 
#    y 0.000000 1.693850 0.000000 
#    z 0.013770 0.000000 1.673920 
# 
# From -- ./inp_files/156109.got.cif
#   From: 2010.05.17/outbox.cif.g08.bks.cpg/sg12_79_cif.got.tgz:156109.got - 2010.06.03 13:09:07.
