data_PCOD9201335
_publ_section_title
;
Structure prediction by ZEFSAII (Michael W. Deem and Ramdas Pophale) SiO2 
 PCOD9201335
Probable space group: C 2/M
;
_chemical_formula_sum "Si O2"
_cell_formula_units_Z 48
_cell_length_a 16.080718
_cell_length_b 17.806285
_cell_length_c 20.502811
_cell_angle_alpha 90.000000
_cell_angle_beta 26.247044
_cell_angle_gamma 90.000000
_cell_volume 2596.286174
_symmetry_space_group_name_H-M "C 2/M"
_symmetry_group_IT_number 12
_symmetry_cell_setting 'monoclinic'
loop_
_space_group_symop_operation_xyz
x,y,z
-x,y,-z
-x,-y,-z
x,-y,z
1/2+x,1/2+y,z
1/2-x,1/2+y,-z
1/2-x,1/2-y,-z
1/2+x,1/2-y,z
loop_
_atom_site_type_symbol
_atom_site_label
_atom_site_fract_x
_atom_site_fract_y
_atom_site_fract_z
Si Si1 0.484111 0.187308 0.884631
Si Si2 0.884632 0.913692 0.876217
Si Si3 0.398146 0.348097 0.005660
Si Si4 0.977087 0.690330 0.295850
Si Si5 0.156180 0.911868 0.334907
Si Si6 0.583890 0.642778 0.615839
O O1 0.522780 0.207530 0.781654
O O2 0.658465 0.138111 0.786756
O O3 0.291647 0.139441 0.018730
O O4 0.454454 0.262428 0.947099
O O5 0.049938 0.894490 0.709614
O O6 0.828198 0.000000 0.909493
O O7 0.939857 0.895889 0.911651
O O8 0.173729 0.348663 0.172927
O O9 0.500000 0.371283 0.000000
O O10 0.796946 0.640517 0.440499
O O11 0.963825 0.768893 0.343330
O O12 0.000000 0.893635 0.500000
O O13 0.056610 0.895079 0.336419
O O14 0.202884 0.000000 0.307885
#
# Coordination Sequence:
#
# PCOD9201335 Si02
#       6
#     8   8   8   8   8   8
#     4  11  20  40  61  88 120 159 203 249 295 362
#     4  11  23  39  61  88 122 160 200 251 306 358
#     4  11  22  41  63  88 117 154 210 262 294 350
#     4  10  20  37  62  84 115 158 203 244 300 349
#     4  11  23  36  55  89 128 160 191 236 302 371
#     4  11  20  38  57  87 122 155 198 246 295 363
#
# _framework density 18.487946000000001
#
# number of rings (size 3 to 8) (size 9 to 14) (size 15 to 20)
#    0.000    1.167    5.000    3.000    0.000    0.333 
#    0.000    3.333    0.000    1.000    0.000    0.000 
#    0.000    0.000    0.000    0.000    0.000    0.000 
#
# Total GULP energy -134115.507670 kJ/mol
# GULP energy per Si atom -5588.146153 kJ/mol
# Density = 1.844587 g / cm^3
# Si number density = 18.487946 Si / 1000 Ang^3
#
#
#
# Elastic Constant Matrix: (Units=GPa)
#
#
# Indices 1 2 3 4 5 6 
#
# 1 88.6307 -14.4317 36.3929 0.0071 -2.3884 -0.0002
# 2 -14.4317 35.6111 4.6523 0.0144 -1.8160 0.0015
# 3 36.3929 4.6523 94.2562 0.0388 0.7418 0.0028
# 4 0.0071 0.0144 0.0388 10.2146 -0.0029 1.3972
# 5 -2.3884 -1.8160 0.7418 -0.0029 24.3620 -0.0047
# 6 -0.0002 0.0015 0.0028 1.3972 -0.0047 11.4433
#
#
#
# Elastic Compliance Matrix: (Units=1/GPa)
#
#
# Indices 1 2 3 4 5 6 
#
# 1 0.015010 0.006998 -0.006158 0.000004 0.002181 0.000001
# 2 0.006998 0.031640 -0.004289 -0.000033 0.003175 0.000002
# 3 -0.006158 -0.004289 0.013209 -0.000040 -0.001326 0.000002
# 4 0.000004 -0.000033 -0.000040 0.099562 0.000009 -0.012156
# 5 0.002181 0.003175 -0.001326 0.000009 0.041538 0.000016
# 6 0.000001 0.000002 0.000002 -0.012156 0.000016 0.088872
#
#
# Mechanical properties :
#
#
# Convention : Reuss Voigt Hill
#
# Bulk Modulus (GPa) = 18.88153 30.19166 24.53659
# Shear Modulus (GPa) = 15.90427 21.99628 18.95027
#
# Velocity S-wave (km/s) = 2.93619 3.45304 3.20505
# Velocity P-wave (km/s) = 4.66154 5.68013 5.19586
#
# Compressibility (1/GPa) = 0.05296180
#
# Stress axis : x y z
#
# Youngs Moduli (GPa) = 66.62401 31.60602 75.70526
#
# Poissons Ratio (x) = -0.22119 0.46618
# Poissons Ratio (y) = -0.46627 0.32468
# Poissons Ratio (z) = 0.41026 0.13555
#
# Static dielectric constant tensor:
#      x y z
#    x 1.618100 0.000000 0.018700 
#    y 0.000000 1.627270 0.000010 
#    z 0.018700 0.000010 1.642930 
# 
# From -- ./inp_files/63614.got.cif
#   From: 2010.05.17/outbox.cif.g08.bks.cpg/sg12_32_cif.got.tgz:63614.got - 2010.06.03 13:09:07.
