data_PCOD9201351
_publ_section_title
;
Structure prediction by ZEFSAII (Michael W. Deem and Ramdas Pophale) SiO2 
 PCOD9201351
Probable space group: C 2/M
;
_chemical_formula_sum "Si O2"
_cell_formula_units_Z 64
_cell_length_a 20.172187
_cell_length_b 8.535563
_cell_length_c 32.252945
_cell_angle_alpha 90.000000
_cell_angle_beta 36.257144
_cell_angle_gamma 90.000000
_cell_volume 3284.303941
_symmetry_space_group_name_H-M "C 2/M"
_symmetry_group_IT_number 12
_symmetry_cell_setting 'monoclinic'
loop_
_space_group_symop_operation_xyz
x,y,z
-x,y,-z
-x,-y,-z
x,-y,z
1/2+x,1/2+y,z
1/2-x,1/2+y,-z
1/2-x,1/2-y,-z
1/2+x,1/2-y,z
loop_
_atom_site_type_symbol
_atom_site_label
_atom_site_fract_x
_atom_site_fract_y
_atom_site_fract_z
Si Si1 0.771866 0.187083 0.380433
Si Si2 0.718592 0.310251 0.719346
Si Si3 0.346347 0.687037 0.481889
Si Si4 0.583329 0.687803 0.323550
Si Si5 0.327075 0.810995 0.885483
Si Si6 0.570613 0.691247 0.004246
Si Si7 0.980851 0.687365 0.730942
Si Si8 0.981106 0.188927 0.877149
O O1 0.759325 0.239073 0.339155
O O2 0.683081 0.257064 0.457170
O O3 0.896329 0.237063 0.331627
O O4 0.764237 0.000000 0.385880
O O5 0.722012 0.500000 0.719064
O O6 0.811790 0.242467 0.702566
O O7 0.595033 0.260474 0.796704
O O8 0.343010 0.500000 0.482259
O O9 0.250000 0.750000 0.500000
O O10 0.467898 0.738605 0.404370
O O11 0.582009 0.500000 0.320516
O O12 0.583301 0.762693 0.278114
O O13 0.200806 0.759791 0.938796
O O14 0.412002 0.760968 0.806206
O O15 0.375560 0.749922 0.904338
O O16 0.326750 0.000000 0.886885
O O17 0.569246 0.500000 0.003848
O O18 0.500000 0.745395 0.000000
O O19 0.520652 0.739015 0.073997
O O20 0.992782 0.500000 0.726116
O O21 0.977513 0.000000 0.878335
#
# Coordination Sequence:
#
# PCOD9201351 Si02
#       8
#     8   8   8   8   8   8   8   8
#     4  11  22  39  62  88 120 155 199 248 295 354
#     4  10  23  40  60  88 120 156 200 245 298 356
#     4  11  23  39  61  88 118 156 199 247 300 356
#     4  11  25  41  60  87 120 155 196 247 301 356
#     4  10  21  36  59  90 118 154 200 245 290 347
#     4   9  19  35  58  87 119 155 198 243 289 344
#     4  11  22  36  60  89 119 155 200 249 296 353
#     4  10  20  37  62  86 116 159 197 241 292 348
#
# _framework density 19.486623999999999
#
# number of rings (size 3 to 8) (size 9 to 14) (size 15 to 20)
#    0.000    1.625    2.500    1.875    1.750    4.000 
#    0.000    2.500    0.000    0.750    0.000    0.000 
#    0.000    0.000    0.000    0.000    0.000    0.000 
#
# Total GULP energy -178831.889553 kJ/mol
# GULP energy per Si atom -5588.496549 kJ/mol
# Density = 1.944227 g / cm^3
# Si number density = 19.486624 Si / 1000 Ang^3
#
#
#
# Elastic Constant Matrix: (Units=GPa)
#
#
# Indices 1 2 3 4 5 6 
#
# 1 150.9725 9.4344 45.2334 -0.0008 9.5578 0.0290
# 2 9.4344 11.4527 11.4980 -0.0037 2.7668 0.0026
# 3 45.2334 11.4980 91.2460 0.0013 14.6670 0.0004
# 4 -0.0008 -0.0037 0.0013 10.6475 -0.0015 -0.1521
# 5 9.5578 2.7668 14.6670 -0.0015 37.6234 0.0010
# 6 0.0290 0.0026 0.0004 -0.1521 0.0010 31.6118
#
#
#
# Elastic Compliance Matrix: (Units=1/GPa)
#
#
# Indices 1 2 3 4 5 6 
#
# 1 0.007871 -0.002898 -0.003467 0.000000 -0.000435 -0.000007
# 2 -0.002898 0.101269 -0.010930 0.000036 -0.002450 -0.000005
# 3 -0.003467 -0.010930 0.014706 -0.000006 -0.004048 0.000004
# 4 0.000000 0.000036 -0.000006 0.093925 0.000004 0.000452
# 5 -0.000435 -0.002450 -0.004048 0.000004 0.028448 0.000000
# 6 -0.000007 -0.000005 0.000004 0.000452 0.000000 0.031636
#
#
# Mechanical properties :
#
#
# Convention : Reuss Voigt Hill
#
# Bulk Modulus (GPa) = 11.20387 42.88922 27.04655
# Shear Modulus (GPa) = 14.61143 28.47689 21.54416
#
# Velocity S-wave (km/s) = 2.74125 3.82692 3.32864
# Velocity P-wave (km/s) = 3.97257 6.44860 5.35564
#
# Compressibility (1/GPa) = 0.08925485
#
# Stress axis : x y z
#
# Youngs Moduli (GPa) = 127.04737 9.87470 67.99903
#
# Poissons Ratio (x) = 0.02862 0.23574
# Poissons Ratio (y) = 0.36823 0.74326
# Poissons Ratio (z) = 0.44045 0.10793
#
# Static dielectric constant tensor:
#      x y z
#    x 1.653850 0.000000 0.015700 
#    y 0.000000 1.664950 0.000000 
#    z 0.015700 0.000000 1.683150 
# 
# From -- ./inp_files/378064.got.cif
#   From: 2010.05.17/outbox.cif.g08.bks.cpg/sg12_190_cif.got.tgz:378064.got - 2010.06.03 13:09:07.
