data_PCOD9201019
_publ_section_title
;
Structure prediction by ZEFSAII (Michael W. Deem and Ramdas Pophale) SiO2 
 PCOD9201019
Probable space group: C 2/M
;
_chemical_formula_sum "Si O2"
_cell_formula_units_Z 40
_cell_length_a 16.897660
_cell_length_b 13.663478
_cell_length_c 12.216747
_cell_angle_alpha 90.000000
_cell_angle_beta 132.098910
_cell_angle_gamma 90.000000
_cell_volume 2092.862225
_symmetry_space_group_name_H-M "C 2/M"
_symmetry_group_IT_number 12
_symmetry_cell_setting 'monoclinic'
loop_
_space_group_symop_operation_xyz
x,y,z
-x,y,-z
-x,-y,-z
x,-y,z
1/2+x,1/2+y,z
1/2-x,1/2+y,-z
1/2-x,1/2-y,-z
1/2+x,1/2-y,z
loop_
_atom_site_type_symbol
_atom_site_label
_atom_site_fract_x
_atom_site_fract_y
_atom_site_fract_z
Si Si1 0.379290 0.382157 0.856971
Si Si2 0.525132 0.786247 0.403789
Si Si3 0.794253 0.730550 0.159788
Si Si4 0.238806 0.386440 0.523733
Si Si5 0.649879 0.385680 0.599609
O O1 0.380633 0.500000 0.866901
O O2 0.287991 0.339415 0.852176
O O3 0.337084 0.356455 0.695039
O O4 0.500000 0.348370 0.000000
O O5 0.500000 0.830132 0.500000
O O6 0.414168 0.805230 0.243616
O O7 0.632429 0.829065 0.454941
O O8 0.551291 0.671598 0.450587
O O9 0.812910 0.822081 0.261200
O O10 0.750000 0.750000 0.000000
O O11 0.219954 0.500000 0.531598
O O12 0.264515 0.379361 0.419542
O O13 0.630794 0.500000 0.605572
#
# Coordination Sequence:
#
# PCOD9201019 Si02
#       5
#     8   8   8   8   8
#     4  10  22  39  60  89 121 157 200 248 304 363
#     4  10  20  37  60  90 120 154 197 249 304 355
#     4  11  25  39  58  89 123 161 196 247 313 361
#     4  10  20  37  64  91 116 157 206 253 300 357
#     4  10  22  40  63  90 119 160 210 251 295 358
#
# _framework density 19.112582
#
# number of rings (size 3 to 8) (size 9 to 14) (size 15 to 20)
#    0.000    1.800    4.000    0.600    2.800    5.600 
#    0.000    0.000    0.000    3.000    0.000    0.000 
#    0.000    0.000    0.000    0.000    0.000    0.000 
#
# Total GULP energy -111364.883963 kJ/mol
# GULP energy per Si atom -5568.244198 kJ/mol
# Density = 1.906908 g / cm^3
# Si number density = 19.112582 Si / 1000 Ang^3
#
#
#
# Elastic Constant Matrix: (Units=GPa)
#
#
# Indices 1 2 3 4 5 6 
#
# 1 87.2133 37.0446 44.9198 0.0000 14.8982 0.0000
# 2 37.0446 62.7422 26.5590 0.0000 12.3744 0.0000
# 3 44.9198 26.5590 148.9049 0.0000 15.8299 0.0000
# 4 0.0000 0.0000 0.0000 9.8446 0.0000 2.0687
# 5 14.8982 12.3744 15.8299 0.0000 43.8395 0.0000
# 6 0.0000 0.0000 0.0000 2.0687 0.0000 21.7352
#
#
#
# Elastic Compliance Matrix: (Units=1/GPa)
#
#
# Indices 1 2 3 4 5 6 
#
# 1 0.017115 -0.008195 -0.003462 0.000000 -0.002253 0.000000
# 2 -0.008195 0.021832 -0.001105 0.000000 -0.002978 0.000000
# 3 -0.003462 -0.001105 0.008110 0.000000 -0.001440 0.000000
# 4 0.000000 0.000000 0.000000 0.103652 0.000000 -0.009865
# 5 -0.002253 -0.002978 -0.001440 0.000000 0.024937 0.000000
# 6 0.000000 0.000000 0.000000 -0.009865 0.000000 0.046947
#
#
# Mechanical properties :
#
#
# Convention : Reuss Voigt Hill
#
# Bulk Modulus (GPa) = 46.44071 57.32303 51.88187
# Shear Modulus (GPa) = 19.58513 27.77298 23.67905
#
# Velocity S-wave (km/s) = 3.20460 3.81612 3.52365
# Velocity P-wave (km/s) = 6.16797 7.03381 6.61507
#
# Compressibility (1/GPa) = 0.02153283
#
# Stress axis : x y z
#
# Youngs Moduli (GPa) = 58.42788 45.80381 123.30120
#
# Poissons Ratio (x) = 0.37538 0.42685
# Poissons Ratio (y) = 0.47884 0.13626
# Poissons Ratio (z) = 0.20227 0.05062
#
# Static dielectric constant tensor:
#      x y z
#    x 1.649960 0.000000 -0.118240 
#    y 0.000000 1.696880 0.000000 
#    z -0.118240 0.000000 1.421230 
# 
# From -- ./inp_files/142500.got.cif
#   From: 2010.05.17/outbox.cif.g08.bks.cpg/sg12_72_cif.got.tgz:142500.got - 2010.06.03 13:09:07.
