data_PCOD9201045
_publ_section_title
;
Structure prediction by ZEFSAII (Michael W. Deem and Ramdas Pophale) SiO2 
 PCOD9201045
Probable space group: C 2/M
;
_chemical_formula_sum "Si O2"
_cell_formula_units_Z 50
_cell_length_a 24.178319
_cell_length_b 7.694460
_cell_length_c 12.259587
_cell_angle_alpha 90.000000
_cell_angle_beta 118.711574
_cell_angle_gamma 90.000000
_cell_volume 2000.340904
_symmetry_space_group_name_H-M "C 2/M"
_symmetry_group_IT_number 12
_symmetry_cell_setting 'monoclinic'
loop_
_space_group_symop_operation_xyz
x,y,z
-x,y,-z
-x,-y,-z
x,-y,z
1/2+x,1/2+y,z
1/2-x,1/2+y,-z
1/2-x,1/2-y,-z
1/2+x,1/2-y,z
loop_
_atom_site_type_symbol
_atom_site_label
_atom_site_fract_x
_atom_site_fract_y
_atom_site_fract_z
Si Si1 0.134963 0.306446 0.450087
Si Si2 0.930657 0.210304 0.069787
Si Si3 0.734330 0.292197 0.711511
Si Si4 0.502186 0.693240 0.342371
Si Si5 0.627516 0.700578 0.199551
Si Si6 0.817473 0.207835 0.115054
Si Si7 0.000000 0.500000 0.500000
O O1 0.116662 0.500000 0.469943
O O2 0.200304 0.255322 0.566688
O O3 0.076983 0.189480 0.431954
O O4 0.136580 0.298537 0.321466
O O5 0.873233 0.275100 0.091595
O O6 0.990727 0.239600 0.203661
O O7 0.926052 0.000000 0.053537
O O8 0.920489 0.272957 0.936885
O O9 0.742646 0.500000 0.725625
O O10 0.802727 0.206919 0.787942
O O11 0.688116 0.233620 0.765166
O O12 0.475281 0.500000 0.336559
O O13 0.476521 0.845163 0.392791
O O14 0.611464 0.500000 0.210613
O O15 0.825097 0.000000 0.124188
O O16 0.750000 0.250000 0.000000
#
# Coordination Sequence:
#
# PCOD9201045 Si02
#       7
#     8   8   8   8   8   8   2
#     4  12  26  45  65  97 133 176 234 285 343 413
#     4   9  21  41  67  96 133 180 225 274 346 409
#     4  11  23  39  63  98 132 177 224 282 351 403
#     4  11  25  48  72 102 141 181 228 286 338 407
#     4  11  22  42  68  95 131 179 228 283 344 410
#     4  10  20  37  60  93 129 164 212 264 331 402
#     4  12  26  48  68 108 136 180 234 268 346 406
#
# _framework density 24.995740999999999
#
# number of rings (size 3 to 8) (size 9 to 14) (size 15 to 20)
#    0.000    1.280    2.400    3.120    2.240    1.280 
#    4.320    3.200    0.000    0.000    0.000    0.000 
#    0.000    0.000    0.000    0.000    0.000    0.000 
#
# Total GULP energy -139625.769083 kJ/mol
# GULP energy per Si atom -5585.030763 kJ/mol
# Density = 2.493885 g / cm^3
# Si number density = 24.995741 Si / 1000 Ang^3
#
#
#
# Elastic Constant Matrix: (Units=GPa)
#
#
# Indices 1 2 3 4 5 6 
#
# 1 39.8653 1.3380 6.7607 0.0000 5.2492 0.0000
# 2 1.3380 112.9347 29.7101 0.0000 -7.8786 0.0000
# 3 6.7607 29.7101 171.6824 0.0000 -10.2120 0.0000
# 4 0.0000 0.0000 0.0000 16.1486 0.0000 -8.5759
# 5 5.2492 -7.8786 -10.2120 0.0000 43.2987 0.0000
# 6 0.0000 0.0000 0.0000 -8.5759 0.0000 16.5684
#
#
#
# Elastic Compliance Matrix: (Units=1/GPa)
#
#
# Indices 1 2 3 4 5 6 
#
# 1 0.025745 -0.000235 -0.001178 0.000000 -0.003442 0.000000
# 2 -0.000235 0.009355 -0.001528 0.000000 0.001370 0.000000
# 3 -0.001178 -0.001528 0.006215 0.000000 0.001330 0.000000
# 4 0.000000 0.000000 0.000000 0.085400 0.000000 0.044203
# 5 -0.003442 0.001370 0.001330 0.000000 0.024076 0.000000
# 6 0.000000 0.000000 0.000000 0.044203 0.000000 0.083236
#
#
# Mechanical properties :
#
#
# Convention : Reuss Voigt Hill
#
# Bulk Modulus (GPa) = 28.22263 44.45554 36.33909
# Shear Modulus (GPa) = 19.86338 34.31472 27.08905
#
# Velocity S-wave (km/s) = 2.82205 3.70918 3.29560
# Velocity P-wave (km/s) = 4.68339 6.01398 5.38990
#
# Compressibility (1/GPa) = 0.03543256
#
# Stress axis : x y z
#
# Youngs Moduli (GPa) = 38.84203 106.89381 160.90937
#
# Poissons Ratio (x) = 0.02515 0.18952
# Poissons Ratio (y) = 0.00914 0.24589
# Poissons Ratio (z) = 0.04575 0.16335
#
# Static dielectric constant tensor:
#      x y z
#    x 2.069010 0.000000 -0.054710 
#    y 0.000000 1.900980 0.000000 
#    z -0.054710 0.000000 1.983670 
# 
# From -- ./inp_files/180174.got.cif
#   From: 2010.05.17/outbox.cif.g08.bks.cpg/sg12_91_cif.got.tgz:180174.got - 2010.06.03 13:09:07.
