data_PCOD9201062
_publ_section_title
;
Structure prediction by ZEFSAII (Michael W. Deem and Ramdas Pophale) SiO2 
 PCOD9201062
Probable space group: C 2/M
;
_chemical_formula_sum "Si O2"
_cell_formula_units_Z 48
_cell_length_a 15.538518
_cell_length_b 8.476705
_cell_length_c 27.132757
_cell_angle_alpha 90.000000
_cell_angle_beta 45.621931
_cell_angle_gamma 90.000000
_cell_volume 2554.341403
_symmetry_space_group_name_H-M "C 2/M"
_symmetry_group_IT_number 12
_symmetry_cell_setting 'monoclinic'
loop_
_space_group_symop_operation_xyz
x,y,z
-x,y,-z
-x,-y,-z
x,-y,z
1/2+x,1/2+y,z
1/2-x,1/2+y,-z
1/2-x,1/2-y,-z
1/2+x,1/2-y,z
loop_
_atom_site_type_symbol
_atom_site_label
_atom_site_fract_x
_atom_site_fract_y
_atom_site_fract_z
Si Si1 0.162929 0.311251 0.174532
Si Si2 0.025693 0.192101 0.568393
Si Si3 0.047504 0.188568 0.671938
Si Si4 0.806364 0.809522 0.588074
Si Si5 0.068212 0.690625 0.922252
Si Si6 0.130850 0.309340 0.075229
O O1 0.157912 0.500000 0.176855
O O2 0.297998 0.257476 0.132558
O O3 0.132208 0.255668 0.131237
O O4 0.065896 0.247060 0.251671
O O5 0.041604 0.247954 0.617681
O O6 0.131186 0.241383 0.488506
O O7 0.899018 0.238710 0.594071
O O8 0.027172 0.000000 0.568123
O O9 0.172863 0.244284 0.645201
O O10 0.045620 0.000000 0.671357
O O11 0.801383 0.000000 0.590217
O O12 0.075629 0.500000 0.919368
O O13 0.985577 0.740802 0.909417
O O14 0.000000 0.738165 0.000000
O O15 0.133315 0.500000 0.073828
O O16 0.250000 0.250000 0.000000
#
# Coordination Sequence:
#
# PCOD9201062 Si02
#       6
#     8   8   8   8   8   8
#     4  11  24  39  55  81 113 148 186 224 271 328
#     4   8  17  34  58  83 109 146 186 225 274 329
#     4  11  22  36  54  80 115 149 183 226 277 326
#     4   9  17  35  60  83 108 143 188 230 271 325
#     4  10  20  37  61  84 107 137 176 225 279 327
#     4  10  21  37  59  83 108 138 176 222 273 327
#
# _framework density 18.791536000000001
#
# number of rings (size 3 to 8) (size 9 to 14) (size 15 to 20)
#    0.000    2.167    1.667    2.500    0.000    3.000 
#    0.000   10.833    0.000    0.000    0.000    0.000 
#    0.000    0.000    0.000    0.000    0.000    0.000 
#
# Total GULP energy -134003.777223 kJ/mol
# GULP energy per Si atom -5583.490718 kJ/mol
# Density = 1.874877 g / cm^3
# Si number density = 18.791536 Si / 1000 Ang^3
#
#
#
# Elastic Constant Matrix: (Units=GPa)
#
#
# Indices 1 2 3 4 5 6 
#
# 1 108.6582 16.7058 39.8637 0.0000 -24.9429 0.0002
# 2 16.7058 15.0199 14.9639 0.0000 -6.9650 0.0003
# 3 39.8637 14.9639 86.2091 0.0000 -33.6256 0.0000
# 4 0.0000 0.0000 0.0000 29.8272 0.0000 -5.5793
# 5 -24.9429 -6.9650 -33.6256 0.0000 31.2773 0.0000
# 6 0.0002 0.0003 0.0000 -5.5793 0.0000 25.4019
#
#
#
# Elastic Compliance Matrix: (Units=1/GPa)
#
#
# Indices 1 2 3 4 5 6 
#
# 1 0.012737 -0.009489 -0.001903 0.000000 0.005999 0.000000
# 2 -0.009489 0.088026 -0.010673 0.000000 0.000561 -0.000001
# 3 -0.001903 -0.010673 0.022066 0.000000 0.019829 0.000000
# 4 0.000000 0.000000 0.000000 0.034963 0.000000 0.007679
# 5 0.005999 0.000561 0.019829 0.000000 0.058199 0.000000
# 6 0.000000 -0.000001 0.000000 0.007679 0.000000 0.041054
#
#
# Mechanical properties :
#
#
# Convention : Reuss Voigt Hill
#
# Bulk Modulus (GPa) = 12.70656 39.21711 25.96184
# Shear Modulus (GPa) = 15.27149 26.52486 20.89817
#
# Velocity S-wave (km/s) = 2.85385 3.76111 3.33844
# Velocity P-wave (km/s) = 4.19950 6.30683 5.35780
#
# Compressibility (1/GPa) = 0.07869949
#
# Stress axis : x y z
#
# Youngs Moduli (GPa) = 78.50955 11.36034 45.31777
#
# Poissons Ratio (x) = 0.10780 0.08623
# Poissons Ratio (y) = 0.74501 0.48366
# Poissons Ratio (z) = 0.14939 0.12124
#
# Static dielectric constant tensor:
#      x y z
#    x 1.653560 0.000000 0.021010 
#    y 0.000000 1.650110 0.000000 
#    z 0.021010 0.000000 1.613850 
# 
# From -- ./inp_files/360254.got.cif
#   From: 2010.05.17/outbox.cif.g08.bks.cpg/sg12_181_cif.got.tgz:360254.got - 2010.06.03 13:09:07.
