data_PCOD9201217
_publ_section_title
;
Structure prediction by ZEFSAII (Michael W. Deem and Ramdas Pophale) SiO2 
 PCOD9201217
Probable space group: C 2/M
;
_chemical_formula_sum "Si O2"
_cell_formula_units_Z 48
_cell_length_a 25.294849
_cell_length_b 8.802957
_cell_length_c 20.652805
_cell_angle_alpha 90.000000
_cell_angle_beta 144.436106
_cell_angle_gamma 90.000000
_cell_volume 2674.680600
_symmetry_space_group_name_H-M "C 2/M"
_symmetry_group_IT_number 12
_symmetry_cell_setting 'monoclinic'
loop_
_space_group_symop_operation_xyz
x,y,z
-x,y,-z
-x,-y,-z
x,-y,z
1/2+x,1/2+y,z
1/2-x,1/2+y,-z
1/2-x,1/2-y,-z
1/2+x,1/2-y,z
loop_
_atom_site_type_symbol
_atom_site_label
_atom_site_fract_x
_atom_site_fract_y
_atom_site_fract_z
Si Si1 0.310329 0.682194 0.374610
Si Si2 0.007850 0.819131 0.628169
Si Si3 0.191841 0.318654 0.001312
Si Si4 0.804056 0.320320 0.229717
Si Si5 0.192191 0.317777 0.383147
Si Si6 0.000244 0.181154 0.225458
O O1 0.307137 0.500000 0.360768
O O2 0.413288 0.719557 0.499156
O O3 0.286098 0.767183 0.284829
O O4 0.243592 0.718813 0.367504
O O5 0.093177 0.728952 0.685610
O O6 0.998461 0.791729 0.695634
O O7 0.024299 0.000000 0.635438
O O8 0.193948 0.500000 0.999288
O O9 0.238474 0.263318 0.113720
O O10 0.250000 0.250000 0.000000
O O11 0.089759 0.257507 0.892652
O O12 0.793784 0.500000 0.212455
O O13 0.189395 0.500000 0.386654
O O14 0.250000 0.250000 0.500000
O O15 0.091613 0.249801 0.286691
O O16 0.997280 0.000000 0.212821
#
# Coordination Sequence:
#
# PCOD9201217 Si02
#       6
#     8   8   8   8   8   8
#     4  10  22  41  61  86 123 167 205 245 304 365
#     4  10  20  37  61  88 124 164 198 245 305 366
#     4  12  24  41  64  90 121 161 203 251 302 362
#     4  12  25  39  59  91 125 161 203 254 306 361
#     4  11  22  39  63  91 124 163 207 253 303 360
#     4  11  22  39  63  94 125 158 201 253 305 360
#
# _framework density 17.946068
#
# number of rings (size 3 to 8) (size 9 to 14) (size 15 to 20)
#    0.000    1.000    3.333    4.500    0.000    4.667 
#    0.000    0.833    0.000    5.000    0.000    0.000 
#    0.000    0.000    0.000    0.000    0.000    0.000 
#
# Total GULP energy -134252.788997 kJ/mol
# GULP energy per Si atom -5593.866208 kJ/mol
# Density = 1.790522 g / cm^3
# Si number density = 17.946068 Si / 1000 Ang^3
#
#
#
# Elastic Constant Matrix: (Units=GPa)
#
#
# Indices 1 2 3 4 5 6 
#
# 1 96.3592 71.4488 89.2896 0.0000 -0.1316 0.0000
# 2 71.4488 107.6066 78.2679 0.0000 -4.2957 0.0000
# 3 89.2896 78.2679 151.0445 0.0000 6.0248 0.0000
# 4 0.0000 0.0000 0.0000 34.3175 0.0000 1.8397
# 5 -0.1316 -4.2957 6.0248 0.0000 34.5414 0.0000
# 6 0.0000 0.0000 0.0000 1.8397 0.0000 34.1759
#
#
#
# Elastic Compliance Matrix: (Units=1/GPa)
#
#
# Indices 1 2 3 4 5 6 
#
# 1 0.029330 -0.010927 -0.011708 0.000000 0.000795 0.000000
# 2 -0.010927 0.019351 -0.003688 0.000000 0.003008 0.000000
# 3 -0.011708 -0.003688 0.015581 0.000000 -0.003221 0.000000
# 4 0.000000 0.000000 0.000000 0.029224 0.000000 -0.001573
# 5 0.000795 0.003008 -0.003221 0.000000 0.029890 0.000000
# 6 0.000000 0.000000 0.000000 -0.001573 0.000000 0.029345
#
#
# Mechanical properties :
#
#
# Convention : Reuss Voigt Hill
#
# Bulk Modulus (GPa) = 86.08384 92.55808 89.32096
# Shear Modulus (GPa) = 23.89618 28.34056 26.11837
#
# Velocity S-wave (km/s) = 3.65301 3.97824 3.81908
# Velocity P-wave (km/s) = 8.11571 8.53167 8.32629
#
# Compressibility (1/GPa) = 0.01161658
#
# Stress axis : x y z
#
# Youngs Moduli (GPa) = 34.09451 51.67744 64.18078
#
# Poissons Ratio (x) = 0.56469 0.75143
# Poissons Ratio (y) = 0.37256 0.23667
# Poissons Ratio (z) = 0.39918 0.19056
#
# Static dielectric constant tensor:
#      x y z
#    x 1.591900 0.000000 -0.002430 
#    y 0.000000 1.598920 0.000000 
#    z -0.002430 0.000000 1.588720 
# 
# From -- ./inp_files/327314.got.cif
#   From: 2010.05.17/outbox.cif.g08.bks.cpg/sg12_164_cif.got.tgz:327314.got - 2010.06.03 13:09:07.
