data_PCOD9201608
_publ_section_title
;
Structure prediction by ZEFSAII (Michael W. Deem and Ramdas Pophale) SiO2 
 PCOD9201608
Probable space group: C 2/M
;
_chemical_formula_sum "Si O2"
_cell_formula_units_Z 64
_cell_length_a 15.873579
_cell_length_b 17.605082
_cell_length_c 14.132150
_cell_angle_alpha 90.000000
_cell_angle_beta 119.454947
_cell_angle_gamma 90.000000
_cell_volume 3438.831974
_symmetry_space_group_name_H-M "C 2/M"
_symmetry_group_IT_number 12
_symmetry_cell_setting 'monoclinic'
loop_
_space_group_symop_operation_xyz
x,y,z
-x,y,-z
-x,-y,-z
x,-y,z
1/2+x,1/2+y,z
1/2-x,1/2+y,-z
1/2-x,1/2-y,-z
1/2+x,1/2-y,z
loop_
_atom_site_type_symbol
_atom_site_label
_atom_site_fract_x
_atom_site_fract_y
_atom_site_fract_z
Si Si1 0.172078 0.288480 0.024652
Si Si2 0.071536 0.409573 0.401476
Si Si3 0.522884 0.676768 0.902340
Si Si4 0.137146 0.589442 0.655593
Si Si5 0.606640 0.591118 0.595171
Si Si6 0.187564 0.196651 0.225293
Si Si7 0.765213 0.688624 0.590571
Si Si8 0.673822 0.591290 0.848830
O O1 0.172976 0.238173 0.118832
O O2 0.220193 0.369906 0.074932
O O3 0.250000 0.250000 0.000000
O O4 0.066549 0.263579 0.925988
O O5 0.076171 0.500000 0.383039
O O6 0.113968 0.399600 0.531388
O O7 0.137351 0.358800 0.371607
O O8 0.959513 0.385103 0.342956
O O9 0.417794 0.672048 0.796374
O O10 0.599745 0.625553 0.886931
O O11 0.500000 0.653693 0.000000
O O12 0.146260 0.500000 0.675924
O O13 0.234505 0.630508 0.738407
O O14 0.500000 0.613693 0.500000
O O15 0.613657 0.500000 0.593401
O O16 0.680249 0.629142 0.562188
O O17 0.634294 0.610617 0.720329
O O18 0.230686 0.260085 0.315616
O O19 0.750000 0.750000 0.500000
O O20 0.678681 0.500000 0.859206
#
# Coordination Sequence:
#
# PCOD9201608 Si02
#       8
#     8   8   8   8   8   8   8   8
#     4   9  19  40  60  78 109 150 188 238 296 341
#     4   9  19  36  54  75 114 158 188 226 279 329
#     4   9  21  38  60  85 116 150 188 248 315 341
#     4   9  19  36  56  79 110 151 192 229 278 339
#     4  10  23  40  57  83 124 164 195 233 286 348
#     4  11  21  36  57  86 114 146 190 238 290 350
#     4  12  23  34  54  88 118 151 199 239 275 341
#     4  10  20  37  63  88 115 157 198 236 288 358
#
# _framework density 18.610969999999998
#
# number of rings (size 3 to 8) (size 9 to 14) (size 15 to 20)
#    0.000    2.125    2.500    1.125    1.750    3.750 
#    0.000    5.000    0.000    4.875    0.000    0.000 
#    0.000    0.000    0.000    0.000    0.000    0.000 
#
# Total GULP energy -178173.403001 kJ/mol
# GULP energy per Si atom -5567.918844 kJ/mol
# Density = 1.856861 g / cm^3
# Si number density = 18.610970 Si / 1000 Ang^3
#
#
#
# Elastic Constant Matrix: (Units=GPa)
#
#
# Indices 1 2 3 4 5 6 
#
# 1 102.9588 43.6197 12.0933 0.0000 16.5090 0.0000
# 2 43.6197 60.8577 18.8148 0.0000 12.3904 0.0000
# 3 12.0933 18.8148 25.6513 0.0000 8.2114 0.0000
# 4 0.0000 0.0000 0.0000 18.3290 0.0000 7.6013
# 5 16.5090 12.3904 8.2114 0.0000 38.2832 0.0000
# 6 0.0000 0.0000 0.0000 7.6013 0.0000 27.0414
#
#
#
# Elastic Compliance Matrix: (Units=1/GPa)
#
#
# Indices 1 2 3 4 5 6 
#
# 1 0.014329 -0.010139 0.001728 0.000000 -0.003268 0.000000
# 2 -0.010139 0.028951 -0.015951 0.000000 -0.001576 0.000000
# 3 0.001728 -0.015951 0.052027 0.000000 -0.006742 0.000000
# 4 0.000000 0.000000 0.000000 0.061758 0.000000 -0.017360
# 5 -0.003268 -0.001576 -0.006742 0.000000 0.029487 0.000000
# 6 0.000000 0.000000 0.000000 -0.017360 0.000000 0.041860
#
#
# Mechanical properties :
#
#
# Convention : Reuss Voigt Hill
#
# Bulk Modulus (GPa) = 21.46665 37.61373 29.54019
# Shear Modulus (GPa) = 17.08437 24.39339 20.73888
#
# Velocity S-wave (km/s) = 3.03309 3.62429 3.34179
# Velocity P-wave (km/s) = 4.88115 6.14559 5.54950
#
# Compressibility (1/GPa) = 0.04658388
#
# Stress axis : x y z
#
# Youngs Moduli (GPa) = 69.78668 34.54066 19.22061
#
# Poissons Ratio (x) = 0.35022 -0.03321
# Poissons Ratio (y) = 0.70759 0.30658
# Poissons Ratio (z) = -0.12057 0.55094
#
# Static dielectric constant tensor:
#      x y z
#    x 1.583010 0.000000 0.053000 
#    y 0.000000 1.624070 0.000000 
#    z 0.053000 0.000000 1.686620 
# 
# From -- ./inp_files/216406.got.cif
#   From: 2010.05.17/outbox.cif.g08.bks.cpg/sg12_109_cif.got.tgz:216406.got - 2010.06.03 13:09:07.
