data_PCOD9201329
_publ_section_title
;
Structure prediction by ZEFSAII (Michael W. Deem and Ramdas Pophale) SiO2 
 PCOD9201329
Probable space group: C 2/M
;
_chemical_formula_sum "Si O2"
_cell_formula_units_Z 48
_cell_length_a 14.351197
_cell_length_b 32.432877
_cell_length_c 15.650887
_cell_angle_alpha 90.000000
_cell_angle_beta 160.752980
_cell_angle_gamma 90.000000
_cell_volume 2401.344638
_symmetry_space_group_name_H-M "C 2/M"
_symmetry_group_IT_number 12
_symmetry_cell_setting 'monoclinic'
loop_
_space_group_symop_operation_xyz
x,y,z
-x,y,-z
-x,-y,-z
x,-y,z
1/2+x,1/2+y,z
1/2-x,1/2+y,-z
1/2-x,1/2-y,-z
1/2+x,1/2-y,z
loop_
_atom_site_type_symbol
_atom_site_label
_atom_site_fract_x
_atom_site_fract_y
_atom_site_fract_z
Si Si1 0.676513 0.876189 0.239783
Si Si2 0.050636 0.125701 0.143196
Si Si3 0.881265 0.424145 0.133217
Si Si4 0.283777 0.454700 0.628326
Si Si5 0.972542 0.294783 0.788409
Si Si6 0.368235 0.704538 0.680662
O O1 0.550676 0.908383 0.198934
O O2 0.649660 0.831350 0.260553
O O3 0.000000 0.885296 0.500000
O O4 0.500000 0.876731 0.000000
O O5 0.756174 0.115369 0.937136
O O6 0.175211 0.166291 0.294117
O O7 0.000000 0.130540 0.000000
O O8 0.226809 0.084053 0.316422
O O9 0.070646 0.447181 0.366531
O O10 0.604714 0.450607 0.871243
O O11 0.243061 0.500000 0.631260
O O12 0.854454 0.297802 0.589260
O O13 0.869190 0.249193 0.726564
O O14 0.313299 0.297614 0.082996
#
# Coordination Sequence:
#
# PCOD9201329 Si02
#       6
#     8   8   8   8   8   8
#     4  12  23  37  65  92 122 161 209 255 302 359
#     4  10  23  39  63  94 123 163 201 253 309 375
#     4  10  22  41  61  91 125 156 205 252 307 368
#     4  10  21  40  67  88 123 164 199 249 311 377
#     4  10  20  38  58  88 117 167 204 250 294 353
#     4  10  20  37  62  82 126 161 201 249 303 349
#
# _framework density 19.988800999999999
#
# number of rings (size 3 to 8) (size 9 to 14) (size 15 to 20)
#    1.000    0.667    1.667    3.500    0.000    1.667 
#    0.000    0.833    0.000   10.000    0.000    0.000 
#    0.000    0.000    0.000    0.000    0.000    0.000 
#
# Total GULP energy -133957.279219 kJ/mol
# GULP energy per Si atom -5581.553301 kJ/mol
# Density = 1.994331 g / cm^3
# Si number density = 19.988801 Si / 1000 Ang^3
#
#
#
# Elastic Constant Matrix: (Units=GPa)
#
#
# Indices 1 2 3 4 5 6 
#
# 1 57.3032 9.4758 -0.5219 -0.0189 3.2310 0.0067
# 2 9.4758 126.2657 1.0374 -0.0130 -15.3919 0.0032
# 3 -0.5219 1.0374 89.6377 -0.0952 7.1428 0.0202
# 4 -0.0189 -0.0130 -0.0952 133.6011 -0.0133 -33.7182
# 5 3.2310 -15.3919 7.1428 -0.0133 29.6502 0.0050
# 6 0.0067 0.0032 0.0202 -33.7182 0.0050 4.3596
#
#
#
# Elastic Compliance Matrix: (Units=1/GPa)
#
#
# Indices 1 2 3 4 5 6 
#
# 1 0.017900 -0.001702 0.000357 0.000004 -0.002920 0.000007
# 2 -0.001702 0.008635 -0.000491 0.000001 0.004786 0.000001
# 3 0.000357 -0.000491 0.011406 0.000005 -0.003042 -0.000012
# 4 0.000004 0.000001 0.000005 -0.007863 0.000006 -0.060812
# 5 -0.002920 0.004786 -0.003042 0.000006 0.037262 0.000016
# 6 0.000007 0.000001 -0.000012 -0.060812 0.000016 -0.240954
#
#
# Mechanical properties :
#
#
# Convention : Reuss Voigt Hill
#
# Bulk Modulus (GPa) = 29.18187 32.57658 30.87922
# Shear Modulus (GPa) = -31.54250 51.06986 9.76368
#
# Velocity S-wave (km/s) = -3.97672 5.06011 2.21251
# Velocity P-wave (km/s) = 2.54067 7.10439 4.69134
#
# Compressibility (1/GPa) = 0.03426785
#
# Stress axis : x y z
#
# Youngs Moduli (GPa) = 55.86455 115.80687 87.67192
#
# Poissons Ratio (x) = 0.19713 -0.03127
# Poissons Ratio (y) = 0.09510 0.04307
# Poissons Ratio (z) = -0.01992 0.05689
#
# Static dielectric constant tensor:
#      x y z
#    x 1.665880 0.000010 0.040040 
#    y 0.000010 1.723230 0.000000 
#    z 0.040040 0.000000 1.690810 
# 
# From -- ./inp_files/219597.got.cif
#   From: 2010.05.17/outbox.cif.g08.bks.cpg/sg12_110_cif.got.tgz:219597.got - 2010.06.03 13:09:07.
