data_PCOD9201772
_publ_section_title
;
Structure prediction by ZEFSAII (Michael W. Deem and Ramdas Pophale) SiO2 
 PCOD9201772
Probable space group: C 2/M
;
_chemical_formula_sum "Si O2"
_cell_formula_units_Z 40
_cell_length_a 19.622738
_cell_length_b 13.994572
_cell_length_c 19.263820
_cell_angle_alpha 90.000000
_cell_angle_beta 21.647733
_cell_angle_gamma 90.000000
_cell_volume 1951.502621
_symmetry_space_group_name_H-M "C 2/M"
_symmetry_group_IT_number 12
_symmetry_cell_setting 'monoclinic'
loop_
_space_group_symop_operation_xyz
x,y,z
-x,y,-z
-x,-y,-z
x,-y,z
1/2+x,1/2+y,z
1/2-x,1/2+y,-z
1/2-x,1/2-y,-z
1/2+x,1/2-y,z
loop_
_atom_site_type_symbol
_atom_site_label
_atom_site_fract_x
_atom_site_fract_y
_atom_site_fract_z
Si Si1 0.780932 0.387159 0.943197
Si Si2 0.764445 0.743414 0.657867
Si Si3 0.436571 0.272901 0.282216
Si Si4 0.303940 0.226544 0.779763
Si Si5 0.978220 0.604462 0.938193
O O1 0.804167 0.500000 0.923418
O O2 0.778218 0.350445 0.865194
O O3 0.944790 0.325584 0.823849
O O4 0.588490 0.351318 0.159739
O O5 0.639012 0.689961 0.720543
O O6 0.742245 0.707273 0.758035
O O7 0.977346 0.743857 0.435294
O O8 0.674580 0.848283 0.733607
O O9 0.250000 0.250000 0.500000
O O10 0.187098 0.319527 0.912457
O O11 0.943753 0.500000 0.940565
O O12 0.000000 0.594400 0.000000
#
# Coordination Sequence:
#
# PCOD9201772 Si02
#       5
#     8   8   8   8   8
#     4  11  25  44  68  97 127 168 219 268 319 385
#     4  10  20  37  64  91 126 172 206 258 321 376
#     4  11  23  44  65  89 130 170 211 261 318 381
#     4  10  20  39  64  92 131 161 210 268 318 375
#     4   9  18  33  56  86 122 162 205 253 307 365
#
# _framework density 20.497026000000002
#
# number of rings (size 3 to 8) (size 9 to 14) (size 15 to 20)
#    0.000    1.800    4.000    0.000    0.000    2.400 
#    0.000    8.000    0.000    0.000    0.000    0.000 
#    0.000    0.000    0.000    0.000    0.000    0.000 
#
# Total GULP energy -111382.066237 kJ/mol
# GULP energy per Si atom -5569.103312 kJ/mol
# Density = 2.045037 g / cm^3
# Si number density = 20.497026 Si / 1000 Ang^3
#
#
#
# Elastic Constant Matrix: (Units=GPa)
#
#
# Indices 1 2 3 4 5 6 
#
# 1 158.7456 24.3973 42.1374 0.0013 -12.7183 0.0011
# 2 24.3973 97.6327 26.8504 0.0078 -7.1482 0.0081
# 3 42.1374 26.8504 144.4495 0.0067 -8.5181 0.0073
# 4 0.0013 0.0078 0.0067 -12.3386 -0.0008 -8.9323
# 5 -12.7183 -7.1482 -8.5181 -0.0008 35.0651 -0.0010
# 6 0.0011 0.0081 0.0073 -8.9323 -0.0010 14.9776
#
#
#
# Elastic Compliance Matrix: (Units=1/GPa)
#
#
# Indices 1 2 3 4 5 6 
#
# 1 0.007092 -0.001153 -0.001742 -0.000001 0.001914 0.000000
# 2 -0.001153 0.011087 -0.001639 0.000007 0.001444 -0.000001
# 3 -0.001742 -0.001639 0.007790 0.000003 0.000927 -0.000001
# 4 -0.000001 0.000007 0.000003 -0.056607 0.000000 -0.033759
# 5 0.001914 0.001444 0.000927 0.000000 0.029732 0.000000
# 6 0.000000 -0.000001 -0.000001 -0.033759 0.000000 0.046633
#
#
# Mechanical properties :
#
#
# Convention : Reuss Voigt Hill
#
# Bulk Modulus (GPa) = 59.16686 65.28866 62.22776
# Shear Modulus (GPa) = 82.74029 28.03698 55.38864
#
# Velocity S-wave (km/s) = 6.36039 3.70247 5.20398
# Velocity P-wave (km/s) = 9.10320 7.08517 8.15683
#
# Compressibility (1/GPa) = 0.01690135
#
# Stress axis : x y z
#
# Youngs Moduli (GPa) = 140.99829 90.19424 128.36538
#
# Poissons Ratio (x) = 0.10401 0.22357
# Poissons Ratio (y) = 0.16259 0.21044
# Poissons Ratio (z) = 0.24557 0.14786
#
# Static dielectric constant tensor:
#      x y z
#    x 1.881300 0.000000 0.056870 
#    y 0.000000 1.722040 0.000000 
#    z 0.056870 0.000000 1.730610 
# 
# From -- ./inp_files/322052.got.cif
#   From: 2010.05.17/outbox.cif.g08.bks.cpg/sg12_162_cif.got.tgz:322052.got - 2010.06.03 13:09:07.
