data_PCOD9201792
_publ_section_title
;
Structure prediction by ZEFSAII (Michael W. Deem and Ramdas Pophale) SiO2 
 PCOD9201792
Probable space group: C 2/M
;
_chemical_formula_sum "Si O2"
_cell_formula_units_Z 56
_cell_length_a 11.867443
_cell_length_b 17.074141
_cell_length_c 24.686459
_cell_angle_alpha 90.000000
_cell_angle_beta 29.847314
_cell_angle_gamma 90.000000
_cell_volume 2489.511078
_symmetry_space_group_name_H-M "C 2/M"
_symmetry_group_IT_number 12
_symmetry_cell_setting 'monoclinic'
loop_
_space_group_symop_operation_xyz
x,y,z
-x,y,-z
-x,-y,-z
x,-y,z
1/2+x,1/2+y,z
1/2-x,1/2+y,-z
1/2-x,1/2-y,-z
1/2+x,1/2-y,z
loop_
_atom_site_type_symbol
_atom_site_label
_atom_site_fract_x
_atom_site_fract_y
_atom_site_fract_z
Si Si1 0.680297 0.154298 0.202414
Si Si2 0.606691 0.589128 0.324603
Si Si3 0.529212 0.194142 0.433658
Si Si4 0.092837 0.338931 0.120908
Si Si5 0.468500 0.326794 0.753785
Si Si6 0.105622 0.150647 0.101031
Si Si7 0.241662 0.353919 0.554744
O O1 0.717552 0.133612 0.123989
O O2 0.672507 0.249832 0.204530
O O3 0.426208 0.126562 0.326082
O O4 0.875020 0.131214 0.163842
O O5 0.667539 0.500000 0.289992
O O6 0.497101 0.624994 0.315665
O O7 0.439839 0.594589 0.445986
O O8 0.833237 0.638638 0.237220
O O9 0.500000 0.143775 0.500000
O O10 0.795148 0.206954 0.321309
O O11 0.370679 0.270707 0.507701
O O12 0.439874 0.156000 0.417270
O O13 0.119880 0.245271 0.103156
O O14 0.195264 0.373603 0.022919
O O15 0.378126 0.375836 0.843038
#
# Coordination Sequence:
#
# PCOD9201792 Si02
#       7
#     8   8   8   8   8   8   8
#     4  11  19  34  66  93 125 145 197 267 316 358
#     4  12  26  43  58  84 129 171 207 240 294 384
#     4  11  18  31  59  91 124 150 189 260 309 358
#     4  10  23  38  58  93 126 159 200 247 316 354
#     4  11  20  35  60  93 122 160 199 247 316 356
#     4  10  20  37  64  94 122 147 196 272 311 360
#     4  11  21  33  58  93 118 159 198 244 316 356
#
# _framework density 22.494377
#
# number of rings (size 3 to 8) (size 9 to 14) (size 15 to 20)
#    0.000    1.143    5.714    3.000    0.000    0.571 
#    0.000    4.286    0.000    3.429    0.000    0.000 
#    0.000    0.000    0.000    0.000    0.000    0.000 
#
# Total GULP energy -156125.234583 kJ/mol
# GULP energy per Si atom -5575.901235 kJ/mol
# Density = 2.244318 g / cm^3
# Si number density = 22.494377 Si / 1000 Ang^3
#
#
#
# Elastic Constant Matrix: (Units=GPa)
#
#
# Indices 1 2 3 4 5 6 
#
# 1 89.8020 -3.0753 30.2145 0.0078 11.0768 -0.0013
# 2 -3.0753 22.3358 -2.0772 0.0017 7.6635 -0.0009
# 3 30.2145 -2.0772 110.7790 0.0241 35.6592 0.0018
# 4 0.0078 0.0017 0.0241 39.2470 0.0063 -1.2478
# 5 11.0768 7.6635 35.6592 0.0063 34.7957 0.0030
# 6 -0.0013 -0.0009 0.0018 -1.2478 0.0030 -2.3576
#
#
#
# Elastic Compliance Matrix: (Units=1/GPa)
#
#
# Indices 1 2 3 4 5 6 
#
# 1 0.012343 0.001911 -0.002881 -0.000001 -0.001398 -0.000011
# 2 0.001911 0.052057 0.006478 -0.000005 -0.018713 -0.000037
# 3 -0.002881 0.006478 0.015069 -0.000007 -0.015953 -0.000006
# 4 -0.000001 -0.000005 -0.000007 0.025058 0.000005 -0.013262
# 5 -0.001398 -0.018713 -0.015953 0.000005 0.049655 0.000056
# 6 -0.000011 -0.000037 -0.000006 -0.013262 0.000056 -0.417137
#
#
# Mechanical properties :
#
#
# Convention : Reuss Voigt Hill
#
# Bulk Modulus (GPa) = 11.05126 30.33787 20.69457
# Shear Modulus (GPa) = -20.50774 27.52734 3.50980
#
# Velocity S-wave (km/s) = -3.02268 3.50200 1.25048
# Velocity P-wave (km/s) = 2.69418 5.46518 3.36226
#
# Compressibility (1/GPa) = 0.09048745
#
# Stress axis : x y z
#
# Youngs Moduli (GPa) = 81.01965 19.20962 66.35981
#
# Poissons Ratio (x) = -0.03671 0.19115
# Poissons Ratio (y) = -0.15484 -0.42991
# Poissons Ratio (z) = 0.23338 -0.12445
#
# Static dielectric constant tensor:
#      x y z
#    x 1.899970 0.000000 0.061170 
#    y 0.000000 1.826580 0.000010 
#    z 0.061170 0.000010 1.971510 
# 
# From -- ./inp_files/336749.got.cif
#   From: 2010.05.17/outbox.cif.g08.bks.cpg/sg12_169_cif.got.tgz:336749.got - 2010.06.03 13:09:07.
