data_PCOD9201691
_publ_section_title
;
Structure prediction by ZEFSAII (Michael W. Deem and Ramdas Pophale) SiO2 
 PCOD9201691
Probable space group: C 2/M
;
_chemical_formula_sum "Si O2"
_cell_formula_units_Z 56
_cell_length_a 12.164022
_cell_length_b 14.636228
_cell_length_c 26.849003
_cell_angle_alpha 90.000000
_cell_angle_beta 30.474507
_cell_angle_gamma 90.000000
_cell_volume 2424.237632
_symmetry_space_group_name_H-M "C 2/M"
_symmetry_group_IT_number 12
_symmetry_cell_setting 'monoclinic'
loop_
_space_group_symop_operation_xyz
x,y,z
-x,y,-z
-x,-y,-z
x,-y,z
1/2+x,1/2+y,z
1/2-x,1/2+y,-z
1/2-x,1/2-y,-z
1/2+x,1/2-y,z
loop_
_atom_site_type_symbol
_atom_site_label
_atom_site_fract_x
_atom_site_fract_y
_atom_site_fract_z
Si Si1 0.344730 0.392750 0.263757
Si Si2 0.384200 0.609104 0.425993
Si Si3 0.338541 0.893046 0.209790
Si Si4 0.439686 0.895304 0.355639
Si Si5 0.755112 0.898674 0.114685
Si Si6 0.232220 0.735294 0.395074
Si Si7 0.296806 0.192244 0.116169
O O1 0.350161 0.500000 0.276223
O O2 0.226836 0.327905 0.349295
O O3 0.587594 0.352857 0.170469
O O4 0.188002 0.388185 0.277108
O O5 0.362504 0.500000 0.426552
O O6 0.642040 0.632247 0.324657
O O7 0.226483 0.629066 0.534030
O O8 0.304031 0.666468 0.410470
O O9 0.572690 0.882367 0.143485
O O10 0.318892 0.847186 0.163386
O O11 0.308816 0.000000 0.211753
O O12 0.385662 0.822807 0.334594
O O13 0.389586 0.000000 0.362553
O O14 0.771970 0.800421 0.133622
O O15 0.701890 0.000000 0.158160
O O16 0.000000 0.909005 0.000000
O O17 0.000000 0.772018 0.500000
O O18 0.500000 0.175697 0.000000
#
# Coordination Sequence:
#
# PCOD9201691 Si02
#       7
#     8   8   8   8   8   8   8
#     4  11  24  42  64  90 125 167 209 257 313 373
#     4  10  20  37  63  93 126 164 208 253 303 367
#     4  10  21  39  64  93 127 166 208 257 310 368
#     4  10  24  43  62  92 130 166 207 258 310 367
#     4   9  21  42  65  89 121 164 210 252 305 373
#     4  12  23  36  65  94 125 164 212 250 306 370
#     4  11  24  39  65  98 124 158 210 266 314 363
#
# _framework density 23.100045999999999
#
# number of rings (size 3 to 8) (size 9 to 14) (size 15 to 20)
#    0.000    1.571    2.857    1.286    2.000    4.286 
#    0.000    0.714    0.000    6.857    0.000    0.000 
#    0.000    0.000    0.000    0.000    0.000    0.000 
#
# Total GULP energy -156409.864989 kJ/mol
# GULP energy per Si atom -5586.066607 kJ/mol
# Density = 2.304747 g / cm^3
# Si number density = 23.100046 Si / 1000 Ang^3
#
#
#
# Elastic Constant Matrix: (Units=GPa)
#
#
# Indices 1 2 3 4 5 6 
#
# 1 60.2797 40.8968 41.1181 0.0026 -13.6713 0.0039
# 2 40.8968 103.7766 8.4957 -0.0088 -5.1710 -0.0128
# 3 41.1181 8.4957 158.8996 -0.0225 -16.1798 -0.0082
# 4 0.0026 -0.0088 -0.0225 206.3682 -0.0020 134.3623
# 5 -13.6713 -5.1710 -16.1798 -0.0020 35.8599 -0.0061
# 6 0.0039 -0.0128 -0.0082 134.3623 -0.0061 154.1537
#
#
#
# Elastic Compliance Matrix: (Units=1/GPa)
#
#
# Indices 1 2 3 4 5 6 
#
# 1 0.030008 -0.010950 -0.006473 -0.000001 0.006941 -0.000001
# 2 -0.010950 0.013725 0.001966 0.000000 -0.001308 0.000002
# 3 -0.006473 0.001966 0.008009 0.000001 0.001429 0.000000
# 4 -0.000001 0.000000 0.000001 0.011204 -0.000001 -0.009765
# 5 0.006941 -0.001308 0.001429 -0.000001 0.030989 0.000002
# 6 -0.000001 0.000002 0.000000 -0.009765 0.000002 0.014999
#
#
# Mechanical properties :
#
#
# Convention : Reuss Voigt Hill
#
# Bulk Modulus (GPa) = 48.01018 55.99746 52.00382
# Shear Modulus (GPa) = 34.06282 94.77271 64.41777
#
# Velocity S-wave (km/s) = 3.84419 6.41219 5.28649
# Velocity P-wave (km/s) = 6.36651 8.89468 7.73459
#
# Compressibility (1/GPa) = 0.02082891
#
# Stress axis : x y z
#
# Youngs Moduli (GPa) = 33.32487 72.85935 124.86505
#
# Poissons Ratio (x) = 0.79780 0.80823
# Poissons Ratio (y) = 0.36490 -0.24554
# Poissons Ratio (z) = 0.21571 -0.14327
#
# Static dielectric constant tensor:
#      x y z
#    x 1.872480 0.000000 0.008720 
#    y 0.000000 1.842690 0.000000 
#    z 0.008720 0.000000 1.915780 
# 
# From -- ./inp_files/374181.got.cif
#   From: 2010.05.17/outbox.cif.g08.bks.cpg/sg12_188_cif.got.tgz:374181.got - 2010.06.03 13:09:07.
