data_PCOD9201615
_publ_section_title
;
Structure prediction by ZEFSAII (Michael W. Deem and Ramdas Pophale) SiO2 
 PCOD9201615
Probable space group: C 2/M
;
_chemical_formula_sum "Si O2"
_cell_formula_units_Z 40
_cell_length_a 9.759429
_cell_length_b 23.559296
_cell_length_c 7.893032
_cell_angle_alpha 90.000000
_cell_angle_beta 75.073230
_cell_angle_gamma 90.000000
_cell_volume 1753.568400
_symmetry_space_group_name_H-M "C 2/M"
_symmetry_group_IT_number 12
_symmetry_cell_setting 'monoclinic'
loop_
_space_group_symop_operation_xyz
x,y,z
-x,y,-z
-x,-y,-z
x,-y,z
1/2+x,1/2+y,z
1/2-x,1/2+y,-z
1/2-x,1/2-y,-z
1/2+x,1/2-y,z
loop_
_atom_site_type_symbol
_atom_site_label
_atom_site_fract_x
_atom_site_fract_y
_atom_site_fract_z
Si Si1 0.727262 0.500000 0.338882
Si Si2 0.085499 0.319563 0.147267
Si Si3 0.664802 0.378545 0.787126
Si Si4 0.077302 0.803329 0.295078
Si Si5 0.437175 0.500000 0.245609
Si Si6 0.321882 0.878199 0.375033
O O1 0.603608 0.500000 0.237790
O O2 0.642424 0.500000 0.545646
O O3 0.817632 0.442625 0.308730
O O4 0.231775 0.354185 0.103426
O O5 0.116958 0.256199 0.199914
O O6 0.974192 0.350152 0.307930
O O7 0.000000 0.317970 0.000000
O O8 0.532077 0.338191 0.786774
O O9 0.611911 0.442481 0.828262
O O10 0.758124 0.378077 0.584270
O O11 0.211303 0.841194 0.301505
O O12 0.000000 0.791674 0.500000
#
# Coordination Sequence:
#
# PCOD9201615 Si02
#       6
#     4   8   8   8   4   8
#     4   9  16  33  63  94 114 134 179 240 293 340
#     4  12  26  39  52  79 122 162 195 230 273 332
#     4  10  20  37  63  90 115 144 184 237 291 340
#     4  10  20  37  63  89 112 144 190 240 287 338
#     4   9  16  33  63  94 114 134 179 240 293 340
#     4  10  20  37  63  90 115 144 184 237 291 340
#
# _framework density 22.810631000000001
#
# number of rings (size 3 to 8) (size 9 to 14) (size 15 to 20)
#    0.000    1.800    2.000    3.000    0.000    7.200 
#    0.000    5.000    0.000    1.200    0.000    0.000 
#    0.000    0.000    0.000    0.000    0.000    0.000 
#
# Total GULP energy -112033.168242 kJ/mol
# GULP energy per Si atom -5601.658412 kJ/mol
# Density = 2.275871 g / cm^3
# Si number density = 22.810631 Si / 1000 Ang^3
#
#
#
# Elastic Constant Matrix: (Units=GPa)
#
#
# Indices 1 2 3 4 5 6 
#
# 1 102.3651 47.4640 28.2140 0.0000 24.4661 0.0000
# 2 47.4640 180.3040 29.5925 0.0000 20.9979 0.0000
# 3 28.2140 29.5925 88.9548 0.0000 11.4999 0.0000
# 4 0.0000 0.0000 0.0000 -14.8723 0.0000 -0.5532
# 5 24.4661 20.9979 11.4999 0.0000 40.2805 0.0000
# 6 0.0000 0.0000 0.0000 -0.5532 0.0000 -63.2747
#
#
#
# Elastic Compliance Matrix: (Units=1/GPa)
#
#
# Indices 1 2 3 4 5 6 
#
# 1 0.012965 -0.002298 -0.002580 0.000000 -0.005941 0.000000
# 2 -0.002298 0.006548 -0.001234 0.000000 -0.001665 0.000000
# 3 -0.002580 -0.001234 0.012652 0.000000 -0.001402 0.000000
# 4 0.000000 0.000000 0.000000 -0.067261 0.000000 0.000588
# 5 -0.005941 -0.001665 -0.001402 0.000000 0.029702 0.000000
# 6 0.000000 0.000000 0.000000 0.000588 0.000000 -0.015809
#
#
# Mechanical properties :
#
#
# Convention : Reuss Voigt Hill
#
# Bulk Modulus (GPa) = 50.14774 64.68500 57.41637
# Shear Modulus (GPa) = -2143.44640 10.18360 -1066.63140
#
# Velocity S-wave (km/s) = -30.68729 2.11521 -21.64758
# Velocity P-wave (km/s) = 35.12237 5.86382 24.48670
#
# Compressibility (1/GPa) = 0.01994108
#
# Stress axis : x y z
#
# Youngs Moduli (GPa) = 77.12891 152.72911 79.04092
#
# Poissons Ratio (x) = 0.35094 0.20391
# Poissons Ratio (y) = 0.17723 0.09754
# Poissons Ratio (z) = 0.19898 0.18848
#
# Static dielectric constant tensor:
#      x y z
#    x 1.786490 0.000000 -0.026060 
#    y 0.000000 1.784370 0.000000 
#    z -0.026060 0.000000 1.938120 
# 
# From -- ./inp_files/39272.got.cif
#   From: 2010.05.17/outbox.cif.g08.bks.cpg/sg12_20_cif.got.tgz:39272.got - 2010.06.03 13:09:07.
