data_PCOD9201006
_publ_section_title
;
Structure prediction by ZEFSAII (Michael W. Deem and Ramdas Pophale) SiO2 
 PCOD9201006
Probable space group: C 2/M
;
_chemical_formula_sum "Si O2"
_cell_formula_units_Z 52
_cell_length_a 13.617384
_cell_length_b 11.202552
_cell_length_c 21.955613
_cell_angle_alpha 90.000000
_cell_angle_beta 128.625076
_cell_angle_gamma 90.000000
_cell_volume 2616.644831
_symmetry_space_group_name_H-M "C 2/M"
_symmetry_group_IT_number 12
_symmetry_cell_setting 'monoclinic'
loop_
_space_group_symop_operation_xyz
x,y,z
-x,y,-z
-x,-y,-z
x,-y,z
1/2+x,1/2+y,z
1/2-x,1/2+y,-z
1/2-x,1/2-y,-z
1/2+x,1/2-y,z
loop_
_atom_site_type_symbol
_atom_site_label
_atom_site_fract_x
_atom_site_fract_y
_atom_site_fract_z
Si Si1 0.362322 0.867169 0.243819
Si Si2 0.550054 0.638118 0.903630
Si Si3 0.500000 0.207504 0.000000
Si Si4 0.592435 0.363755 0.480678
Si Si5 0.168289 0.861757 0.272046
Si Si6 0.232060 0.132596 0.865359
Si Si7 0.866885 0.707750 0.622762
O O1 0.297340 0.855195 0.284712
O O2 0.317340 0.749994 0.189286
O O3 0.511821 0.864511 0.308459
O O4 0.323020 0.000000 0.204707
O O5 0.521575 0.500000 0.907139
O O6 0.553328 0.711507 0.966255
O O7 0.438854 0.683501 0.816019
O O8 0.674046 0.641691 0.910551
O O9 0.617973 0.137088 0.072463
O O10 0.500000 0.325038 0.500000
O O11 0.557209 0.500000 0.451464
O O12 0.738211 0.360300 0.557951
O O13 0.589505 0.280423 0.420276
O O14 0.167105 0.794493 0.334712
O O15 0.138517 0.000000 0.272283
O O16 0.192396 0.000000 0.826139
#
# Coordination Sequence:
#
# PCOD9201006 Si02
#       7
#     8   8   4   8   8   8   8
#     4  11  23  40  63  93 125 159 208 263 305 360
#     4  10  21  38  62  89 122 162 207 252 308 375
#     4  12  22  40  64  90 121 164 209 262 307 360
#     4  10  22  39  60  90 125 161 200 246 306 369
#     4  10  20  37  60  89 122 161 206 252 306 370
#     4  11  24  42  62  89 126 164 205 256 316 375
#     4  11  21  38  64  89 121 162 205 253 304 359
#
# _framework density 19.872776999999999
#
# number of rings (size 3 to 8) (size 9 to 14) (size 15 to 20)
#    0.000    1.385    3.077    2.769    0.000    1.231 
#    0.000    4.615    0.000    7.385    0.000    0.000 
#    0.000    0.000    0.000    0.000    0.000    0.000 
#
# Total GULP energy -145081.674330 kJ/mol
# GULP energy per Si atom -5580.064397 kJ/mol
# Density = 1.982755 g / cm^3
# Si number density = 19.872777 Si / 1000 Ang^3
#
#
#
# Elastic Constant Matrix: (Units=GPa)
#
#
# Indices 1 2 3 4 5 6 
#
# 1 96.7677 40.2041 12.7190 0.0000 -2.1464 0.0000
# 2 40.2041 125.3832 46.5191 0.0000 -18.1626 0.0000
# 3 12.7190 46.5191 56.2037 0.0000 -0.8816 0.0000
# 4 0.0000 0.0000 0.0000 23.9832 0.0000 0.8371
# 5 -2.1464 -18.1626 -0.8816 0.0000 41.2313 0.0000
# 6 0.0000 0.0000 0.0000 0.8371 0.0000 24.2710
#
#
#
# Elastic Compliance Matrix: (Units=1/GPa)
#
#
# Indices 1 2 3 4 5 6 
#
# 1 0.012001 -0.004355 0.000869 0.000000 -0.001275 0.000000
# 2 -0.004355 0.014158 -0.010642 0.000000 0.005782 0.000000
# 3 0.000869 -0.010642 0.026340 0.000000 -0.004079 0.000000
# 4 0.000000 0.000000 0.000000 0.041746 0.000000 -0.001440
# 5 -0.001275 0.005782 -0.004079 0.000000 0.026647 0.000000
# 6 0.000000 0.000000 0.000000 -0.001440 0.000000 0.041251
#
#
# Mechanical properties :
#
#
# Convention : Reuss Voigt Hill
#
# Bulk Modulus (GPa) = 41.25016 53.02653 47.13834
# Shear Modulus (GPa) = 25.19130 29.82459 27.50795
#
# Velocity S-wave (km/s) = 3.56424 3.87819 3.72452
# Velocity P-wave (km/s) = 6.14334 6.84067 6.50136
#
# Compressibility (1/GPa) = 0.02424233
#
# Stress axis : x y z
#
# Youngs Moduli (GPa) = 83.32642 70.63110 37.96480
#
# Poissons Ratio (x) = 0.30761 -0.03299
# Poissons Ratio (y) = 0.36290 0.40403
# Poissons Ratio (z) = -0.07240 0.75167
#
# Static dielectric constant tensor:
#      x y z
#    x 1.702530 0.000000 0.038270 
#    y 0.000000 1.723570 0.000000 
#    z 0.038270 0.000000 1.700560 
# 
# From -- ./inp_files/304820.got.cif
#   From: 2010.05.17/outbox.cif.g08.bks.cpg/sg12_153_cif.got.tgz:304820.got - 2010.06.03 13:09:07.
