data_PCOD9201115
_publ_section_title
;
Structure prediction by ZEFSAII (Michael W. Deem and Ramdas Pophale) SiO2 
 PCOD9201115
Probable space group: C 2/M
;
_chemical_formula_sum "Si O2"
_cell_formula_units_Z 64
_cell_length_a 19.380455
_cell_length_b 8.851159
_cell_length_c 31.650268
_cell_angle_alpha 90.000000
_cell_angle_beta 139.597183
_cell_angle_gamma 90.000000
_cell_volume 3519.021724
_symmetry_space_group_name_H-M "C 2/M"
_symmetry_group_IT_number 12
_symmetry_cell_setting 'monoclinic'
loop_
_space_group_symop_operation_xyz
x,y,z
-x,y,-z
-x,-y,-z
x,-y,z
1/2+x,1/2+y,z
1/2-x,1/2+y,-z
1/2-x,1/2-y,-z
1/2+x,1/2-y,z
loop_
_atom_site_type_symbol
_atom_site_label
_atom_site_fract_x
_atom_site_fract_y
_atom_site_fract_z
Si Si1 0.275618 0.679264 0.057143
Si Si2 0.299629 0.179283 0.204563
Si Si3 0.839324 0.820066 0.313239
Si Si4 0.375171 0.321013 0.945256
Si Si5 0.914386 0.180470 0.575425
Si Si6 0.730921 0.179558 0.422821
Si Si7 0.812304 0.179823 0.686972
Si Si8 0.453541 0.818839 0.198458
O O1 0.287211 0.500000 0.059457
O O2 0.180510 0.724014 0.044550
O O3 0.380770 0.750956 0.127390
O O4 0.250000 0.750000 0.000000
O O5 0.309089 0.271630 0.251735
O O6 0.189550 0.207047 0.128148
O O7 0.392687 0.216714 0.214206
O O8 0.306583 0.000000 0.217096
O O9 0.765300 0.737601 0.312470
O O10 0.963891 0.780285 0.377079
O O11 0.828079 0.000000 0.313172
O O12 0.359335 0.500000 0.947681
O O13 0.500000 0.292030 0.000000
O O14 0.836058 0.212877 0.499676
O O15 0.867525 0.266562 0.594071
O O16 0.908429 0.000000 0.580861
O O17 0.729932 0.263865 0.378036
O O18 0.724468 0.000000 0.412822
O O19 0.929225 0.251075 0.747257
O O20 0.819777 0.000000 0.691202
O O21 0.456842 0.000000 0.196275
#
# Coordination Sequence:
#
# PCOD9201115 Si02
#       8
#     8   8   8   8   8   8   8   8
#     4  11  22  37  58  85 118 153 191 234 281 334
#     4   9  19  36  58  83 110 142 183 232 283 335
#     4  11  23  38  56  80 113 150 188 231 280 333
#     4   9  19  37  59  82 112 150 191 235 283 335
#     4   9  20  38  60  85 112 147 190 232 276 332
#     4  10  20  37  61  86 113 146 187 233 279 331
#     4  12  25  39  56  82 116 150 187 231 284 340
#     4  10  21  40  63  85 111 146 190 235 282 336
#
# _framework density 18.186872000000001
#
# number of rings (size 3 to 8) (size 9 to 14) (size 15 to 20)
#    0.000    1.875    0.000    4.875    0.000    7.750 
#    0.000    6.250    0.000    0.000    0.000    0.000 
#    0.000    0.000    0.000    0.000    0.000    0.000 
#
# Total GULP energy -178815.036828 kJ/mol
# GULP energy per Si atom -5587.969901 kJ/mol
# Density = 1.814548 g / cm^3
# Si number density = 18.186872 Si / 1000 Ang^3
#
#
#
# Elastic Constant Matrix: (Units=GPa)
#
#
# Indices 1 2 3 4 5 6 
#
# 1 117.6894 74.5686 89.7829 0.0000 -0.4638 0.0000
# 2 74.5686 100.2278 67.2387 0.0000 -5.9239 0.0001
# 3 89.7829 67.2387 107.1885 0.0000 0.8171 0.0000
# 4 0.0000 0.0000 0.0000 32.2284 0.0000 -4.6973
# 5 -0.4638 -5.9239 0.8171 0.0000 32.8718 0.0000
# 6 0.0000 0.0001 0.0000 -4.6973 0.0000 34.5571
#
#
#
# Elastic Compliance Matrix: (Units=1/GPa)
#
#
# Indices 1 2 3 4 5 6 
#
# 1 0.027229 -0.008642 -0.017381 0.000000 -0.000741 0.000000
# 2 -0.008642 0.020352 -0.005556 0.000000 0.003684 0.000000
# 3 -0.017381 -0.005556 0.027388 0.000000 -0.001927 0.000000
# 4 0.000000 0.000000 0.000000 0.031656 0.000000 0.004303
# 5 -0.000741 0.003684 -0.001927 0.000000 0.031122 0.000000
# 6 0.000000 0.000000 0.000000 0.004303 0.000000 0.029522
#
#
# Mechanical properties :
#
#
# Convention : Reuss Voigt Hill
#
# Bulk Modulus (GPa) = 84.66623 87.58735 86.12679
# Shear Modulus (GPa) = 21.33432 26.16585 23.75008
#
# Velocity S-wave (km/s) = 3.42871 3.79716 3.61763
# Velocity P-wave (km/s) = 7.89489 8.21516 8.05662
#
# Compressibility (1/GPa) = 0.01181108
#
# Stress axis : x y z
#
# Youngs Moduli (GPa) = 36.72542 49.13561 36.51252
#
# Poissons Ratio (x) = 0.42462 0.63462
# Poissons Ratio (y) = 0.31738 0.20287
# Poissons Ratio (z) = 0.63832 0.27300
#
# Static dielectric constant tensor:
#      x y z
#    x 1.589160 0.000000 0.007300 
#    y 0.000000 1.606830 0.000000 
#    z 0.007300 0.000000 1.614800 
# 
# From -- ./inp_files/378305.got.cif
#   From: 2010.05.17/outbox.cif.g08.bks.cpg/sg12_190_cif.got.tgz:378305.got - 2010.06.03 13:09:07.
