data_PCOD9201015
_publ_section_title
;
Structure prediction by ZEFSAII (Michael W. Deem and Ramdas Pophale) SiO2 
 PCOD9201015
Probable space group: C 2/M
;
_chemical_formula_sum "Si O2"
_cell_formula_units_Z 64
_cell_length_a 15.600617
_cell_length_b 16.790695
_cell_length_c 16.380751
_cell_angle_alpha 90.000000
_cell_angle_beta 48.075357
_cell_angle_gamma 90.000000
_cell_volume 3192.503208
_symmetry_space_group_name_H-M "C 2/M"
_symmetry_group_IT_number 12
_symmetry_cell_setting 'monoclinic'
loop_
_space_group_symop_operation_xyz
x,y,z
-x,y,-z
-x,-y,-z
x,-y,z
1/2+x,1/2+y,z
1/2-x,1/2+y,-z
1/2-x,1/2-y,-z
1/2+x,1/2-y,z
loop_
_atom_site_type_symbol
_atom_site_label
_atom_site_fract_x
_atom_site_fract_y
_atom_site_fract_z
Si Si1 0.892767 0.407806 0.849261
Si Si2 0.368304 0.092886 0.371458
Si Si3 0.664633 0.403587 0.612644
Si Si4 0.591774 0.313257 0.821062
Si Si5 0.614590 0.142251 0.966904
Si Si6 0.282923 0.142273 0.255071
Si Si7 0.336249 0.687419 0.042555
Si Si8 0.958410 0.091508 0.619521
O O1 0.877896 0.500000 0.836657
O O2 0.774408 0.361661 0.912535
O O3 0.003792 0.374247 0.729643
O O4 0.916372 0.402378 0.931398
O O5 0.284411 0.125912 0.495000
O O6 0.299016 0.097860 0.330091
O O7 0.385492 0.000000 0.379702
O O8 0.669950 0.500000 0.615528
O O9 0.638076 0.365275 0.716744
O O10 0.560154 0.385335 0.616426
O O11 0.649059 0.225447 0.775917
O O12 0.631767 0.339889 0.885890
O O13 0.451884 0.316672 0.913558
O O14 0.665357 0.097424 0.857022
O O15 0.693118 0.218444 0.936387
O O16 0.500000 0.179847 0.000000
O O17 0.150228 0.149895 0.314708
O O18 0.000000 0.088847 0.500000
O O19 0.922922 0.000000 0.663416
#
# Coordination Sequence:
#
# PCOD9201015 Si02
#       8
#     8   8   8   8   8   8   8   8
#     4  11  24  37  60  94 119 153 202 250 296 350
#     4  10  20  38  59  84 124 162 191 235 302 361
#     4  10  22  40  63  88 118 162 202 243 301 359
#     4  10  22  41  62  86 115 157 205 251 298 350
#     4  11  20  39  61  86 120 160 193 231 299 370
#     4  11  20  36  58  89 122 159 196 238 295 355
#     4  10  21  44  62  82 119 159 199 247 308 354
#     4  10  20  37  60  89 126 162 194 238 302 360
#
# _framework density 20.046965
#
# number of rings (size 3 to 8) (size 9 to 14) (size 15 to 20)
#    0.000    1.625    5.000    0.750    1.750    2.750 
#    2.250    1.875    0.000    2.250    0.000    0.000 
#    0.000    0.000    0.000    0.000    0.000    0.000 
#
# Total GULP energy -178316.322216 kJ/mol
# GULP energy per Si atom -5572.385069 kJ/mol
# Density = 2.000134 g / cm^3
# Si number density = 20.046965 Si / 1000 Ang^3
#
#
#
# Elastic Constant Matrix: (Units=GPa)
#
#
# Indices 1 2 3 4 5 6 
#
# 1 87.3135 34.7138 49.5646 0.0000 -20.6239 0.0000
# 2 34.7138 47.5578 33.2874 0.0000 -12.5737 0.0000
# 3 49.5646 33.2874 161.8770 0.0000 -8.0070 0.0000
# 4 0.0000 0.0000 0.0000 34.1081 0.0000 8.8080
# 5 -20.6239 -12.5737 -8.0070 0.0000 35.1958 0.0000
# 6 0.0000 0.0000 0.0000 8.8080 0.0000 22.7953
#
#
#
# Elastic Compliance Matrix: (Units=1/GPa)
#
#
# Indices 1 2 3 4 5 6 
#
# 1 0.018814 -0.009495 -0.003470 0.000000 0.006843 0.000000
# 2 -0.009495 0.031615 -0.003348 0.000000 0.004969 0.000000
# 3 -0.003470 -0.003348 0.007857 0.000000 -0.001442 0.000000
# 4 0.000000 0.000000 0.000000 0.032568 0.000000 -0.012584
# 5 0.006843 0.004969 -0.001442 0.000000 0.033869 0.000000
# 6 0.000000 0.000000 0.000000 -0.012584 0.000000 0.048731
#
#
# Mechanical properties :
#
#
# Convention : Reuss Voigt Hill
#
# Bulk Modulus (GPa) = 38.97057 59.09776 49.03416
# Shear Modulus (GPa) = 23.29550 30.36533 26.83042
#
# Velocity S-wave (km/s) = 3.41258 3.89615 3.66235
# Velocity P-wave (km/s) = 5.91688 7.05575 6.51126
#
# Compressibility (1/GPa) = 0.02566039
#
# Stress axis : x y z
#
# Youngs Moduli (GPa) = 53.15209 31.63066 127.27453
#
# Poissons Ratio (x) = 0.30034 0.44159
# Poissons Ratio (y) = 0.50468 0.42612
# Poissons Ratio (z) = 0.18442 0.10590
#
# Static dielectric constant tensor:
#      x y z
#    x 1.711400 0.000000 -0.032120 
#    y 0.000000 1.730910 0.000000 
#    z -0.032120 0.000000 1.774740 
# 
# From -- ./inp_files/147641.got.cif
#   From: 2010.05.17/outbox.cif.g08.bks.cpg/sg12_74_cif.got.tgz:147641.got - 2010.06.03 13:09:07.
