data_PCOD9201597
_publ_section_title
;
Structure prediction by ZEFSAII (Michael W. Deem and Ramdas Pophale) SiO2 
 PCOD9201597
Probable space group: C 2/M
;
_chemical_formula_sum "Si O2"
_cell_formula_units_Z 40
_cell_length_a 19.904329
_cell_length_b 15.562519
_cell_length_c 7.899660
_cell_angle_alpha 90.000000
_cell_angle_beta 57.075613
_cell_angle_gamma 90.000000
_cell_volume 2053.992721
_symmetry_space_group_name_H-M "C 2/M"
_symmetry_group_IT_number 12
_symmetry_cell_setting 'monoclinic'
loop_
_space_group_symop_operation_xyz
x,y,z
-x,y,-z
-x,-y,-z
x,-y,z
1/2+x,1/2+y,z
1/2-x,1/2+y,-z
1/2-x,1/2-y,-z
1/2+x,1/2-y,z
loop_
_atom_site_type_symbol
_atom_site_label
_atom_site_fract_x
_atom_site_fract_y
_atom_site_fract_z
Si Si1 0.274736 0.682728 0.219855
Si Si2 0.608114 0.243284 0.505934
Si Si3 0.501985 0.094059 0.199759
Si Si4 0.919120 0.899619 0.219096
Si Si5 0.843510 0.675327 0.898330
O O1 0.197329 0.710550 0.435000
O O2 0.340466 0.623795 0.216238
O O3 0.232380 0.644001 0.107947
O O4 0.316320 0.769745 0.095746
O O5 0.548336 0.170111 0.650039
O O6 0.585706 0.333462 0.618299
O O7 0.613832 0.240257 0.294547
O O8 0.592799 0.104962 0.137439
O O9 0.470572 0.000000 0.291026
O O10 0.500000 0.102010 0.000000
O O11 0.918505 0.000000 0.266998
O O12 0.000000 0.882964 0.000000
#
# Coordination Sequence:
#
# PCOD9201597 Si02
#       5
#     8   8   8   8   8
#     4   9  20  38  60  84 113 157 194 235 291 341
#     4  10  20  37  63  83 116 152 194 238 288 344
#     4  11  23  37  58  90 121 151 187 237 296 354
#     4  11  23  38  58  85 119 158 200 239 282 338
#     4   9  20  37  61  85 115 155 191 233 294 349
#
# _framework density 19.474267000000001
#
# number of rings (size 3 to 8) (size 9 to 14) (size 15 to 20)
#    1.200    0.800    0.000    4.200    0.000    3.200 
#    0.000    4.000    0.000    4.800    0.000    0.000 
#    0.000    0.000    0.000    0.000    0.000    0.000 
#
# Total GULP energy -111447.796119 kJ/mol
# GULP energy per Si atom -5572.389806 kJ/mol
# Density = 1.942994 g / cm^3
# Si number density = 19.474267 Si / 1000 Ang^3
#
#
#
# Elastic Constant Matrix: (Units=GPa)
#
#
# Indices 1 2 3 4 5 6 
#
# 1 59.3005 42.5173 22.5004 0.0000 -9.2711 0.0000
# 2 42.5173 84.9501 33.8665 0.0000 -17.8926 0.0000
# 3 22.5004 33.8665 55.6575 0.0000 -20.4122 0.0000
# 4 0.0000 0.0000 0.0000 4.0697 0.0000 -16.7273
# 5 -9.2711 -17.8926 -20.4122 0.0000 24.2479 0.0000
# 6 0.0000 0.0000 0.0000 -16.7273 0.0000 -4.1365
#
#
#
# Elastic Compliance Matrix: (Units=1/GPa)
#
#
# Indices 1 2 3 4 5 6 
#
# 1 0.026908 -0.012256 -0.004288 0.000000 -0.002365 0.000000
# 2 -0.012256 0.021568 -0.005860 0.000000 0.006296 0.000000
# 3 -0.004288 -0.005860 0.030493 0.000000 0.019706 0.000000
# 4 0.000000 0.000000 0.000000 0.013945 0.000000 -0.056390
# 5 -0.002365 0.006296 0.019706 0.000000 0.061571 0.000000
# 6 0.000000 0.000000 0.000000 -0.056390 0.000000 -0.013719
#
#
# Mechanical properties :
#
#
# Convention : Reuss Voigt Hill
#
# Bulk Modulus (GPa) = 29.27269 44.18626 36.72948
# Shear Modulus (GPa) = 25.38587 11.57114 18.47850
#
# Velocity S-wave (km/s) = 3.61440 2.44022 3.08371
# Velocity P-wave (km/s) = 5.69935 5.53881 5.61965
#
# Compressibility (1/GPa) = 0.03416153
#
# Stress axis : x y z
#
# Youngs Moduli (GPa) = 37.16404 46.36496 32.79424
#
# Poissons Ratio (x) = 0.56825 0.14061
# Poissons Ratio (y) = 0.45549 0.19217
# Poissons Ratio (z) = 0.15935 0.27170
#
# Static dielectric constant tensor:
#      x y z
#    x 1.745980 0.000000 -0.000460 
#    y 0.000000 1.637120 0.000000 
#    z -0.000460 0.000000 1.691110 
# 
# From -- ./inp_files/85499.got.cif
#   From: 2010.05.17/outbox.cif.g08.bks.cpg/sg12_43_cif.got.tgz:85499.got - 2010.06.03 13:09:07.
