data_PCOD9201813
_publ_section_title
;
Structure prediction by ZEFSAII (Michael W. Deem and Ramdas Pophale) SiO2 
 PCOD9201813
Probable space group: C 2/M
;
_chemical_formula_sum "Si O2"
_cell_formula_units_Z 44
_cell_length_a 10.396648
_cell_length_b 28.851935
_cell_length_c 7.697685
_cell_angle_alpha 90.000000
_cell_angle_beta 124.392194
_cell_angle_gamma 90.000000
_cell_volume 1905.384465
_symmetry_space_group_name_H-M "C 2/M"
_symmetry_group_IT_number 12
_symmetry_cell_setting 'monoclinic'
loop_
_space_group_symop_operation_xyz
x,y,z
-x,y,-z
-x,-y,-z
x,-y,z
1/2+x,1/2+y,z
1/2-x,1/2+y,-z
1/2-x,1/2-y,-z
1/2+x,1/2-y,z
loop_
_atom_site_type_symbol
_atom_site_label
_atom_site_fract_x
_atom_site_fract_y
_atom_site_fract_z
Si Si1 0.395580 0.000000 0.593006
Si Si2 0.743214 0.262805 0.777440
Si Si3 0.460833 0.398112 0.765256
Si Si4 0.500000 0.162763 0.000000
Si Si5 0.028677 0.000000 0.229197
Si Si6 0.452000 0.705959 0.708210
Si Si7 0.906340 0.399904 0.608856
O O1 0.500000 0.000000 0.500000
O O2 0.214054 0.000000 0.402317
O O3 0.431042 0.951345 0.706317
O O4 0.656356 0.281348 0.536903
O O5 0.600519 0.260133 0.802826
O O6 0.843837 0.218329 0.791761
O O7 0.852833 0.304720 0.911739
O O8 0.524990 0.448528 0.746176
O O9 0.511763 0.346960 0.742732
O O10 0.276162 0.396445 0.580632
O O11 0.500000 0.398829 0.000000
O O12 0.465280 0.134447 0.799566
O O13 0.000000 0.000000 0.000000
O O14 0.000000 0.394588 0.500000
#
# Coordination Sequence:
#
# PCOD9201813 Si02
#       7
#     4   8   8   4   4   8   8
#     4   8  16  35  59  87 127 174 229 278 333 405
#     4  10  24  42  66  92 132 175 226 283 332 412
#     4  10  20  37  64  95 126 175 222 277 337 403
#     4  12  24  41  62 100 138 173 226 286 340 416
#     4   8  16  32  57  90 127 160 221 277 326 396
#     4  10  22  45  64  93 131 175 228 277 343 402
#     4  10  22  39  63  95 132 180 229 283 343 407
#
# _framework density 23.092452999999999
#
# number of rings (size 3 to 8) (size 9 to 14) (size 15 to 20)
#    0.000    2.182    1.818    0.000    3.818    2.545 
#    0.000    0.000    0.000    3.273    0.000    0.000 
#    0.000    1.455    0.000    0.000    0.000    0.000 
#
# Total GULP energy -122736.916618 kJ/mol
# GULP energy per Si atom -5578.950755 kJ/mol
# Density = 2.303989 g / cm^3
# Si number density = 23.092453 Si / 1000 Ang^3
#
#
#
# Elastic Constant Matrix: (Units=GPa)
#
#
# Indices 1 2 3 4 5 6 
#
# 1 66.6266 47.6839 39.2642 0.0000 -1.1931 0.0000
# 2 47.6839 172.4776 44.3174 0.0000 2.7018 0.0000
# 3 39.2642 44.3174 96.6711 0.0000 4.2183 0.0000
# 4 0.0000 0.0000 0.0000 51.0301 0.0000 2.0728
# 5 -1.1931 2.7018 4.2183 0.0000 32.5642 0.0000
# 6 0.0000 0.0000 0.0000 2.0728 0.0000 18.0787
#
#
#
# Elastic Compliance Matrix: (Units=1/GPa)
#
#
# Indices 1 2 3 4 5 6 
#
# 1 0.022422 -0.004385 -0.007189 0.000000 0.002117 0.000000
# 2 -0.004385 0.007430 -0.001601 0.000000 -0.000570 0.000000
# 3 -0.007189 -0.001601 0.014083 0.000000 -0.001955 0.000000
# 4 0.000000 0.000000 0.000000 0.019688 0.000000 -0.002257
# 5 0.002117 -0.000570 -0.001955 0.000000 0.031087 0.000000
# 6 0.000000 0.000000 0.000000 -0.002257 0.000000 0.055573
#
#
# Mechanical properties :
#
#
# Convention : Reuss Voigt Hill
#
# Bulk Modulus (GPa) = 56.86151 66.47848 61.66999
# Shear Modulus (GPa) = 27.39828 33.96858 30.68343
#
# Velocity S-wave (km/s) = 3.44824 3.83950 3.64912
# Velocity P-wave (km/s) = 6.36637 6.96463 6.67221
#
# Compressibility (1/GPa) = 0.01758659
#
# Stress axis : x y z
#
# Youngs Moduli (GPa) = 44.59970 134.58497 71.00599
#
# Poissons Ratio (x) = 0.59012 0.51047
# Poissons Ratio (y) = 0.19556 0.11365
# Poissons Ratio (z) = 0.32063 0.21540
#
# Static dielectric constant tensor:
#      x y z
#    x 1.901780 0.000000 -0.034990 
#    y 0.000000 1.936170 0.000000 
#    z -0.034990 0.000000 1.883980 
# 
# From -- ./inp_files/53442.got.cif
#   From: 2010.05.17/outbox.cif.g08.bks.cpg/sg12_27_cif.got.tgz:53442.got - 2010.06.03 13:09:07.
