data_PCOD9201236
_publ_section_title
;
Structure prediction by ZEFSAII (Michael W. Deem and Ramdas Pophale) SiO2 
 PCOD9201236
Probable space group: C 2/M
;
_chemical_formula_sum "Si O2"
_cell_formula_units_Z 56
_cell_length_a 8.475363
_cell_length_b 27.007221
_cell_length_c 13.018072
_cell_angle_alpha 90.000000
_cell_angle_beta 66.094103
_cell_angle_gamma 90.000000
_cell_volume 2724.155618
_symmetry_space_group_name_H-M "C 2/M"
_symmetry_group_IT_number 12
_symmetry_cell_setting 'monoclinic'
loop_
_space_group_symop_operation_xyz
x,y,z
-x,y,-z
-x,-y,-z
x,-y,z
1/2+x,1/2+y,z
1/2-x,1/2+y,-z
1/2-x,1/2-y,-z
1/2+x,1/2-y,z
loop_
_atom_site_type_symbol
_atom_site_label
_atom_site_fract_x
_atom_site_fract_y
_atom_site_fract_z
Si Si1 0.413415 0.692648 0.206700
Si Si2 0.321685 0.942802 0.826046
Si Si3 0.471861 0.634526 0.396560
Si Si4 0.832227 0.607479 0.218998
Si Si5 0.073674 0.699192 0.166392
Si Si6 0.304254 0.057987 0.589248
Si Si7 0.787340 0.867540 0.972319
O O1 0.429529 0.673523 0.318538
O O2 0.219379 0.695566 0.215951
O O3 0.499716 0.746369 0.174227
O O4 0.528834 0.654490 0.109427
O O5 0.526061 0.932993 0.788744
O O6 0.284656 0.930889 0.716444
O O7 0.278823 0.000000 0.855152
O O8 0.227109 0.907349 0.932425
O O9 0.500000 0.658115 0.500000
O O10 0.646949 0.605813 0.319977
O O11 0.319837 0.594533 0.438335
O O12 0.797299 0.608711 0.106512
O O13 0.921148 0.659895 0.224908
O O14 0.172457 0.679025 0.039565
O O15 0.500000 0.065112 0.500000
O O16 0.261857 0.000000 0.585757
#
# Coordination Sequence:
#
# PCOD9201236 Si02
#       7
#     8   8   8   8   8   8   8
#     4  11  23  38  60  87 118 155 200 247 296 350
#     4  10  20  37  61  89 122 158 195 241 300 356
#     4  11  23  40  62  89 119 152 195 245 299 352
#     4  10  22  38  58  88 122 157 202 243 290 350
#     4  11  21  39  61  85 118 157 200 245 290 345
#     4  10  22  41  64  89 117 155 202 244 288 345
#     4  10  21  36  57  89 122 158 202 245 291 347
#
# _framework density 20.556826999999998
#
# number of rings (size 3 to 8) (size 9 to 14) (size 15 to 20)
#    0.000    1.571    0.000    6.857    0.000    4.286 
#    0.000    5.000    0.000   18.857    0.000    0.000 
#    0.000    0.000    0.000    0.000    0.000    0.000 
#
# Total GULP energy -156573.502854 kJ/mol
# GULP energy per Si atom -5591.910816 kJ/mol
# Density = 2.051004 g / cm^3
# Si number density = 20.556827 Si / 1000 Ang^3
#
#
#
# Elastic Constant Matrix: (Units=GPa)
#
#
# Indices 1 2 3 4 5 6 
#
# 1 54.4833 10.7273 -4.6746 0.0000 7.1644 0.0000
# 2 10.7273 64.3579 16.6912 0.0000 0.9720 0.0000
# 3 -4.6746 16.6912 80.1772 0.0000 19.6455 0.0000
# 4 0.0000 0.0000 0.0000 15.3330 0.0000 2.9437
# 5 7.1644 0.9720 19.6455 0.0000 31.5299 0.0000
# 6 0.0000 0.0000 0.0000 2.9437 0.0000 6.1302
#
#
#
# Elastic Compliance Matrix: (Units=1/GPa)
#
#
# Indices 1 2 3 4 5 6 
#
# 1 0.020419 -0.004275 0.003759 0.000000 -0.006850 0.000000
# 2 -0.004275 0.017419 -0.004699 0.000000 0.003362 0.000000
# 3 0.003759 -0.004699 0.016338 0.000000 -0.010889 0.000000
# 4 0.000000 0.000000 0.000000 0.071842 0.000000 -0.034499
# 5 -0.006850 0.003362 -0.010889 0.000000 0.039953 0.000000
# 6 0.000000 0.000000 0.000000 -0.034499 0.000000 0.179694
#
#
# Mechanical properties :
#
#
# Convention : Reuss Voigt Hill
#
# Bulk Modulus (GPa) = 22.85971 27.16734 25.01353
# Shear Modulus (GPa) = 13.48881 22.35025 17.91953
#
# Velocity S-wave (km/s) = 2.56436 3.30091 2.95567
# Velocity P-wave (km/s) = 4.46233 5.26996 4.88287
#
# Compressibility (1/GPa) = 0.04374508
#
# Stress axis : x y z
#
# Youngs Moduli (GPa) = 48.97349 57.40975 61.20735
#
# Poissons Ratio (x) = 0.24542 -0.23007
# Poissons Ratio (y) = 0.20936 0.28763
# Poissons Ratio (z) = -0.18409 0.26979
#
# Static dielectric constant tensor:
#      x y z
#    x 1.739250 0.000000 0.007220 
#    y 0.000000 1.702330 0.000000 
#    z 0.007220 0.000000 1.739830 
# 
# From -- ./inp_files/124217.got.cif
#   From: 2010.05.17/outbox.cif.g08.bks.cpg/sg12_63_cif.got.tgz:124217.got - 2010.06.03 13:09:07.
