data_PCOD9201362
_publ_section_title
;
Structure prediction by ZEFSAII (Michael W. Deem and Ramdas Pophale) SiO2 
 PCOD9201362
Probable space group: C 2/M
;
_chemical_formula_sum "Si O2"
_cell_formula_units_Z 40
_cell_length_a 13.671333
_cell_length_b 15.312195
_cell_length_c 8.973538
_cell_angle_alpha 90.000000
_cell_angle_beta 103.728412
_cell_angle_gamma 90.000000
_cell_volume 1824.837624
_symmetry_space_group_name_H-M "C 2/M"
_symmetry_group_IT_number 12
_symmetry_cell_setting 'monoclinic'
loop_
_space_group_symop_operation_xyz
x,y,z
-x,y,-z
-x,-y,-z
x,-y,z
1/2+x,1/2+y,z
1/2-x,1/2+y,-z
1/2-x,1/2-y,-z
1/2+x,1/2-y,z
loop_
_atom_site_type_symbol
_atom_site_label
_atom_site_fract_x
_atom_site_fract_y
_atom_site_fract_z
Si Si1 0.722465 0.394229 0.936606
Si Si2 0.299830 0.395713 0.719178
Si Si3 0.604413 0.900223 0.487395
Si Si4 0.425937 0.861277 0.857232
Si Si5 0.491510 0.328787 0.167415
O O1 0.729495 0.500000 0.920067
O O2 0.820052 0.348752 0.901980
O O3 0.619321 0.358247 0.826473
O O4 0.719307 0.375645 0.113000
O O5 0.303404 0.500000 0.706538
O O6 0.206629 0.360426 0.589053
O O7 0.410015 0.362769 0.712833
O O8 0.500000 0.856784 0.500000
O O9 0.601251 0.903821 0.308895
O O10 0.602379 0.000000 0.547456
O O11 0.488210 0.773978 0.838844
O O12 0.500000 0.908170 0.000000
O O13 0.500000 0.365228 0.000000
#
# Coordination Sequence:
#
# PCOD9201362 Si02
#       5
#     8   8   8   8   8
#     4  10  20  37  62  87 111 146 192 235 276 331
#     4   9  18  35  58  81 110 149 190 230 277 336
#     4  10  21  36  54  79 112 149 188 232 283 337
#     4  11  23  36  56  85 116 147 187 236 283 330
#     4   9  20  36  57  84 115 148 185 230 284 338
#
# _framework density 21.919758000000002
#
# number of rings (size 3 to 8) (size 9 to 14) (size 15 to 20)
#    0.000    2.200    0.000    2.400    0.000   15.200 
#    0.000    1.000    0.000    3.600    0.000    0.000 
#    0.000    0.000    0.000    0.000    0.000    0.000 
#
# Total GULP energy -111563.245598 kJ/mol
# GULP energy per Si atom -5578.162280 kJ/mol
# Density = 2.186987 g / cm^3
# Si number density = 21.919758 Si / 1000 Ang^3
#
#
#
# Elastic Constant Matrix: (Units=GPa)
#
#
# Indices 1 2 3 4 5 6 
#
# 1 173.4005 25.2926 58.5955 0.0000 43.1457 0.0000
# 2 25.2926 61.5131 13.4772 0.0000 12.0389 0.0000
# 3 58.5955 13.4772 87.0092 0.0000 35.5140 0.0000
# 4 0.0000 0.0000 0.0000 12.4482 0.0000 5.8382
# 5 43.1457 12.0389 35.5140 0.0000 42.5671 0.0000
# 6 0.0000 0.0000 0.0000 5.8382 0.0000 13.0998
#
#
#
# Elastic Compliance Matrix: (Units=1/GPa)
#
#
# Indices 1 2 3 4 5 6 
#
# 1 0.008447 -0.001712 -0.003224 0.000000 -0.005387 0.000000
# 2 -0.001712 0.017617 -0.000380 0.000000 -0.002930 0.000000
# 3 -0.003224 -0.000380 0.018720 0.000000 -0.012243 0.000000
# 4 0.000000 0.000000 0.000000 0.101562 0.000000 -0.045264
# 5 -0.005387 -0.002930 -0.012243 0.000000 0.039996 0.000000
# 6 0.000000 0.000000 0.000000 -0.045264 0.000000 0.096510
#
#
# Mechanical properties :
#
#
# Convention : Reuss Voigt Hill
#
# Bulk Modulus (GPa) = 29.28085 57.40592 43.34338
# Shear Modulus (GPa) = 16.40048 28.59350 22.49699
#
# Velocity S-wave (km/s) = 2.73830 3.61565 3.20712
# Velocity P-wave (km/s) = 4.83580 6.60883 5.79057
#
# Compressibility (1/GPa) = 0.03415202
#
# Stress axis : x y z
#
# Youngs Moduli (GPa) = 118.38834 56.76194 53.41780
#
# Poissons Ratio (x) = 0.09719 0.17223
# Poissons Ratio (y) = 0.20272 0.02028
# Poissons Ratio (z) = 0.38172 0.02155
#
# Static dielectric constant tensor:
#      x y z
#    x 1.828040 0.000000 0.021060 
#    y 0.000000 1.853040 0.000000 
#    z 0.021060 0.000000 1.822980 
# 
# From -- ./inp_files/46962.got.cif
#   From: 2010.05.17/outbox.cif.g08.bks.cpg/sg12_24_cif.got.tgz:46962.got - 2010.06.03 13:09:07.
