data_PCOD9201946
_publ_section_title
;
Structure prediction by ZEFSAII (Michael W. Deem and Ramdas Pophale) SiO2 
 PCOD9201946
Probable space group: C 2/M
;
_chemical_formula_sum "Si O2"
_cell_formula_units_Z 50
_cell_length_a 17.310913
_cell_length_b 28.439454
_cell_length_c 5.136810
_cell_angle_alpha 90.000000
_cell_angle_beta 64.906311
_cell_angle_gamma 90.000000
_cell_volume 2290.227294
_symmetry_space_group_name_H-M "C 2/M"
_symmetry_group_IT_number 12
_symmetry_cell_setting 'monoclinic'
loop_
_space_group_symop_operation_xyz
x,y,z
-x,y,-z
-x,-y,-z
x,-y,z
1/2+x,1/2+y,z
1/2-x,1/2+y,-z
1/2-x,1/2-y,-z
1/2+x,1/2-y,z
loop_
_atom_site_type_symbol
_atom_site_label
_atom_site_fract_x
_atom_site_fract_y
_atom_site_fract_z
Si Si1 0.176842 0.144294 0.157551
Si Si2 0.407633 0.103429 0.190246
Si Si3 0.586193 0.427966 0.037999
Si Si4 0.634456 0.161404 0.262383
Si Si5 0.689506 0.743605 0.335186
Si Si6 0.000000 0.000000 0.500000
Si Si7 0.230389 0.946409 0.417452
O O1 0.100124 0.126339 0.088211
O O2 0.157940 0.190000 0.356489
O O3 0.198988 0.098006 0.292245
O O4 0.262671 0.153678 0.868844
O O5 0.409545 0.128541 0.465450
O O6 0.329590 0.067146 0.314733
O O7 0.500000 0.082355 0.000000
O O8 0.388913 0.143605 0.994259
O O9 0.567837 0.459371 0.314326
O O10 0.500000 0.437412 0.000000
O O11 0.668927 0.444195 0.758603
O O12 0.621607 0.214923 0.379712
O O13 0.750000 0.750000 0.500000
O O14 0.750000 0.750000 0.000000
O O15 0.227782 0.000000 0.322532
#
# Coordination Sequence:
#
# PCOD9201946 Si02
#       7
#     8   8   8   8   8   2   8
#     4  10  23  39  67 100 137 177 234 282 347 414
#     4  11  23  43  70 102 139 178 228 283 342 412
#     4  12  25  42  66  94 137 181 236 283 351 412
#     4  10  20  41  68 100 134 181 227 276 342 412
#     4  10  20  37  69 103 138 177 228 283 341 410
#     4  12  26  44  64  94 126 198 226 290 348 422
#     4  11  24  43  68  97 133 181 229 286 345 417
#
# _framework density 21.831892
#
# number of rings (size 3 to 8) (size 9 to 14) (size 15 to 20)
#    0.000    1.280    2.400    4.560    5.600    0.320 
#    0.000    0.800    7.040    2.880    0.000    0.000 
#    0.000    0.000    0.000    0.000    0.000    0.000 
#
# Total GULP energy -139192.141190 kJ/mol
# GULP energy per Si atom -5567.685648 kJ/mol
# Density = 2.178220 g / cm^3
# Si number density = 21.831892 Si / 1000 Ang^3
#
#
#
# Elastic Constant Matrix: (Units=GPa)
#
#
# Indices 1 2 3 4 5 6 
#
# 1 79.0543 38.3137 25.3158 0.0000 -20.6312 0.0000
# 2 38.3137 160.9272 29.4207 0.0000 -7.9752 0.0000
# 3 25.3158 29.4207 108.3581 0.0000 -14.9260 0.0000
# 4 0.0000 0.0000 0.0000 134.3556 0.0000 139.2681
# 5 -20.6312 -7.9752 -14.9260 0.0000 43.1120 0.0000
# 6 0.0000 0.0000 0.0000 139.2681 0.0000 171.8119
#
#
#
# Elastic Compliance Matrix: (Units=1/GPa)
#
#
# Indices 1 2 3 4 5 6 
#
# 1 0.016623 -0.003247 -0.002089 0.000000 0.006631 0.000000
# 2 -0.003247 0.007189 -0.001285 0.000000 -0.000669 0.000000
# 3 -0.002089 -0.001285 0.010391 0.000000 0.002360 0.000000
# 4 0.000000 0.000000 0.000000 0.046583 0.000000 -0.037759
# 5 0.006631 -0.000669 0.002360 0.000000 0.027062 0.000000
# 6 0.000000 0.000000 0.000000 -0.037759 0.000000 0.036427
#
#
# Mechanical properties :
#
#
# Convention : Reuss Voigt Hill
#
# Bulk Modulus (GPa) = 47.70962 59.38221 53.54592
# Shear Modulus (GPa) = 30.39453 86.87521 58.63487
#
# Velocity S-wave (km/s) = 3.73528 6.31500 5.18804
# Velocity P-wave (km/s) = 6.36425 8.96834 7.77608
#
# Compressibility (1/GPa) = 0.02096013
#
# Stress axis : x y z
#
# Youngs Moduli (GPa) = 60.15921 139.10335 96.23972
#
# Poissons Ratio (x) = 0.45168 0.20100
# Poissons Ratio (y) = 0.19534 0.12371
# Poissons Ratio (z) = 0.12564 0.17881
#
# Static dielectric constant tensor:
#      x y z
#    x 1.925280 0.000000 0.049340 
#    y 0.000000 1.865490 0.000000 
#    z 0.049340 0.000000 1.821680 
# 
# From -- ./inp_files/17591.got.cif
#   From: 2010.05.17/outbox.cif.g08.bks.cpg/sg12_9_cif.got.tgz:17591.got - 2010.06.03 13:09:07.
