data_PCOD9201819
_publ_section_title
;
Structure prediction by ZEFSAII (Michael W. Deem and Ramdas Pophale) SiO2 
 PCOD9201819
Probable space group: C 2/M
;
_chemical_formula_sum "Si O2"
_cell_formula_units_Z 56
_cell_length_a 8.746718
_cell_length_b 21.471113
_cell_length_c 13.350970
_cell_angle_alpha 90.000000
_cell_angle_beta 75.503976
_cell_angle_gamma 90.000000
_cell_volume 2427.514802
_symmetry_space_group_name_H-M "C 2/M"
_symmetry_group_IT_number 12
_symmetry_cell_setting 'monoclinic'
loop_
_space_group_symop_operation_xyz
x,y,z
-x,y,-z
-x,-y,-z
x,-y,z
1/2+x,1/2+y,z
1/2-x,1/2+y,-z
1/2-x,1/2-y,-z
1/2+x,1/2-y,z
loop_
_atom_site_type_symbol
_atom_site_label
_atom_site_fract_x
_atom_site_fract_y
_atom_site_fract_z
Si Si1 0.476145 0.252892 0.118461
Si Si2 0.813146 0.653791 0.846884
Si Si3 0.312024 0.071110 0.040750
Si Si4 0.192556 0.934604 0.478872
Si Si5 0.319934 0.699115 0.566905
Si Si6 0.330822 0.429935 0.288283
Si Si7 0.645420 0.653051 0.221812
O O1 0.316725 0.292394 0.150774
O O2 0.520597 0.190029 0.170652
O O3 0.602754 0.302631 0.136231
O O4 0.500000 0.235224 0.000000
O O5 0.793716 0.605159 0.760728
O O6 0.766194 0.615295 0.954512
O O7 0.263947 0.102983 0.153712
O O8 0.249080 0.000000 0.043852
O O9 0.500000 0.067664 0.000000
O O10 0.257015 0.869163 0.432110
O O11 0.230059 0.935370 0.589481
O O12 0.000000 0.934133 0.500000
O O13 0.245640 0.000000 0.422445
O O14 0.500000 0.696043 0.500000
O O15 0.250000 0.750000 0.500000
O O16 0.323652 0.698928 0.688039
O O17 0.366554 0.500000 0.245607
O O18 0.488579 0.387781 0.270395
#
# Coordination Sequence:
#
# PCOD9201819 Si02
#       7
#     8   8   8   8   8   8   8
#     4  11  23  39  61  93 129 177 225 272 334 406
#     4  11  24  40  62  93 134 175 227 275 336 411
#     4  11  25  45  67  98 141 184 232 289 349 415
#     4   9  17  35  63  95 128 168 224 288 338 406
#     4  11  24  44  68 104 144 178 231 292 363 415
#     4  10  20  37  64  96 127 169 224 286 346 403
#     4  11  23  40  67  96 135 182 232 285 345 414
#
# _framework density 23.068861999999999
#
# number of rings (size 3 to 8) (size 9 to 14) (size 15 to 20)
#    0.000    1.429    4.286    1.714    4.000    0.571 
#    0.000    2.143    0.000    0.429    0.000    0.000 
#    0.000    0.000    0.000    0.000    0.000    0.000 
#
# Total GULP energy -156074.381880 kJ/mol
# GULP energy per Si atom -5574.085067 kJ/mol
# Density = 2.301636 g / cm^3
# Si number density = 23.068862 Si / 1000 Ang^3
#
#
#
# Elastic Constant Matrix: (Units=GPa)
#
#
# Indices 1 2 3 4 5 6 
#
# 1 31.1044 52.2344 36.6462 0.0000 13.1435 0.0000
# 2 52.2344 162.8736 38.7751 0.0000 27.6672 0.0000
# 3 36.6462 38.7751 108.5630 0.0000 27.3378 0.0000
# 4 0.0000 0.0000 0.0000 29.4858 0.0000 -12.2067
# 5 13.1435 27.6672 27.3378 0.0000 28.2321 0.0000
# 6 0.0000 0.0000 0.0000 -12.2067 0.0000 -16.7077
#
#
#
# Elastic Compliance Matrix: (Units=1/GPa)
#
#
# Indices 1 2 3 4 5 6 
#
# 1 0.118776 -0.031785 -0.029968 0.000000 0.004871 0.000000
# 2 -0.031785 0.015968 0.006930 0.000000 -0.007562 0.000000
# 3 -0.029968 0.006930 0.019902 0.000000 -0.012111 0.000000
# 4 0.000000 0.000000 0.000000 0.026039 0.000000 -0.019024
# 5 0.004871 -0.007562 -0.012111 0.000000 0.052291 0.000000
# 6 0.000000 0.000000 0.000000 -0.019024 0.000000 -0.045953
#
#
# Mechanical properties :
#
#
# Convention : Reuss Voigt Hill
#
# Bulk Modulus (GPa) = 22.22214 61.98359 42.10286
# Shear Modulus (GPa) = 16.04277 19.86105 17.95191
#
# Velocity S-wave (km/s) = 2.63996 2.93737 2.79263
# Velocity P-wave (km/s) = 4.35275 6.19931 5.35621
#
# Compressibility (1/GPa) = 0.04500016
#
# Stress axis : x y z
#
# Youngs Moduli (GPa) = 8.41922 62.62524 50.24724
#
# Poissons Ratio (x) = 1.99055 1.50579
# Poissons Ratio (y) = 0.26761 -0.34822
# Poissons Ratio (z) = 0.25230 -0.43400
#
# Static dielectric constant tensor:
#      x y z
#    x 1.909280 0.000000 -0.000760 
#    y 0.000000 1.962370 0.000000 
#    z -0.000760 0.000000 1.729260 
# 
# From -- ./inp_files/197523.got.cif
#   From: 2010.05.17/outbox.cif.g08.bks.cpg/sg12_99_cif.got.tgz:197523.got - 2010.06.03 13:09:07.
