data_PCOD9201144
_publ_section_title
;
Structure prediction by ZEFSAII (Michael W. Deem and Ramdas Pophale) SiO2 
 PCOD9201144
Probable space group: C 2/M
;
_chemical_formula_sum "Si O2"
_cell_formula_units_Z 56
_cell_length_a 24.604162
_cell_length_b 8.907441
_cell_length_c 13.535860
_cell_angle_alpha 90.000000
_cell_angle_beta 93.590337
_cell_angle_gamma 90.000000
_cell_volume 2960.698342
_symmetry_space_group_name_H-M "C 2/M"
_symmetry_group_IT_number 12
_symmetry_cell_setting 'monoclinic'
loop_
_space_group_symop_operation_xyz
x,y,z
-x,y,-z
-x,-y,-z
x,-y,z
1/2+x,1/2+y,z
1/2-x,1/2+y,-z
1/2-x,1/2-y,-z
1/2+x,1/2-y,z
loop_
_atom_site_type_symbol
_atom_site_label
_atom_site_fract_x
_atom_site_fract_y
_atom_site_fract_z
Si Si1 0.473836 0.322184 0.756248
Si Si2 0.695472 0.822396 0.755746
Si Si3 0.195659 0.178984 0.540822
Si Si4 0.579190 0.178740 0.836110
Si Si5 0.878132 0.321065 0.628082
Si Si6 0.694659 0.176898 0.184834
Si Si7 0.914679 0.320654 0.935303
O O1 0.470056 0.500000 0.745662
O O2 0.535784 0.266292 0.765179
O O3 0.435877 0.242260 0.670810
O O4 0.449048 0.269026 0.858747
O O5 0.692261 0.733490 0.652711
O O6 0.641083 0.792058 0.811563
O O7 0.750711 0.771566 0.815703
O O8 0.697950 0.000000 0.735465
O O9 0.250000 0.250000 0.500000
O O10 0.145563 0.240613 0.470545
O O11 0.198816 0.000000 0.535876
O O12 0.569162 0.000000 0.825200
O O13 0.572144 0.217269 0.950790
O O14 0.880736 0.500000 0.614475
O O15 0.835898 0.292467 0.714151
O O16 0.648897 0.205913 0.097006
O O17 0.708065 0.000000 0.184728
O O18 0.924360 0.500000 0.921179
#
# Coordination Sequence:
#
# PCOD9201144 Si02
#       7
#     8   8   8   8   8   8   8
#     4  11  22  36  58  88 117 147 190 242 287 335
#     4  11  23  37  56  83 117 153 192 236 286 343
#     4  12  23  37  60  88 117 149 188 233 282 339
#     4  10  22  40  58  79 112 158 199 235 284 341
#     4  10  20  37  61  87 115 148 187 235 286 338
#     4   9  18  33  55  83 114 147 186 233 287 341
#     4   9  19  37  60  82 111 152 197 238 283 339
#
# _framework density 18.914456999999999
#
# number of rings (size 3 to 8) (size 9 to 14) (size 15 to 20)
#    0.000    1.714    1.429    4.714    0.000    6.286 
#    0.000    0.714    0.000    4.286    0.000    0.000 
#    0.000    0.000    0.000    0.000    0.000    0.000 
#
# Total GULP energy -156479.986748 kJ/mol
# GULP energy per Si atom -5588.570955 kJ/mol
# Density = 1.887141 g / cm^3
# Si number density = 18.914457 Si / 1000 Ang^3
#
#
#
# Elastic Constant Matrix: (Units=GPa)
#
#
# Indices 1 2 3 4 5 6 
#
# 1 89.2391 40.9756 1.7876 0.0000 23.8512 0.0000
# 2 40.9756 69.0618 6.1664 0.0000 8.5079 0.0000
# 3 1.7876 6.1664 25.0646 0.0000 15.8299 0.0000
# 4 0.0000 0.0000 0.0000 21.2129 0.0000 4.3027
# 5 23.8512 8.5079 15.8299 0.0000 23.6226 0.0000
# 6 0.0000 0.0000 0.0000 4.3027 0.0000 34.4279
#
#
#
# Elastic Compliance Matrix: (Units=1/GPa)
#
#
# Indices 1 2 3 4 5 6 
#
# 1 0.028677 -0.014274 0.028618 0.000000 -0.042991 0.000000
# 2 -0.014274 0.022260 -0.014732 0.000000 0.016267 0.000000
# 3 0.028618 -0.014732 0.097746 0.000000 -0.089090 0.000000
# 4 0.000000 0.000000 0.000000 0.048367 0.000000 -0.006045
# 5 -0.042991 0.016267 -0.089090 0.000000 0.139582 0.000000
# 6 0.000000 0.000000 0.000000 -0.006045 0.000000 0.029802
#
#
# Mechanical properties :
#
#
# Convention : Reuss Voigt Hill
#
# Bulk Modulus (GPa) = 6.76095 31.24720 19.00408
# Shear Modulus (GPa) = 12.00446 24.81507 18.40977
#
# Velocity S-wave (km/s) = 2.52200 3.62603 3.12319
# Velocity P-wave (km/s) = 3.47317 5.83840 4.80364
#
# Compressibility (1/GPa) = 0.14790819
#
# Stress axis : x y z
#
# Youngs Moduli (GPa) = 34.87136 44.92357 10.23055
#
# Poissons Ratio (x) = 0.64122 -0.29278
# Poissons Ratio (y) = 0.49774 0.15071
# Poissons Ratio (z) = -0.99794 0.66181
#
# Static dielectric constant tensor:
#      x y z
#    x 1.663970 0.000000 0.011300 
#    y 0.000000 1.629620 0.000000 
#    z 0.011300 0.000000 1.639600 
# 
# From -- ./inp_files/230922.got.cif
#   From: 2010.05.17/outbox.cif.g08.bks.cpg/sg12_116_cif.got.tgz:230922.got - 2010.06.03 13:09:07.
