data_PCOD9201714
_publ_section_title
;
Structure prediction by ZEFSAII (Michael W. Deem and Ramdas Pophale) SiO2 
 PCOD9201714
Probable space group: C 2/M
;
_chemical_formula_sum "Si O2"
_cell_formula_units_Z 64
_cell_length_a 21.332203
_cell_length_b 23.209475
_cell_length_c 17.668333
_cell_angle_alpha 90.000000
_cell_angle_beta 20.377139
_cell_angle_gamma 90.000000
_cell_volume 3045.951109
_symmetry_space_group_name_H-M "C 2/M"
_symmetry_group_IT_number 12
_symmetry_cell_setting 'monoclinic'
loop_
_space_group_symop_operation_xyz
x,y,z
-x,y,-z
-x,-y,-z
x,-y,z
1/2+x,1/2+y,z
1/2-x,1/2+y,-z
1/2-x,1/2-y,-z
1/2+x,1/2-y,z
loop_
_atom_site_type_symbol
_atom_site_label
_atom_site_fract_x
_atom_site_fract_y
_atom_site_fract_z
Si Si1 0.953527 0.787527 0.474168
Si Si2 0.633776 0.870183 0.788410
Si Si3 0.564117 0.740711 0.665871
Si Si4 0.896774 0.933645 0.192003
Si Si5 0.083202 0.894650 0.655999
Si Si6 0.991342 0.433199 0.592235
Si Si7 0.209122 0.434141 0.037817
Si Si8 0.849163 0.330638 0.999685
O O1 0.788432 0.833088 0.656289
O O2 0.919458 0.746370 0.441722
O O3 0.000000 0.756431 0.500000
O O4 0.140212 0.822177 0.253072
O O5 0.742250 0.901030 0.596651
O O6 0.500000 0.901646 0.000000
O O7 0.491655 0.828726 0.906567
O O8 0.750000 0.750000 0.500000
O O9 0.528834 0.672606 0.710969
O O10 0.411666 0.780141 0.873473
O O11 0.903646 0.907671 0.269090
O O12 0.688653 0.933661 0.404187
O O13 0.962281 0.000000 0.125672
O O14 0.000000 0.909347 0.000000
O O15 0.923705 0.931469 0.800043
O O16 0.930360 0.500000 0.650170
O O17 0.000000 0.405770 0.500000
O O18 0.858032 0.409146 0.805707
O O19 0.146453 0.500000 0.100298
O O20 0.134936 0.392714 0.057482
#
# Coordination Sequence:
#
# PCOD9201714 Si02
#       8
#     8   8   8   8   8   8   8   8
#     4  11  22  40  68 101 127 184 228 278 353 414
#     4  11  22  40  68 100 131 180 232 289 344 423
#     4  11  23  42  68  99 137 174 225 287 348 413
#     4  10  20  37  63  94 132 179 224 277 343 410
#     4  11  22  40  64  97 131 182 225 286 346 410
#     4   9  18  33  54  84 122 168 219 267 325 393
#     4  11  23  39  65  97 130 174 228 280 339 418
#     4  12  22  42  71  93 137 172 227 280 350 413
#
# _framework density 21.011499000000001
#
# number of rings (size 3 to 8) (size 9 to 14) (size 15 to 20)
#    0.000    1.250    6.250    2.250    0.000    2.000 
#    0.000    3.125    0.000    6.000    0.000    0.000 
#    0.000    0.000    0.000    0.000    0.000    0.000 
#
# Total GULP energy -178324.411362 kJ/mol
# GULP energy per Si atom -5572.637855 kJ/mol
# Density = 2.096368 g / cm^3
# Si number density = 21.011499 Si / 1000 Ang^3
#
#
#
# Elastic Constant Matrix: (Units=GPa)
#
#
# Indices 1 2 3 4 5 6 
#
# 1 147.1559 15.8117 41.8218 -0.0072 -0.7311 0.0577
# 2 15.8117 49.6006 9.1002 -0.0713 5.4060 0.0389
# 3 41.8218 9.1002 142.0836 0.0000 8.9409 0.0263
# 4 -0.0072 -0.0713 0.0000 12.4823 -0.0096 -11.9058
# 5 -0.7311 5.4060 8.9409 -0.0096 45.1175 -0.0276
# 6 0.0577 0.0389 0.0263 -11.9058 -0.0276 11.4044
#
#
#
# Elastic Compliance Matrix: (Units=1/GPa)
#
#
# Indices 1 2 3 4 5 6 
#
# 1 0.007646 -0.002132 -0.002163 -0.007186 0.000802 -0.007526
# 2 -0.002132 0.021222 -0.000580 0.012940 -0.002452 0.013443
# 3 -0.002163 -0.000580 0.007808 -0.003311 -0.001516 -0.003466
# 4 -0.007186 0.012940 -0.003311 18.894888 0.015051 19.725707
# 5 0.000802 -0.002452 -0.001516 0.015051 0.022784 0.015776
# 6 -0.007526 0.013443 -0.003466 19.725707 0.015776 20.680744
#
#
# Mechanical properties :
#
#
# Convention : Reuss Voigt Hill
#
# Bulk Modulus (GPa) = 37.13899 52.47860 44.80880
# Shear Modulus (GPa) = 0.12609 31.94126 16.03367
#
# Velocity S-wave (km/s) = 0.24524 3.90318 2.76541
# Velocity P-wave (km/s) = 4.21831 6.73375 5.61861
#
# Compressibility (1/GPa) = 0.02692588
#
# Stress axis : x y z
#
# Youngs Moduli (GPa) = 130.78808 47.11993 128.07451
#
# Poissons Ratio (x) = 0.10048 0.27703
# Poissons Ratio (y) = 0.27889 0.07426
# Poissons Ratio (z) = 0.28290 0.02732
#
# Static dielectric constant tensor:
#      x y z
#    x 1.936740 0.000070 0.071100 
#    y 0.000070 1.747280 0.000040 
#    z 0.071100 0.000040 1.806630 
# 
# From -- ./inp_files/286407.got.cif
#   From: 2010.05.17/outbox.cif.g08.bks.cpg/sg12_144_cif.got.tgz:286407.got - 2010.06.03 13:09:07.
