data_PCOD9201978
_publ_section_title
;
Structure prediction by ZEFSAII (Michael W. Deem and Ramdas Pophale) SiO2 
 PCOD9201978
Probable space group: C 2/M
;
_chemical_formula_sum "Si O2"
_cell_formula_units_Z 40
_cell_length_a 5.320536
_cell_length_b 19.035138
_cell_length_c 22.152077
_cell_angle_alpha 90.000000
_cell_angle_beta 55.486093
_cell_angle_gamma 90.000000
_cell_volume 1848.617738
_symmetry_space_group_name_H-M "C 2/M"
_symmetry_group_IT_number 12
_symmetry_cell_setting 'monoclinic'
loop_
_space_group_symop_operation_xyz
x,y,z
-x,y,-z
-x,-y,-z
x,-y,z
1/2+x,1/2+y,z
1/2-x,1/2+y,-z
1/2-x,1/2-y,-z
1/2+x,1/2-y,z
loop_
_atom_site_type_symbol
_atom_site_label
_atom_site_fract_x
_atom_site_fract_y
_atom_site_fract_z
Si Si1 0.249719 0.084301 0.286438
Si Si2 0.540897 0.414807 0.799413
Si Si3 0.004952 0.278491 0.583960
Si Si4 0.703799 0.205739 0.912271
Si Si5 0.713284 0.922505 0.582808
O O1 0.046892 0.107257 0.257398
O O2 0.170984 0.099707 0.366796
O O3 0.608171 0.103191 0.233106
O O4 0.237303 0.000000 0.284890
O O5 0.504451 0.500000 0.810373
O O6 0.324071 0.368409 0.871032
O O7 0.250000 0.250000 0.500000
O O8 0.174206 0.252248 0.620340
O O9 0.005887 0.362022 0.583732
O O10 0.489938 0.245840 0.893162
O O11 0.500000 0.195389 0.000000
O O12 0.000000 0.926486 0.500000
O O13 0.567408 0.000000 0.606833
#
# Coordination Sequence:
#
# PCOD9201978 Si02
#       5
#     8   8   8   8   8
#     4   9  20  37  57  85 116 151 193 248 300 337
#     4  10  20  39  62  84 119 156 195 241 285 347
#     4  10  20  38  55  73 107 138 168 230 292 345
#     4  10  21  38  62  91 127 159 190 237 285 336
#     4  10  20  38  62  85 109 150 203 247 295 362
#
# _framework density 21.637788
#
# number of rings (size 3 to 8) (size 9 to 14) (size 15 to 20)
#    0.000    2.200    2.000    1.200    0.000    2.000 
#    0.000   11.000    0.000    7.200    0.000    0.000 
#    0.000    0.000    0.000    0.000    0.000    0.000 
#
# Total GULP energy -111673.522147 kJ/mol
# GULP energy per Si atom -5583.676107 kJ/mol
# Density = 2.158854 g / cm^3
# Si number density = 21.637788 Si / 1000 Ang^3
#
#
#
# Elastic Constant Matrix: (Units=GPa)
#
#
# Indices 1 2 3 4 5 6 
#
# 1 121.2505 32.0051 13.1397 0.0000 -8.3801 0.0000
# 2 32.0051 112.8241 27.0028 0.0000 -1.4362 0.0000
# 3 13.1397 27.0028 59.1189 0.0000 -4.2075 0.0000
# 4 0.0000 0.0000 0.0000 -2.8625 0.0000 -2.8152
# 5 -8.3801 -1.4362 -4.2075 0.0000 15.6225 0.0000
# 6 0.0000 0.0000 0.0000 -2.8152 0.0000 18.8463
#
#
#
# Elastic Compliance Matrix: (Units=1/GPa)
#
#
# Indices 1 2 3 4 5 6 
#
# 1 0.009271 -0.002421 -0.000629 0.000000 0.004581 0.000000
# 2 -0.002421 0.010585 -0.004404 0.000000 -0.001512 0.000000
# 3 -0.000629 -0.004404 0.019385 0.000000 0.004479 0.000000
# 4 0.000000 0.000000 0.000000 -0.304596 0.000000 -0.045500
# 5 0.004581 -0.001512 0.004479 0.000000 0.067535 0.000000
# 6 0.000000 0.000000 0.000000 -0.045500 0.000000 0.046264
#
#
# Mechanical properties :
#
#
# Convention : Reuss Voigt Hill
#
# Bulk Modulus (GPa) = 41.09599 48.60987 44.85293
# Shear Modulus (GPa) = -38.89951 21.05766 -8.92093
#
# Velocity S-wave (km/s) = -4.24460 3.12298 -2.03268
# Velocity P-wave (km/s) = 2.23343 5.95970 3.90703
#
# Compressibility (1/GPa) = 0.02433327
#
# Stress axis : x y z
#
# Youngs Moduli (GPa) = 107.86040 94.47308 51.58573
#
# Poissons Ratio (x) = 0.22874 0.03243
# Poissons Ratio (y) = 0.26115 0.22720
# Poissons Ratio (z) = 0.06781 0.41608
#
# Static dielectric constant tensor:
#      x y z
#    x 1.838250 0.000000 0.017850 
#    y 0.000000 1.827370 0.000000 
#    z 0.017850 0.000000 1.794890 
# 
# From -- ./inp_files/252580.got.cif
#   From: 2010.05.17/outbox.cif.g08.bks.cpg/sg12_127_cif.got.tgz:252580.got - 2010.06.03 13:09:07.
