data_PCOD9201848
_publ_section_title
;
Structure prediction by ZEFSAII (Michael W. Deem and Ramdas Pophale) SiO2 
 PCOD9201848
Probable space group: C 2/M
;
_chemical_formula_sum "Si O2"
_cell_formula_units_Z 56
_cell_length_a 9.380616
_cell_length_b 26.654392
_cell_length_c 12.271390
_cell_angle_alpha 90.000000
_cell_angle_beta 118.754389
_cell_angle_gamma 90.000000
_cell_volume 2689.923350
_symmetry_space_group_name_H-M "C 2/M"
_symmetry_group_IT_number 12
_symmetry_cell_setting 'monoclinic'
loop_
_space_group_symop_operation_xyz
x,y,z
-x,y,-z
-x,-y,-z
x,-y,z
1/2+x,1/2+y,z
1/2-x,1/2+y,-z
1/2-x,1/2-y,-z
1/2+x,1/2-y,z
loop_
_atom_site_type_symbol
_atom_site_label
_atom_site_fract_x
_atom_site_fract_y
_atom_site_fract_z
Si Si1 0.973197 0.856320 0.663508
Si Si2 0.182547 0.942055 0.057884
Si Si3 0.288741 0.557772 0.190974
Si Si4 0.696188 0.722148 0.258855
Si Si5 0.617566 0.782853 0.892171
Si Si6 0.512466 0.116976 0.816352
Si Si7 0.240678 0.818732 0.615129
O O1 0.881334 0.829714 0.728777
O O2 0.853971 0.846075 0.517324
O O3 0.050278 0.910710 0.714785
O O4 0.134958 0.826403 0.686626
O O5 0.333706 0.914364 0.169903
O O6 0.174766 0.000000 0.092775
O O7 0.221892 0.941468 0.943679
O O8 0.000000 0.920209 0.000000
O O9 0.301433 0.500000 0.231248
O O10 0.123374 0.582130 0.177574
O O11 0.551100 0.754699 0.155163
O O12 0.829054 0.715406 0.215236
O O13 0.746380 0.758251 0.378827
O O14 0.596254 0.840070 0.921720
O O15 0.750000 0.750000 0.000000
O O16 0.406241 0.150479 0.693361
#
# Coordination Sequence:
#
# PCOD9201848 Si02
#       7
#     8   8   8   8   8   8   8
#     4  10  20  37  65  89 127 162 215 262 303 368
#     4  10  22  38  61  89 120 159 203 258 316 374
#     4  10  22  41  66  91 121 163 214 268 318 367
#     4  11  21  39  58  87 126 171 204 252 305 372
#     4  11  25  37  57  90 127 168 202 249 315 379
#     4  10  22  38  61  88 123 158 209 252 310 374
#     4   9  20  39  58  92 125 164 211 253 303 369
#
# _framework density 20.818439000000001
#
# number of rings (size 3 to 8) (size 9 to 14) (size 15 to 20)
#    0.000    1.857    1.429    1.714    4.000    3.429 
#    0.000    6.429    0.000    0.000    0.000    3.000 
#    0.000    0.000    0.000    0.000    0.000    0.000 
#
# Total GULP energy -156099.119534 kJ/mol
# GULP energy per Si atom -5574.968555 kJ/mol
# Density = 2.077105 g / cm^3
# Si number density = 20.818439 Si / 1000 Ang^3
#
#
#
# Elastic Constant Matrix: (Units=GPa)
#
#
# Indices 1 2 3 4 5 6 
#
# 1 102.7941 48.0656 28.0585 0.0000 23.9198 0.0000
# 2 48.0656 145.6649 35.4484 0.0000 16.9417 0.0000
# 3 28.0585 35.4484 53.1956 0.0000 17.7704 0.0000
# 4 0.0000 0.0000 0.0000 16.7281 0.0000 10.6375
# 5 23.9198 16.9417 17.7704 0.0000 32.4839 0.0000
# 6 0.0000 0.0000 0.0000 10.6375 0.0000 39.2089
#
#
#
# Elastic Compliance Matrix: (Units=1/GPa)
#
#
# Indices 1 2 3 4 5 6 
#
# 1 0.013479 -0.002959 -0.002861 0.000000 -0.006817 0.000000
# 2 -0.002959 0.008910 -0.004346 0.000000 -0.000090 0.000000
# 3 -0.002861 -0.004346 0.026605 0.000000 -0.010181 0.000000
# 4 0.000000 0.000000 0.000000 0.072243 0.000000 -0.019600
# 5 -0.006817 -0.000090 -0.010181 0.000000 0.041421 0.000000
# 6 0.000000 0.000000 0.000000 -0.019600 0.000000 0.030822
#
#
# Mechanical properties :
#
#
# Convention : Reuss Voigt Hill
#
# Bulk Modulus (GPa) = 34.88950 58.31106 46.60028
# Shear Modulus (GPa) = 22.38494 30.35632 26.37063
#
# Velocity S-wave (km/s) = 3.28265 3.82271 3.56293
# Velocity P-wave (km/s) = 5.58239 6.89596 6.27365
#
# Compressibility (1/GPa) = 0.02866192
#
# Stress axis : x y z
#
# Youngs Moduli (GPa) = 74.19074 112.23879 37.58721
#
# Poissons Ratio (x) = 0.33207 0.10752
# Poissons Ratio (y) = 0.21950 0.16337
# Poissons Ratio (z) = 0.21223 0.48784
#
# Static dielectric constant tensor:
#      x y z
#    x 1.754730 0.000000 0.005120 
#    y 0.000000 1.789680 0.000000 
#    z 0.005120 0.000000 1.813450 
# 
# From -- ./inp_files/198957.got.cif
#   From: 2010.05.17/outbox.cif.g08.bks.cpg/sg12_100_cif.got.tgz:198957.got - 2010.06.03 13:09:07.
