data_PCOD9201163
_publ_section_title
;
Structure prediction by ZEFSAII (Michael W. Deem and Ramdas Pophale) SiO2 
 PCOD9201163
Probable space group: C 2/M
;
_chemical_formula_sum "Si O2"
_cell_formula_units_Z 56
_cell_length_a 18.973302
_cell_length_b 8.898429
_cell_length_c 18.535541
_cell_angle_alpha 90.000000
_cell_angle_beta 111.122156
_cell_angle_gamma 90.000000
_cell_volume 2919.151939
_symmetry_space_group_name_H-M "C 2/M"
_symmetry_group_IT_number 12
_symmetry_cell_setting 'monoclinic'
loop_
_space_group_symop_operation_xyz
x,y,z
-x,y,-z
-x,-y,-z
x,-y,z
1/2+x,1/2+y,z
1/2-x,1/2+y,-z
1/2-x,1/2-y,-z
1/2+x,1/2-y,z
loop_
_atom_site_type_symbol
_atom_site_label
_atom_site_fract_x
_atom_site_fract_y
_atom_site_fract_z
Si Si1 0.635927 0.818906 0.149731
Si Si2 0.309317 0.321899 0.468310
Si Si3 0.917456 0.679912 0.270984
Si Si4 0.223166 0.819524 0.706259
Si Si5 0.961780 0.328325 0.564178
Si Si6 0.036608 0.319098 0.875585
Si Si7 0.823219 0.820247 0.987603
O O1 0.692318 0.782129 0.236499
O O2 0.548791 0.778277 0.133108
O O3 0.668351 0.739401 0.090798
O O4 0.638169 0.000000 0.139931
O O5 0.300084 0.500000 0.463476
O O6 0.250000 0.250000 0.500000
O O7 0.296956 0.265211 0.381684
O O8 0.390525 0.277021 0.528564
O O9 0.908022 0.500000 0.272655
O O10 0.838085 0.755127 0.260778
O O11 0.948097 0.714219 0.202840
O O12 0.978532 0.724000 0.354152
O O13 0.216708 0.000000 0.704283
O O14 0.938290 0.500000 0.574414
O O15 0.000000 0.333420 0.500000
O O16 0.044688 0.500000 0.888927
O O17 0.100803 0.235538 0.944491
O O18 0.817379 0.000000 0.986889
O O19 0.750000 0.750000 0.000000
#
# Coordination Sequence:
#
# PCOD9201163 Si02
#       7
#     8   8   8   8   8   8   8
#     4  10  22  41  64  90 123 160 197 241 296 354
#     4  11  24  39  59  86 120 159 203 252 303 357
#     4  10  21  37  61  89 119 158 202 247 295 355
#     4  10  22  39  60  86 119 158 200 249 298 352
#     4  10  20  37  61  87 119 158 201 249 300 352
#     4  10  22  40  64  92 123 159 198 241 295 355
#     4  12  25  42  65  92 123 157 198 244 294 353
#
# _framework density 19.183653
#
# number of rings (size 3 to 8) (size 9 to 14) (size 15 to 20)
#    0.000    1.571    1.429    3.000    2.000    7.143 
#    0.000    0.000    0.000    0.000    0.000    0.000 
#    0.000    0.000    0.000    0.000    0.000    0.000 
#
# Total GULP energy -156455.823693 kJ/mol
# GULP energy per Si atom -5587.707989 kJ/mol
# Density = 1.913999 g / cm^3
# Si number density = 19.183653 Si / 1000 Ang^3
#
#
#
# Elastic Constant Matrix: (Units=GPa)
#
#
# Indices 1 2 3 4 5 6 
#
# 1 132.3345 41.6121 28.4090 0.0000 7.2591 0.0000
# 2 41.6121 40.9108 21.3463 0.0000 4.6768 0.0000
# 3 28.4090 21.3463 70.9138 0.0000 16.5153 0.0000
# 4 0.0000 0.0000 0.0000 7.5629 0.0000 3.4602
# 5 7.2591 4.6768 16.5153 0.0000 34.1357 0.0000
# 6 0.0000 0.0000 0.0000 3.4602 0.0000 35.3320
#
#
#
# Elastic Compliance Matrix: (Units=1/GPa)
#
#
# Indices 1 2 3 4 5 6 
#
# 1 0.011207 -0.010747 -0.001175 0.000000 -0.000342 0.000000
# 2 -0.010747 0.039306 -0.007669 0.000000 0.000610 0.000000
# 3 -0.001175 -0.007669 0.018683 0.000000 -0.007739 0.000000
# 4 0.000000 0.000000 0.000000 0.138428 0.000000 -0.013557
# 5 -0.000342 0.000610 -0.007739 0.000000 0.033028 0.000000
# 6 0.000000 0.000000 0.000000 -0.013557 0.000000 0.029631
#
#
# Mechanical properties :
#
#
# Convention : Reuss Voigt Hill
#
# Bulk Modulus (GPa) = 33.31654 47.43264 40.37459
# Shear Modulus (GPa) = 15.65102 25.59222 20.62162
#
# Velocity S-wave (km/s) = 2.85941 3.65645 3.28221
# Velocity P-wave (km/s) = 5.32038 6.52728 5.95449
#
# Compressibility (1/GPa) = 0.03001512
#
# Stress axis : x y z
#
# Youngs Moduli (GPa) = 89.23061 25.44141 53.52473
#
# Poissons Ratio (x) = 0.27341 0.06289
# Poissons Ratio (y) = 0.95895 0.41046
# Poissons Ratio (z) = 0.10484 0.19510
#
# Static dielectric constant tensor:
#      x y z
#    x 1.584060 0.000000 -0.019320 
#    y 0.000000 1.653270 0.000000 
#    z -0.019320 0.000000 1.656410 
# 
# From -- ./inp_files/275242.got.cif
#   From: 2010.05.17/outbox.cif.g08.bks.cpg/sg12_138_cif.got.tgz:275242.got - 2010.06.03 13:09:07.
