data_PCOD9201954
_publ_section_title
;
Structure prediction by ZEFSAII (Michael W. Deem and Ramdas Pophale) SiO2 
 PCOD9201954
Probable space group: C 2/M
;
_chemical_formula_sum "Si O2"
_cell_formula_units_Z 46
_cell_length_a 14.118694
_cell_length_b 5.722206
_cell_length_c 26.162040
_cell_angle_alpha 90.000000
_cell_angle_beta 53.566003
_cell_angle_gamma 90.000000
_cell_volume 1700.505710
_symmetry_space_group_name_H-M "C 2/M"
_symmetry_group_IT_number 12
_symmetry_cell_setting 'monoclinic'
loop_
_space_group_symop_operation_xyz
x,y,z
-x,y,-z
-x,-y,-z
x,-y,z
1/2+x,1/2+y,z
1/2-x,1/2+y,-z
1/2-x,1/2-y,-z
1/2+x,1/2-y,z
loop_
_atom_site_type_symbol
_atom_site_label
_atom_site_fract_x
_atom_site_fract_y
_atom_site_fract_z
Si Si1 0.835453 0.749767 0.911498
Si Si2 0.419717 0.249045 0.766591
Si Si3 0.000000 0.500000 0.500000
Si Si4 0.046222 0.749839 0.927142
Si Si5 0.647397 0.500000 0.576558
Si Si6 0.800403 0.249637 0.240562
Si Si7 0.281326 0.000000 0.639528
Si Si8 0.131376 0.500000 0.555274
O O1 0.771313 0.500000 0.938860
O O2 0.882467 0.748179 0.838235
O O3 0.940278 0.749977 0.919800
O O4 0.771545 0.000000 0.938222
O O5 0.479709 0.500000 0.738368
O O6 0.304768 0.249940 0.766918
O O7 0.481271 0.000000 0.736662
O O8 0.914452 0.500000 0.578393
O O9 0.890066 0.500000 0.497903
O O10 0.109935 0.500000 0.899535
O O11 0.109817 0.000000 0.900809
O O12 0.000000 0.748193 0.000000
O O13 0.702639 0.500000 0.614922
O O14 0.723788 0.500000 0.497271
O O15 0.588487 0.244133 0.592136
O O16 0.862755 0.500000 0.217644
O O17 0.745015 0.217081 0.314453
O O18 0.866872 0.000000 0.212984
#
# Coordination Sequence:
#
# PCOD9201954 Si02
#       8
#     8   8   2   8   4   8   4   4
#     4   8  12  16  23  33  45  66  91 121 158 201
#     4   8  12  19  29  41  59  78 103 132 168 209
#     4  10  20  38  48  72  88 112 136 166 196 228
#     4   8  12  16  20  27  40  58  84 117 154 195
#     4   9  18  32  50  63  88 108 138 156 196 222
#     4   8  15  25  37  55  74  96 119 150 183 223
#     4   9  19  30  49  66  86 110 133 164 193 239
#     4   9  19  34  47  68  84 112 132 166 185 230
#
# _framework density 27.050775999999999
#
# number of rings (size 3 to 8) (size 9 to 14) (size 15 to 20)
#    0.522    3.130    0.000    0.000    1.217    0.348 
#    3.130    0.000    0.000    0.000    0.000    0.000 
#    0.000    0.000    0.000    0.000    0.000    0.000 
#
# Total GULP energy -128046.954390 kJ/mol
# GULP energy per Si atom -5567.258887 kJ/mol
# Density = 2.698921 g / cm^3
# Si number density = 27.050776 Si / 1000 Ang^3
#
#
#
# Elastic Constant Matrix: (Units=GPa)
#
#
# Indices 1 2 3 4 5 6 
#
# 1 135.4159 19.0321 41.8160 0.0011 55.6192 0.0016
# 2 19.0321 357.7205 38.3962 0.0170 -4.6920 0.0225
# 3 41.8160 38.3962 150.3176 0.0052 25.7171 0.0102
# 4 0.0011 0.0170 0.0052 0.4565 0.0003 21.8747
# 5 55.6192 -4.6920 25.7171 0.0003 49.2593 0.0003
# 6 0.0016 0.0225 0.0102 21.8747 0.0003 37.5122
#
#
#
# Elastic Compliance Matrix: (Units=1/GPa)
#
#
# Indices 1 2 3 4 5 6 
#
# 1 0.014244 -0.000847 -0.001077 0.000000 -0.015602 0.000000
# 2 -0.000847 0.002948 -0.000801 0.000001 0.001655 -0.000002
# 3 -0.001077 -0.000801 0.007644 -0.000001 -0.002851 -0.000001
# 4 0.000000 0.000001 -0.000001 -0.081304 0.000001 0.047412
# 5 -0.015602 0.001655 -0.002851 0.000001 0.039563 0.000000
# 6 0.000000 -0.000002 -0.000001 0.047412 0.000000 -0.000989
#
#
# Mechanical properties :
#
#
# Convention : Reuss Voigt Hill
#
# Bulk Modulus (GPa) = 51.57821 93.54919 72.56370
# Shear Modulus (GPa) = -835.86748 53.72626 -391.07061
#
# Velocity S-wave (km/s) = -17.59745 4.46143 -12.03673
# Velocity P-wave (km/s) = 19.84402 7.82286 12.89550
#
# Compressibility (1/GPa) = 0.01938803
#
# Stress axis : x y z
#
# Youngs Moduli (GPa) = 70.20301 339.19222 130.81321
#
# Poissons Ratio (x) = 0.28726 0.14089
# Poissons Ratio (y) = 0.05945 0.10473
# Poissons Ratio (z) = 0.07561 0.27157
#
# Static dielectric constant tensor:
#      x y z
#    x 2.229050 0.000000 -0.068770 
#    y 0.000000 2.188240 0.000000 
#    z -0.068770 0.000000 2.062590 
# 
# From -- ./inp_files/374716.got.cif
#   From: 2010.05.17/outbox.cif.g08.bks.cpg/sg12_188_cif.got.tgz:374716.got - 2010.06.03 13:09:07.
