data_PCOD9201234
_publ_section_title
;
Structure prediction by ZEFSAII (Michael W. Deem and Ramdas Pophale) SiO2 
 PCOD9201234
Probable space group: C 2/M
;
_chemical_formula_sum "Si O2"
_cell_formula_units_Z 48
_cell_length_a 29.236288
_cell_length_b 19.087817
_cell_length_c 12.646272
_cell_angle_alpha 90.000000
_cell_angle_beta 18.604319
_cell_angle_gamma 90.000000
_cell_volume 2251.508340
_symmetry_space_group_name_H-M "C 2/M"
_symmetry_group_IT_number 12
_symmetry_cell_setting 'monoclinic'
loop_
_space_group_symop_operation_xyz
x,y,z
-x,y,-z
-x,-y,-z
x,-y,z
1/2+x,1/2+y,z
1/2-x,1/2+y,-z
1/2-x,1/2-y,-z
1/2+x,1/2-y,z
loop_
_atom_site_type_symbol
_atom_site_label
_atom_site_fract_x
_atom_site_fract_y
_atom_site_fract_z
Si Si1 0.148928 0.278186 0.630727
Si Si2 0.995078 0.670588 0.395540
Si Si3 0.748565 0.920402 0.475150
Si Si4 0.290094 0.703901 0.101930
Si Si5 0.722881 0.083391 0.778031
Si Si6 0.472242 0.418456 0.807481
O O1 0.250000 0.250000 0.500000
O O2 0.151244 0.362686 0.632273
O O3 0.208099 0.263479 0.384624
O O4 0.000000 0.250446 0.000000
O O5 0.000000 0.635946 0.500000
O O6 0.835211 0.686773 0.706213
O O7 0.091376 0.740640 0.193895
O O8 0.080393 0.623179 0.124877
O O9 0.757010 0.903554 0.580244
O O10 0.696128 0.000000 0.577767
O O11 0.900181 0.916306 0.082168
O O12 0.377522 0.634553 0.945995
O O13 0.862047 0.102965 0.543237
O O14 0.704288 0.000000 0.830323
O O15 0.463993 0.500000 0.790596
#
# Coordination Sequence:
#
# PCOD9201234 Si02
#       6
#     8   8   8   8   8   8
#     4  11  22  35  55  87 123 154 185 227 285 354
#     4  12  26  44  63  82 110 152 206 259 301 338
#     4   9  18  33  57  89 123 157 189 223 274 347
#     4  11  23  40  62  86 116 154 197 243 294 350
#     4  10  20  37  61  89 122 157 194 237 288 347
#     4   9  19  36  61  93 125 155 186 226 284 358
#
# _framework density 21.319040999999999
#
# number of rings (size 3 to 8) (size 9 to 14) (size 15 to 20)
#    0.000    1.667    0.000    5.000    0.000    7.333 
#    0.000    3.333    0.000    2.500    0.000    0.000 
#    0.000    0.000    0.000    0.000    0.000    0.000 
#
# Total GULP energy -134105.552028 kJ/mol
# GULP energy per Si atom -5587.731335 kJ/mol
# Density = 2.127052 g / cm^3
# Si number density = 21.319041 Si / 1000 Ang^3
#
#
#
# Elastic Constant Matrix: (Units=GPa)
#
#
# Indices 1 2 3 4 5 6 
#
# 1 62.8867 9.1245 4.2201 -0.0004 -10.4642 -0.0001
# 2 9.1245 62.6279 22.1511 -0.0006 -6.2727 -0.0002
# 3 4.2201 22.1511 59.3107 -0.0021 -21.6403 -0.0008
# 4 -0.0004 -0.0006 -0.0021 18.9027 0.0002 -10.8200
# 5 -10.4642 -6.2727 -21.6403 0.0002 26.5715 -0.0001
# 6 -0.0001 -0.0002 -0.0008 -10.8200 -0.0001 8.9111
#
#
#
# Elastic Compliance Matrix: (Units=1/GPa)
#
#
# Indices 1 2 3 4 5 6 
#
# 1 0.017539 -0.002723 0.002923 0.000003 0.008645 0.000004
# 2 -0.002723 0.018880 -0.008000 -0.000002 -0.003131 -0.000003
# 3 0.002923 -0.008000 0.027561 0.000014 0.021709 0.000019
# 4 0.000003 -0.000002 0.000014 0.173468 0.000011 0.210630
# 5 0.008645 -0.003131 0.021709 0.000011 0.057980 0.000016
# 6 0.000004 -0.000003 0.000019 0.210630 0.000016 0.367972
#
#
# Mechanical properties :
#
#
# Convention : Reuss Voigt Hill
#
# Bulk Modulus (GPa) = 20.66950 28.42408 24.54679
# Shear Modulus (GPa) = 7.19294 20.83237 14.01265
#
# Velocity S-wave (km/s) = 1.83882 3.12937 2.56654
# Velocity P-wave (km/s) = 3.77157 5.13993 4.50797
#
# Compressibility (1/GPa) = 0.04838047
#
# Stress axis : x y z
#
# Youngs Moduli (GPa) = 57.01541 52.96610 36.28354
#
# Poissons Ratio (x) = 0.14425 -0.10607
# Poissons Ratio (y) = 0.15528 0.29026
# Poissons Ratio (z) = -0.16668 0.42371
#
# Static dielectric constant tensor:
#      x y z
#    x 1.743770 0.000000 0.017260 
#    y 0.000000 1.810920 0.000000 
#    z 0.017260 0.000000 1.751930 
# 
# From -- ./inp_files/184764.got.cif
#   From: 2010.05.17/outbox.cif.g08.bks.cpg/sg12_93_cif.got.tgz:184764.got - 2010.06.03 13:09:07.
