data_PCOD9201164
_publ_section_title
;
Structure prediction by ZEFSAII (Michael W. Deem and Ramdas Pophale) SiO2 
 PCOD9201164
Probable space group: C 2/M
;
_chemical_formula_sum "Si O2"
_cell_formula_units_Z 58
_cell_length_a 30.247866
_cell_length_b 8.804631
_cell_length_c 12.725395
_cell_angle_alpha 90.000000
_cell_angle_beta 108.528262
_cell_angle_gamma 90.000000
_cell_volume 3213.379502
_symmetry_space_group_name_H-M "C 2/M"
_symmetry_group_IT_number 12
_symmetry_cell_setting 'monoclinic'
loop_
_space_group_symop_operation_xyz
x,y,z
-x,y,-z
-x,-y,-z
x,-y,z
1/2+x,1/2+y,z
1/2-x,1/2+y,-z
1/2-x,1/2-y,-z
1/2+x,1/2-y,z
loop_
_atom_site_type_symbol
_atom_site_label
_atom_site_fract_x
_atom_site_fract_y
_atom_site_fract_z
Si Si1 0.846375 0.679242 0.240307
Si Si2 0.398753 0.684081 0.701297
Si Si3 0.098700 0.182148 0.912287
Si Si4 0.003672 0.184608 0.123492
Si Si5 0.403978 0.331626 0.463558
Si Si6 0.848798 0.318365 0.854068
Si Si7 0.750568 0.181427 0.117856
Si Si8 0.500000 0.500000 0.500000
O O1 0.841196 0.500000 0.228157
O O2 0.869227 0.743003 0.150891
O O3 0.880443 0.725475 0.360396
O O4 0.795633 0.754308 0.210954
O O5 0.396565 0.500000 0.707807
O O6 0.449256 0.734065 0.784499
O O7 0.396381 0.722139 0.576800
O O8 0.360178 0.757679 0.746877
O O9 0.044540 0.225280 0.856070
O O10 0.102421 0.000000 0.908887
O O11 0.115463 0.237437 0.038845
O O12 0.005027 0.000000 0.122638
O O13 0.000000 0.236214 0.000000
O O14 0.381164 0.500000 0.435300
O O15 0.458583 0.369787 0.485417
O O16 0.854890 0.500000 0.863584
O O17 0.797222 0.281268 0.857537
O O18 0.753813 0.000000 0.111426
O O19 0.750000 0.250000 0.000000
#
# Coordination Sequence:
#
# PCOD9201164 Si02
#       8
#     8   8   8   8   8   8   8   2
#     4  12  25  40  60  90 127 158 203 265 322 378
#     4  10  20  37  61  87 119 160 209 252 299 374
#     4  11  21  34  60  86 117 161 205 252 305 367
#     4   9  17  30  53  86 116 150 200 243 288 358
#     4   9  21  39  66  90 118 164 214 255 298 359
#     4  11  23  38  57  87 126 158 197 252 316 378
#     4  11  23  40  63  90 121 162 209 261 318 378
#     4   8  20  40  70  92 118 164 222 268 284 360
#
# _framework density 18.049534000000001
#
# number of rings (size 3 to 8) (size 9 to 14) (size 15 to 20)
#    0.414    1.241    2.759    2.483    1.931    2.207 
#    0.000    3.103    0.000    0.000    0.000    0.000 
#    0.000    0.000    0.000    0.000    0.000    0.000 
#
# Total GULP energy -161573.272855 kJ/mol
# GULP energy per Si atom -5571.492167 kJ/mol
# Density = 1.800845 g / cm^3
# Si number density = 18.049534 Si / 1000 Ang^3
#
#
#
# Elastic Constant Matrix: (Units=GPa)
#
#
# Indices 1 2 3 4 5 6 
#
# 1 122.0869 40.2489 34.1578 0.0000 -4.5253 0.0000
# 2 40.2489 47.4666 24.7238 0.0000 -1.6746 0.0000
# 3 34.1578 24.7238 72.5761 0.0000 -5.8099 0.0000
# 4 0.0000 0.0000 0.0000 22.0663 0.0000 -1.8495
# 5 -4.5253 -1.6746 -5.8099 0.0000 14.9970 0.0000
# 6 0.0000 0.0000 0.0000 -1.8495 0.0000 22.6740
#
#
#
# Elastic Compliance Matrix: (Units=1/GPa)
#
#
# Indices 1 2 3 4 5 6 
#
# 1 0.011798 -0.008658 -0.002472 0.000000 0.001635 0.000000
# 2 -0.008658 0.031971 -0.006955 0.000000 -0.001737 0.000000
# 3 -0.002472 -0.006955 0.017740 0.000000 0.005350 0.000000
# 4 0.000000 0.000000 0.000000 0.045630 0.000000 0.003722
# 5 0.001635 -0.001737 0.005350 0.000000 0.069052 0.000000
# 6 0.000000 0.000000 0.000000 0.003722 0.000000 0.044407
#
#
# Mechanical properties :
#
#
# Convention : Reuss Voigt Hill
#
# Bulk Modulus (GPa) = 39.46817 48.93228 44.20022
# Shear Modulus (GPa) = 18.85271 21.48072 20.16672
#
# Velocity S-wave (km/s) = 3.23538 3.45352 3.34623
# Velocity P-wave (km/s) = 5.98924 6.56287 6.28260
#
# Compressibility (1/GPa) = 0.02533687
#
# Stress axis : x y z
#
# Youngs Moduli (GPa) = 84.76321 31.27867 56.37064
#
# Poissons Ratio (x) = 0.27082 0.13935
# Poissons Ratio (y) = 0.73391 0.39207
# Poissons Ratio (z) = 0.20954 0.21755
#
# Static dielectric constant tensor:
#      x y z
#    x 1.623030 0.000000 -0.001540 
#    y 0.000000 1.611190 0.000000 
#    z -0.001540 0.000000 1.616810 
# 
# From -- ./inp_files/186732.got.cif
#   From: 2010.05.17/outbox.cif.g08.bks.cpg/sg12_94_cif.got.tgz:186732.got - 2010.06.03 13:09:07.
