data_PCOD9201308
_publ_section_title
;
Structure prediction by ZEFSAII (Michael W. Deem and Ramdas Pophale) SiO2 
 PCOD9201308
Probable space group: C 2/M
;
_chemical_formula_sum "Si O2"
_cell_formula_units_Z 64
_cell_length_a 22.780864
_cell_length_b 19.836175
_cell_length_c 9.260832
_cell_angle_alpha 90.000000
_cell_angle_beta 54.087737
_cell_angle_gamma 90.000000
_cell_volume 3389.363682
_symmetry_space_group_name_H-M "C 2/M"
_symmetry_group_IT_number 12
_symmetry_cell_setting 'monoclinic'
loop_
_space_group_symop_operation_xyz
x,y,z
-x,y,-z
-x,-y,-z
x,-y,z
1/2+x,1/2+y,z
1/2-x,1/2+y,-z
1/2-x,1/2-y,-z
1/2+x,1/2-y,z
loop_
_atom_site_type_symbol
_atom_site_label
_atom_site_fract_x
_atom_site_fract_y
_atom_site_fract_z
Si Si1 0.427815 0.882845 0.175308
Si Si2 0.720499 0.924489 0.267293
Si Si3 0.129017 0.253413 0.202850
Si Si4 0.925525 0.763681 0.034768
Si Si5 0.069863 0.367087 0.486303
Si Si6 0.232217 0.575394 0.671912
Si Si7 0.756784 0.858050 0.933840
Si Si8 0.284435 0.319038 0.390619
O O1 0.418204 0.812977 0.102151
O O2 0.441036 0.867225 0.325400
O O3 0.350391 0.919055 0.268796
O O4 0.500000 0.915264 0.000000
O O5 0.635696 0.917399 0.357474
O O6 0.734735 0.861459 0.352393
O O7 0.737073 0.000000 0.296307
O O8 0.764664 0.905638 0.061080
O O9 0.090175 0.293992 0.387898
O O10 0.171412 0.186714 0.192348
O O11 0.080495 0.237595 0.130830
O O12 0.192061 0.304669 0.057317
O O13 0.857772 0.802925 0.200948
O O14 0.000000 0.788782 0.000000
O O15 0.000000 0.389903 0.500000
O O16 0.258101 0.500000 0.613535
O O17 0.232329 0.596572 0.837241
O O18 0.285389 0.629124 0.520776
O O19 0.250000 0.250000 0.500000
#
# Coordination Sequence:
#
# PCOD9201308 Si02
#       8
#     8   8   8   8   8   8   8   8
#     4  11  23  38  57  86 128 166 205 251 305 375
#     4  11  23  40  62  88 123 163 209 258 310 373
#     4  10  20  37  61  93 118 155 203 266 301 364
#     4  11  21  38  63  93 125 157 203 262 324 371
#     4  11  23  36  58  89 124 167 211 253 305 368
#     4  12  25  40  62  91 126 166 212 258 313 374
#     4  10  21  37  61  88 121 156 204 258 315 357
#     4  12  22  39  65  95 121 165 208 265 311 367
#
# _framework density 18.882601999999999
#
# number of rings (size 3 to 8) (size 9 to 14) (size 15 to 20)
#    0.000    1.000    5.000    2.250    7.000    0.500 
#    0.000    0.000    0.000    1.500    0.000    0.875 
#    0.000    0.000    0.000    0.000    0.000    0.000 
#
# Total GULP energy -178575.404179 kJ/mol
# GULP energy per Si atom -5580.481381 kJ/mol
# Density = 1.883962 g / cm^3
# Si number density = 18.882602 Si / 1000 Ang^3
#
#
#
# Elastic Constant Matrix: (Units=GPa)
#
#
# Indices 1 2 3 4 5 6 
#
# 1 86.5692 34.9732 20.7211 0.0000 16.4672 0.0000
# 2 34.9732 113.2979 31.9682 0.0000 2.3013 0.0000
# 3 20.7211 31.9682 86.9176 0.0000 20.2069 0.0000
# 4 0.0000 0.0000 0.0000 -3.6031 0.0000 -5.7265
# 5 16.4672 2.3013 20.2069 0.0000 35.4822 0.0000
# 6 0.0000 0.0000 0.0000 -5.7265 0.0000 13.6726
#
#
#
# Elastic Compliance Matrix: (Units=1/GPa)
#
#
# Indices 1 2 3 4 5 6 
#
# 1 0.014557 -0.004235 -0.000468 0.000000 -0.006215 0.000000
# 2 -0.004235 0.011164 -0.003902 0.000000 0.003463 0.000000
# 3 -0.000468 -0.003902 0.014917 0.000000 -0.008025 0.000000
# 4 0.000000 0.000000 0.000000 -0.166624 0.000000 -0.069787
# 5 -0.006215 0.003463 -0.008025 0.000000 0.035413 0.000000
# 6 0.000000 0.000000 0.000000 -0.069787 0.000000 0.043910
#
#
# Mechanical properties :
#
#
# Convention : Reuss Voigt Hill
#
# Bulk Modulus (GPa) = 42.68243 51.34553 47.01398
# Shear Modulus (GPa) = -231.00884 22.38515 -104.31184
#
# Velocity S-wave (km/s) = -11.07272 3.44683 -7.44058
# Velocity P-wave (km/s) = 11.86677 6.56444 6.99029
#
# Compressibility (1/GPa) = 0.02342884
#
# Stress axis : x y z
#
# Youngs Moduli (GPa) = 68.69780 89.57241 67.03554
#
# Poissons Ratio (x) = 0.37935 0.03136
# Poissons Ratio (y) = 0.29094 0.26155
# Poissons Ratio (z) = 0.03214 0.34948
#
# Static dielectric constant tensor:
#      x y z
#    x 1.697480 0.000000 0.027230 
#    y 0.000000 1.649930 0.000000 
#    z 0.027230 0.000000 1.713010 
# 
# From -- ./inp_files/89578.got.cif
#   From: 2010.05.17/outbox.cif.g08.bks.cpg/sg12_45_cif.got.tgz:89578.got - 2010.06.03 13:09:07.
