data_PCOD9201760
_publ_section_title
;
Structure prediction by ZEFSAII (Michael W. Deem and Ramdas Pophale) SiO2 
 PCOD9201760
Probable space group: C 2/M
;
_chemical_formula_sum "Si O2"
_cell_formula_units_Z 56
_cell_length_a 21.789489
_cell_length_b 15.770414
_cell_length_c 13.898489
_cell_angle_alpha 90.000000
_cell_angle_beta 35.896979
_cell_angle_gamma 90.000000
_cell_volume 2800.267891
_symmetry_space_group_name_H-M "C 2/M"
_symmetry_group_IT_number 12
_symmetry_cell_setting 'monoclinic'
loop_
_space_group_symop_operation_xyz
x,y,z
-x,y,-z
-x,-y,-z
x,-y,z
1/2+x,1/2+y,z
1/2-x,1/2+y,-z
1/2-x,1/2-y,-z
1/2+x,1/2-y,z
loop_
_atom_site_type_symbol
_atom_site_label
_atom_site_fract_x
_atom_site_fract_y
_atom_site_fract_z
Si Si1 0.725141 0.903256 0.273460
Si Si2 0.483271 0.680951 0.323938
Si Si3 0.685445 0.596702 0.341862
Si Si4 0.469489 0.402799 0.934342
Si Si5 0.616781 0.747663 0.306357
Si Si6 0.822093 0.313405 0.471536
Si Si7 0.599818 0.899459 0.813564
O O1 0.665834 0.836247 0.279300
O O2 0.728193 0.871964 0.381723
O O3 0.683033 0.000000 0.323003
O O4 0.844714 0.905238 0.087846
O O5 0.423965 0.608001 0.460518
O O6 0.490622 0.650183 0.205772
O O7 0.590239 0.719414 0.230843
O O8 0.399933 0.755901 0.433315
O O9 0.692210 0.500000 0.297672
O O10 0.682223 0.669764 0.266694
O O11 0.788227 0.613668 0.276189
O O12 0.510231 0.500000 0.877133
O O13 0.500000 0.367835 0.000000
O O14 0.500000 0.744702 0.500000
O O15 0.750000 0.250000 0.500000
O O16 0.887749 0.363925 0.308910
O O17 0.585409 0.000000 0.824645
O O18 0.500000 0.864935 0.000000
#
# Coordination Sequence:
#
# PCOD9201760 Si02
#       7
#     8   8   8   8   8   8   8
#     4  11  23  41  63  89 128 171 211 260 311 377
#     4  11  22  38  62  89 123 160 208 260 309 366
#     4  10  20  37  64  90 123 162 200 259 316 371
#     4  10  23  40  61  94 128 162 208 260 318 377
#     4  10  21  41  60  90 122 158 218 259 308 373
#     4  12  21  37  61  90 121 163 208 256 311 375
#     4  10  22  39  59  88 124 160 204 255 310 372
#
# _framework density 19.998086000000001
#
# number of rings (size 3 to 8) (size 9 to 14) (size 15 to 20)
#    0.000    1.429    4.286    1.714    0.000    6.857 
#    0.000    0.000    0.000    3.429    0.000    0.000 
#    0.000    0.000    0.000    0.000    0.000    0.000 
#
# Total GULP energy -156111.924107 kJ/mol
# GULP energy per Si atom -5575.425861 kJ/mol
# Density = 1.995257 g / cm^3
# Si number density = 19.998086 Si / 1000 Ang^3
#
#
#
# Elastic Constant Matrix: (Units=GPa)
#
#
# Indices 1 2 3 4 5 6 
#
# 1 77.6181 49.8831 -0.5200 0.0000 8.6547 0.0000
# 2 49.8831 101.5225 9.0736 0.0000 -7.0984 0.0000
# 3 -0.5200 9.0736 46.1340 0.0000 2.8908 0.0000
# 4 0.0000 0.0000 0.0000 19.4113 0.0000 -2.8174
# 5 8.6547 -7.0984 2.8908 0.0000 21.3828 0.0000
# 6 0.0000 0.0000 0.0000 -2.8174 0.0000 22.3372
#
#
#
# Elastic Compliance Matrix: (Units=1/GPa)
#
#
# Indices 1 2 3 4 5 6 
#
# 1 0.022250 -0.012190 0.003496 0.000000 -0.013525 0.000000
# 2 -0.012190 0.016992 -0.004177 0.000000 0.011140 0.000000
# 3 0.003496 -0.004177 0.022907 0.000000 -0.005898 0.000000
# 4 0.000000 0.000000 0.000000 0.052477 0.000000 0.006619
# 5 -0.013525 0.011140 -0.005898 0.000000 0.056736 0.000000
# 6 0.000000 0.000000 0.000000 0.006619 0.000000 0.045603
#
#
# Mechanical properties :
#
#
# Convention : Reuss Voigt Hill
#
# Bulk Modulus (GPa) = 27.46932 38.01646 32.74289
# Shear Modulus (GPa) = 19.61991 23.74879 21.68435
#
# Velocity S-wave (km/s) = 3.13563 3.44983 3.29648
# Velocity P-wave (km/s) = 5.18415 5.90929 5.55856
#
# Compressibility (1/GPa) = 0.03640425
#
# Stress axis : x y z
#
# Youngs Moduli (GPa) = 44.94480 58.85123 43.65558
#
# Poissons Ratio (x) = 0.71742 -0.15261
# Poissons Ratio (y) = 0.54789 0.18237
# Poissons Ratio (z) = -0.15712 0.24584
#
# Static dielectric constant tensor:
#      x y z
#    x 1.750550 0.000000 0.018870 
#    y 0.000000 1.736690 0.000000 
#    z 0.018870 0.000000 1.719930 
# 
# From -- ./inp_files/240899.got.cif
#   From: 2010.05.17/outbox.cif.g08.bks.cpg/sg12_121_cif.got.tgz:240899.got - 2010.06.03 13:09:07.
