data_PCOD9201181
_publ_section_title
;
Structure prediction by ZEFSAII (Michael W. Deem and Ramdas Pophale) SiO2 
 PCOD9201181
Probable space group: C 2/M
;
_chemical_formula_sum "Si O2"
_cell_formula_units_Z 44
_cell_length_a 14.581582
_cell_length_b 11.228545
_cell_length_c 24.318177
_cell_angle_alpha 90.000000
_cell_angle_beta 31.718777
_cell_angle_gamma 90.000000
_cell_volume 2093.335302
_symmetry_space_group_name_H-M "C 2/M"
_symmetry_group_IT_number 12
_symmetry_cell_setting 'monoclinic'
loop_
_space_group_symop_operation_xyz
x,y,z
-x,y,-z
-x,-y,-z
x,-y,z
1/2+x,1/2+y,z
1/2-x,1/2+y,-z
1/2-x,1/2-y,-z
1/2+x,1/2-y,z
loop_
_atom_site_type_symbol
_atom_site_label
_atom_site_fract_x
_atom_site_fract_y
_atom_site_fract_z
Si Si1 0.667273 0.000000 0.613384
Si Si2 0.551804 0.758960 0.619574
Si Si3 0.299517 0.361801 0.117141
Si Si4 0.506040 0.500000 0.359820
Si Si5 0.368609 0.000000 0.238785
Si Si6 0.094772 0.734497 0.123733
Si Si7 0.743865 0.636856 0.730759
O O1 0.560441 0.119647 0.651295
O O2 0.848323 0.000000 0.486071
O O3 0.687221 0.000000 0.668566
O O4 0.750000 0.750000 0.500000
O O5 0.509616 0.626726 0.663493
O O6 0.418643 0.783908 0.636434
O O7 0.256339 0.500000 0.126220
O O8 0.184472 0.279666 0.137042
O O9 0.289304 0.343785 0.187234
O O10 0.500000 0.343731 0.000000
O O11 0.693940 0.500000 0.292456
O O12 0.487463 0.885783 0.166155
O O13 0.938906 0.830278 0.203496
O O14 0.250000 0.750000 0.000000
O O15 0.787266 0.500000 0.697498
#
# Coordination Sequence:
#
# PCOD9201181 Si02
#       7
#     4   8   8   4   4   8   8
#     4  10  21  40  69  93 127 168 218 256 315 402
#     4  10  20  37  62  96 128 163 207 258 319 384
#     4  10  20  37  61  88 113 160 217 258 306 379
#     4  10  21  38  64 101 130 161 205 272 327 373
#     4  12  23  40  62  92 121 169 219 262 316 380
#     4  12  24  37  61  92 126 160 217 273 315 369
#     4  11  22  39  65  89 125 170 215 259 318 386
#
# _framework density 21.019089000000001
#
# number of rings (size 3 to 8) (size 9 to 14) (size 15 to 20)
#    0.000    1.273    5.455    1.364    1.273    0.000 
#    0.000    0.000   10.000    1.636    0.000   12.727 
#    0.000    0.000    0.000    0.000    0.000    0.000 
#
# Total GULP energy -122733.394644 kJ/mol
# GULP energy per Si atom -5578.790666 kJ/mol
# Density = 2.097125 g / cm^3
# Si number density = 21.019089 Si / 1000 Ang^3
#
#
#
# Elastic Constant Matrix: (Units=GPa)
#
#
# Indices 1 2 3 4 5 6 
#
# 1 84.5445 27.8963 28.1188 0.0000 -26.2046 0.0000
# 2 27.8963 138.3796 26.1444 0.0001 -12.7416 0.0000
# 3 28.1188 26.1444 101.7796 -0.0007 -22.7133 0.0000
# 4 0.0000 0.0001 -0.0007 32.4292 0.0000 -13.5157
# 5 -26.2046 -12.7416 -22.7133 0.0000 29.2695 0.0000
# 6 0.0000 0.0000 0.0000 -13.5157 0.0000 32.7853
#
#
#
# Elastic Compliance Matrix: (Units=1/GPa)
#
#
# Indices 1 2 3 4 5 6 
#
# 1 0.017055 -0.001971 -0.001197 0.000000 0.013483 0.000000
# 2 -0.001971 0.007938 -0.001351 0.000000 0.000643 0.000000
# 3 -0.001197 -0.001351 0.012255 0.000000 0.007850 0.000000
# 4 0.000000 0.000000 0.000000 0.037234 0.000000 0.015350
# 5 0.013483 0.000643 0.007850 0.000000 0.052608 0.000000
# 6 0.000000 0.000000 0.000000 0.015350 0.000000 0.036829
#
#
# Mechanical properties :
#
#
# Convention : Reuss Voigt Hill
#
# Bulk Modulus (GPa) = 35.44738 54.33585 44.89162
# Shear Modulus (GPa) = 27.41828 35.06644 31.24236
#
# Velocity S-wave (km/s) = 3.61563 4.08893 3.85954
# Velocity P-wave (km/s) = 5.85930 6.94257 6.42381
#
# Compressibility (1/GPa) = 0.02821083
#
# Stress axis : x y z
#
# Youngs Moduli (GPa) = 58.63255 125.97245 81.60125
#
# Poissons Ratio (x) = 0.24825 0.09767
# Poissons Ratio (y) = 0.11554 0.11026
# Poissons Ratio (z) = 0.07018 0.17022
#
# Static dielectric constant tensor:
#      x y z
#    x 1.740720 0.000000 -0.041440 
#    y 0.000000 1.822260 0.000000 
#    z -0.041440 0.000000 1.949820 
# 
# From -- ./inp_files/360737.got.cif
#   From: 2010.05.17/outbox.cif.g08.bks.cpg/sg12_181_cif.got.tgz:360737.got - 2010.06.03 13:09:07.
