data_PCOD9201562
_publ_section_title
;
Structure prediction by ZEFSAII (Michael W. Deem and Ramdas Pophale) SiO2 
 PCOD9201562
Probable space group: C 2/M
;
_chemical_formula_sum "Si O2"
_cell_formula_units_Z 40
_cell_length_a 30.763315
_cell_length_b 8.225251
_cell_length_c 29.663437
_cell_angle_alpha 90.000000
_cell_angle_beta 15.363673
_cell_angle_gamma 90.000000
_cell_volume 1988.653719
_symmetry_space_group_name_H-M "C 2/M"
_symmetry_group_IT_number 12
_symmetry_cell_setting 'monoclinic'
loop_
_space_group_symop_operation_xyz
x,y,z
-x,y,-z
-x,-y,-z
x,-y,z
1/2+x,1/2+y,z
1/2-x,1/2+y,-z
1/2-x,1/2-y,-z
1/2+x,1/2-y,z
loop_
_atom_site_type_symbol
_atom_site_label
_atom_site_fract_x
_atom_site_fract_y
_atom_site_fract_z
Si Si1 0.569644 0.696451 0.574471
Si Si2 0.061006 0.198225 0.390231
Si Si3 0.069907 0.696437 0.785984
Si Si4 0.560908 0.198237 0.987862
Si Si5 0.249842 0.807557 0.948717
O O1 0.570147 0.500000 0.573836
O O2 0.540965 0.750674 0.551376
O O3 0.749871 0.751946 0.410088
O O4 0.414223 0.748345 0.759194
O O5 0.250048 0.244253 0.194474
O O6 0.000000 0.255279 0.500000
O O7 0.053776 0.000000 0.398393
O O8 0.070601 0.500000 0.785464
O O9 0.041063 0.750748 0.866589
O O10 0.914496 0.748117 0.912062
O O11 0.553626 0.000000 0.994217
O O12 0.500000 0.255300 0.000000
O O13 0.249670 0.000000 0.947828
O O14 0.250000 0.750000 0.000000
#
# Coordination Sequence:
#
# PCOD9201562 Si02
#       5
#     8   8   8   8   8
#     4  10  20  37  62  92 125 159 200 252 305 358
#     4   9  15  25  47  84 125 159 197 244 293 344
#     4  10  20  37  62  92 125 159 200 252 305 358
#     4   9  15  25  47  84 125 159 197 244 293 344
#     4  12  26  44  66  88 118 158 204 254 311 368
#
# _framework density 20.11411
#
# number of rings (size 3 to 8) (size 9 to 14) (size 15 to 20)
#    0.000    2.000    2.000    3.000    0.000    6.400 
#    0.000    0.000    0.000    1.200    0.000    0.000 
#    0.000    0.000    0.000    0.000    0.000    0.000 
#
# Total GULP energy -111662.222151 kJ/mol
# GULP energy per Si atom -5583.111108 kJ/mol
# Density = 2.006833 g / cm^3
# Si number density = 20.114110 Si / 1000 Ang^3
#
#
#
# Elastic Constant Matrix: (Units=GPa)
#
#
# Indices 1 2 3 4 5 6 
#
# 1 149.7550 23.0460 97.1772 -0.0072 -1.3618 0.0026
# 2 23.0460 28.7761 31.8183 0.0961 -2.3885 -0.0239
# 3 97.1772 31.8183 197.2515 0.0155 -11.8477 -0.0036
# 4 -0.0072 0.0961 0.0155 8.4704 -0.0116 0.8102
# 5 -1.3618 -2.3885 -11.8477 -0.0116 31.5433 -0.0010
# 6 0.0026 -0.0239 -0.0036 0.8102 -0.0010 11.3960
#
#
#
# Elastic Compliance Matrix: (Units=1/GPa)
#
#
# Indices 1 2 3 4 5 6 
#
# 1 0.010112 -0.003183 -0.004560 0.000052 -0.001517 -0.000014
# 2 -0.003183 0.043312 -0.005350 -0.000495 0.001133 0.000125
# 3 -0.004560 -0.005350 0.008331 0.000046 0.002527 -0.000011
# 4 0.000052 -0.000495 0.000046 0.118873 0.000026 -0.008452
# 5 -0.001517 0.001133 0.002527 0.000026 0.032672 0.000005
# 6 -0.000014 0.000125 -0.000011 -0.008452 0.000005 0.088351
#
#
# Mechanical properties :
#
#
# Convention : Reuss Voigt Hill
#
# Bulk Modulus (GPa) = 28.11430 75.54061 51.82746
# Shear Modulus (GPa) = 14.71914 25.19802 19.95858
#
# Velocity S-wave (km/s) = 2.70808 3.54327 3.15345
# Velocity P-wave (km/s) = 4.87709 7.37409 6.25153
#
# Compressibility (1/GPa) = 0.03556908
#
# Stress axis : x y z
#
# Youngs Moduli (GPa) = 98.88851 23.08825 120.03644
#
# Poissons Ratio (x) = 0.07350 0.54732
# Poissons Ratio (y) = 0.31479 0.64223
# Poissons Ratio (z) = 0.45089 0.12353
#
# Static dielectric constant tensor:
#      x y z
#    x 1.678060 -0.000010 -0.013080 
#    y -0.000010 1.717680 0.000010 
#    z -0.013080 0.000010 1.727280 
# 
# From -- ./inp_files/368800.got.cif
#   From: 2010.05.17/outbox.cif.g08.bks.cpg/sg12_185_cif.got.tgz:368800.got - 2010.06.03 13:09:07.
