data_PCOD9201158
_publ_section_title
;
Structure prediction by ZEFSAII (Michael W. Deem and Ramdas Pophale) SiO2 
 PCOD9201158
Probable space group: C 2/M
;
_chemical_formula_sum "Si O2"
_cell_formula_units_Z 64
_cell_length_a 12.539911
_cell_length_b 18.604945
_cell_length_c 14.510244
_cell_angle_alpha 90.000000
_cell_angle_beta 83.714124
_cell_angle_gamma 90.000000
_cell_volume 3364.950586
_symmetry_space_group_name_H-M "C 2/M"
_symmetry_group_IT_number 12
_symmetry_cell_setting 'monoclinic'
loop_
_space_group_symop_operation_xyz
x,y,z
-x,y,-z
-x,-y,-z
x,-y,z
1/2+x,1/2+y,z
1/2-x,1/2+y,-z
1/2-x,1/2-y,-z
1/2+x,1/2-y,z
loop_
_atom_site_type_symbol
_atom_site_label
_atom_site_fract_x
_atom_site_fract_y
_atom_site_fract_z
Si Si1 0.472683 0.358016 0.900352
Si Si2 0.609964 0.587552 0.539566
Si Si3 0.728204 0.328804 0.190742
Si Si4 0.768657 0.414446 0.365962
Si Si5 0.972845 0.688981 0.106572
Si Si6 0.987301 0.584508 0.610709
Si Si7 0.651530 0.832636 0.236737
Si Si8 0.639778 0.415820 0.746224
O O1 0.348085 0.354833 0.884878
O O2 0.513767 0.275527 0.891131
O O3 0.535286 0.401765 0.816849
O O4 0.500000 0.384662 0.000000
O O5 0.500000 0.610483 0.500000
O O6 0.607742 0.500000 0.543238
O O7 0.708417 0.609377 0.464778
O O8 0.622307 0.612698 0.643527
O O9 0.719159 0.378896 0.280712
O O10 0.851354 0.327281 0.146895
O O11 0.686617 0.250336 0.226515
O O12 0.755070 0.500000 0.361921
O O13 0.895257 0.399887 0.359134
O O14 0.060582 0.656480 0.167774
O O15 0.000000 0.666270 0.000000
O O16 0.959218 0.500000 0.631593
O O17 0.000000 0.591978 0.500000
O O18 0.901881 0.637886 0.664164
O O19 0.760246 0.877236 0.215220
O O20 0.662375 0.500000 0.737556
#
# Coordination Sequence:
#
# PCOD9201158 Si02
#       8
#     8   8   8   8   8   8   8   8
#     4  10  23  38  61  88 117 156 199 245 300 357
#     4   9  18  34  57  84 116 159 201 234 283 352
#     4  11  22  40  64  90 120 154 197 251 299 358
#     4  10  20  37  61  87 118 155 197 243 295 355
#     4  10  22  40  65  88 112 156 204 247 300 359
#     4  10  20  37  61  88 121 162 203 240 290 352
#     4  11  22  38  63  89 123 154 202 251 297 355
#     4  11  22  38  60  89 125 158 198 247 297 354
#
# _framework density 19.019596
#
# number of rings (size 3 to 8) (size 9 to 14) (size 15 to 20)
#    0.000    1.750    2.500    1.875    1.750    5.250 
#    0.000    5.625    0.000    1.875    0.000    0.000 
#    0.000    0.000    0.000    0.000    0.000    0.000 
#
# Total GULP energy -178639.638735 kJ/mol
# GULP energy per Si atom -5582.488710 kJ/mol
# Density = 1.897631 g / cm^3
# Si number density = 19.019596 Si / 1000 Ang^3
#
#
#
# Elastic Constant Matrix: (Units=GPa)
#
#
# Indices 1 2 3 4 5 6 
#
# 1 115.2232 21.5768 35.4409 0.0000 8.4220 0.0000
# 2 21.5768 11.4672 6.0713 0.0000 4.9876 0.0000
# 3 35.4409 6.0713 92.7445 0.0000 5.1869 0.0000
# 4 0.0000 0.0000 0.0000 22.5594 0.0000 -2.8680
# 5 8.4220 4.9876 5.1869 0.0000 33.8499 0.0000
# 6 0.0000 0.0000 0.0000 -2.8680 0.0000 14.2721
#
#
#
# Elastic Compliance Matrix: (Units=1/GPa)
#
#
# Indices 1 2 3 4 5 6 
#
# 1 0.014685 -0.025867 -0.003961 0.000000 0.000765 0.000000
# 2 -0.025867 0.141477 0.001442 0.000000 -0.014631 0.000000
# 3 -0.003961 0.001442 0.012264 0.000000 -0.001106 0.000000
# 4 0.000000 0.000000 0.000000 0.045490 0.000000 0.009141
# 5 0.000765 -0.014631 -0.001106 0.000000 0.031677 0.000000
# 6 0.000000 0.000000 0.000000 0.009141 0.000000 0.071904
#
#
# Mechanical properties :
#
#
# Convention : Reuss Voigt Hill
#
# Bulk Modulus (GPa) = 8.95640 38.40144 23.67892
# Shear Modulus (GPa) = 12.15106 24.55933 18.35520
#
# Velocity S-wave (km/s) = 2.53033 3.59732 3.10992
# Velocity P-wave (km/s) = 3.64088 6.12279 5.03709
#
# Compressibility (1/GPa) = 0.11165199
#
# Stress axis : x y z
#
# Youngs Moduli (GPa) = 68.09584 7.06831 81.54273
#
# Poissons Ratio (x) = 0.18284 0.32300
# Poissons Ratio (y) = 1.76143 -0.11754
# Poissons Ratio (z) = 0.26974 -0.01019
#
# Static dielectric constant tensor:
#      x y z
#    x 1.675130 0.000000 0.002420 
#    y 0.000000 1.642100 0.000000 
#    z 0.002420 0.000000 1.660020 
# 
# From -- ./inp_files/206700.got.cif
#   From: 2010.05.17/outbox.cif.g08.bks.cpg/sg12_104_cif.got.tgz:206700.got - 2010.06.03 13:09:07.
