data_PCOD9201125
_publ_section_title
;
Structure prediction by ZEFSAII (Michael W. Deem and Ramdas Pophale) SiO2 
 PCOD9201125
Probable space group: C 2/M
;
_chemical_formula_sum "Si O2"
_cell_formula_units_Z 44
_cell_length_a 12.065910
_cell_length_b 22.451187
_cell_length_c 9.024725
_cell_angle_alpha 90.000000
_cell_angle_beta 109.706499
_cell_angle_gamma 90.000000
_cell_volume 2301.560850
_symmetry_space_group_name_H-M "C 2/M"
_symmetry_group_IT_number 12
_symmetry_cell_setting 'monoclinic'
loop_
_space_group_symop_operation_xyz
x,y,z
-x,y,-z
-x,-y,-z
x,-y,z
1/2+x,1/2+y,z
1/2-x,1/2+y,-z
1/2-x,1/2-y,-z
1/2+x,1/2-y,z
loop_
_atom_site_type_symbol
_atom_site_label
_atom_site_fract_x
_atom_site_fract_y
_atom_site_fract_z
Si Si1 0.366078 0.182879 0.438790
Si Si2 0.779976 0.428954 0.240442
Si Si3 0.500000 0.273732 0.000000
Si Si4 0.814799 0.284848 0.738722
Si Si5 0.185572 0.142219 0.927027
Si Si6 0.517816 0.566215 0.188641
O O1 0.500000 0.205864 0.500000
O O2 0.363931 0.119023 0.355751
O O3 0.276162 0.229760 0.322713
O O4 0.321908 0.179891 0.588209
O O5 0.807552 0.500000 0.253985
O O6 0.654603 0.420570 0.268860
O O7 0.753593 0.404725 0.062472
O O8 0.554465 0.237097 0.159542
O O9 0.389250 0.312446 0.004796
O O10 0.770141 0.323871 0.855172
O O11 0.079434 0.109738 0.792213
O O12 0.493590 0.500000 0.229549
O O13 0.500000 0.566839 0.000000
#
# Coordination Sequence:
#
# PCOD9201125 Si02
#       6
#     8   8   4   8   8   8
#     4  11  24  43  58  84 122 164 191 235 299 361
#     4  10  20  37  61  86 115 158 202 235 291 354
#     4  12  20  36  61  90 117 156 190 244 294 360
#     4  11  25  37  61  91 119 152 198 245 293 348
#     4  11  18  34  61  91 117 146 192 249 291 343
#     4   8  14  29  54  84 114 145 183 234 287 337
#
# _framework density 19.117460999999999
#
# number of rings (size 3 to 8) (size 9 to 14) (size 15 to 20)
#    0.000    1.636    4.545    3.273    2.545    1.818 
#    0.000    1.818    0.000    3.273    0.000    0.000 
#    0.000    0.000    0.000    0.000    0.000    0.000 
#
# Total GULP energy -122624.301300 kJ/mol
# GULP energy per Si atom -5573.831877 kJ/mol
# Density = 1.907395 g / cm^3
# Si number density = 19.117461 Si / 1000 Ang^3
#
#
#
# Elastic Constant Matrix: (Units=GPa)
#
#
# Indices 1 2 3 4 5 6 
#
# 1 42.8846 15.2359 21.7525 0.0000 -1.2263 0.0000
# 2 15.2359 82.5201 38.8516 0.0000 -7.1597 0.0000
# 3 21.7525 38.8516 63.7677 0.0000 5.8894 0.0000
# 4 0.0000 0.0000 0.0000 9.6261 0.0000 7.3307
# 5 -1.2263 -7.1597 5.8894 0.0000 28.0116 0.0000
# 6 0.0000 0.0000 0.0000 7.3307 0.0000 20.9961
#
#
#
# Elastic Compliance Matrix: (Units=1/GPa)
#
#
# Indices 1 2 3 4 5 6 
#
# 1 0.028511 -0.000374 -0.009795 0.000000 0.003212 0.000000
# 2 -0.000374 0.018305 -0.011683 0.000000 0.007119 0.000000
# 3 -0.009795 -0.011683 0.026980 0.000000 -0.009087 0.000000
# 4 0.000000 0.000000 0.000000 0.141510 0.000000 -0.049407
# 5 0.003212 0.007119 -0.009087 0.000000 0.039570 0.000000
# 6 0.000000 0.000000 0.000000 -0.049407 0.000000 0.064878
#
#
# Mechanical properties :
#
#
# Convention : Reuss Voigt Hill
#
# Bulk Modulus (GPa) = 33.22896 37.87248 35.55072
# Shear Modulus (GPa) = 13.38728 19.28227 16.33477
#
# Velocity S-wave (km/s) = 2.64912 3.17932 2.92626
# Velocity P-wave (km/s) = 5.17459 5.77329 5.48212
#
# Compressibility (1/GPa) = 0.03009423
#
# Stress axis : x y z
#
# Youngs Moduli (GPa) = 35.07393 54.62880 37.06416
#
# Poissons Ratio (x) = 0.02043 0.36303
# Poissons Ratio (y) = 0.01312 0.43301
# Poissons Ratio (z) = 0.34353 0.63821
#
# Static dielectric constant tensor:
#      x y z
#    x 1.662940 0.000000 0.029480 
#    y 0.000000 1.719830 0.000000 
#    z 0.029480 0.000000 1.695480 
# 
# From -- ./inp_files/50869.got.cif
#   From: 2010.05.17/outbox.cif.g08.bks.cpg/sg12_26_cif.got.tgz:50869.got - 2010.06.03 13:09:07.
