data_PCOD9201355
_publ_section_title
;
Structure prediction by ZEFSAII (Michael W. Deem and Ramdas Pophale) SiO2 
 PCOD9201355
Probable space group: C 2/M
;
_chemical_formula_sum "Si O2"
_cell_formula_units_Z 32
_cell_length_a 8.055079
_cell_length_b 15.632769
_cell_length_c 10.019003
_cell_angle_alpha 90.000000
_cell_angle_beta 107.280217
_cell_angle_gamma 90.000000
_cell_volume 1204.679382
_symmetry_space_group_name_H-M "C 2/M"
_symmetry_group_IT_number 12
_symmetry_cell_setting 'monoclinic'
loop_
_space_group_symop_operation_xyz
x,y,z
-x,y,-z
-x,-y,-z
x,-y,z
1/2+x,1/2+y,z
1/2-x,1/2+y,-z
1/2-x,1/2-y,-z
1/2+x,1/2-y,z
loop_
_atom_site_type_symbol
_atom_site_label
_atom_site_fract_x
_atom_site_fract_y
_atom_site_fract_z
Si Si1 0.623622 0.103215 0.411787
Si Si2 0.309351 0.368973 0.907940
Si Si3 0.709677 0.831282 0.157062
Si Si4 0.071006 0.903373 0.334167
O O1 0.500000 0.135885 0.500000
O O2 0.599257 0.140729 0.258816
O O3 0.817473 0.124126 0.512257
O O4 0.611706 0.000000 0.402642
O O5 0.317806 0.267395 0.883004
O O6 0.290757 0.406854 0.756405
O O7 0.500000 0.399331 0.000000
O O8 0.192935 0.381100 0.011930
O O9 0.909848 0.846257 0.250488
O O10 0.004247 0.000000 0.337427
#
# Coordination Sequence:
#
# PCOD9201355 Si02
#       4
#     8   8   8   8
#     4  10  22  38  58  89 126 160 199 248 302 361
#     4   9  21  38  59  89 121 155 200 252 305 360
#     4  10  20  37  62  86 118 158 201 248 299 355
#     4  10  21  39  63  90 119 156 205 253 298 359
#
# _framework density 26.563082999999999
#
# number of rings (size 3 to 8) (size 9 to 14) (size 15 to 20)
#    0.000    2.250    0.000    1.500    0.000   14.500 
#    0.000    0.000    0.000    7.500    0.000    0.000 
#    0.000    0.000    0.000    0.000    0.000    0.000 
#
# Total GULP energy -89558.583292 kJ/mol
# GULP energy per Si atom -5597.411456 kJ/mol
# Density = 2.650262 g / cm^3
# Si number density = 26.563083 Si / 1000 Ang^3
#
#
#
# Elastic Constant Matrix: (Units=GPa)
#
#
# Indices 1 2 3 4 5 6 
#
# 1 111.6044 21.7820 46.6910 0.0000 -26.2362 0.0000
# 2 21.7820 56.4911 18.6637 0.0000 -1.2021 0.0000
# 3 46.6910 18.6637 219.3018 0.0000 -35.7412 0.0000
# 4 0.0000 0.0000 0.0000 32.2720 0.0000 -4.1324
# 5 -26.2362 -1.2021 -35.7412 0.0000 75.8375 0.0000
# 6 0.0000 0.0000 0.0000 -4.1324 0.0000 19.8916
#
#
#
# Elastic Compliance Matrix: (Units=1/GPa)
#
#
# Indices 1 2 3 4 5 6 
#
# 1 0.011037 -0.003682 -0.001542 0.000000 0.003033 0.000000
# 2 -0.003682 0.019458 -0.001115 0.000000 -0.001491 0.000000
# 3 -0.001542 -0.001115 0.005300 0.000000 0.001947 0.000000
# 4 0.000000 0.000000 0.000000 0.031833 0.000000 0.006613
# 5 0.003033 -0.001491 0.001947 0.000000 0.015129 0.000000
# 6 0.000000 0.000000 0.000000 0.006613 0.000000 0.051646
#
#
# Mechanical properties :
#
#
# Convention : Reuss Voigt Hill
#
# Bulk Modulus (GPa) = 43.25680 62.40786 52.83233
# Shear Modulus (GPa) = 32.30217 45.61760 38.95988
#
# Velocity S-wave (km/s) = 3.49098 4.14856 3.83390
# Velocity P-wave (km/s) = 5.70694 6.81855 6.28736
#
# Compressibility (1/GPa) = 0.02311775
#
# Stress axis : x y z
#
# Youngs Moduli (GPa) = 90.60446 51.39237 188.66279
#
# Poissons Ratio (x) = 0.18921 0.29096
# Poissons Ratio (y) = 0.33357 0.21038
# Poissons Ratio (z) = 0.13973 0.05731
#
# Static dielectric constant tensor:
#      x y z
#    x 2.220030 0.000000 -0.079710 
#    y 0.000000 1.960270 0.000000 
#    z -0.079710 0.000000 2.064040 
# 
# From -- ./inp_files/37743.got.cif
#   From: 2010.05.17/outbox.cif.g08.bks.cpg/sg12_19_cif.got.tgz:37743.got - 2010.06.03 13:09:07.
