data_PCOD9201031
_publ_section_title
;
Structure prediction by ZEFSAII (Michael W. Deem and Ramdas Pophale) SiO2 
 PCOD9201031
Probable space group: C 2/M
;
_chemical_formula_sum "Si O2"
_cell_formula_units_Z 44
_cell_length_a 12.136409
_cell_length_b 15.744430
_cell_length_c 12.287631
_cell_angle_alpha 90.000000
_cell_angle_beta 46.803898
_cell_angle_gamma 90.000000
_cell_volume 1711.677292
_symmetry_space_group_name_H-M "C 2/M"
_symmetry_group_IT_number 12
_symmetry_cell_setting 'monoclinic'
loop_
_space_group_symop_operation_xyz
x,y,z
-x,y,-z
-x,-y,-z
x,-y,z
1/2+x,1/2+y,z
1/2-x,1/2+y,-z
1/2-x,1/2-y,-z
1/2+x,1/2-y,z
loop_
_atom_site_type_symbol
_atom_site_label
_atom_site_fract_x
_atom_site_fract_y
_atom_site_fract_z
Si Si1 0.695273 0.187969 0.274839
Si Si2 0.917135 0.398383 0.853787
Si Si3 0.709872 0.344425 0.565489
Si Si4 0.000000 0.279157 0.000000
Si Si5 0.667622 0.377940 0.368715
Si Si6 0.613710 0.408025 0.177055
O O1 0.582135 0.145443 0.265622
O O2 0.720274 0.131757 0.366010
O O3 0.854341 0.218418 0.113017
O O4 0.648371 0.278208 0.357243
O O5 0.952313 0.500000 0.834776
O O6 0.991913 0.338958 0.896975
O O7 0.737271 0.391443 0.003579
O O8 0.750000 0.250000 0.500000
O O9 0.747962 0.395554 0.428759
O O10 0.286527 0.410989 0.779740
O O11 0.500000 0.412140 0.500000
O O12 0.471666 0.347287 0.289675
O O13 0.543284 0.500000 0.206300
#
# Coordination Sequence:
#
# PCOD9201031 Si02
#       6
#     8   8   8   4   8   8
#     4  11  22  38  64  93 121 162 218 260 320 379
#     4  11  25  42  62  94 134 169 207 267 329 376
#     4   9  20  36  57  92 122 160 205 263 307 375
#     4  12  23  38  69  92 124 170 218 262 319 384
#     4   9  19  35  59  89 119 159 208 261 301 371
#     4  10  20  37  60  91 128 163 206 262 321 376
#
# _framework density 25.705779
#
# number of rings (size 3 to 8) (size 9 to 14) (size 15 to 20)
#    0.000    1.818    1.818    1.909    5.091    4.000 
#    0.000    2.273    0.000    0.545    0.000    0.000 
#    0.000    0.000    0.000    0.000    0.000    0.000 
#
# Total GULP energy -122795.295255 kJ/mol
# GULP energy per Si atom -5581.604330 kJ/mol
# Density = 2.564727 g / cm^3
# Si number density = 25.705779 Si / 1000 Ang^3
#
#
#
# Elastic Constant Matrix: (Units=GPa)
#
#
# Indices 1 2 3 4 5 6 
#
# 1 145.4074 54.3419 40.3792 0.0000 51.2523 0.0000
# 2 54.3419 97.3700 36.7234 0.0000 14.9126 0.0000
# 3 40.3792 36.7234 75.3263 0.0000 25.5713 0.0001
# 4 0.0000 0.0000 0.0000 -58.4908 0.0000 -52.3526
# 5 51.2523 14.9126 25.5713 0.0000 76.0648 0.0000
# 6 0.0000 0.0000 0.0001 -52.3526 0.0000 -12.0458
#
#
#
# Elastic Compliance Matrix: (Units=1/GPa)
#
#
# Indices 1 2 3 4 5 6 
#
# 1 0.011251 -0.004719 -0.001661 0.000000 -0.006098 0.000000
# 2 -0.004719 0.014577 -0.005290 0.000000 0.002100 0.000000
# 3 -0.001661 -0.005290 0.018076 0.000000 -0.003921 0.000000
# 4 0.000000 0.000000 0.000000 0.005916 0.000000 -0.025711
# 5 -0.006098 0.002100 -0.003921 0.000000 0.018161 0.000000
# 6 0.000000 0.000000 0.000000 -0.025711 0.000000 0.028725
#
#
# Mechanical properties :
#
#
# Convention : Reuss Voigt Hill
#
# Bulk Modulus (GPa) = 48.62704 64.55474 56.59089
# Shear Modulus (GPa) = 39.40072 13.54960 26.47516
#
# Velocity S-wave (km/s) = 3.91929 2.29836 3.21273
# Velocity P-wave (km/s) = 6.28005 5.67545 5.98539
#
# Compressibility (1/GPa) = 0.02056469
#
# Stress axis : x y z
#
# Youngs Moduli (GPa) = 88.87887 68.59969 55.32279
#
# Poissons Ratio (x) = 0.32373 0.09187
# Poissons Ratio (y) = 0.41943 0.29266
# Poissons Ratio (z) = 0.14760 0.36290
#
# Static dielectric constant tensor:
#      x y z
#    x 2.149490 0.000000 0.002370 
#    y 0.000000 2.044470 0.000000 
#    z 0.002370 0.000000 2.057420 
# 
# From -- ./inp_files/145350.got.cif
#   From: 2010.05.17/outbox.cif.g08.bks.cpg/sg12_73_cif.got.tgz:145350.got - 2010.06.03 13:09:07.
