data_PCOD9201081
_publ_section_title
;
Structure prediction by ZEFSAII (Michael W. Deem and Ramdas Pophale) SiO2 
 PCOD9201081
Probable space group: C 2/M
;
_chemical_formula_sum "Si O2"
_cell_formula_units_Z 40
_cell_length_a 9.921858
_cell_length_b 23.047103
_cell_length_c 14.220818
_cell_angle_alpha 90.000000
_cell_angle_beta 35.501656
_cell_angle_gamma 90.000000
_cell_volume 1888.450310
_symmetry_space_group_name_H-M "C 2/M"
_symmetry_group_IT_number 12
_symmetry_cell_setting 'monoclinic'
loop_
_space_group_symop_operation_xyz
x,y,z
-x,y,-z
-x,-y,-z
x,-y,z
1/2+x,1/2+y,z
1/2-x,1/2+y,-z
1/2-x,1/2-y,-z
1/2+x,1/2-y,z
loop_
_atom_site_type_symbol
_atom_site_label
_atom_site_fract_x
_atom_site_fract_y
_atom_site_fract_z
Si Si1 0.000000 0.137888 0.500000
Si Si2 0.458796 0.785371 0.255177
Si Si3 0.828739 0.606777 0.961900
Si Si4 0.000000 0.102042 0.000000
Si Si5 0.805247 0.315852 0.689614
Si Si6 0.179487 0.932450 0.239350
O O1 0.778400 0.178203 0.614773
O O2 0.001922 0.096144 0.588523
O O3 0.627337 0.827269 0.098081
O O4 0.384511 0.724993 0.252326
O O5 0.558380 0.781589 0.304031
O O6 0.073660 0.577477 0.848635
O O7 0.691483 0.573665 0.957983
O O8 0.689442 0.602752 0.137435
O O9 0.841421 0.137196 0.166649
O O10 0.000000 0.333351 0.500000
O O11 0.144779 0.000000 0.240957
#
# Coordination Sequence:
#
# PCOD9201081 Si02
#       6
#     4   8   8   4   8   8
#     4  10  21  34  58  82 116 140 190 230 289 330
#     4  10  22  36  53  85 108 158 186 230 272 323
#     4   9  20  37  57  81 112 142 190 226 280 337
#     4  10  24  38  55  88 114 160 181 232 278 326
#     4  11  23  37  56  81 121 151 199 227 266 328
#     4  10  20  37  61  85 107 141 184 239 287 343
#
# _framework density 21.181387999999998
#
# number of rings (size 3 to 8) (size 9 to 14) (size 15 to 20)
#    0.000    2.000    1.000    2.100    2.800    9.600 
#    0.000    2.000    0.000    0.000    0.000    5.600 
#    0.000    0.000    0.000    0.000    0.000    0.000 
#
# Total GULP energy -111562.998460 kJ/mol
# GULP energy per Si atom -5578.149923 kJ/mol
# Density = 2.113318 g / cm^3
# Si number density = 21.181388 Si / 1000 Ang^3
#
#
#
# Elastic Constant Matrix: (Units=GPa)
#
#
# Indices 1 2 3 4 5 6 
#
# 1 127.1001 7.0122 10.9576 -0.0002 14.5737 -0.0004
# 2 7.0122 45.8242 41.6516 0.0000 6.4798 0.0000
# 3 10.9576 41.6516 108.5760 -0.0001 11.1793 -0.0004
# 4 -0.0002 0.0000 -0.0001 21.3433 0.0000 10.6527
# 5 14.5737 6.4798 11.1793 0.0000 25.0584 0.0002
# 6 -0.0004 0.0000 -0.0004 10.6527 0.0002 15.0168
#
#
#
# Elastic Compliance Matrix: (Units=1/GPa)
#
#
# Indices 1 2 3 4 5 6 
#
# 1 0.008450 -0.000449 -0.000195 0.000000 -0.004711 0.000000
# 2 -0.000449 0.033756 -0.012612 0.000000 -0.002841 0.000000
# 3 -0.000195 -0.012612 0.014381 0.000000 -0.003041 0.000001
# 4 0.000000 0.000000 0.000000 0.072535 0.000000 -0.051455
# 5 -0.004711 -0.002841 -0.003041 0.000000 0.044738 -0.000001
# 6 0.000000 0.000000 0.000001 -0.051455 -0.000001 0.103094
#
#
# Mechanical properties :
#
#
# Convention : Reuss Voigt Hill
#
# Bulk Modulus (GPa) = 33.25083 44.52699 38.88891
# Shear Modulus (GPa) = 15.94942 27.07562 21.51252
#
# Velocity S-wave (km/s) = 2.74705 3.57917 3.19036
# Velocity P-wave (km/s) = 5.07877 6.17641 5.65429
#
# Compressibility (1/GPa) = 0.03007444
#
# Stress axis : x y z
#
# Youngs Moduli (GPa) = 118.34873 29.62406 69.53625
#
# Poissons Ratio (x) = 0.01331 0.01358
# Poissons Ratio (y) = 0.05317 0.87696
# Poissons Ratio (z) = 0.02312 0.37361
#
# Static dielectric constant tensor:
#      x y z
#    x 1.791100 0.000000 -0.031780 
#    y 0.000000 1.756370 0.000000 
#    z -0.031780 0.000000 1.822430 
# 
# From -- ./inp_files/124731.got.cif
#   From: 2010.05.17/outbox.cif.g08.bks.cpg/sg12_63_cif.got.tgz:124731.got - 2010.06.03 13:09:07.
