data_PCOD9201198
_publ_section_title
;
Structure prediction by ZEFSAII (Michael W. Deem and Ramdas Pophale) SiO2 
 PCOD9201198
Probable space group: C 2/M
;
_chemical_formula_sum "Si O2"
_cell_formula_units_Z 64
_cell_length_a 16.619727
_cell_length_b 8.240850
_cell_length_c 21.032623
_cell_angle_alpha 90.000000
_cell_angle_beta 112.966332
_cell_angle_gamma 90.000000
_cell_volume 2652.306148
_symmetry_space_group_name_H-M "C 2/M"
_symmetry_group_IT_number 12
_symmetry_cell_setting 'monoclinic'
loop_
_space_group_symop_operation_xyz
x,y,z
-x,y,-z
-x,-y,-z
x,-y,z
1/2+x,1/2+y,z
1/2-x,1/2+y,-z
1/2-x,1/2-y,-z
1/2+x,1/2-y,z
loop_
_atom_site_type_symbol
_atom_site_label
_atom_site_fract_x
_atom_site_fract_y
_atom_site_fract_z
Si Si1 0.510936 0.816728 0.266075
Si Si2 0.644851 0.303378 0.531499
Si Si3 0.737437 0.688721 0.231354
Si Si4 0.100337 0.189241 0.652257
Si Si5 0.542231 0.312435 0.145629
Si Si6 0.259566 0.689207 0.107173
Si Si7 0.380389 0.190996 0.032442
Si Si8 0.343537 0.308120 0.605848
O O1 0.451088 0.780739 0.308491
O O2 0.496659 0.703851 0.200880
O O3 0.607592 0.785285 0.323623
O O4 0.499531 0.000000 0.240632
O O5 0.651274 0.500000 0.535357
O O6 0.589468 0.254684 0.576098
O O7 0.616895 0.262064 0.451223
O O8 0.741449 0.230401 0.569982
O O9 0.732951 0.500000 0.249949
O O10 0.797755 0.785933 0.298388
O O11 0.639616 0.752715 0.188718
O O12 0.780554 0.704932 0.174940
O O13 0.076411 0.000000 0.648709
O O14 0.550036 0.500000 0.130182
O O15 0.481630 0.225004 0.075707
O O16 0.258686 0.500000 0.125346
O O17 0.327437 0.715862 0.071118
O O18 0.165527 0.737361 0.047932
O O19 0.363280 0.000000 0.034879
O O20 0.356433 0.500000 0.619704
#
# Coordination Sequence:
#
# PCOD9201198 Si02
#       8
#     8   8   8   8   8   8   8   8
#     4  12  25  40  59  84 116 152 193 239 287 340
#     4   9  20  38  61  88 117 153 192 233 284 341
#     4  11  24  40  59  85 116 150 190 237 287 339
#     4  11  23  40  61  84 114 151 192 237 286 341
#     4  11  24  41  61  85 115 152 192 236 288 342
#     4  10  21  38  61  87 117 154 192 232 282 339
#     4  10  21  38  61  88 118 152 191 235 282 336
#     4  10  20  37  61  88 119 152 190 235 284 340
#
# _framework density 24.129943999999998
#
# number of rings (size 3 to 8) (size 9 to 14) (size 15 to 20)
#    0.000    1.500    0.000    4.875    0.000    8.000 
#    0.000    5.000    0.000    0.000    0.000    0.000 
#    0.000    0.000    0.000    0.000    0.000    0.000 
#
# Total GULP energy -179124.044583 kJ/mol
# GULP energy per Si atom -5597.626393 kJ/mol
# Density = 2.407502 g / cm^3
# Si number density = 24.129944 Si / 1000 Ang^3
#
#
#
# Elastic Constant Matrix: (Units=GPa)
#
#
# Indices 1 2 3 4 5 6 
#
# 1 57.6445 -9.3112 -1.6861 0.0000 1.5457 0.0000
# 2 -9.3112 33.6891 3.2998 0.0000 3.1576 0.0000
# 3 -1.6861 3.2998 94.9120 0.0000 -1.0733 0.0000
# 4 0.0000 0.0000 0.0000 17.4805 0.0000 6.5730
# 5 1.5457 3.1576 -1.0733 0.0000 38.9224 0.0000
# 6 0.0000 0.0000 0.0000 6.5730 0.0000 25.7290
#
#
#
# Elastic Compliance Matrix: (Units=1/GPa)
#
#
# Indices 1 2 3 4 5 6 
#
# 1 0.018210 0.005126 0.000132 0.000000 -0.001135 0.000000
# 2 0.005126 0.031462 -0.001034 0.000000 -0.002785 0.000000
# 3 0.000132 -0.001034 0.010579 0.000000 0.000370 0.000000
# 4 0.000000 0.000000 0.000000 0.063286 0.000000 -0.016168
# 5 -0.001135 -0.002785 0.000370 0.000000 0.025973 0.000000
# 6 0.000000 0.000000 0.000000 -0.016168 0.000000 0.042997
#
#
# Mechanical properties :
#
#
# Convention : Reuss Voigt Hill
#
# Bulk Modulus (GPa) = 14.55596 18.98339 16.76967
# Shear Modulus (GPa) = 24.15946 29.35592 26.75769
#
# Velocity S-wave (km/s) = 3.16764 3.49173 3.33363
# Velocity P-wave (km/s) = 4.40727 4.91329 4.66715
#
# Compressibility (1/GPa) = 0.06870038
#
# Stress axis : x y z
#
# Youngs Moduli (GPa) = 54.91455 31.78395 94.53069
#
# Poissons Ratio (x) = -0.16294 -0.01252
# Poissons Ratio (y) = -0.28152 0.09777
# Poissons Ratio (z) = -0.00727 0.03287
#
# Static dielectric constant tensor:
#      x y z
#    x 2.024700 0.000000 0.002340 
#    y 0.000000 1.815770 0.000000 
#    z 0.002340 0.000000 1.894790 
# 
# From -- ./inp_files/320165.got.cif
#   From: 2010.05.17/outbox.cif.g08.bks.cpg/sg12_161_cif.got.tgz:320165.got - 2010.06.03 13:09:07.
