data_PCOD9201987
_publ_section_title
;
Structure prediction by ZEFSAII (Michael W. Deem and Ramdas Pophale) SiO2 
 PCOD9201987
Probable space group: C 2/M
;
_chemical_formula_sum "Si O2"
_cell_formula_units_Z 44
_cell_length_a 14.501341
_cell_length_b 18.183217
_cell_length_c 9.619383
_cell_angle_alpha 90.000000
_cell_angle_beta 83.377987
_cell_angle_gamma 90.000000
_cell_volume 2519.526986
_symmetry_space_group_name_H-M "C 2/M"
_symmetry_group_IT_number 12
_symmetry_cell_setting 'monoclinic'
loop_
_space_group_symop_operation_xyz
x,y,z
-x,y,-z
-x,-y,-z
x,-y,z
1/2+x,1/2+y,z
1/2-x,1/2+y,-z
1/2-x,1/2-y,-z
1/2+x,1/2-y,z
loop_
_atom_site_type_symbol
_atom_site_label
_atom_site_fract_x
_atom_site_fract_y
_atom_site_fract_z
Si Si1 0.681123 0.793228 0.696918
Si Si2 0.189410 0.345438 0.381451
Si Si3 0.889349 0.000000 0.998061
Si Si4 0.654627 0.623276 0.215119
Si Si5 0.228031 0.000000 0.701326
Si Si6 0.979229 0.749930 0.665252
Si Si7 0.108352 0.000000 0.446151
O O1 0.734235 0.715255 0.675852
O O2 0.687868 0.836766 0.548843
O O3 0.742788 0.840772 0.792953
O O4 0.572798 0.773757 0.727292
O O5 0.213214 0.425641 0.323352
O O6 0.090877 0.317800 0.341995
O O7 0.834052 0.000000 0.150779
O O8 0.861380 0.927978 0.914501
O O9 0.000000 0.000000 0.000000
O O10 0.577754 0.686931 0.245868
O O11 0.637441 0.570336 0.350327
O O12 0.160729 0.000000 0.581249
O O13 0.000000 0.774139 0.500000
O O14 0.000000 0.000000 0.500000
#
# Coordination Sequence:
#
# PCOD9201987 Si02
#       7
#     8   8   4   8   4   8   4
#     4   9  17  34  58  85 113 143 188 238 277 329
#     4   9  19  32  55  89 113 145 186 233 286 333
#     4  11  27  39  54  82 122 149 187 227 290 338
#     4  10  20  38  55  86 113 145 191 231 276 341
#     4  12  22  38  55  78 122 149 181 238 280 333
#     4   9  18  32  59  88 116 141 186 241 282 326
#     4  11  21  29  58  85 106 146 184 229 291 332
#
# _framework density 17.463594000000001
#
# number of rings (size 3 to 8) (size 9 to 14) (size 15 to 20)
#    0.000    2.182    1.818    2.727    5.091    0.000 
#    0.000    9.545    0.000    1.091    0.000    0.000 
#    0.000    0.000    0.000    0.000    0.000    0.000 
#
# Total GULP energy -122690.836064 kJ/mol
# GULP energy per Si atom -5576.856185 kJ/mol
# Density = 1.742385 g / cm^3
# Si number density = 17.463594 Si / 1000 Ang^3
#
#
#
# Elastic Constant Matrix: (Units=GPa)
#
#
# Indices 1 2 3 4 5 6 
#
# 1 140.0261 45.7069 18.1229 0.0000 11.1650 0.0000
# 2 45.7069 101.2455 38.7419 0.0000 -1.9029 0.0000
# 3 18.1229 38.7419 62.6799 0.0000 2.6501 0.0000
# 4 0.0000 0.0000 0.0000 9.8130 0.0000 2.6819
# 5 11.1650 -1.9029 2.6501 0.0000 18.3683 0.0000
# 6 0.0000 0.0000 0.0000 2.6819 0.0000 17.9280
#
#
#
# Elastic Compliance Matrix: (Units=1/GPa)
#
#
# Indices 1 2 3 4 5 6 
#
# 1 0.008972 -0.004277 0.000301 0.000000 -0.005940 0.000000
# 2 -0.004277 0.015092 -0.008318 0.000000 0.005363 0.000000
# 3 0.000301 -0.008318 0.021182 0.000000 -0.004101 0.000000
# 4 0.000000 0.000000 0.000000 0.106249 0.000000 -0.015894
# 5 -0.005940 0.005363 -0.004101 0.000000 0.059200 0.000000
# 6 0.000000 0.000000 0.000000 -0.015894 0.000000 0.058156
#
#
# Mechanical properties :
#
#
# Convention : Reuss Voigt Hill
#
# Bulk Modulus (GPa) = 48.41075 56.56611 52.48843
# Shear Modulus (GPa) = 16.64859 22.64720 19.64789
#
# Velocity S-wave (km/s) = 3.09096 3.60505 3.35786
# Velocity P-wave (km/s) = 6.36552 7.05618 6.71973
#
# Compressibility (1/GPa) = 0.02065657
#
# Stress axis : x y z
#
# Youngs Moduli (GPa) = 111.45238 66.26161 47.21017
#
# Poissons Ratio (x) = 0.28342 -0.01419
# Poissons Ratio (y) = 0.47671 0.39270
# Poissons Ratio (z) = -0.03351 0.55117
#
# Static dielectric constant tensor:
#      x y z
#    x 1.573940 0.000000 0.005440 
#    y 0.000000 1.594170 0.000000 
#    z 0.005440 0.000000 1.588100 
# 
# From -- ./inp_files/61113.got.cif
#   From: 2010.05.17/outbox.cif.g08.bks.cpg/sg12_31_cif.got.tgz:61113.got - 2010.06.03 13:09:07.
