data_PCOD9201104
_publ_section_title
;
Structure prediction by ZEFSAII (Michael W. Deem and Ramdas Pophale) SiO2 
 PCOD9201104
Probable space group: C 2/M
;
_chemical_formula_sum "Si O2"
_cell_formula_units_Z 64
_cell_length_a 17.201888
_cell_length_b 14.339573
_cell_length_c 18.617035
_cell_angle_alpha 90.000000
_cell_angle_beta 42.600444
_cell_angle_gamma 90.000000
_cell_volume 3108.390737
_symmetry_space_group_name_H-M "C 2/M"
_symmetry_group_IT_number 12
_symmetry_cell_setting 'monoclinic'
loop_
_space_group_symop_operation_xyz
x,y,z
-x,y,-z
-x,-y,-z
x,-y,z
1/2+x,1/2+y,z
1/2-x,1/2+y,-z
1/2-x,1/2-y,-z
1/2+x,1/2-y,z
loop_
_atom_site_type_symbol
_atom_site_label
_atom_site_fract_x
_atom_site_fract_y
_atom_site_fract_z
Si Si1 0.980159 0.105740 0.304244
Si Si2 0.806764 0.772364 0.038960
Si Si3 0.051243 0.791532 0.823817
Si Si4 0.116699 0.390068 0.252948
Si Si5 0.580110 0.895599 0.729410
Si Si6 0.191624 0.193415 0.474927
Si Si7 0.738349 0.607650 0.180399
Si Si8 0.698462 0.232919 0.316592
O O1 0.948956 0.163369 0.254989
O O2 0.920095 0.146981 0.415462
O O3 0.116431 0.106513 0.221946
O O4 0.940503 0.000000 0.321545
O O5 0.719738 0.842120 0.138005
O O6 0.815059 0.677184 0.080056
O O7 0.750000 0.750000 0.000000
O O8 0.933220 0.815138 0.943183
O O9 0.050034 0.680760 0.809256
O O10 0.173553 0.812231 0.776061
O O11 0.135036 0.500000 0.252170
O O12 0.113980 0.330699 0.327774
O O13 0.002526 0.378847 0.282770
O O14 0.710873 0.879400 0.616471
O O15 0.560672 0.000000 0.768197
O O16 0.250000 0.250000 0.500000
O O17 0.168625 0.255023 0.420132
O O18 0.775500 0.500000 0.164677
O O19 0.711846 0.664918 0.271203
#
# Coordination Sequence:
#
# PCOD9201104 Si02
#       8
#     8   8   8   8   8   8   8   8
#     4  11  22  39  62  89 121 154 200 250 297 354
#     4  11  20  37  66  90 120 157 204 248 295 349
#     4  11  21  39  60  93 119 157 201 245 299 345
#     4  10  22  40  61  91 124 160 198 244 301 358
#     4  10  20  37  61  85 117 155 200 246 291 349
#     4  11  22  40  63  89 115 155 203 248 297 350
#     4  10  23  40  60  91 124 158 198 246 301 358
#     4  10  23  40  61  84 126 159 192 250 299 362
#
# _framework density 20.589431999999999
#
# number of rings (size 3 to 8) (size 9 to 14) (size 15 to 20)
#    0.000    1.500    5.000    1.125    0.000    7.000 
#    0.000    2.500    0.000    1.500    0.000    0.000 
#    0.000    0.000    0.000    0.000    0.000    0.000 
#
# Total GULP energy -178754.587689 kJ/mol
# GULP energy per Si atom -5586.080865 kJ/mol
# Density = 2.054257 g / cm^3
# Si number density = 20.589432 Si / 1000 Ang^3
#
#
#
# Elastic Constant Matrix: (Units=GPa)
#
#
# Indices 1 2 3 4 5 6 
#
# 1 47.6538 15.3167 -1.5376 0.0000 9.1655 0.0000
# 2 15.3167 82.3768 15.0065 0.0000 15.0563 0.0000
# 3 -1.5376 15.0065 76.0121 0.0000 0.4349 0.0000
# 4 0.0000 0.0000 0.0000 11.5965 0.0000 -9.3609
# 5 9.1655 15.0563 0.4349 0.0000 36.0660 0.0000
# 6 0.0000 0.0000 0.0000 -9.3609 0.0000 15.6061
#
#
#
# Elastic Compliance Matrix: (Units=1/GPa)
#
#
# Indices 1 2 3 4 5 6 
#
# 1 0.023051 -0.003720 0.001225 0.000000 -0.004320 0.000000
# 2 -0.003720 0.014261 -0.002862 0.000000 -0.004974 0.000000
# 3 0.001225 -0.002862 0.013742 0.000000 0.000718 0.000000
# 4 0.000000 0.000000 0.000000 0.167180 0.000000 0.100279
# 5 -0.004320 -0.004974 0.000718 0.000000 0.030893 0.000000
# 6 0.000000 0.000000 0.000000 0.100279 0.000000 0.124227
#
#
# Mechanical properties :
#
#
# Convention : Reuss Voigt Hill
#
# Bulk Modulus (GPa) = 24.78899 29.29043 27.03971
# Shear Modulus (GPa) = 12.57818 24.47085 18.52451
#
# Velocity S-wave (km/s) = 2.47433 3.45122 3.00277
# Velocity P-wave (km/s) = 4.49765 5.48982 5.01832
#
# Compressibility (1/GPa) = 0.04034050
#
# Stress axis : x y z
#
# Youngs Moduli (GPa) = 43.38284 70.11905 72.77192
#
# Poissons Ratio (x) = 0.26081 -0.08917
# Poissons Ratio (y) = 0.16137 0.20830
# Poissons Ratio (z) = -0.05316 0.20070
#
# Static dielectric constant tensor:
#      x y z
#    x 1.760860 0.000000 -0.010020 
#    y 0.000000 1.753440 0.000000 
#    z -0.010020 0.000000 1.738150 
# 
# From -- ./inp_files/270632.got.cif
#   From: 2010.05.17/outbox.cif.g08.bks.cpg/sg12_136_cif.got.tgz:270632.got - 2010.06.03 13:09:07.
