data_PCOD9201211
_publ_section_title
;
Structure prediction by ZEFSAII (Michael W. Deem and Ramdas Pophale) SiO2 
 PCOD9201211
Probable space group: C 2/M
;
_chemical_formula_sum "Si O2"
_cell_formula_units_Z 64
_cell_length_a 28.895957
_cell_length_b 8.735693
_cell_length_c 18.720523
_cell_angle_alpha 90.000000
_cell_angle_beta 135.631483
_cell_angle_gamma 90.000000
_cell_volume 3304.438856
_symmetry_space_group_name_H-M "C 2/M"
_symmetry_group_IT_number 12
_symmetry_cell_setting 'monoclinic'
loop_
_space_group_symop_operation_xyz
x,y,z
-x,y,-z
-x,-y,-z
x,-y,z
1/2+x,1/2+y,z
1/2-x,1/2+y,-z
1/2-x,1/2-y,-z
1/2+x,1/2-y,z
loop_
_atom_site_type_symbol
_atom_site_label
_atom_site_fract_x
_atom_site_fract_y
_atom_site_fract_z
Si Si1 0.895043 0.316778 0.501249
Si Si2 0.654202 0.682108 0.703057
Si Si3 0.165931 0.316594 0.225778
Si Si4 0.951888 0.315566 0.305157
Si Si5 0.415269 0.815101 0.102122
Si Si6 0.022438 0.685741 0.104029
Si Si7 0.298170 0.681815 0.885771
Si Si8 0.717825 0.317612 0.535454
O O1 0.890208 0.500000 0.492362
O O2 0.865244 0.246528 0.396114
O O3 0.851476 0.257092 0.519153
O O4 0.972005 0.275415 0.594626
O O5 0.659073 0.500000 0.704162
O O6 0.597659 0.734006 0.695485
O O7 0.724707 0.748729 0.805399
O O8 0.162850 0.500000 0.208862
O O9 0.099503 0.272380 0.195118
O O10 0.170187 0.233760 0.154814
O O11 0.230624 0.284823 0.343542
O O12 0.945322 0.500000 0.306523
O O13 0.933851 0.276859 0.203668
O O14 0.472838 0.761381 0.110920
O O15 0.411146 0.000000 0.092390
O O16 0.346091 0.745837 0.999921
O O17 0.019298 0.500000 0.101861
O O18 0.000000 0.734436 0.000000
O O19 0.294301 0.500000 0.885349
O O20 0.711009 0.500000 0.521750
O O21 0.750000 0.250000 0.500000
#
# Coordination Sequence:
#
# PCOD9201211 Si02
#       8
#     8   8   8   8   8   8   8   8
#     4  11  23  42  68  97 130 163 209 262 314 379
#     4  12  25  43  68  93 121 162 212 262 318 382
#     4  10  20  37  61  88 121 164 214 255 303 371
#     4  10  24  43  66  94 126 165 207 259 321 379
#     4  10  21  40  64  91 125 166 210 254 307 374
#     4   9  16  30  59  89 115 154 203 247 289 356
#     4  12  24  39  63  92 127 164 207 262 318 370
#     4  11  24  39  61  92 131 173 213 256 312 370
#
# _framework density 19.367888000000001
#
# number of rings (size 3 to 8) (size 9 to 14) (size 15 to 20)
#    0.000    1.375    2.500    3.375    1.750    4.000 
#    0.000    1.250    0.000    0.000    0.000    0.000 
#    0.000    0.000    0.000    0.000    0.000    0.000 
#
# Total GULP energy -178904.472160 kJ/mol
# GULP energy per Si atom -5590.764755 kJ/mol
# Density = 1.932381 g / cm^3
# Si number density = 19.367888 Si / 1000 Ang^3
#
#
#
# Elastic Constant Matrix: (Units=GPa)
#
#
# Indices 1 2 3 4 5 6 
#
# 1 144.8236 40.5054 61.0912 0.0000 16.6414 0.0000
# 2 40.5054 45.9509 45.2733 0.0000 7.0351 0.0000
# 3 61.0912 45.2733 96.3996 0.0000 24.9098 0.0000
# 4 0.0000 0.0000 0.0000 25.6934 0.0000 -0.4801
# 5 16.6414 7.0351 24.9098 0.0000 34.1410 0.0000
# 6 0.0000 0.0000 0.0000 -0.4801 0.0000 30.2457
#
#
#
# Elastic Compliance Matrix: (Units=1/GPa)
#
#
# Indices 1 2 3 4 5 6 
#
# 1 0.009990 -0.004998 -0.003687 0.000000 -0.001150 0.000000
# 2 -0.004998 0.044335 -0.019623 0.000000 0.007617 0.000000
# 3 -0.003687 -0.019623 0.025160 0.000000 -0.012517 0.000000
# 4 0.000000 0.000000 0.000000 0.038932 0.000000 0.000618
# 5 -0.001150 0.007617 -0.012517 0.000000 0.037413 0.000000
# 6 0.000000 0.000000 0.000000 0.000618 0.000000 0.033072
#
#
# Mechanical properties :
#
#
# Convention : Reuss Voigt Hill
#
# Bulk Modulus (GPa) = 43.72456 64.54598 54.13527
# Shear Modulus (GPa) = 19.75185 27.36961 23.56073
#
# Velocity S-wave (km/s) = 3.19693 3.76326 3.49160
# Velocity P-wave (km/s) = 6.02096 7.23059 6.65332
#
# Compressibility (1/GPa) = 0.02287044
#
# Stress axis : x y z
#
# Youngs Moduli (GPa) = 100.09950 22.55553 39.74588
#
# Poissons Ratio (x) = 0.11273 0.14653
# Poissons Ratio (y) = 0.50028 0.77992
# Poissons Ratio (z) = 0.36904 0.44260
#
# Static dielectric constant tensor:
#      x y z
#    x 1.668010 0.000000 0.010890 
#    y 0.000000 1.651790 0.000000 
#    z 0.010890 0.000000 1.660500 
# 
# From -- ./inp_files/295691.got.cif
#   From: 2010.05.17/outbox.cif.g08.bks.cpg/sg12_148_cif.got.tgz:295691.got - 2010.06.03 13:09:07.
