data_PCOD9201469
_publ_section_title
;
Structure prediction by ZEFSAII (Michael W. Deem and Ramdas Pophale) SiO2 
 PCOD9201469
Probable space group: C 2/M
;
_chemical_formula_sum "Si O2"
_cell_formula_units_Z 64
_cell_length_a 14.036082
_cell_length_b 13.184722
_cell_length_c 19.593645
_cell_angle_alpha 90.000000
_cell_angle_beta 53.893314
_cell_angle_gamma 90.000000
_cell_volume 2929.551062
_symmetry_space_group_name_H-M "C 2/M"
_symmetry_group_IT_number 12
_symmetry_cell_setting 'monoclinic'
loop_
_space_group_symop_operation_xyz
x,y,z
-x,y,-z
-x,-y,-z
x,-y,z
1/2+x,1/2+y,z
1/2-x,1/2+y,-z
1/2-x,1/2-y,-z
1/2+x,1/2-y,z
loop_
_atom_site_type_symbol
_atom_site_label
_atom_site_fract_x
_atom_site_fract_y
_atom_site_fract_z
Si Si1 0.366884 0.116543 0.529601
Si Si2 0.510035 0.748845 0.780490
Si Si3 0.191781 0.618973 0.065512
Si Si4 0.391084 0.615065 0.585507
Si Si5 0.227391 0.879047 0.723427
Si Si6 0.819974 0.207404 0.759485
Si Si7 0.640928 0.211754 0.946633
Si Si8 0.147761 0.616337 0.614195
O O1 0.500000 0.113423 0.500000
O O2 0.283344 0.151681 0.626181
O O3 0.364383 0.164058 0.455804
O O4 0.327570 0.000000 0.534441
O O5 0.424535 0.819695 0.860861
O O6 0.600528 0.675226 0.780770
O O7 0.424076 0.685079 0.767786
O O8 0.582242 0.820873 0.699423
O O9 0.191281 0.500000 0.082679
O O10 0.301055 0.680647 0.053428
O O11 0.187396 0.635828 0.985809
O O12 0.500000 0.666299 0.500000
O O13 0.428003 0.500000 0.586170
O O14 0.346010 0.658776 0.675853
O O15 0.283570 0.613226 0.578402
O O16 0.309077 0.827585 0.746425
O O17 0.223559 0.000000 0.730141
O O18 0.700103 0.180978 0.849655
O O19 0.500000 0.214947 0.000000
O O20 0.101820 0.500000 0.632835
#
# Coordination Sequence:
#
# PCOD9201469 Si02
#       8
#     8   8   8   8   8   8   8   8
#     4   9  19  35  56  87 124 165 219 275 327 388
#     4  11  23  40  64  96 129 169 218 273 324 397
#     4  10  23  45  71 101 137 172 213 270 334 396
#     4  10  23  41  62  91 130 173 222 273 326 391
#     4  11  24  42  63  91 130 175 223 275 332 393
#     4  11  24  42  65  96 133 172 219 270 328 395
#     4  10  23  44  69 101 138 172 219 272 328 401
#     4  10  20  37  62  89 123 169 216 268 328 386
#
# _framework density 21.846352
#
# number of rings (size 3 to 8) (size 9 to 14) (size 15 to 20)
#    0.000    1.750    1.250    1.875    1.750    7.000 
#    0.000    8.750    0.000    0.000    0.000    0.000 
#    0.000    0.000    0.000    0.000    0.000    0.000 
#
# Total GULP energy -178767.731509 kJ/mol
# GULP energy per Si atom -5586.491610 kJ/mol
# Density = 2.179663 g / cm^3
# Si number density = 21.846352 Si / 1000 Ang^3
#
#
#
# Elastic Constant Matrix: (Units=GPa)
#
#
# Indices 1 2 3 4 5 6 
#
# 1 76.8419 -2.7355 23.6877 0.0000 -7.9465 0.0000
# 2 -2.7355 64.0257 13.7597 0.0000 -3.1924 0.0000
# 3 23.6877 13.7597 127.6343 0.0000 -2.8513 0.0000
# 4 0.0000 0.0000 0.0000 23.3579 0.0000 1.2852
# 5 -7.9465 -3.1924 -2.8513 0.0000 38.9396 0.0000
# 6 0.0000 0.0000 0.0000 1.2852 0.0000 16.4236
#
#
#
# Elastic Compliance Matrix: (Units=1/GPa)
#
#
# Indices 1 2 3 4 5 6 
#
# 1 0.014188 0.001329 -0.002714 0.000000 0.002806 0.000000
# 2 0.001329 0.016169 -0.001957 0.000000 0.001453 0.000000
# 3 -0.002714 -0.001957 0.008548 0.000000 -0.000088 0.000000
# 4 0.000000 0.000000 0.000000 0.042997 0.000000 -0.003365
# 5 0.002806 0.001453 -0.000088 0.000000 0.026366 0.000000
# 6 0.000000 0.000000 0.000000 -0.003365 0.000000 0.061151
#
#
# Mechanical properties :
#
#
# Convention : Reuss Voigt Hill
#
# Bulk Modulus (GPa) = 31.03620 37.54728 34.29174
# Shear Modulus (GPa) = 26.76056 31.33022 29.04539
#
# Velocity S-wave (km/s) = 3.50372 3.79108 3.65023
# Velocity P-wave (km/s) = 5.53222 6.03219 5.78761
#
# Compressibility (1/GPa) = 0.03222043
#
# Stress axis : x y z
#
# Youngs Moduli (GPa) = 70.48333 61.84810 116.99245
#
# Poissons Ratio (x) = -0.08221 0.31749
# Poissons Ratio (y) = -0.09369 0.22899
# Poissons Ratio (z) = 0.19127 0.12106
#
# Static dielectric constant tensor:
#      x y z
#    x 1.808120 0.000000 0.069000 
#    y 0.000000 1.840010 0.000000 
#    z 0.069000 0.000000 2.017090 
# 
# From -- ./inp_files/270626.got.cif
#   From: 2010.05.17/outbox.cif.g08.bks.cpg/sg12_136_cif.got.tgz:270626.got - 2010.06.03 13:09:07.
