data_PCOD9201490
_publ_section_title
;
Structure prediction by ZEFSAII (Michael W. Deem and Ramdas Pophale) SiO2 
 PCOD9201490
Probable space group: C 2/M
;
_chemical_formula_sum "Si O2"
_cell_formula_units_Z 64
_cell_length_a 10.722664
_cell_length_b 17.072657
_cell_length_c 17.222926
_cell_angle_alpha 90.000000
_cell_angle_beta 69.951453
_cell_angle_gamma 90.000000
_cell_volume 2961.845867
_symmetry_space_group_name_H-M "C 2/M"
_symmetry_group_IT_number 12
_symmetry_cell_setting 'monoclinic'
loop_
_space_group_symop_operation_xyz
x,y,z
-x,y,-z
-x,-y,-z
x,-y,z
1/2+x,1/2+y,z
1/2-x,1/2+y,-z
1/2-x,1/2-y,-z
1/2+x,1/2-y,z
loop_
_atom_site_type_symbol
_atom_site_label
_atom_site_fract_x
_atom_site_fract_y
_atom_site_fract_z
Si Si1 0.798441 0.086856 0.014050
Si Si2 0.480006 0.135725 0.722227
Si Si3 0.753317 0.815088 0.882566
Si Si4 0.808731 0.145483 0.169352
Si Si5 0.982640 0.412864 0.114598
Si Si6 0.889538 0.592642 0.465721
Si Si7 0.508769 0.676832 0.267649
Si Si8 0.910707 0.905097 0.444525
O O1 0.862506 0.095036 0.085760
O O2 0.639609 0.090931 0.066130
O O3 0.825927 0.000000 0.975825
O O4 0.821242 0.156672 0.947976
O O5 0.324193 0.112882 0.760920
O O6 0.538434 0.104374 0.790190
O O7 0.556277 0.103370 0.632239
O O8 0.489316 0.229939 0.717735
O O9 0.738070 0.724021 0.866500
O O10 0.607781 0.851701 0.910640
O O11 0.845682 0.847304 0.793588
O O12 0.911325 0.162599 0.215531
O O13 0.937412 0.500000 0.103396
O O14 0.880644 0.500000 0.484022
O O15 0.740685 0.622872 0.509630
O O16 0.000000 0.627514 0.500000
O O17 0.464863 0.631891 0.353726
O O18 0.000000 0.883727 0.500000
O O19 0.913155 0.000000 0.437852
#
# Coordination Sequence:
#
# PCOD9201490 Si02
#       8
#     8   8   8   8   8   8   8   8
#     4  10  22  40  62  90 120 159 211 258 301 352
#     4  10  21  37  61  89 117 155 206 250 297 362
#     4  11  22  38  60  90 123 161 203 249 303 370
#     4  10  22  41  59  87 128 162 198 254 309 362
#     4  10  20  37  62  90 120 154 202 260 300 343
#     4  10  21  38  62  90 118 156 205 256 310 368
#     4  11  24  40  61  88 123 164 202 244 311 374
#     4  10  24  42  60  88 126 163 203 257 317 372
#
# _framework density 21.608145
#
# number of rings (size 3 to 8) (size 9 to 14) (size 15 to 20)
#    0.000    1.750    1.250    2.250    1.750    4.500 
#    2.250    0.625    0.000    0.000    0.000    0.000 
#    0.000    0.000    0.000    0.000    0.000    0.000 
#
# Total GULP energy -178787.684664 kJ/mol
# GULP energy per Si atom -5587.115146 kJ/mol
# Density = 2.155896 g / cm^3
# Si number density = 21.608145 Si / 1000 Ang^3
#
#
#
# Elastic Constant Matrix: (Units=GPa)
#
#
# Indices 1 2 3 4 5 6 
#
# 1 85.4091 12.2627 31.0115 0.0000 3.1868 0.0000
# 2 12.2627 43.5868 15.0390 0.0000 0.2935 0.0000
# 3 31.0115 15.0390 135.2240 0.0000 1.1061 0.0000
# 4 0.0000 0.0000 0.0000 32.2222 0.0000 -3.2776
# 5 3.1868 0.2935 1.1061 0.0000 34.6005 0.0000
# 6 0.0000 0.0000 0.0000 -3.2776 0.0000 12.1016
#
#
#
# Elastic Compliance Matrix: (Units=1/GPa)
#
#
# Indices 1 2 3 4 5 6 
#
# 1 0.013123 -0.002755 -0.002694 0.000000 -0.001099 0.000000
# 2 -0.002755 0.024437 -0.002087 0.000000 0.000113 0.000000
# 3 -0.002694 -0.002087 0.008245 0.000000 0.000002 0.000000
# 4 0.000000 0.000000 0.000000 0.031914 0.000000 0.008643
# 5 -0.001099 0.000113 0.000002 0.000000 0.029002 0.000000
# 6 0.000000 0.000000 0.000000 0.008643 0.000000 0.084974
#
#
# Mechanical properties :
#
#
# Convention : Reuss Voigt Hill
#
# Bulk Modulus (GPa) = 32.53824 42.31627 37.42726
# Shear Modulus (GPa) = 23.04023 29.51199 26.27611
#
# Velocity S-wave (km/s) = 3.26893 3.69966 3.49094
# Velocity P-wave (km/s) = 5.41654 6.15434 5.79719
#
# Compressibility (1/GPa) = 0.03073307
#
# Stress axis : x y z
#
# Youngs Moduli (GPa) = 76.20113 40.92139 121.28442
#
# Poissons Ratio (x) = 0.11274 0.32676
# Poissons Ratio (y) = 0.20994 0.25311
# Poissons Ratio (z) = 0.20530 0.08540
#
# Static dielectric constant tensor:
#      x y z
#    x 1.809350 0.000000 0.008120 
#    y 0.000000 1.786900 0.000000 
#    z 0.008120 0.000000 1.764890 
# 
# From -- ./inp_files/207678.got.cif
#   From: 2010.05.17/outbox.cif.g08.bks.cpg/sg12_104_cif.got.tgz:207678.got - 2010.06.03 13:09:07.
