data_PCOD9201282
_publ_section_title
;
Structure prediction by ZEFSAII (Michael W. Deem and Ramdas Pophale) SiO2 
 PCOD9201282
Probable space group: C 2/M
;
_chemical_formula_sum "Si O2"
_cell_formula_units_Z 50
_cell_length_a 8.500800
_cell_length_b 15.517695
_cell_length_c 22.656973
_cell_angle_alpha 90.000000
_cell_angle_beta 49.953441
_cell_angle_gamma 90.000000
_cell_volume 2287.949802
_symmetry_space_group_name_H-M "C 2/M"
_symmetry_group_IT_number 12
_symmetry_cell_setting 'monoclinic'
loop_
_space_group_symop_operation_xyz
x,y,z
-x,y,-z
-x,-y,-z
x,-y,z
1/2+x,1/2+y,z
1/2-x,1/2+y,-z
1/2-x,1/2-y,-z
1/2+x,1/2-y,z
loop_
_atom_site_type_symbol
_atom_site_label
_atom_site_fract_x
_atom_site_fract_y
_atom_site_fract_z
Si Si1 0.888320 0.196054 0.588169
Si Si2 0.760380 0.593446 0.216162
Si Si3 0.332000 0.363668 0.370589
Si Si4 0.660094 0.710913 0.838118
Si Si5 0.979578 0.404376 0.291454
Si Si6 0.282323 0.215195 0.057678
Si Si7 0.500000 0.000000 0.500000
O O1 0.768843 0.281520 0.636578
O O2 0.707559 0.126080 0.622210
O O3 0.000000 0.212903 0.500000
O O4 0.049782 0.167288 0.598401
O O5 0.808216 0.500000 0.176090
O O6 0.516022 0.598794 0.286893
O O7 0.829438 0.685117 0.172949
O O8 0.871194 0.592367 0.253350
O O9 0.151904 0.426208 0.433994
O O10 0.691551 0.707294 0.901211
O O11 0.437681 0.674314 0.873992
O O12 0.837594 0.663343 0.759689
O O13 0.051620 0.500000 0.290249
O O14 0.500000 0.166404 0.000000
O O15 0.250000 0.250000 0.000000
#
# Coordination Sequence:
#
# PCOD9201282 Si02
#       7
#     8   8   8   8   8   8   2
#     4  11  23  40  63  86 124 170 210 264 324 366
#     4  10  20  37  61  91 122 163 208 252 309 369
#     4  11  23  40  62  86 122 164 212 263 316 380
#     4  11  18  37  67  89 124 166 199 254 303 365
#     4  10  22  38  60  91 125 164 216 256 310 375
#     4   9  20  36  63  97 125 161 201 236 306 380
#     4  12  24  40  62  88 122 172 210 264 332 376
#
# _framework density 21.853625000000001
#
# number of rings (size 3 to 8) (size 9 to 14) (size 15 to 20)
#    0.000    1.600    4.800    0.480    1.120    0.320 
#    0.000    0.800    0.000   19.200    0.000    0.000 
#    0.000    0.000    0.000    0.000    0.000    0.000 
#
# Total GULP energy -139228.651531 kJ/mol
# GULP energy per Si atom -5569.146061 kJ/mol
# Density = 2.180389 g / cm^3
# Si number density = 21.853625 Si / 1000 Ang^3
#
#
#
# Elastic Constant Matrix: (Units=GPa)
#
#
# Indices 1 2 3 4 5 6 
#
# 1 61.6910 10.0461 28.9025 -0.0002 -18.7855 0.0003
# 2 10.0461 120.7848 22.6686 -0.0003 -15.0194 0.0004
# 3 28.9025 22.6686 78.4182 0.0001 -32.6712 0.0003
# 4 -0.0002 -0.0003 0.0001 6.2774 0.0002 4.1095
# 5 -18.7855 -15.0194 -32.6712 0.0002 38.1731 -0.0004
# 6 0.0003 0.0004 0.0003 4.1095 -0.0004 -3.3938
#
#
#
# Elastic Compliance Matrix: (Units=1/GPa)
#
#
# Indices 1 2 3 4 5 6 
#
# 1 0.020331 -0.000029 -0.005162 0.000000 0.005576 0.000001
# 2 -0.000029 0.008852 -0.001714 0.000000 0.002001 0.000001
# 3 -0.005162 -0.001714 0.021465 0.000000 0.015156 -0.000001
# 4 0.000000 0.000000 0.000000 0.088861 0.000000 0.107601
# 5 0.005576 0.002001 0.015156 0.000000 0.042699 -0.000003
# 6 0.000001 0.000001 -0.000001 0.107601 -0.000003 -0.164366
#
#
# Mechanical properties :
#
#
# Convention : Reuss Voigt Hill
#
# Bulk Modulus (GPa) = 27.14651 42.68094 34.91373
# Shear Modulus (GPa) = 113.81247 21.49647 67.65447
#
# Velocity S-wave (km/s) = 7.22444 3.13973 5.57003
# Velocity P-wave (km/s) = 9.05754 5.71985 7.57481
#
# Compressibility (1/GPa) = 0.03683715
#
# Stress axis : x y z
#
# Youngs Moduli (GPa) = 49.18653 112.96595 46.58799
#
# Poissons Ratio (x) = 0.00326 0.24049
# Poissons Ratio (y) = 0.00142 0.07987
# Poissons Ratio (z) = 0.25390 0.19368
#
# Static dielectric constant tensor:
#      x y z
#    x 1.873420 0.000000 0.004120 
#    y 0.000000 1.800220 0.000000 
#    z 0.004120 0.000000 1.821710 
# 
# From -- ./inp_files/356108.got.cif
#   From: 2010.05.17/outbox.cif.g08.bks.cpg/sg12_179_cif.got.tgz:356108.got - 2010.06.03 13:09:07.
