data_PCOD9201154
_publ_section_title
;
Structure prediction by ZEFSAII (Michael W. Deem and Ramdas Pophale) SiO2 
 PCOD9201154
Probable space group: C 2/M
;
_chemical_formula_sum "Si O2"
_cell_formula_units_Z 56
_cell_length_a 14.864528
_cell_length_b 17.792584
_cell_length_c 11.237225
_cell_angle_alpha 90.000000
_cell_angle_beta 105.562871
_cell_angle_gamma 90.000000
_cell_volume 2863.039235
_symmetry_space_group_name_H-M "C 2/M"
_symmetry_group_IT_number 12
_symmetry_cell_setting 'monoclinic'
loop_
_space_group_symop_operation_xyz
x,y,z
-x,y,-z
-x,-y,-z
x,-y,z
1/2+x,1/2+y,z
1/2-x,1/2+y,-z
1/2-x,1/2-y,-z
1/2+x,1/2-y,z
loop_
_atom_site_type_symbol
_atom_site_label
_atom_site_fract_x
_atom_site_fract_y
_atom_site_fract_z
Si Si1 0.741754 0.837049 0.103572
Si Si2 0.852944 0.693629 0.175201
Si Si3 0.536094 0.195402 0.385256
Si Si4 0.900884 0.914176 0.005365
Si Si5 0.733719 0.416339 0.268283
Si Si6 0.678563 0.680494 0.472305
Si Si7 0.694965 0.910898 0.325091
O O1 0.777976 0.759746 0.176068
O O2 0.835295 0.870618 0.074843
O O3 0.699087 0.891224 0.186918
O O4 0.667414 0.820901 0.971635
O O5 0.823411 0.621148 0.240434
O O6 0.955695 0.710428 0.259011
O O7 0.500000 0.165261 0.500000
O O8 0.581731 0.275871 0.434373
O O9 0.611821 0.137147 0.357518
O O10 0.917647 0.000000 0.054774
O O11 0.840517 0.918545 0.864314
O O12 0.000000 0.880402 0.000000
O O13 0.752685 0.500000 0.318774
O O14 0.695209 0.365387 0.358691
O O15 0.750000 0.750000 0.500000
O O16 0.708878 0.623777 0.587072
O O17 0.686823 0.000000 0.342023
#
# Coordination Sequence:
#
# PCOD9201154 Si02
#       7
#     8   8   8   8   8   8   8
#     4  10  21  39  60  90 125 166 204 250 307 364
#     4  10  21  38  61  91 121 163 208 249 303 360
#     4  11  23  39  62  89 120 161 209 259 300 360
#     4   9  19  35  58  89 122 160 201 248 299 354
#     4  10  20  37  61  87 117 157 202 247 303 363
#     4  10  21  38  60  83 117 154 200 250 304 355
#     4  11  23  40  63  90 126 166 200 250 315 369
#
# _framework density 19.559635
#
# number of rings (size 3 to 8) (size 9 to 14) (size 15 to 20)
#    0.000    1.857    0.000    5.143    2.000    2.000 
#    0.000    0.714    0.000    1.714    0.000    0.000 
#    0.000    0.000    0.000    0.000    0.000    0.000 
#
# Total GULP energy -156165.313490 kJ/mol
# GULP energy per Si atom -5577.332625 kJ/mol
# Density = 1.951512 g / cm^3
# Si number density = 19.559635 Si / 1000 Ang^3
#
#
#
# Elastic Constant Matrix: (Units=GPa)
#
#
# Indices 1 2 3 4 5 6 
#
# 1 83.7902 37.3755 57.3936 0.0000 9.7737 0.0000
# 2 37.3755 112.5503 36.2048 0.0000 -5.7106 0.0000
# 3 57.3936 36.2048 79.0313 0.0000 -2.7283 0.0000
# 4 0.0000 0.0000 0.0000 17.5946 0.0000 4.4975
# 5 9.7737 -5.7106 -2.7283 0.0000 35.6981 0.0000
# 6 0.0000 0.0000 0.0000 4.4975 0.0000 19.9896
#
#
#
# Elastic Compliance Matrix: (Units=1/GPa)
#
#
# Indices 1 2 3 4 5 6 
#
# 1 0.027340 -0.003598 -0.018533 0.000000 -0.009477 0.000000
# 2 -0.003598 0.010955 -0.002317 0.000000 0.002560 0.000000
# 3 -0.018533 -0.002317 0.027409 0.000000 0.006798 0.000000
# 4 0.000000 0.000000 0.000000 0.060304 0.000000 -0.013568
# 5 -0.009477 0.002560 0.006798 0.000000 0.031537 0.000000
# 6 0.000000 0.000000 0.000000 -0.013568 0.000000 0.053079
#
#
# Mechanical properties :
#
#
# Convention : Reuss Voigt Hill
#
# Bulk Modulus (GPa) = 59.50218 59.70218 59.60218
# Shear Modulus (GPa) = 18.85925 24.28299 21.57112
#
# Velocity S-wave (km/s) = 3.10851 3.52729 3.32450
# Velocity P-wave (km/s) = 6.58565 6.86866 6.72864
#
# Compressibility (1/GPa) = 0.01680611
#
# Stress axis : x y z
#
# Youngs Moduli (GPa) = 36.57674 91.28194 36.48485
#
# Poissons Ratio (x) = 0.32844 0.67619
# Poissons Ratio (y) = 0.13161 0.08454
# Poissons Ratio (z) = 0.67789 0.21152
#
# Static dielectric constant tensor:
#      x y z
#    x 1.712180 0.000000 0.016530 
#    y 0.000000 1.720200 0.000000 
#    z 0.016530 0.000000 1.687200 
# 
# From -- ./inp_files/145669.got.cif
#   From: 2010.05.17/outbox.cif.g08.bks.cpg/sg12_73_cif.got.tgz:145669.got - 2010.06.03 13:09:07.
