data_PCOD9201402
_publ_section_title
;
Structure prediction by ZEFSAII (Michael W. Deem and Ramdas Pophale) SiO2 
 PCOD9201402
Probable space group: C 2/M
;
_chemical_formula_sum "Si O2"
_cell_formula_units_Z 40
_cell_length_a 15.241661
_cell_length_b 13.121333
_cell_length_c 14.132452
_cell_angle_alpha 90.000000
_cell_angle_beta 143.771258
_cell_angle_gamma 90.000000
_cell_volume 1670.409291
_symmetry_space_group_name_H-M "C 2/M"
_symmetry_group_IT_number 12
_symmetry_cell_setting 'monoclinic'
loop_
_space_group_symop_operation_xyz
x,y,z
-x,y,-z
-x,-y,-z
x,-y,z
1/2+x,1/2+y,z
1/2-x,1/2+y,-z
1/2-x,1/2-y,-z
1/2+x,1/2-y,z
loop_
_atom_site_type_symbol
_atom_site_label
_atom_site_fract_x
_atom_site_fract_y
_atom_site_fract_z
Si Si1 0.166818 0.662478 0.632847
Si Si2 0.090003 0.183426 0.793719
Si Si3 0.155965 0.889070 0.559684
Si Si4 0.628536 0.283737 0.037983
Si Si5 0.906349 0.611465 0.624822
O O1 0.156280 0.786136 0.620457
O O2 0.276456 0.640356 0.812769
O O3 0.204930 0.626764 0.560916
O O4 0.000000 0.622889 0.500000
O O5 0.259463 0.195134 0.904120
O O6 0.981977 0.117745 0.633615
O O7 0.021379 0.297208 0.721746
O O8 0.079599 0.163820 0.897068
O O9 0.306160 0.881443 0.629968
O O10 0.155608 0.000000 0.606791
O O11 0.500000 0.248618 0.000000
O O12 0.975191 0.500000 0.680294
#
# Coordination Sequence:
#
# PCOD9201402 Si02
#       5
#     8   8   8   8   8
#     4  11  20  38  60  86 115 153 195 244 291 348
#     4  10  21  40  59  83 124 156 195 245 295 351
#     4  10  20  37  62  88 115 153 200 245 293 352
#     4  11  21  37  62  87 118 160 197 239 299 352
#     4  10  20  37  62  88 115 153 200 245 293 352
#
# _framework density 23.946225999999999
#
# number of rings (size 3 to 8) (size 9 to 14) (size 15 to 20)
#    0.000    1.600    4.000    4.800    0.000    0.800 
#    0.000    6.000    0.000   10.800    0.000    0.000 
#    0.000    0.000    0.000    0.000    0.000    0.000 
#
# Total GULP energy -111657.516694 kJ/mol
# GULP energy per Si atom -5582.875835 kJ/mol
# Density = 2.389172 g / cm^3
# Si number density = 23.946226 Si / 1000 Ang^3
#
#
#
# Elastic Constant Matrix: (Units=GPa)
#
#
# Indices 1 2 3 4 5 6 
#
# 1 139.1458 9.1428 13.5770 0.0000 9.1404 0.0000
# 2 9.1428 101.5897 -1.4803 0.0000 9.2064 0.0000
# 3 13.5770 -1.4803 93.4890 0.0000 -19.0956 0.0000
# 4 0.0000 0.0000 0.0000 -1.9409 0.0000 4.3527
# 5 9.1404 9.2064 -19.0956 0.0000 52.6830 0.0000
# 6 0.0000 0.0000 0.0000 4.3527 0.0000 15.3678
#
#
#
# Elastic Compliance Matrix: (Units=1/GPa)
#
#
# Indices 1 2 3 4 5 6 
#
# 1 0.007477 -0.000537 -0.001447 0.000000 -0.001728 0.000000
# 2 -0.000537 0.010045 -0.000111 0.000000 -0.001702 0.000000
# 3 -0.001447 -0.000111 0.011836 0.000000 0.004561 0.000000
# 4 0.000000 0.000000 0.000000 -0.315089 0.000000 0.089245
# 5 -0.001728 -0.001702 0.004561 0.000000 0.021232 0.000000
# 6 0.000000 0.000000 0.000000 0.089245 0.000000 0.039794
#
#
# Mechanical properties :
#
#
# Convention : Reuss Voigt Hill
#
# Bulk Modulus (GPa) = 39.73420 41.85593 40.79507
# Shear Modulus (GPa) = -23.57089 34.08766 5.25838
#
# Velocity S-wave (km/s) = -3.14080 3.77703 1.48347
# Velocity P-wave (km/s) = 1.86448 6.04470 4.47296
#
# Compressibility (1/GPa) = 0.02516724
#
# Stress axis : x y z
#
# Youngs Moduli (GPa) = 133.74826 99.55677 84.48506
#
# Poissons Ratio (x) = 0.05350 0.12227
# Poissons Ratio (y) = 0.07188 0.00934
# Poissons Ratio (z) = 0.19357 0.01101
#
# Static dielectric constant tensor:
#      x y z
#    x 2.003070 0.000000 -0.002960 
#    y 0.000000 1.894170 0.000000 
#    z -0.002960 0.000000 1.966340 
# 
# From -- ./inp_files/214573.got.cif
#   From: 2010.05.17/outbox.cif.g08.bks.cpg/sg12_108_cif.got.tgz:214573.got - 2010.06.03 13:09:07.
