data_PCOD9201948
_publ_section_title
;
Structure prediction by ZEFSAII (Michael W. Deem and Ramdas Pophale) SiO2 
 PCOD9201948
Probable space group: C 2/M
;
_chemical_formula_sum "Si O2"
_cell_formula_units_Z 50
_cell_length_a 11.103727
_cell_length_b 27.466407
_cell_length_c 8.340893
_cell_angle_alpha 90.000000
_cell_angle_beta 117.627272
_cell_angle_gamma 90.000000
_cell_volume 2253.764553
_symmetry_space_group_name_H-M "C 2/M"
_symmetry_group_IT_number 12
_symmetry_cell_setting 'monoclinic'
loop_
_space_group_symop_operation_xyz
x,y,z
-x,y,-z
-x,-y,-z
x,-y,z
1/2+x,1/2+y,z
1/2-x,1/2+y,-z
1/2-x,1/2-y,-z
1/2+x,1/2-y,z
loop_
_atom_site_type_symbol
_atom_site_label
_atom_site_fract_x
_atom_site_fract_y
_atom_site_fract_z
Si Si1 0.395270 0.845622 0.081151
Si Si2 0.901153 0.154601 0.783236
Si Si3 0.500947 0.946458 0.802496
Si Si4 0.707351 0.579958 0.495003
Si Si5 0.000000 0.000000 0.500000
Si Si6 0.354868 0.775343 0.324658
Si Si7 0.846934 0.836172 0.283077
O O1 0.431659 0.894701 0.200358
O O2 0.390953 0.795019 0.170866
O O3 0.500000 0.841569 0.000000
O O4 0.246227 0.852746 0.921397
O O5 0.828186 0.102916 0.699868
O O6 0.777008 0.192950 0.709138
O O7 0.001928 0.164129 0.694951
O O8 0.000000 0.156204 0.000000
O O9 0.353397 0.942844 0.628101
O O10 0.560344 0.000000 0.797403
O O11 0.500000 0.945757 0.000000
O O12 0.592602 0.542062 0.470903
O O13 0.694887 0.625609 0.608503
O O14 0.500000 0.783385 0.500000
O O15 0.315306 0.719111 0.310122
#
# Coordination Sequence:
#
# PCOD9201948 Si02
#       7
#     8   8   8   8   2   8   8
#     4  11  23  42  68 100 140 180 232 288 346 425
#     4  12  27  46  70 102 148 186 234 291 359 425
#     4  10  20  37  70 102 130 170 228 292 344 399
#     4  12  23  45  71 102 140 180 241 292 345 424
#     4  12  24  40  76 100 134 186 244 296 342 402
#     4  12  28  44  69 101 145 190 231 291 365 420
#     4  12  25  45  69 102 137 187 236 290 346 429
#
# _framework density 22.185103999999999
#
# number of rings (size 3 to 8) (size 9 to 14) (size 15 to 20)
#    0.000    0.480    7.200    2.400    2.240    1.280 
#    0.000    0.400    1.760    1.440    0.000    0.000 
#    0.000    0.000    0.000    0.000    0.000    0.000 
#
# Total GULP energy -139266.793995 kJ/mol
# GULP energy per Si atom -5570.671760 kJ/mol
# Density = 2.213461 g / cm^3
# Si number density = 22.185104 Si / 1000 Ang^3
#
#
#
# Elastic Constant Matrix: (Units=GPa)
#
#
# Indices 1 2 3 4 5 6 
#
# 1 73.5682 8.3442 0.5397 0.0000 23.7944 0.0000
# 2 8.3442 133.5697 28.1644 0.0000 13.3162 0.0000
# 3 0.5397 28.1644 44.3224 0.0000 15.2747 0.0000
# 4 0.0000 0.0000 0.0000 -13.6821 0.0000 19.7177
# 5 23.7944 13.3162 15.2747 0.0000 21.1468 0.0000
# 6 0.0000 0.0000 0.0000 19.7177 0.0000 25.2997
#
#
#
# Elastic Compliance Matrix: (Units=1/GPa)
#
#
# Indices 1 2 3 4 5 6 
#
# 1 0.026036 -0.000597 0.013353 0.000000 -0.038564 0.000000
# 2 -0.000597 0.008721 -0.005157 0.000000 -0.001094 0.000000
# 3 0.013353 -0.005157 0.039590 0.000000 -0.040374 0.000000
# 4 0.000000 0.000000 0.000000 -0.034424 0.000000 0.026829
# 5 -0.038564 -0.001094 -0.040374 0.000000 0.120533 0.000000
# 6 0.000000 0.000000 0.000000 0.026829 0.000000 0.018617
#
#
# Mechanical properties :
#
#
# Convention : Reuss Voigt Hill
#
# Bulk Modulus (GPa) = 11.16777 36.17298 23.67038
# Shear Modulus (GPa) = 25.81003 20.84701 23.32852
#
# Velocity S-wave (km/s) = 3.41456 3.06875 3.24626
# Velocity P-wave (km/s) = 4.53767 5.37557 4.97430
#
# Compressibility (1/GPa) = 0.08954336
#
# Stress axis : x y z
#
# Youngs Moduli (GPa) = 38.40891 114.67177 25.25862
#
# Poissons Ratio (x) = 0.06851 -0.33728
# Poissons Ratio (y) = 0.02295 0.13026
# Poissons Ratio (z) = -0.51287 0.59137
#
# Static dielectric constant tensor:
#      x y z
#    x 1.855120 0.000000 -0.016670 
#    y 0.000000 1.789050 0.000000 
#    z -0.016670 0.000000 1.993940 
# 
# From -- ./inp_files/53369.got.cif
#   From: 2010.05.17/outbox.cif.g08.bks.cpg/sg12_27_cif.got.tgz:53369.got - 2010.06.03 13:09:07.
