data_PCOD9201131
_publ_section_title
;
Structure prediction by ZEFSAII (Michael W. Deem and Ramdas Pophale) SiO2 
 PCOD9201131
Probable space group: C 2/M
;
_chemical_formula_sum "Si O2"
_cell_formula_units_Z 48
_cell_length_a 24.437151
_cell_length_b 19.344492
_cell_length_c 15.064434
_cell_angle_alpha 90.000000
_cell_angle_beta 19.622156
_cell_angle_gamma 90.000000
_cell_volume 2391.453221
_symmetry_space_group_name_H-M "C 2/M"
_symmetry_group_IT_number 12
_symmetry_cell_setting 'monoclinic'
loop_
_space_group_symop_operation_xyz
x,y,z
-x,y,-z
-x,-y,-z
x,-y,z
1/2+x,1/2+y,z
1/2-x,1/2+y,-z
1/2-x,1/2-y,-z
1/2+x,1/2-y,z
loop_
_atom_site_type_symbol
_atom_site_label
_atom_site_fract_x
_atom_site_fract_y
_atom_site_fract_z
Si Si1 0.315944 0.579290 0.320134
Si Si2 0.936824 0.917576 0.690848
Si Si3 0.518346 0.420100 0.756419
Si Si4 0.343252 0.715680 0.050308
Si Si5 0.881973 0.704713 0.457454
Si Si6 0.626349 0.160747 0.238148
O O1 0.268081 0.500000 0.372853
O O2 0.337216 0.586946 0.393909
O O3 0.194482 0.636379 0.468634
O O4 0.500000 0.588605 0.000000
O O5 0.000000 0.890028 0.500000
O O6 0.051006 0.904657 0.602729
O O7 0.919744 0.000000 0.708006
O O8 0.765722 0.885707 0.982035
O O9 0.463035 0.500000 0.846529
O O10 0.379370 0.366635 0.999029
O O11 0.516733 0.749802 0.766102
O O12 0.261513 0.739993 0.265968
O O13 0.218488 0.719049 0.157343
O O14 0.014329 0.687672 0.330665
O O15 0.500000 0.125416 0.500000
#
# Coordination Sequence:
#
# PCOD9201131 Si02
#       6
#     8   8   8   8   8   8
#     4  10  20  37  61  86 116 158 205 252 295 345
#     4   9  18  33  57  87 118 153 192 242 307 368
#     4   9  18  36  59  83 113 152 199 242 290 350
#     4  10  21  37  58  87 119 154 196 248 301 355
#     4  11  22  36  57  88 120 155 197 244 302 361
#     4   9  20  36  55  82 117 154 199 248 295 350
#
# _framework density 20.071477000000002
#
# number of rings (size 3 to 8) (size 9 to 14) (size 15 to 20)
#    0.000    2.333    1.667    0.500    0.000    4.333 
#    0.000    2.500    0.000    4.000    0.000   11.667 
#    0.000    0.000    0.000    0.000    0.000    0.000 
#
# Total GULP energy -133748.384178 kJ/mol
# GULP energy per Si atom -5572.849341 kJ/mol
# Density = 2.002579 g / cm^3
# Si number density = 20.071477 Si / 1000 Ang^3
#
#
#
# Elastic Constant Matrix: (Units=GPa)
#
#
# Indices 1 2 3 4 5 6 
#
# 1 75.0964 32.9939 54.9063 -0.0004 25.2020 0.0002
# 2 32.9939 59.7523 55.8713 0.0000 0.8847 -0.0014
# 3 54.9063 55.8713 129.8585 -0.0007 30.4719 -0.0009
# 4 -0.0004 0.0000 -0.0007 17.1071 0.0003 -3.5475
# 5 25.2020 0.8847 30.4719 0.0003 30.9076 0.0002
# 6 0.0002 -0.0014 -0.0009 -3.5475 0.0002 12.8814
#
#
#
# Elastic Compliance Matrix: (Units=1/GPa)
#
#
# Indices 1 2 3 4 5 6 
#
# 1 0.026950 -0.014389 -0.000187 0.000001 -0.021378 -0.000002
# 2 -0.014389 0.041671 -0.018627 -0.000001 0.028905 0.000003
# 3 -0.000187 -0.018627 0.020339 0.000001 -0.019366 0.000000
# 4 0.000001 -0.000001 0.000001 0.061996 -0.000002 0.017073
# 5 -0.021378 0.028905 -0.019366 -0.000002 0.068052 0.000001
# 6 -0.000002 0.000003 0.000000 0.017073 0.000001 0.082334
#
#
# Mechanical properties :
#
#
# Convention : Reuss Voigt Hill
#
# Bulk Modulus (GPa) = 44.34408 61.36112 52.85260
# Shear Modulus (GPa) = 13.32390 20.24158 16.78274
#
# Velocity S-wave (km/s) = 2.57927 3.17909 2.89476
# Velocity P-wave (km/s) = 5.56877 6.64178 6.12880
#
# Compressibility (1/GPa) = 0.02255093
#
# Stress axis : x y z
#
# Youngs Moduli (GPa) = 37.10634 23.99759 49.16762
#
# Poissons Ratio (x) = 0.34531 0.00921
# Poissons Ratio (y) = 0.53394 0.91587
# Poissons Ratio (z) = 0.00695 0.44701
#
# Static dielectric constant tensor:
#      x y z
#    x 1.785610 0.000000 0.030040 
#    y 0.000000 1.726520 0.000000 
#    z 0.030040 0.000000 1.721720 
# 
# From -- ./inp_files/241837.got.cif
#   From: 2010.05.17/outbox.cif.g08.bks.cpg/sg12_121_cif.got.tgz:241837.got - 2010.06.03 13:09:07.
