data_PCOD9201108
_publ_section_title
;
Structure prediction by ZEFSAII (Michael W. Deem and Ramdas Pophale) SiO2 
 PCOD9201108
Probable space group: C 2/M
;
_chemical_formula_sum "Si O2"
_cell_formula_units_Z 36
_cell_length_a 9.276697
_cell_length_b 16.167994
_cell_length_c 19.919844
_cell_angle_alpha 90.000000
_cell_angle_beta 38.025668
_cell_angle_gamma 90.000000
_cell_volume 1840.459789
_symmetry_space_group_name_H-M "C 2/M"
_symmetry_group_IT_number 12
_symmetry_cell_setting 'monoclinic'
loop_
_space_group_symop_operation_xyz
x,y,z
-x,y,-z
-x,-y,-z
x,-y,z
1/2+x,1/2+y,z
1/2-x,1/2+y,-z
1/2-x,1/2-y,-z
1/2+x,1/2-y,z
loop_
_atom_site_type_symbol
_atom_site_label
_atom_site_fract_x
_atom_site_fract_y
_atom_site_fract_z
Si Si1 0.934683 0.178843 0.945202
Si Si2 0.766695 0.668713 0.381584
Si Si3 0.026400 0.000000 0.069791
Si Si4 0.029896 0.500000 0.702042
Si Si5 0.793435 0.321250 0.693768
Si Si6 0.113418 0.500000 0.385487
O O1 0.152468 0.189839 0.814953
O O2 0.750000 0.250000 0.000000
O O3 0.850793 0.085791 0.957564
O O4 0.000000 0.180275 0.000000
O O5 0.500000 0.654010 0.500000
O O6 0.868515 0.585752 0.308656
O O7 0.773754 0.748760 0.331902
O O8 0.935349 0.683429 0.383558
O O9 0.752764 0.000000 0.192099
O O10 0.000000 0.000000 0.000000
O O11 0.079965 0.500000 0.603453
O O12 0.754915 0.412427 0.675331
O O13 0.000000 0.500000 0.500000
#
# Coordination Sequence:
#
# PCOD9201108 Si02
#       6
#     8   8   4   4   8   4
#     4  11  22  39  65  94 121 165 206 253 309 367
#     4  11  22  38  62  90 124 163 207 256 307 366
#     4  10  20  39  66  87 118 162 205 249 311 373
#     4  10  21  42  60  90 122 163 210 254 301 371
#     4  11  22  40  60  91 128 159 207 255 307 367
#     4  10  20  37  61  85 119 167 201 242 312 369
#
# _framework density 19.560328999999999
#
# number of rings (size 3 to 8) (size 9 to 14) (size 15 to 20)
#    0.000    1.333    4.444    3.000    3.111    1.778 
#    0.000    1.667    0.000    0.000    0.000    0.000 
#    0.000    0.000    0.000    0.000    0.000    0.000 
#
# Total GULP energy -100323.152263 kJ/mol
# GULP energy per Si atom -5573.508459 kJ/mol
# Density = 1.951581 g / cm^3
# Si number density = 19.560329 Si / 1000 Ang^3
#
#
#
# Elastic Constant Matrix: (Units=GPa)
#
#
# Indices 1 2 3 4 5 6 
#
# 1 49.7443 57.4262 23.5547 -0.0019 4.8761 0.0023
# 2 57.4262 234.0251 50.2322 -0.0029 -9.7417 0.0026
# 3 23.5547 50.2322 99.4477 -0.0027 11.1757 0.0041
# 4 -0.0019 -0.0029 -0.0027 33.0454 0.0022 -2.1737
# 5 4.8761 -9.7417 11.1757 0.0022 25.3873 -0.0025
# 6 0.0023 0.0026 0.0041 -2.1737 -0.0025 39.3538
#
#
#
# Elastic Compliance Matrix: (Units=1/GPa)
#
#
# Indices 1 2 3 4 5 6 
#
# 1 0.030419 -0.007183 -0.002747 0.000001 -0.007390 -0.000001
# 2 -0.007183 0.006725 -0.002252 0.000000 0.004952 0.000001
# 3 -0.002747 -0.002252 0.012500 0.000001 -0.005839 -0.000001
# 4 0.000001 0.000000 0.000001 0.030372 -0.000003 0.001678
# 5 -0.007390 0.004952 -0.005839 -0.000003 0.045280 0.000003
# 6 -0.000001 0.000001 -0.000001 0.001678 0.000003 0.025503
#
#
# Mechanical properties :
#
#
# Convention : Reuss Voigt Hill
#
# Bulk Modulus (GPa) = 39.55400 71.73813 55.64606
# Shear Modulus (GPa) = 27.23479 36.35756 31.79617
#
# Velocity S-wave (km/s) = 3.73547 4.31599 4.03618
# Velocity P-wave (km/s) = 6.23461 7.84805 7.08739
#
# Compressibility (1/GPa) = 0.02528189
#
# Stress axis : x y z
#
# Youngs Moduli (GPa) = 32.87367 148.69771 80.00100
#
# Poissons Ratio (x) = 1.06803 0.21973
# Poissons Ratio (y) = 0.23612 0.18017
# Poissons Ratio (z) = 0.09029 0.33489
#
# Static dielectric constant tensor:
#      x y z
#    x 1.694330 0.000000 0.035200 
#    y 0.000000 1.760950 0.000000 
#    z 0.035200 0.000000 1.743090 
# 
# From -- ./inp_files/300115.got.cif
#   From: 2010.05.17/outbox.cif.g08.bks.cpg/sg12_151_cif.got.tgz:300115.got - 2010.06.03 13:09:07.
