data_PCOD9201593
_publ_section_title
;
Structure prediction by ZEFSAII (Michael W. Deem and Ramdas Pophale) SiO2 
 PCOD9201593
Probable space group: C 2/M
;
_chemical_formula_sum "Si O2"
_cell_formula_units_Z 56
_cell_length_a 20.965700
_cell_length_b 29.521425
_cell_length_c 9.201421
_cell_angle_alpha 90.000000
_cell_angle_beta 29.620797
_cell_angle_gamma 90.000000
_cell_volume 2814.847048
_symmetry_space_group_name_H-M "C 2/M"
_symmetry_group_IT_number 12
_symmetry_cell_setting 'monoclinic'
loop_
_space_group_symop_operation_xyz
x,y,z
-x,y,-z
-x,-y,-z
x,-y,z
1/2+x,1/2+y,z
1/2-x,1/2+y,-z
1/2-x,1/2-y,-z
1/2+x,1/2-y,z
loop_
_atom_site_type_symbol
_atom_site_label
_atom_site_fract_x
_atom_site_fract_y
_atom_site_fract_z
Si Si1 0.345972 0.707238 0.782804
Si Si2 0.150192 0.901265 0.725809
Si Si3 0.915910 0.500000 0.019170
Si Si4 0.780700 0.654858 0.706030
Si Si5 0.989625 0.413026 0.683743
Si Si6 0.158907 0.000000 0.694436
Si Si7 0.132729 0.282569 0.705711
Si Si8 0.719603 0.848784 0.782650
O O1 0.500000 0.716896 0.500000
O O2 0.310988 0.684309 0.696198
O O3 0.250000 0.750000 0.000000
O O4 0.298352 0.671793 0.999653
O O5 0.185349 0.863640 0.772282
O O6 0.192321 0.951229 0.695900
O O7 0.209250 0.886687 0.454555
O O8 0.000000 0.902782 0.000000
O O9 0.760542 0.500000 0.357372
O O10 0.956375 0.454523 0.854409
O O11 0.000000 0.500000 0.000000
O O12 0.856084 0.695769 0.475937
O O13 0.880563 0.614541 0.537607
O O14 0.000000 0.430367 0.500000
O O15 0.878365 0.374940 0.918639
O O16 0.000000 0.000000 0.000000
O O17 0.250000 0.250000 0.500000
O O18 0.141965 0.320909 0.812726
O O19 0.000000 0.257405 0.000000
#
# Coordination Sequence:
#
# PCOD9201593 Si02
#       8
#     8   8   4   8   8   4   8   8
#     4  12  28  45  68  96 130 175 231 282 342 412
#     4  10  21  39  65  93 130 170 219 273 333 405
#     4  12  25  41  74 111 136 173 234 280 337 410
#     4  11  24  41  66  92 128 175 224 276 342 403
#     4  12  24  43  69  99 139 182 225 281 342 414
#     4  10  20  37  62  99 132 169 208 264 331 392
#     4  11  24  39  62  92 127 166 226 282 341 392
#     4  11  23  41  67  89 130 177 219 276 343 400
#
# _framework density 19.894507999999998
#
# number of rings (size 3 to 8) (size 9 to 14) (size 15 to 20)
#    0.000    0.857    4.286    2.786    4.000    5.714 
#    0.000    0.000    0.000    0.000    0.000    8.000 
#    0.000    0.000    0.000    0.000    0.000    0.000 
#
# Total GULP energy -156221.380765 kJ/mol
# GULP energy per Si atom -5579.335027 kJ/mol
# Density = 1.984923 g / cm^3
# Si number density = 19.894508 Si / 1000 Ang^3
#
#
#
# Elastic Constant Matrix: (Units=GPa)
#
#
# Indices 1 2 3 4 5 6 
#
# 1 70.7298 8.1917 32.0939 0.0000 3.8068 0.0000
# 2 8.1917 71.2238 33.0445 0.0000 -9.1215 0.0000
# 3 32.0939 33.0445 120.6796 0.0001 -13.4339 0.0000
# 4 0.0000 0.0000 0.0001 28.5318 0.0000 -0.8602
# 5 3.8068 -9.1215 -13.4339 0.0000 35.1571 0.0000
# 6 0.0000 0.0000 0.0000 -0.8602 0.0000 17.0178
#
#
#
# Elastic Compliance Matrix: (Units=1/GPa)
#
#
# Indices 1 2 3 4 5 6 
#
# 1 0.016510 -0.000161 -0.004752 0.000000 -0.003645 0.000000
# 2 -0.000161 0.016316 -0.004127 0.000000 0.002674 0.000000
# 3 -0.004752 -0.004127 0.011090 0.000000 0.003681 0.000000
# 4 0.000000 0.000000 0.000000 0.035102 0.000000 0.001774
# 5 -0.003645 0.002674 0.003681 0.000000 0.030939 0.000000
# 6 0.000000 0.000000 0.000000 0.001774 0.000000 0.058852
#
#
# Mechanical properties :
#
#
# Convention : Reuss Voigt Hill
#
# Bulk Modulus (GPa) = 38.70736 45.47705 42.09220
# Shear Modulus (GPa) = 25.57535 28.76155 27.16845
#
# Velocity S-wave (km/s) = 3.58934 3.80637 3.69945
# Velocity P-wave (km/s) = 6.05610 6.49820 6.28104
#
# Compressibility (1/GPa) = 0.02583488
#
# Stress axis : x y z
#
# Youngs Moduli (GPa) = 60.57108 61.28956 90.16969
#
# Poissons Ratio (x) = 0.00986 0.42852
# Poissons Ratio (y) = 0.00974 0.37216
# Poissons Ratio (z) = 0.28785 0.25296
#
# Static dielectric constant tensor:
#      x y z
#    x 1.705050 0.000000 -0.002410 
#    y 0.000000 1.707970 0.000000 
#    z -0.002410 0.000000 1.740230 
# 
# From -- ./inp_files/91573.got.cif
#   From: 2010.05.17/outbox.cif.g08.bks.cpg/sg12_46_cif.got.tgz:91573.got - 2010.06.03 13:09:07.
