data_PCOD9201786
_publ_section_title
;
Structure prediction by ZEFSAII (Michael W. Deem and Ramdas Pophale) SiO2 
 PCOD9201786
Probable space group: C 2/M
;
_chemical_formula_sum "Si O2"
_cell_formula_units_Z 64
_cell_length_a 29.564976
_cell_length_b 13.775748
_cell_length_c 9.100666
_cell_angle_alpha 90.000000
_cell_angle_beta 53.626283
_cell_angle_gamma 90.000000
_cell_volume 2984.360514
_symmetry_space_group_name_H-M "C 2/M"
_symmetry_group_IT_number 12
_symmetry_cell_setting 'monoclinic'
loop_
_space_group_symop_operation_xyz
x,y,z
-x,y,-z
-x,-y,-z
x,-y,z
1/2+x,1/2+y,z
1/2-x,1/2+y,-z
1/2-x,1/2-y,-z
1/2+x,1/2-y,z
loop_
_atom_site_type_symbol
_atom_site_label
_atom_site_fract_x
_atom_site_fract_y
_atom_site_fract_z
Si Si1 0.580153 0.263832 0.018287
Si Si2 0.779573 0.117212 0.560493
Si Si3 0.347064 0.611337 0.903418
Si Si4 0.354264 0.793630 0.697810
Si Si5 0.026962 0.771171 0.604121
Si Si6 0.737399 0.112946 0.319674
Si Si7 0.590163 0.613650 0.711082
Si Si8 0.670514 0.884599 0.939826
O O1 0.572434 0.317037 0.879062
O O2 0.605307 0.345265 0.081297
O O3 0.522245 0.227813 0.200484
O O4 0.625912 0.177951 0.932160
O O5 0.757944 0.145373 0.439992
O O6 0.845089 0.140611 0.446435
O O7 0.778721 0.000000 0.566631
O O8 0.732997 0.147359 0.769230
O O9 0.357040 0.500000 0.842738
O O10 0.343546 0.683909 0.774175
O O11 0.289717 0.617220 0.107022
O O12 0.419566 0.797555 0.528206
O O13 0.313828 0.828037 0.647595
O O14 0.340653 0.857380 0.869125
O O15 0.051789 0.862080 0.645775
O O16 0.000000 0.797051 0.500000
O O17 0.720802 0.000000 0.363564
O O18 0.587192 0.500000 0.756881
O O19 0.664732 0.000000 0.929403
#
# Coordination Sequence:
#
# PCOD9201786 Si02
#       8
#     8   8   8   8   8   8   8   8
#     4  11  23  44  68  94 129 177 226 273 325 386
#     4   9  20  40  67 103 135 164 212 271 330 403
#     4  10  20  37  64  93 132 173 215 268 332 400
#     4  11  24  42  63  94 134 182 220 269 334 387
#     4  12  26  47  61  93 131 177 234 281 309 380
#     4  10  20  38  67  99 133 168 216 269 329 405
#     4  11  25  45  71 100 135 178 217 266 335 401
#     4  10  22  42  69  99 136 172 216 274 337 397
#
# _framework density 21.445129999999999
#
# number of rings (size 3 to 8) (size 9 to 14) (size 15 to 20)
#    0.000    1.500    3.750    1.500    1.750    5.750 
#    0.000    4.375    0.000    1.500    0.000    0.000 
#    0.000    0.000    0.000    0.000    0.000    0.000 
#
# Total GULP energy -179059.758662 kJ/mol
# GULP energy per Si atom -5595.617458 kJ/mol
# Density = 2.139632 g / cm^3
# Si number density = 21.445130 Si / 1000 Ang^3
#
#
#
# Elastic Constant Matrix: (Units=GPa)
#
#
# Indices 1 2 3 4 5 6 
#
# 1 108.1687 5.6164 29.4195 0.0000 -12.9720 0.0000
# 2 5.6164 60.8432 7.2878 0.0000 -6.6262 0.0000
# 3 29.4195 7.2878 110.6081 0.0000 -22.6412 0.0000
# 4 0.0000 0.0000 0.0000 12.0979 0.0000 4.7004
# 5 -12.9720 -6.6262 -22.6412 0.0000 33.5013 0.0000
# 6 0.0000 0.0000 0.0000 4.7004 0.0000 26.2040
#
#
#
# Elastic Compliance Matrix: (Units=1/GPa)
#
#
# Indices 1 2 3 4 5 6 
#
# 1 0.010145 -0.000417 -0.002186 0.000000 0.002368 0.000000
# 2 -0.000417 0.016838 -0.000406 0.000000 0.002895 0.000000
# 3 -0.002186 -0.000406 0.010978 0.000000 0.006493 0.000000
# 4 0.000000 0.000000 0.000000 0.088851 0.000000 -0.015938
# 5 0.002368 0.002895 0.006493 0.000000 0.035727 0.000000
# 6 0.000000 0.000000 0.000000 -0.015938 0.000000 0.041021
#
#
# Mechanical properties :
#
#
# Convention : Reuss Voigt Hill
#
# Bulk Modulus (GPa) = 31.30530 40.47414 35.88972
# Shear Modulus (GPa) = 22.70391 30.18041 26.44216
#
# Velocity S-wave (km/s) = 3.25729 3.75551 3.51524
# Velocity P-wave (km/s) = 5.36434 6.14162 5.76609
#
# Compressibility (1/GPa) = 0.03194348
#
# Stress axis : x y z
#
# Youngs Moduli (GPa) = 98.57022 59.38935 91.08991
#
# Poissons Ratio (x) = 0.02475 0.19913
# Poissons Ratio (y) = 0.04107 0.03699
# Poissons Ratio (z) = 0.21549 0.02412
#
# Static dielectric constant tensor:
#      x y z
#    x 1.774680 0.000000 0.007230 
#    y 0.000000 1.774270 0.000000 
#    z 0.007230 0.000000 1.799440 
# 
# From -- ./inp_files/111964.got.cif
#   From: 2010.05.17/outbox.cif.g08.bks.cpg/sg12_56_cif.got.tgz:111964.got - 2010.06.03 13:09:07.
