data_PCOD9201272
_publ_section_title
;
Structure prediction by ZEFSAII (Michael W. Deem and Ramdas Pophale) SiO2 
 PCOD9201272
Probable space group: C 2/M
;
_chemical_formula_sum "Si O2"
_cell_formula_units_Z 48
_cell_length_a 11.826775
_cell_length_b 22.107963
_cell_length_c 14.070043
_cell_angle_alpha 90.000000
_cell_angle_beta 35.143826
_cell_angle_gamma 90.000000
_cell_volume 2117.651948
_symmetry_space_group_name_H-M "C 2/M"
_symmetry_group_IT_number 12
_symmetry_cell_setting 'monoclinic'
loop_
_space_group_symop_operation_xyz
x,y,z
-x,y,-z
-x,-y,-z
x,-y,z
1/2+x,1/2+y,z
1/2-x,1/2+y,-z
1/2-x,1/2-y,-z
1/2+x,1/2-y,z
loop_
_atom_site_type_symbol
_atom_site_label
_atom_site_fract_x
_atom_site_fract_y
_atom_site_fract_z
Si Si1 0.775634 0.757366 0.191559
Si Si2 0.630469 0.156192 0.142949
Si Si3 0.418574 0.630753 0.210966
Si Si4 0.109073 0.568736 0.328033
Si Si5 0.452946 0.427902 0.388580
Si Si6 0.740453 0.131429 0.716278
O O1 0.646496 0.780741 0.190572
O O2 0.688709 0.697099 0.296299
O O3 0.801000 0.810187 0.253513
O O4 0.000000 0.748484 0.000000
O O5 0.565176 0.109071 0.268336
O O6 0.484034 0.146327 0.156642
O O7 0.852841 0.142966 0.960922
O O8 0.336520 0.578678 0.198117
O O9 0.392611 0.606454 0.334624
O O10 0.058245 0.500000 0.343706
O O11 0.000000 0.587389 0.500000
O O12 0.419870 0.500000 0.406374
O O13 0.682578 0.414257 0.255652
O O14 0.335258 0.396714 0.555925
#
# Coordination Sequence:
#
# PCOD9201272 Si02
#       6
#     8   8   8   8   8   8
#     4   9  22  41  66  97 133 159 205 271 330 385
#     4  10  23  40  63  98 128 161 215 263 324 385
#     4  10  22  41  65  96 128 167 206 269 322 381
#     4  10  20  37  61  90 127 170 211 261 320 374
#     4  11  26  47  63  90 134 176 219 263 318 379
#     4  11  24  42  67  88 127 177 211 264 320 379
#
# _framework density 22.666613999999999
#
# number of rings (size 3 to 8) (size 9 to 14) (size 15 to 20)
#    0.000    1.833    0.000    4.000    4.667    6.667 
#   15.000    0.833    0.000    0.000    0.000    0.000 
#    0.000    0.000    0.000    0.000    0.000    0.000 
#
# Total GULP energy -134001.499548 kJ/mol
# GULP energy per Si atom -5583.395815 kJ/mol
# Density = 2.261502 g / cm^3
# Si number density = 22.666614 Si / 1000 Ang^3
#
#
#
# Elastic Constant Matrix: (Units=GPa)
#
#
# Indices 1 2 3 4 5 6 
#
# 1 113.8648 12.0910 6.3247 -0.0212 -14.2458 -0.0112
# 2 12.0910 123.0776 41.2802 -0.0082 19.7434 -0.0054
# 3 6.3247 41.2802 35.9511 0.0091 4.4546 0.0097
# 4 -0.0212 -0.0082 0.0091 -4.9978 -0.0120 -17.1789
# 5 -14.2458 19.7434 4.4546 -0.0120 42.3353 -0.0098
# 6 -0.0112 -0.0054 0.0097 -17.1789 -0.0098 -19.8846
#
#
#
# Elastic Compliance Matrix: (Units=1/GPa)
#
#
# Indices 1 2 3 4 5 6 
#
# 1 0.009443 -0.001350 -0.000590 0.000012 0.003869 -0.000017
# 2 -0.001350 0.014366 -0.015575 0.000003 -0.005515 -0.000010
# 3 -0.000590 -0.015575 0.045521 -0.000009 0.002275 0.000033
# 4 0.000012 0.000003 -0.000009 0.101589 0.000012 -0.087766
# 5 0.003869 -0.005515 0.002275 0.000012 0.027256 -0.000023
# 6 -0.000017 -0.000010 0.000033 -0.087766 -0.000023 0.025534
#
#
# Mechanical properties :
#
#
# Convention : Reuss Voigt Hill
#
# Bulk Modulus (GPa) = 29.15514 43.58726 36.37120
# Shear Modulus (GPa) = 18.50678 17.70375 18.10527
#
# Velocity S-wave (km/s) = 2.86051 2.79776 2.82931
# Velocity P-wave (km/s) = 4.87858 5.45051 5.17246
#
# Compressibility (1/GPa) = 0.03429927
#
# Stress axis : x y z
#
# Youngs Moduli (GPa) = 105.90293 69.60838 21.96804
#
# Poissons Ratio (x) = 0.09400 0.01296
# Poissons Ratio (y) = 0.14302 0.34214
# Poissons Ratio (z) = 0.06248 1.08412
#
# Static dielectric constant tensor:
#      x y z
#    x 1.898170 0.000000 -0.056620 
#    y 0.000000 1.823690 0.000000 
#    z -0.056620 0.000000 1.897340 
# 
# From -- ./inp_files/207918.got.cif
#   From: 2010.05.17/outbox.cif.g08.bks.cpg/sg12_104_cif.got.tgz:207918.got - 2010.06.03 13:09:07.
