data_PCOD9201191
_publ_section_title
;
Structure prediction by ZEFSAII (Michael W. Deem and Ramdas Pophale) SiO2 
 PCOD9201191
Probable space group: C 2/M
;
_chemical_formula_sum "Si O2"
_cell_formula_units_Z 58
_cell_length_a 10.043260
_cell_length_b 17.749231
_cell_length_c 27.969426
_cell_angle_alpha 90.000000
_cell_angle_beta 36.824968
_cell_angle_gamma 90.000000
_cell_volume 2988.371592
_symmetry_space_group_name_H-M "C 2/M"
_symmetry_group_IT_number 12
_symmetry_cell_setting 'monoclinic'
loop_
_space_group_symop_operation_xyz
x,y,z
-x,y,-z
-x,-y,-z
x,-y,z
1/2+x,1/2+y,z
1/2-x,1/2+y,-z
1/2-x,1/2-y,-z
1/2+x,1/2-y,z
loop_
_atom_site_type_symbol
_atom_site_label
_atom_site_fract_x
_atom_site_fract_y
_atom_site_fract_z
Si Si1 0.098014 0.638052 0.906419
Si Si2 0.005259 0.416933 0.663695
Si Si3 0.314817 0.677888 0.511906
Si Si4 0.135448 0.085884 0.354890
Si Si5 0.586535 0.312784 0.924026
Si Si6 0.397103 0.177039 0.202576
Si Si7 0.937567 0.150153 0.173264
Si Si8 0.500000 0.000000 0.000000
O O1 0.017056 0.724026 0.940714
O O2 0.098465 0.634266 0.849165
O O3 0.346382 0.636825 0.856997
O O4 0.980577 0.567667 0.964741
O O5 0.026399 0.500000 0.635985
O O6 0.099506 0.356244 0.599743
O O7 0.166320 0.414019 0.663208
O O8 0.758298 0.403191 0.753166
O O9 0.500000 0.693271 0.500000
O O10 0.250000 0.750000 0.500000
O O11 0.425580 0.618125 0.443833
O O12 0.219682 0.139474 0.288433
O O13 0.100541 0.000000 0.348834
O O14 0.506303 0.354060 0.899182
O O15 0.853833 0.321085 0.847438
O O16 0.500000 0.340985 0.000000
O O17 0.348291 0.264618 0.206097
#
# Coordination Sequence:
#
# PCOD9201191 Si02
#       8
#     8   8   8   8   8   8   8   2
#     4  10  24  36  58  80 115 160 188 242 293 360
#     4  10  20  37  61  88 118 151 193 239 288 343
#     4  10  21  39  65  91 117 154 192 238 284 346
#     4  10  20  37  61  88 118 151 193 239 288 343
#     4  10  20  38  61  83 106 146 204 251 286 329
#     4  10  21  38  59  85 114 151 198 243 289 342
#     4  10  21  38  59  85 114 151 198 243 289 342
#     4  12  24  40  52  82 128 154 198 226 320 368
#
# _framework density 19.408563000000001
#
# number of rings (size 3 to 8) (size 9 to 14) (size 15 to 20)
#    0.000    1.931    2.069    1.241    3.862    3.310 
#    2.483    0.000    0.000    2.483    0.000    0.000 
#    0.000    0.000    0.000    0.000    0.000    0.000 
#
# Total GULP energy -161618.606325 kJ/mol
# GULP energy per Si atom -5573.055391 kJ/mol
# Density = 1.936439 g / cm^3
# Si number density = 19.408563 Si / 1000 Ang^3
#
#
#
# Elastic Constant Matrix: (Units=GPa)
#
#
# Indices 1 2 3 4 5 6 
#
# 1 62.4044 31.0531 19.8240 0.0015 9.9970 0.0000
# 2 31.0531 78.7359 30.2530 -0.0021 12.2025 0.0002
# 3 19.8240 30.2530 71.5750 0.0041 14.4131 -0.0117
# 4 0.0015 -0.0021 0.0041 26.3911 -0.0065 9.7018
# 5 9.9970 12.2025 14.4131 -0.0065 31.6014 0.0016
# 6 0.0000 0.0002 -0.0117 9.7018 0.0016 11.7123
#
#
#
# Elastic Compliance Matrix: (Units=1/GPa)
#
#
# Indices 1 2 3 4 5 6 
#
# 1 0.020586 -0.006813 -0.002247 -0.000002 -0.002857 0.000000
# 2 -0.006813 0.017723 -0.005131 0.000006 -0.002348 -0.000010
# 3 -0.002247 -0.005131 0.017861 -0.000016 -0.005454 0.000032
# 4 -0.000002 0.000006 -0.000016 0.054482 0.000019 -0.045130
# 5 -0.002857 -0.002348 -0.005454 0.000019 0.035942 -0.000026
# 6 0.000000 -0.000010 0.000032 -0.045130 -0.000026 0.122763
#
#
# Mechanical properties :
#
#
# Convention : Reuss Voigt Hill
#
# Bulk Modulus (GPa) = 35.98686 41.66393 38.82540
# Shear Modulus (GPa) = 16.28650 22.71330 19.49990
#
# Velocity S-wave (km/s) = 2.89993 3.42464 3.17315
# Velocity P-wave (km/s) = 5.45846 6.09515 5.78557
#
# Compressibility (1/GPa) = 0.02778792
#
# Stress axis : x y z
#
# Youngs Moduli (GPa) = 48.57640 56.42300 55.98848
#
# Poissons Ratio (x) = 0.38441 0.12579
# Poissons Ratio (y) = 0.33095 0.28730
# Poissons Ratio (z) = 0.10914 0.28953
#
# Static dielectric constant tensor:
#      x y z
#    x 1.665820 0.000000 0.005270 
#    y 0.000000 1.671090 0.000000 
#    z 0.005270 0.000000 1.677970 
# 
# From -- ./inp_files/206140.got.cif
#   From: 2010.05.17/outbox.cif.g08.bks.cpg/sg12_104_cif.got.tgz:206140.got - 2010.06.03 13:09:07.
