data_PCOD9201548
_publ_section_title
;
Structure prediction by ZEFSAII (Michael W. Deem and Ramdas Pophale) SiO2 
 PCOD9201548
Probable space group: C 2/M
;
_chemical_formula_sum "Si O2"
_cell_formula_units_Z 32
_cell_length_a 5.717154
_cell_length_b 33.562798
_cell_length_c 7.654030
_cell_angle_alpha 90.000000
_cell_angle_beta 115.205339
_cell_angle_gamma 90.000000
_cell_volume 1328.846268
_symmetry_space_group_name_H-M "C 2/M"
_symmetry_group_IT_number 12
_symmetry_cell_setting 'monoclinic'
loop_
_space_group_symop_operation_xyz
x,y,z
-x,y,-z
-x,-y,-z
x,-y,z
1/2+x,1/2+y,z
1/2-x,1/2+y,-z
1/2-x,1/2-y,-z
1/2+x,1/2-y,z
loop_
_atom_site_type_symbol
_atom_site_label
_atom_site_fract_x
_atom_site_fract_y
_atom_site_fract_z
Si Si1 0.500000 0.607874 0.500000
Si Si2 0.143268 0.735380 0.780454
Si Si3 0.727268 0.144513 0.710574
Si Si4 0.000000 0.083025 0.000000
Si Si5 0.232990 0.454935 0.213315
O O1 0.469723 0.635812 0.659451
O O2 0.731381 0.577181 0.622598
O O3 0.334310 0.756768 0.700594
O O4 0.197228 0.688749 0.771457
O O5 0.250000 0.750000 0.000000
O O6 0.500000 0.137998 0.500000
O O7 0.767286 0.113377 0.879707
O O8 0.970274 0.055359 0.158994
O O9 0.235108 0.500000 0.280082
O O10 0.000000 0.451329 0.000000
#
# Coordination Sequence:
#
# PCOD9201548 Si02
#       5
#     4   8   8   4   8
#     4  10  23  40  60  94 130 164 216 268 330 392
#     4  10  23  44  67  96 130 175 223 275 337 399
#     4  11  24  41  65  92 128 171 216 273 331 398
#     4  10  21  40  60  92 128 168 218 266 328 390
#     4  10  20  37  62  91 126 169 213 265 324 392
#
# _framework density 24.081036999999998
#
# number of rings (size 3 to 8) (size 9 to 14) (size 15 to 20)
#    0.000    1.750    0.000    3.750    3.500    1.000 
#    9.000    0.000    0.000   12.000    0.000    0.000 
#    0.000    0.000    0.000    0.000    0.000    0.000 
#
# Total GULP energy -89204.840624 kJ/mol
# GULP energy per Si atom -5575.302539 kJ/mol
# Density = 2.402623 g / cm^3
# Si number density = 24.081037 Si / 1000 Ang^3
#
#
#
# Elastic Constant Matrix: (Units=GPa)
#
#
# Indices 1 2 3 4 5 6 
#
# 1 85.7101 64.9410 12.9393 0.0000 -8.2539 0.0000
# 2 64.9410 129.2157 34.3664 0.0000 -13.4181 0.0000
# 3 12.9393 34.3664 136.7524 0.0000 3.1990 0.0000
# 4 0.0000 0.0000 0.0000 39.5270 0.0000 -15.1686
# 5 -8.2539 -13.4181 3.1990 0.0000 34.9509 0.0000
# 6 0.0000 0.0000 0.0000 -15.1686 0.0000 10.7837
#
#
#
# Elastic Compliance Matrix: (Units=1/GPa)
#
#
# Indices 1 2 3 4 5 6 
#
# 1 0.018912 -0.009590 0.000603 0.000000 0.000729 0.000000
# 2 -0.009590 0.013575 -0.002579 0.000000 0.003183 0.000000
# 3 0.000603 -0.002579 0.007940 0.000000 -0.001574 0.000000
# 4 0.000000 0.000000 0.000000 0.054973 0.000000 0.077326
# 5 0.000729 0.003183 -0.001574 0.000000 0.030150 0.000000
# 6 0.000000 0.000000 0.000000 0.077326 0.000000 0.201501
#
#
# Mechanical properties :
#
#
# Convention : Reuss Voigt Hill
#
# Bulk Modulus (GPa) = 57.81071 64.01908 60.91489
# Shear Modulus (GPa) = 14.04705 33.01442 23.53074
#
# Velocity S-wave (km/s) = 2.41783 3.70668 3.12933
# Velocity P-wave (km/s) = 5.64388 6.70536 6.19739
#
# Compressibility (1/GPa) = 0.01729783
#
# Stress axis : x y z
#
# Youngs Moduli (GPa) = 52.87571 73.66569 125.94137
#
# Poissons Ratio (x) = 0.70643 -0.07599
# Poissons Ratio (y) = 0.50706 0.32474
# Poissons Ratio (z) = -0.03190 0.18995
#
# Static dielectric constant tensor:
#      x y z
#    x 2.147600 0.000000 0.046290 
#    y 0.000000 1.839920 0.000000 
#    z 0.046290 0.000000 1.896170 
# 
# From -- ./inp_files/34667.got.cif
#   From: 2010.05.17/outbox.cif.g08.bks.cpg/sg12_18_cif.got.tgz:34667.got - 2010.06.03 13:09:07.
