data_PCOD9201425
_publ_section_title
;
Structure prediction by ZEFSAII (Michael W. Deem and Ramdas Pophale) SiO2 
 PCOD9201425
Probable space group: C 2/M
;
_chemical_formula_sum "Si O2"
_cell_formula_units_Z 48
_cell_length_a 9.204754
_cell_length_b 28.406998
_cell_length_c 8.869602
_cell_angle_alpha 90.000000
_cell_angle_beta 94.510307
_cell_angle_gamma 90.000000
_cell_volume 2312.036314
_symmetry_space_group_name_H-M "C 2/M"
_symmetry_group_IT_number 12
_symmetry_cell_setting 'monoclinic'
loop_
_space_group_symop_operation_xyz
x,y,z
-x,y,-z
-x,-y,-z
x,-y,z
1/2+x,1/2+y,z
1/2-x,1/2+y,-z
1/2-x,1/2-y,-z
1/2+x,1/2-y,z
loop_
_atom_site_type_symbol
_atom_site_label
_atom_site_fract_x
_atom_site_fract_y
_atom_site_fract_z
Si Si1 0.000000 0.666551 0.000000
Si Si2 0.329650 0.772956 0.732710
Si Si3 0.000000 0.329682 0.500000
Si Si4 0.973120 0.195932 0.179015
Si Si5 0.019835 0.906141 0.179167
Si Si6 0.400850 0.000000 0.339095
Si Si7 0.362320 0.103405 0.236535
Si Si8 0.545740 0.500000 0.334675
O O1 0.898900 0.631654 0.087544
O O2 0.087575 0.699444 0.123814
O O3 0.384168 0.798058 0.584439
O O4 0.162030 0.774958 0.766854
O O5 0.384639 0.719453 0.738422
O O6 0.077401 0.364132 0.625011
O O7 0.943315 0.142077 0.220204
O O8 0.000000 0.197231 0.000000
O O9 0.189200 0.899702 0.230161
O O10 0.977143 0.954095 0.253371
O O11 0.000000 0.911575 0.000000
O O12 0.500000 0.000000 0.500000
O O13 0.426392 0.050140 0.256313
O O14 0.223394 0.000000 0.345305
O O15 0.500000 0.500000 0.500000
#
# Coordination Sequence:
#
# PCOD9201425 Si02
#       8
#     4   8   4   8   8   4   8   4
#     4  10  20  37  62  88 126 163 222 262 318 376
#     4  11  24  40  62  91 130 173 215 268 319 390
#     4  10  24  41  60  88 136 173 214 256 332 388
#     4  11  23  39  65  94 128 168 221 269 325 376
#     4  10  22  41  66  91 127 163 215 264 324 375
#     4  10  20  40  61  90 127 166 204 259 328 384
#     4  10  21  40  64  91 127 169 212 269 325 383
#     4  10  23  43  65  94 124 168 208 263 318 384
#
# _framework density 20.760919000000001
#
# number of rings (size 3 to 8) (size 9 to 14) (size 15 to 20)
#    0.000    1.667    1.667    2.750    4.667    3.667 
#    4.500    0.000    0.000    0.000    0.000    0.000 
#    0.000    0.000    0.000    0.000    0.000    0.000 
#
# Total GULP energy -134041.324560 kJ/mol
# GULP energy per Si atom -5585.055190 kJ/mol
# Density = 2.071367 g / cm^3
# Si number density = 20.760919 Si / 1000 Ang^3
#
#
#
# Elastic Constant Matrix: (Units=GPa)
#
#
# Indices 1 2 3 4 5 6 
#
# 1 44.8811 4.9724 5.2148 0.0000 -7.4467 0.0000
# 2 4.9724 134.4407 38.0245 0.0000 -7.5686 0.0000
# 3 5.2148 38.0245 64.4901 0.0000 -10.8484 0.0000
# 4 0.0000 0.0000 0.0000 8.7193 0.0000 5.2539
# 5 -7.4467 -7.5686 -10.8484 0.0000 26.3882 0.0000
# 6 0.0000 0.0000 0.0000 5.2539 0.0000 23.1683
#
#
#
# Elastic Compliance Matrix: (Units=1/GPa)
#
#
# Indices 1 2 3 4 5 6 
#
# 1 0.023430 -0.000332 -0.000648 0.000000 0.006251 0.000000
# 2 -0.000332 0.008936 -0.005185 0.000000 0.000338 0.000000
# 3 -0.000648 -0.005185 0.019697 0.000000 0.006428 0.000000
# 4 0.000000 0.000000 0.000000 0.132840 0.000000 -0.030124
# 5 0.006251 0.000338 0.006428 0.000000 0.042399 0.000000
# 6 0.000000 0.000000 0.000000 -0.030124 0.000000 0.049994
#
#
# Mechanical properties :
#
#
# Convention : Reuss Voigt Hill
#
# Bulk Modulus (GPa) = 25.16698 37.80391 31.48545
# Shear Modulus (GPa) = 16.50878 24.69520 20.60199
#
# Velocity S-wave (km/s) = 2.82296 3.45266 3.15357
# Velocity P-wave (km/s) = 4.77222 5.84322 5.33466
#
# Compressibility (1/GPa) = 0.03973460
#
# Stress axis : x y z
#
# Youngs Moduli (GPa) = 42.68002 111.90606 50.76872
#
# Poissons Ratio (x) = 0.03710 0.03288
# Poissons Ratio (y) = 0.01415 0.26325
# Poissons Ratio (z) = 0.02764 0.58026
#
# Static dielectric constant tensor:
#      x y z
#    x 1.736880 0.000000 0.024910 
#    y 0.000000 1.733310 0.000000 
#    z 0.024910 0.000000 1.737930 
# 
# From -- ./inp_files/42327.got.cif
#   From: 2010.05.17/outbox.cif.g08.bks.cpg/sg12_22_cif.got.tgz:42327.got - 2010.06.03 13:09:07.
