data_PCOD9201132
_publ_section_title
;
Structure prediction by ZEFSAII (Michael W. Deem and Ramdas Pophale) SiO2 
 PCOD9201132
Probable space group: C 2/M
;
_chemical_formula_sum "Si O2"
_cell_formula_units_Z 58
_cell_length_a 8.743395
_cell_length_b 11.122729
_cell_length_c 30.718274
_cell_angle_alpha 90.000000
_cell_angle_beta 74.579195
_cell_angle_gamma 90.000000
_cell_volume 2879.816456
_symmetry_space_group_name_H-M "C 2/M"
_symmetry_group_IT_number 12
_symmetry_cell_setting 'monoclinic'
loop_
_space_group_symop_operation_xyz
x,y,z
-x,y,-z
-x,-y,-z
x,-y,z
1/2+x,1/2+y,z
1/2-x,1/2+y,-z
1/2-x,1/2-y,-z
1/2+x,1/2-y,z
loop_
_atom_site_type_symbol
_atom_site_label
_atom_site_fract_x
_atom_site_fract_y
_atom_site_fract_z
Si Si1 0.184160 0.361779 0.702844
Si Si2 0.936710 0.220822 0.094385
Si Si3 0.472499 0.637359 0.744777
Si Si4 0.339500 0.808336 0.452386
Si Si5 0.500000 0.000000 0.500000
Si Si6 0.343965 0.634367 0.848292
Si Si7 0.283187 0.862606 0.965476
Si Si8 0.405964 0.634010 0.603060
O O1 0.118632 0.500000 0.703105
O O2 0.299705 0.362866 0.735709
O O3 0.066639 0.249605 0.717314
O O4 0.296362 0.338253 0.652673
O O5 0.798640 0.273434 0.135148
O O6 0.849945 0.150531 0.062074
O O7 0.053214 0.144088 0.115589
O O8 0.044029 0.329433 0.067156
O O9 0.537607 0.500000 0.732964
O O10 0.450299 0.658006 0.797880
O O11 0.250000 0.750000 0.500000
O O12 0.459601 0.898371 0.466196
O O13 0.445215 0.718461 0.416156
O O14 0.206393 0.862103 0.430861
O O15 0.279693 0.500000 0.848212
O O16 0.280115 0.000000 0.983020
O O17 0.250000 0.750000 0.000000
O O18 0.468750 0.500000 0.604590
#
# Coordination Sequence:
#
# PCOD9201132 Si02
#       8
#     8   8   8   8   2   8   8   8
#     4  10  22  41  60  88 120 156 196 240 285 352
#     4  10  22  38  59  87 118 152 200 244 292 348
#     4  10  21  39  62  90 121 153 194 238 295 349
#     4  12  24  40  60  86 114 151 190 240 289 342
#     4  12  24  40  56  88 120 140 194 242 288 344
#     4  10  20  37  61  86 117 154 190 242 294 348
#     4  11  24  40  60  86 119 159 201 246 295 349
#     4  11  24  40  62  84 116 154 194 234 287 340
#
# _framework density 20.140173999999998
#
# number of rings (size 3 to 8) (size 9 to 14) (size 15 to 20)
#    0.000    1.379    2.069    2.897    0.966    5.517 
#    1.241    3.448    0.000    0.000    0.000    0.000 
#    0.000    0.000    0.000    0.000    0.000    0.000 
#
# Total GULP energy -161569.472390 kJ/mol
# GULP energy per Si atom -5571.361117 kJ/mol
# Density = 2.009433 g / cm^3
# Si number density = 20.140174 Si / 1000 Ang^3
#
#
#
# Elastic Constant Matrix: (Units=GPa)
#
#
# Indices 1 2 3 4 5 6 
#
# 1 39.4317 19.0509 -12.0712 0.0000 -1.5117 0.0000
# 2 19.0509 121.4545 23.1621 0.0000 -27.8384 0.0000
# 3 -12.0712 23.1621 52.5235 0.0000 0.9925 0.0000
# 4 0.0000 0.0000 0.0000 36.6721 0.0000 2.9840
# 5 -1.5117 -27.8384 0.9925 0.0000 27.5341 0.0000
# 6 0.0000 0.0000 0.0000 2.9840 0.0000 11.3529
#
#
#
# Elastic Compliance Matrix: (Units=1/GPa)
#
#
# Indices 1 2 3 4 5 6 
#
# 1 0.033190 -0.009311 0.011885 0.000000 -0.008020 0.000000
# 2 -0.009311 0.014780 -0.008936 0.000000 0.014754 0.000000
# 3 0.011885 -0.008936 0.025888 0.000000 -0.009316 0.000000
# 4 0.000000 0.000000 0.000000 0.027865 0.000000 -0.007324
# 5 -0.008020 0.014754 -0.009316 0.000000 0.051132 0.000000
# 6 0.000000 0.000000 0.000000 -0.007324 0.000000 0.090008
#
#
# Mechanical properties :
#
#
# Convention : Reuss Voigt Hill
#
# Bulk Modulus (GPa) = 16.35773 30.41038 23.38406
# Shear Modulus (GPa) = 18.11835 27.32968 22.72402
#
# Velocity S-wave (km/s) = 3.00261 3.68771 3.36265
# Velocity P-wave (km/s) = 4.49004 5.76753 5.16841
#
# Compressibility (1/GPa) = 0.06113318
#
# Stress axis : x y z
#
# Youngs Moduli (GPa) = 30.12986 67.65862 38.62865
#
# Poissons Ratio (x) = 0.62996 -0.45911
# Poissons Ratio (y) = 0.28053 0.34520
# Poissons Ratio (z) = -0.35810 0.60463
#
# Static dielectric constant tensor:
#      x y z
#    x 1.691970 0.000000 0.008390 
#    y 0.000000 1.724960 0.000000 
#    z 0.008390 0.000000 1.706540 
# 
# From -- ./inp_files/371989.got.cif
#   From: 2010.05.17/outbox.cif.g08.bks.cpg/sg12_186_cif.got.tgz:371989.got - 2010.06.03 13:09:07.
