data_PCOD9201823
_publ_section_title
;
Structure prediction by ZEFSAII (Michael W. Deem and Ramdas Pophale) SiO2 
 PCOD9201823
Probable space group: C 2/M
;
_chemical_formula_sum "Si O2"
_cell_formula_units_Z 64
_cell_length_a 21.593694
_cell_length_b 23.458009
_cell_length_c 5.803764
_cell_angle_alpha 90.000000
_cell_angle_beta 66.479040
_cell_angle_gamma 90.000000
_cell_volume 2695.606574
_symmetry_space_group_name_H-M "C 2/M"
_symmetry_group_IT_number 12
_symmetry_cell_setting 'monoclinic'
loop_
_space_group_symop_operation_xyz
x,y,z
-x,y,-z
-x,-y,-z
x,-y,z
1/2+x,1/2+y,z
1/2-x,1/2+y,-z
1/2-x,1/2-y,-z
1/2+x,1/2-y,z
loop_
_atom_site_type_symbol
_atom_site_label
_atom_site_fract_x
_atom_site_fract_y
_atom_site_fract_z
Si Si1 0.120723 0.249523 0.324315
Si Si2 0.185402 0.144346 0.449375
Si Si3 0.464251 0.335319 0.806674
Si Si4 0.332381 0.150913 0.050211
Si Si5 0.111384 0.434824 0.359964
Si Si6 0.110484 0.936990 0.257568
Si Si7 0.438365 0.165658 0.267425
Si Si8 0.731332 0.561529 0.740295
O O1 0.160052 0.207688 0.438470
O O2 0.094719 0.210861 0.150793
O O3 0.162943 0.300938 0.152021
O O4 0.062633 0.282091 0.553232
O O5 0.125430 0.102786 0.453849
O O6 0.206546 0.119569 0.661508
O O7 0.255081 0.137060 0.206610
O O8 0.500000 0.330970 0.500000
O O9 0.435758 0.399757 0.843138
O O10 0.500000 0.324941 0.000000
O O11 0.376832 0.097062 0.899696
O O12 0.369145 0.171231 0.226092
O O13 0.088366 0.500000 0.378509
O O14 0.066223 0.393605 0.585097
O O15 0.188648 0.435244 0.340752
O O16 0.084559 0.000000 0.346226
O O17 0.183871 0.942876 0.031784
O O18 0.500000 0.167957 0.000000
O O19 0.719634 0.500000 0.628875
#
# Coordination Sequence:
#
# PCOD9201823 Si02
#       8
#     8   8   8   8   8   8   8   8
#     4  10  27  42  66  96 134 179 230 296 345 421
#     4  11  21  40  65  99 132 175 228 282 360 424
#     4  11  28  48  72 103 142 192 246 294 352 426
#     4  11  23  41  65  97 132 176 221 286 359 425
#     4  10  22  42  66  98 132 170 223 285 356 428
#     4  10  23  42  68 101 140 182 229 291 356 422
#     4  11  26  46  66  95 131 183 236 287 354 423
#     4  10  20  37  64  96 132 169 221 285 349 423
#
# _framework density 23.742336000000002
#
# number of rings (size 3 to 8) (size 9 to 14) (size 15 to 20)
#    0.000    1.500    2.500    0.750    7.000    4.750 
#    0.000    0.625    0.000    0.000    0.000    0.000 
#    0.000    0.000    0.000    0.000    0.000    0.000 
#
# Total GULP energy -178780.087394 kJ/mol
# GULP energy per Si atom -5586.877731 kJ/mol
# Density = 2.368830 g / cm^3
# Si number density = 23.742336 Si / 1000 Ang^3
#
#
#
# Elastic Constant Matrix: (Units=GPa)
#
#
# Indices 1 2 3 4 5 6 
#
# 1 69.9572 21.6079 12.0149 0.0000 19.4779 0.0000
# 2 21.6079 143.8874 29.0051 0.0000 14.2730 0.0000
# 3 12.0149 29.0051 65.4073 0.0000 -2.2890 0.0000
# 4 0.0000 0.0000 0.0000 17.6107 0.0000 -0.6736
# 5 19.4779 14.2730 -2.2890 0.0000 30.3057 0.0000
# 6 0.0000 0.0000 0.0000 -0.6736 0.0000 -3.2549
#
#
#
# Elastic Compliance Matrix: (Units=1/GPa)
#
#
# Indices 1 2 3 4 5 6 
#
# 1 0.018404 -0.000928 -0.003377 0.000000 -0.011646 0.000000
# 2 -0.000928 0.008158 -0.003570 0.000000 -0.003515 0.000000
# 3 -0.003377 -0.003570 0.017674 0.000000 0.005187 0.000000
# 4 0.000000 0.000000 0.000000 0.056338 0.000000 -0.011659
# 5 -0.011646 -0.003515 0.005187 0.000000 0.042530 0.000000
# 6 0.000000 0.000000 0.000000 -0.011659 0.000000 -0.304816
#
#
# Mechanical properties :
#
#
# Convention : Reuss Voigt Hill
#
# Bulk Modulus (GPa) = 35.10536 44.94531 40.02534
# Shear Modulus (GPa) = -36.63825 23.37389 -6.63218
#
# Velocity S-wave (km/s) = -3.93257 3.14105 -1.67316
# Velocity P-wave (km/s) = 2.40875 5.66802 3.62797
#
# Compressibility (1/GPa) = 0.02848568
#
# Stress axis : x y z
#
# Youngs Moduli (GPa) = 54.33714 122.58538 56.58091
#
# Poissons Ratio (x) = 0.11373 0.19106
# Poissons Ratio (y) = 0.05041 0.20200
# Poissons Ratio (z) = 0.18349 0.43764
#
# Static dielectric constant tensor:
#      x y z
#    x 1.935790 0.000000 -0.003840 
#    y 0.000000 1.928640 0.000000 
#    z -0.003840 0.000000 1.937110 
# 
# From -- ./inp_files/26194.got.cif
#   From: 2010.05.17/outbox.cif.g08.bks.cpg/sg12_14_cif.got.tgz:26194.got - 2010.06.03 13:09:07.
