data_PCOD9201732
_publ_section_title
;
Structure prediction by ZEFSAII (Michael W. Deem and Ramdas Pophale) SiO2 
 PCOD9201732
Probable space group: C 2/M
;
_chemical_formula_sum "Si O2"
_cell_formula_units_Z 42
_cell_length_a 8.558513
_cell_length_b 21.578838
_cell_length_c 11.705797
_cell_angle_alpha 90.000000
_cell_angle_beta 70.537586
_cell_angle_gamma 90.000000
_cell_volume 2038.330915
_symmetry_space_group_name_H-M "C 2/M"
_symmetry_group_IT_number 12
_symmetry_cell_setting 'monoclinic'
loop_
_space_group_symop_operation_xyz
x,y,z
-x,y,-z
-x,-y,-z
x,-y,z
1/2+x,1/2+y,z
1/2-x,1/2+y,-z
1/2-x,1/2-y,-z
1/2+x,1/2-y,z
loop_
_atom_site_type_symbol
_atom_site_label
_atom_site_fract_x
_atom_site_fract_y
_atom_site_fract_z
Si Si1 0.681959 0.071232 0.399162
Si Si2 0.191583 0.182712 0.479002
Si Si3 0.910530 0.428882 0.836001
Si Si4 0.500000 0.500000 0.500000
Si Si5 0.211150 0.903348 0.287002
Si Si6 0.362539 0.574328 0.936298
O O1 0.500000 0.066015 0.500000
O O2 0.768333 0.128529 0.440001
O O3 0.653919 0.088241 0.274238
O O4 0.758990 0.000000 0.395499
O O5 0.250000 0.250000 0.500000
O O6 0.262485 0.158394 0.341904
O O7 0.000000 0.186814 0.500000
O O8 0.856723 0.500000 0.856216
O O9 0.108359 0.429106 0.791617
O O10 0.808550 0.400902 0.965723
O O11 0.607876 0.446292 0.400142
O O12 0.110410 0.895928 0.194348
O O13 0.361462 0.500000 0.911673
O O14 0.500000 0.584751 0.000000
#
# Coordination Sequence:
#
# PCOD9201732 Si02
#       6
#     8   8   8   2   8   8
#     4  10  21  38  66 103 137 169 222 281 345 412
#     4  12  28  44  65  96 136 185 225 289 352 413
#     4  10  20  37  63  98 139 180 217 273 339 407
#     4  12  24  36  64 114 138 164 240 276 350 402
#     4  12  23  40  66  97 140 180 225 282 340 410
#     4  10  22  38  59  97 145 183 223 276 337 409
#
# _framework density 20.605094000000001
#
# number of rings (size 3 to 8) (size 9 to 14) (size 15 to 20)
#    0.000    1.143    4.762    1.143    4.000    1.905 
#    3.429    0.000    0.000    1.143    0.000    0.000 
#    0.000    0.000    0.000    0.000    0.000    0.000 
#
# Total GULP energy -116932.926124 kJ/mol
# GULP energy per Si atom -5568.234577 kJ/mol
# Density = 2.055820 g / cm^3
# Si number density = 20.605094 Si / 1000 Ang^3
#
#
#
# Elastic Constant Matrix: (Units=GPa)
#
#
# Indices 1 2 3 4 5 6 
#
# 1 90.2269 53.1511 32.9976 0.0000 5.2942 0.0000
# 2 53.1511 110.0209 34.6013 0.0000 21.0114 0.0000
# 3 32.9976 34.6013 141.4517 0.0000 12.2932 0.0000
# 4 0.0000 0.0000 0.0000 53.2132 0.0000 68.8899
# 5 5.2942 21.0114 12.2932 0.0000 48.1533 0.0000
# 6 0.0000 0.0000 0.0000 68.8899 0.0000 110.7013
#
#
#
# Elastic Compliance Matrix: (Units=1/GPa)
#
#
# Indices 1 2 3 4 5 6 
#
# 1 0.016178 -0.007545 -0.002107 0.000000 0.002051 0.000000
# 2 -0.007545 0.014081 -0.001250 0.000000 -0.004996 0.000000
# 3 -0.002107 -0.001250 0.007976 0.000000 -0.001259 0.000000
# 4 0.000000 0.000000 0.000000 0.096687 0.000000 -0.060169
# 5 0.002051 -0.004996 -0.001259 0.000000 0.023043 0.000000
# 6 0.000000 0.000000 0.000000 -0.060169 0.000000 0.046476
#
#
# Mechanical properties :
#
#
# Convention : Reuss Voigt Hill
#
# Bulk Modulus (GPa) = 60.85699 64.79995 62.82847
# Shear Modulus (GPa) = 21.57761 57.14350 39.36055
#
# Velocity S-wave (km/s) = 3.23955 5.27190 4.37536
# Velocity P-wave (km/s) = 6.60242 8.28094 7.48886
#
# Compressibility (1/GPa) = 0.01643197
#
# Stress axis : x y z
#
# Youngs Moduli (GPa) = 61.81359 71.01628 125.37200
#
# Poissons Ratio (x) = 0.53579 0.26411
# Poissons Ratio (y) = 0.46636 0.15676
# Poissons Ratio (z) = 0.13022 0.08880
#
# Static dielectric constant tensor:
#      x y z
#    x 2.066130 0.000000 -0.097090 
#    y 0.000000 1.750240 0.000000 
#    z -0.097090 0.000000 1.719360 
# 
# From -- ./inp_files/120652.got.cif
#   From: 2010.05.17/outbox.cif.g08.bks.cpg/sg12_61_cif.got.tgz:120652.got - 2010.06.03 13:09:07.
