data_PCOD9201082
_publ_section_title
;
Structure prediction by ZEFSAII (Michael W. Deem and Ramdas Pophale) SiO2 
 PCOD9201082
Probable space group: C 2/M
;
_chemical_formula_sum "Si O2"
_cell_formula_units_Z 56
_cell_length_a 16.133461
_cell_length_b 7.907482
_cell_length_c 21.431538
_cell_angle_alpha 90.000000
_cell_angle_beta 52.435611
_cell_angle_gamma 90.000000
_cell_volume 2167.258980
_symmetry_space_group_name_H-M "C 2/M"
_symmetry_group_IT_number 12
_symmetry_cell_setting 'monoclinic'
loop_
_space_group_symop_operation_xyz
x,y,z
-x,y,-z
-x,-y,-z
x,-y,z
1/2+x,1/2+y,z
1/2-x,1/2+y,-z
1/2-x,1/2-y,-z
1/2+x,1/2-y,z
loop_
_atom_site_type_symbol
_atom_site_label
_atom_site_fract_x
_atom_site_fract_y
_atom_site_fract_z
Si Si1 0.847401 0.698805 0.167296
Si Si2 0.631930 0.196109 0.976230
Si Si3 0.393660 0.202926 0.405850
Si Si4 0.363779 0.803354 0.889854
Si Si5 0.127406 0.301793 0.449752
Si Si6 0.066495 0.192150 0.741258
Si Si7 0.136804 0.294289 0.309230
O O1 0.873441 0.500000 0.160964
O O2 0.893148 0.767174 0.080885
O O3 0.879249 0.787052 0.216764
O O4 0.722128 0.721044 0.223786
O O5 0.758187 0.207033 0.922667
O O6 0.601346 0.000000 0.988318
O O7 0.597007 0.261626 0.060029
O O8 0.348539 0.271489 0.492424
O O9 0.362974 0.258211 0.350507
O O10 0.516969 0.250435 0.351161
O O11 0.386742 0.000000 0.412159
O O12 0.458818 0.794466 0.798203
O O13 0.333985 0.000000 0.910336
O O14 0.158227 0.500000 0.436627
O O15 0.162991 0.229487 0.367311
O O16 0.000000 0.301129 0.500000
O O17 0.036133 0.000000 0.746374
O O18 0.143157 0.500000 0.305686
#
# Coordination Sequence:
#
# PCOD9201082 Si02
#       7
#     8   8   8   8   8   8   8
#     4  11  23  38  54  75 107 144 181 219 263 314
#     4   9  20  38  60  85 110 137 173 218 262 309
#     4   9  17  33  58  83 107 139 177 216 263 318
#     4  10  20  37  61  85 109 138 173 214 263 317
#     4   7  12  26  51  81 108 134 169 214 261 311
#     4  12  25  38  52  75 109 144 181 223 265 312
#     4   9  17  32  56  84 110 137 173 217 264 315
#
# _framework density 25.839089000000001
#
# number of rings (size 3 to 8) (size 9 to 14) (size 15 to 20)
#    0.000    2.429    0.000    4.714    0.000    5.143 
#    0.000    4.286    0.000    2.571    0.000    0.000 
#    0.000    0.000    0.000    0.000    0.000    0.000 
#
# Total GULP energy -156528.390912 kJ/mol
# GULP energy per Si atom -5590.299675 kJ/mol
# Density = 2.578028 g / cm^3
# Si number density = 25.839089 Si / 1000 Ang^3
#
#
#
# Elastic Constant Matrix: (Units=GPa)
#
#
# Indices 1 2 3 4 5 6 
#
# 1 85.7168 2.8444 21.7864 0.0000 23.9262 0.0001
# 2 2.8444 52.4715 8.7101 0.0000 1.9722 0.0003
# 3 21.7864 8.7101 200.2457 0.0000 32.2326 0.0000
# 4 0.0000 0.0000 0.0000 17.0992 0.0000 -2.5768
# 5 23.9262 1.9722 32.2326 0.0000 59.6076 0.0000
# 6 0.0001 0.0003 0.0000 -2.5768 0.0000 11.1065
#
#
#
# Elastic Compliance Matrix: (Units=1/GPa)
#
#
# Indices 1 2 3 4 5 6 
#
# 1 0.013222 -0.000427 -0.000622 0.000000 -0.004957 0.000000
# 2 -0.000427 0.019213 -0.000783 0.000000 -0.000041 0.000000
# 3 -0.000622 -0.000783 0.005533 0.000000 -0.002716 0.000000
# 4 0.000000 0.000000 0.000000 0.060601 0.000000 0.014060
# 5 -0.004957 -0.000041 -0.002716 0.000000 0.020236 0.000000
# 6 0.000000 0.000000 0.000000 0.014060 0.000000 0.093300
#
#
# Mechanical properties :
#
#
# Convention : Reuss Voigt Hill
#
# Bulk Modulus (GPa) = 29.15128 45.01287 37.08207
# Shear Modulus (GPa) = 22.00676 37.90220 29.95448
#
# Velocity S-wave (km/s) = 2.92153 3.83411 3.40850
# Velocity P-wave (km/s) = 4.76307 6.08759 5.46560
#
# Compressibility (1/GPa) = 0.03430382
#
# Stress axis : x y z
#
# Youngs Moduli (GPa) = 75.63025 52.04921 180.73997
#
# Poissons Ratio (x) = 0.02223 0.11244
# Poissons Ratio (y) = 0.03231 0.14145
# Poissons Ratio (z) = 0.04705 0.04073
#
# Static dielectric constant tensor:
#      x y z
#    x 2.138810 0.000000 0.044650 
#    y 0.000000 1.901320 0.000000 
#    z 0.044650 0.000000 2.045330 
# 
# From -- ./inp_files/313669.got.cif
#   From: 2010.05.17/outbox.cif.g08.bks.cpg/sg12_157_cif.got.tgz:313669.got - 2010.06.03 13:09:07.
