data_PCOD9201050
_publ_section_title
;
Structure prediction by ZEFSAII (Michael W. Deem and Ramdas Pophale) SiO2 
 PCOD9201050
Probable space group: C 2/M
;
_chemical_formula_sum "Si O2"
_cell_formula_units_Z 56
_cell_length_a 17.121872
_cell_length_b 23.859767
_cell_length_c 9.239202
_cell_angle_alpha 90.000000
_cell_angle_beta 47.416408
_cell_angle_gamma 90.000000
_cell_volume 2779.081847
_symmetry_space_group_name_H-M "C 2/M"
_symmetry_group_IT_number 12
_symmetry_cell_setting 'monoclinic'
loop_
_space_group_symop_operation_xyz
x,y,z
-x,y,-z
-x,-y,-z
x,-y,z
1/2+x,1/2+y,z
1/2-x,1/2+y,-z
1/2-x,1/2-y,-z
1/2+x,1/2-y,z
loop_
_atom_site_type_symbol
_atom_site_label
_atom_site_fract_x
_atom_site_fract_y
_atom_site_fract_z
Si Si1 0.575106 0.563301 0.649799
Si Si2 0.763408 0.562995 0.644287
Si Si3 0.000336 0.565717 0.328513
Si Si4 0.624721 0.263543 0.154812
Si Si5 0.085513 0.658676 0.021403
Si Si6 0.329281 0.350792 0.693143
Si Si7 0.363824 0.619825 0.965163
O O1 0.568104 0.500000 0.597506
O O2 0.670868 0.563763 0.643120
O O3 0.603679 0.612479 0.501651
O O4 0.464024 0.579808 0.862830
O O5 0.768970 0.500000 0.700919
O O6 0.877999 0.574066 0.434200
O O7 0.730369 0.605697 0.809585
O O8 0.027408 0.500000 0.284786
O O9 0.000000 0.580936 0.500000
O O10 0.070402 0.602740 0.135041
O O11 0.570631 0.208915 0.157486
O O12 0.614097 0.292919 0.326102
O O13 0.603711 0.314987 0.070765
O O14 0.750000 0.250000 0.000000
O O15 0.206435 0.660524 0.808583
O O16 0.000000 0.661761 0.000000
O O17 0.327170 0.385921 0.845461
#
# Coordination Sequence:
#
# PCOD9201050 Si02
#       7
#     8   8   8   8   8   8   8
#     4  11  22  36  57  90 123 151 191 239 292 347
#     4  10  21  37  56  85 123 154 189 242 292 340
#     4  10  22  39  60  89 119 152 197 237 283 351
#     4   8  20  40  59  81 116 151 190 244 286 336
#     4  11  21  39  65  88 114 152 195 239 296 343
#     4   9  21  39  57  83 120 150 191 244 283 339
#     4  10  20  37  61  80 114 162 193 234 283 347
#
# _framework density 20.150541
#
# number of rings (size 3 to 8) (size 9 to 14) (size 15 to 20)
#    0.857    1.286    0.000    3.000    0.000    4.857 
#    2.571    0.000    0.000    4.286    0.000    0.000 
#    0.000    0.000    0.000    0.000    0.000    0.000 
#
# Total GULP energy -155981.071657 kJ/mol
# GULP energy per Si atom -5570.752559 kJ/mol
# Density = 2.010468 g / cm^3
# Si number density = 20.150541 Si / 1000 Ang^3
#
#
#
# Elastic Constant Matrix: (Units=GPa)
#
#
# Indices 1 2 3 4 5 6 
#
# 1 90.7114 17.9688 8.8438 0.0000 -9.2274 0.0000
# 2 17.9688 76.9746 27.0222 0.0000 0.5538 0.0000
# 3 8.8438 27.0222 46.8424 0.0000 -6.0403 0.0000
# 4 0.0000 0.0000 0.0000 56.7402 0.0000 8.5888
# 5 -9.2274 0.5538 -6.0403 0.0000 29.4335 0.0000
# 6 0.0000 0.0000 0.0000 8.5888 0.0000 23.2033
#
#
#
# Elastic Compliance Matrix: (Units=1/GPa)
#
#
# Indices 1 2 3 4 5 6 
#
# 1 0.011971 -0.002757 -0.000184 0.000000 0.003767 0.000000
# 2 -0.002757 0.017078 -0.009742 0.000000 -0.003185 0.000000
# 3 -0.000184 -0.009742 0.027753 0.000000 0.005821 0.000000
# 4 0.000000 0.000000 0.000000 0.018670 0.000000 -0.006911
# 5 0.003767 -0.003185 0.005821 0.000000 0.036410 0.000000
# 6 0.000000 0.000000 0.000000 -0.006911 0.000000 0.045655
#
#
# Mechanical properties :
#
#
# Convention : Reuss Voigt Hill
#
# Bulk Modulus (GPa) = 31.81001 35.79979 33.80490
# Shear Modulus (GPa) = 25.85545 32.58832 29.22188
#
# Velocity S-wave (km/s) = 3.58594 4.02586 3.81225
# Velocity P-wave (km/s) = 5.74158 6.27812 6.01584
#
# Compressibility (1/GPa) = 0.03143665
#
# Stress axis : x y z
#
# Youngs Moduli (GPa) = 83.53349 58.55585 36.03169
#
# Poissons Ratio (x) = 0.16144 0.00663
# Poissons Ratio (y) = 0.23031 0.35101
# Poissons Ratio (z) = 0.01536 0.57044
#
# Static dielectric constant tensor:
#      x y z
#    x 1.740550 0.000000 -0.008970 
#    y 0.000000 1.753450 0.000000 
#    z -0.008970 0.000000 1.703160 
# 
# From -- ./inp_files/79665.got.cif
#   From: 2010.05.17/outbox.cif.g08.bks.cpg/sg12_40_cif.got.tgz:79665.got - 2010.06.03 13:09:07.
