data_PCOD9201607
_publ_section_title
;
Structure prediction by ZEFSAII (Michael W. Deem and Ramdas Pophale) SiO2 
 PCOD9201607
Probable space group: C 2/M
;
_chemical_formula_sum "Si O2"
_cell_formula_units_Z 60
_cell_length_a 17.247090
_cell_length_b 17.356835
_cell_length_c 12.459516
_cell_angle_alpha 90.000000
_cell_angle_beta 61.582072
_cell_angle_gamma 90.000000
_cell_volume 3280.373049
_symmetry_space_group_name_H-M "C 2/M"
_symmetry_group_IT_number 12
_symmetry_cell_setting 'monoclinic'
loop_
_space_group_symop_operation_xyz
x,y,z
-x,y,-z
-x,-y,-z
x,-y,z
1/2+x,1/2+y,z
1/2-x,1/2+y,-z
1/2-x,1/2-y,-z
1/2+x,1/2-y,z
loop_
_atom_site_type_symbol
_atom_site_label
_atom_site_fract_x
_atom_site_fract_y
_atom_site_fract_z
Si Si1 0.924023 0.410685 0.282697
Si Si2 0.500000 0.314673 0.500000
Si Si3 0.168794 0.267420 0.294182
Si Si4 0.336605 0.173467 0.155133
Si Si5 0.597680 0.409566 0.622135
Si Si6 0.401102 0.818019 0.876293
Si Si7 0.968582 0.187746 0.134750
Si Si8 0.219237 0.334035 0.478663
O O1 0.923232 0.500000 0.311806
O O2 0.873377 0.394970 0.203946
O O3 0.869708 0.360131 0.404111
O O4 0.022416 0.378368 0.203994
O O5 0.426585 0.262518 0.606256
O O6 0.548579 0.365993 0.557571
O O7 0.236363 0.195984 0.244147
O O8 0.162686 0.305614 0.181756
O O9 0.202985 0.324969 0.363129
O O10 0.394457 0.248063 0.154282
O O11 0.354562 0.160115 0.018186
O O12 0.580360 0.500000 0.630314
O O13 0.565847 0.371517 0.754866
O O14 0.701839 0.391764 0.546168
O O15 0.451964 0.737627 0.866611
O O16 0.000000 0.154021 0.000000
O O17 0.250000 0.250000 0.500000
#
# Coordination Sequence:
#
# PCOD9201607 Si02
#       8
#     8   4   8   8   8   8   8   8
#     4  11  22  39  61  90 123 155 192 240 300 355
#     4  12  23  36  58  88 119 152 184 244 301 338
#     4  12  21  36  63  87 117 148 201 246 284 339
#     4  10  20  37  63  88 112 154 203 245 283 341
#     4  12  23  38  57  85 119 150 191 237 295 355
#     4  10  21  37  60  89 116 151 198 244 291 339
#     4   9  18  37  60  83 112 150 201 245 284 339
#     4  12  21  39  62  86 116 154 200 236 283 343
#
# _framework density 18.290602
#
# number of rings (size 3 to 8) (size 9 to 14) (size 15 to 20)
#    0.000    1.067    5.333    3.800    0.000    1.333 
#    0.000    2.667    0.000    0.000    0.000    0.000 
#    0.000    0.000    0.000    0.000    0.000    0.000 
#
# Total GULP energy -167613.047469 kJ/mol
# GULP energy per Si atom -5587.101582 kJ/mol
# Density = 1.824897 g / cm^3
# Si number density = 18.290602 Si / 1000 Ang^3
#
#
#
# Elastic Constant Matrix: (Units=GPa)
#
#
# Indices 1 2 3 4 5 6 
#
# 1 66.1477 -5.7640 7.0337 0.0000 18.7280 0.0000
# 2 -5.7640 47.3803 2.0100 0.0000 8.3306 0.0000
# 3 7.0337 2.0100 76.9895 0.0000 15.1287 0.0000
# 4 0.0000 0.0000 0.0000 16.0133 0.0000 -3.3420
# 5 18.7280 8.3306 15.1287 0.0000 42.1600 0.0000
# 6 0.0000 0.0000 0.0000 -3.3420 0.0000 12.6228
#
#
#
# Elastic Compliance Matrix: (Units=1/GPa)
#
#
# Indices 1 2 3 4 5 6 
#
# 1 0.017899 0.003704 -0.000028 0.000000 -0.008673 0.000000
# 2 0.003704 0.022638 0.000294 0.000000 -0.006224 0.000000
# 3 -0.000028 0.000294 0.013978 0.000000 -0.005062 0.000000
# 4 0.000000 0.000000 0.000000 0.066101 0.000000 0.017501
# 5 -0.008673 -0.006224 -0.005062 0.000000 0.030618 0.000000
# 6 0.000000 0.000000 0.000000 0.017501 0.000000 0.083856
#
#
# Mechanical properties :
#
#
# Convention : Reuss Voigt Hill
#
# Bulk Modulus (GPa) = 16.01176 21.89743 18.95460
# Shear Modulus (GPa) = 20.16384 26.64172 23.40278
#
# Velocity S-wave (km/s) = 3.32387 3.82066 3.58089
# Velocity P-wave (km/s) = 4.84808 5.60903 5.24238
#
# Compressibility (1/GPa) = 0.06245408
#
# Stress axis : x y z
#
# Youngs Moduli (GPa) = 55.86963 44.17320 71.53951
#
# Poissons Ratio (x) = -0.16360 0.00198
# Poissons Ratio (y) = -0.20691 -0.02100
# Poissons Ratio (z) = 0.00155 -0.01297
#
# Static dielectric constant tensor:
#      x y z
#    x 1.636350 0.000000 -0.000630 
#    y 0.000000 1.595540 0.000000 
#    z -0.000630 0.000000 1.642930 
# 
# From -- ./inp_files/158281.got.cif
#   From: 2010.05.17/outbox.cif.g08.bks.cpg/sg12_80_cif.got.tgz:158281.got - 2010.06.03 13:09:07.
