data_PCOD9201175
_publ_section_title
;
Structure prediction by ZEFSAII (Michael W. Deem and Ramdas Pophale) SiO2 
 PCOD9201175
Probable space group: C 2/M
;
_chemical_formula_sum "Si O2"
_cell_formula_units_Z 56
_cell_length_a 19.747454
_cell_length_b 14.365739
_cell_length_c 11.787119
_cell_angle_alpha 90.000000
_cell_angle_beta 127.630199
_cell_angle_gamma 90.000000
_cell_volume 2648.221782
_symmetry_space_group_name_H-M "C 2/M"
_symmetry_group_IT_number 12
_symmetry_cell_setting 'monoclinic'
loop_
_space_group_symop_operation_xyz
x,y,z
-x,y,-z
-x,-y,-z
x,-y,z
1/2+x,1/2+y,z
1/2-x,1/2+y,-z
1/2-x,1/2-y,-z
1/2+x,1/2-y,z
loop_
_atom_site_type_symbol
_atom_site_label
_atom_site_fract_x
_atom_site_fract_y
_atom_site_fract_z
Si Si1 0.825478 0.386769 0.575317
Si Si2 0.849043 0.357226 0.077430
Si Si3 0.593463 0.106375 0.111174
Si Si4 0.163162 0.111516 0.268432
Si Si5 0.180692 0.852828 0.028413
Si Si6 0.000817 0.104304 0.248587
Si Si7 0.012088 0.301091 0.379048
O O1 0.828730 0.500000 0.572009
O O2 0.848758 0.355759 0.727530
O O3 0.732477 0.359899 0.433685
O O4 0.898116 0.342103 0.570964
O O5 0.768214 0.392954 0.065944
O O6 0.937392 0.357802 0.237083
O O7 0.861957 0.396828 0.964990
O O8 0.830940 0.249458 0.034022
O O9 0.575780 0.000000 0.129547
O O10 0.500000 0.153191 0.000000
O O11 0.182698 0.153297 0.165964
O O12 0.068688 0.128627 0.219430
O O13 0.170302 0.000000 0.259649
O O14 0.093705 0.901263 0.900099
O O15 0.005147 0.191481 0.338610
O O16 0.023442 0.000000 0.316153
O O17 0.000000 0.311596 0.500000
#
# Coordination Sequence:
#
# PCOD9201175 Si02
#       7
#     8   8   8   8   8   8   8
#     4  10  22  40  62  94 126 156 200 252 308 372
#     4  10  22  38  59  90 124 156 204 251 300 367
#     4  10  20  37  61  87 121 160 199 243 299 367
#     4  10  21  39  62  90 122 156 204 257 305 363
#     4  10  21  38  61  89 121 160 204 253 303 357
#     4  10  23  42  62  89 121 164 214 254 299 359
#     4  11  23  40  63  91 125 162 200 252 314 370
#
# _framework density 21.146266000000001
#
# number of rings (size 3 to 8) (size 9 to 14) (size 15 to 20)
#    0.000    1.857    1.429    1.714    2.000    3.429 
#    7.714    0.000    0.000    0.000    0.000    0.000 
#    0.000    0.000    0.000    0.000    0.000    0.000 
#
# Total GULP energy -156343.427935 kJ/mol
# GULP energy per Si atom -5583.693855 kJ/mol
# Density = 2.109814 g / cm^3
# Si number density = 21.146266 Si / 1000 Ang^3
#
#
#
# Elastic Constant Matrix: (Units=GPa)
#
#
# Indices 1 2 3 4 5 6 
#
# 1 137.9598 11.3724 48.6105 0.0000 0.7534 0.0000
# 2 11.3724 54.6625 11.8517 0.0000 6.6045 0.0000
# 3 48.6105 11.8517 78.6498 0.0000 -13.6378 0.0000
# 4 0.0000 0.0000 0.0000 7.3425 0.0000 -0.8247
# 5 0.7534 6.6045 -13.6378 0.0000 40.2342 0.0000
# 6 0.0000 0.0000 0.0000 -0.8247 0.0000 34.3583
#
#
#
# Elastic Compliance Matrix: (Units=1/GPa)
#
#
# Indices 1 2 3 4 5 6 
#
# 1 0.009468 -0.000362 -0.006181 0.000000 -0.002213 0.000000
# 2 -0.000362 0.019662 -0.003503 0.000000 -0.004408 0.000000
# 3 -0.006181 -0.003503 0.018256 0.000000 0.006879 0.000000
# 4 0.000000 0.000000 0.000000 0.136562 0.000000 0.003278
# 5 -0.002213 -0.004408 0.006879 0.000000 0.027951 0.000000
# 6 0.000000 0.000000 0.000000 0.003278 0.000000 0.029184
#
#
# Mechanical properties :
#
#
# Convention : Reuss Voigt Hill
#
# Bulk Modulus (GPa) = 36.64059 46.10458 41.37258
# Shear Modulus (GPa) = 18.49977 29.68284 24.09131
#
# Velocity S-wave (km/s) = 2.96099 3.75065 3.37897
# Velocity P-wave (km/s) = 5.39025 6.37233 5.90175
#
# Compressibility (1/GPa) = 0.02729214
#
# Stress axis : x y z
#
# Youngs Moduli (GPa) = 105.61451 50.86057 54.77770
#
# Poissons Ratio (x) = 0.01843 0.33859
# Poissons Ratio (y) = 0.03826 0.19190
# Poissons Ratio (z) = 0.65282 0.17818
#
# Static dielectric constant tensor:
#      x y z
#    x 1.732060 0.000000 0.022060 
#    y 0.000000 1.838290 0.000000 
#    z 0.022060 0.000000 1.746280 
# 
# From -- ./inp_files/156749.got.cif
#   From: 2010.05.17/outbox.cif.g08.bks.cpg/sg12_79_cif.got.tgz:156749.got - 2010.06.03 13:09:07.
