data_PCOD9201035
_publ_section_title
;
Structure prediction by ZEFSAII (Michael W. Deem and Ramdas Pophale) SiO2 
 PCOD9201035
Probable space group: C 2/M
;
_chemical_formula_sum "Si O2"
_cell_formula_units_Z 64
_cell_length_a 16.895079
_cell_length_b 29.872476
_cell_length_c 11.522207
_cell_angle_alpha 90.000000
_cell_angle_beta 149.050049
_cell_angle_gamma 90.000000
_cell_volume 2990.711100
_symmetry_space_group_name_H-M "C 2/M"
_symmetry_group_IT_number 12
_symmetry_cell_setting 'monoclinic'
loop_
_space_group_symop_operation_xyz
x,y,z
-x,y,-z
-x,-y,-z
x,-y,z
1/2+x,1/2+y,z
1/2-x,1/2+y,-z
1/2-x,1/2-y,-z
1/2+x,1/2-y,z
loop_
_atom_site_type_symbol
_atom_site_label
_atom_site_fract_x
_atom_site_fract_y
_atom_site_fract_z
Si Si1 0.265010 0.683796 0.450791
Si Si2 0.835502 0.448850 0.846717
Si Si3 0.887934 0.551534 0.454441
Si Si4 0.004994 0.248814 0.868235
Si Si5 0.854232 0.887963 0.229619
Si Si6 0.410640 0.449059 0.078377
Si Si7 0.769102 0.919011 0.523906
Si Si8 0.176458 0.791331 0.739718
O O1 0.106674 0.708053 0.290596
O O2 0.412401 0.709761 0.687494
O O3 0.268752 0.632937 0.493370
O O4 0.275588 0.688643 0.325661
O O5 0.835209 0.500000 0.889750
O O6 0.780901 0.413924 0.873274
O O7 0.735401 0.445083 0.603979
O O8 0.000000 0.437133 0.000000
O O9 0.938776 0.500000 0.535811
O O10 0.865491 0.571266 0.553819
O O11 0.000000 0.573306 0.500000
O O12 0.726160 0.552394 0.185168
O O13 0.000000 0.239484 0.000000
O O14 0.181409 0.258256 0.053040
O O15 0.883279 0.913751 0.147156
O O16 0.827773 0.834870 0.183081
O O17 0.000000 0.891984 0.500000
O O18 0.416160 0.500000 0.131290
O O19 0.571214 0.435743 0.222590
O O20 0.000000 0.773753 0.500000
#
# Coordination Sequence:
#
# PCOD9201035 Si02
#       8
#     8   8   8   8   8   8   8   8
#     4  10  21  39  61  90 115 157 203 249 313 370
#     4  11  24  35  54  92 127 161 204 255 309 364
#     4  10  24  42  59  84 120 165 209 256 310 359
#     4   9  21  39  63  86 119 154 198 254 310 380
#     4  11  21  37  59  89 125 163 203 251 307 369
#     4  11  23  39  60  85 120 166 210 256 303 362
#     4  12  22  39  64  87 120 162 214 257 303 374
#     4  10  20  37  60  92 125 157 199 246 315 377
#
# _framework density 21.399592999999999
#
# number of rings (size 3 to 8) (size 9 to 14) (size 15 to 20)
#    0.000    1.500    2.500    2.625    3.500    3.000 
#    0.000    0.000    0.000    7.500    0.000    0.000 
#    0.000    0.000    0.000    0.000    0.000    0.000 
#
# Total GULP energy -178772.231385 kJ/mol
# GULP energy per Si atom -5586.632231 kJ/mol
# Density = 2.135089 g / cm^3
# Si number density = 21.399593 Si / 1000 Ang^3
#
#
#
# Elastic Constant Matrix: (Units=GPa)
#
#
# Indices 1 2 3 4 5 6 
#
# 1 76.6589 22.1708 17.6738 0.0000 5.5120 0.0000
# 2 22.1708 33.3186 5.3424 0.0000 7.3034 0.0000
# 3 17.6738 5.3424 61.3897 0.0000 20.9530 0.0000
# 4 0.0000 0.0000 0.0000 -139.9647 0.0000 110.9739
# 5 5.5120 7.3034 20.9530 0.0000 36.4644 0.0000
# 6 0.0000 0.0000 0.0000 110.9739 0.0000 -70.6024
#
#
#
# Elastic Compliance Matrix: (Units=1/GPa)
#
#
# Indices 1 2 3 4 5 6 
#
# 1 0.017223 -0.011218 -0.004802 0.000000 0.002403 0.000000
# 2 -0.011218 0.038724 0.002398 0.000000 -0.007438 0.000000
# 3 -0.004802 0.002398 0.021620 0.000000 -0.012177 0.000000
# 4 0.000000 0.000000 0.000000 0.029014 0.000000 0.045605
# 5 0.002403 -0.007438 -0.012177 0.000000 0.035548 0.000000
# 6 0.000000 0.000000 0.000000 0.045605 0.000000 0.057519
#
#
# Mechanical properties :
#
#
# Convention : Reuss Voigt Hill
#
# Bulk Modulus (GPa) = 19.87144 29.08236 24.47690
# Shear Modulus (GPa) = 20.51990 -26.40854 -2.94432
#
# Velocity S-wave (km/s) = 3.09996 -3.51674 -1.17425
# Velocity P-wave (km/s) = 4.70309 1.69420 3.10232
#
# Compressibility (1/GPa) = 0.05032347
#
# Stress axis : x y z
#
# Youngs Moduli (GPa) = 58.06022 25.82407 46.25440
#
# Poissons Ratio (x) = 0.28968 0.22214
# Poissons Ratio (y) = 0.65129 -0.11094
# Poissons Ratio (z) = 0.27883 -0.06194
#
# Static dielectric constant tensor:
#      x y z
#    x 1.799620 0.000000 0.016150 
#    y 0.000000 1.744710 0.000000 
#    z 0.016150 0.000000 1.875640 
# 
# From -- ./inp_files/161271.got.cif
#   From: 2010.05.17/outbox.cif.g08.bks.cpg/sg12_81_cif.got.tgz:161271.got - 2010.06.03 13:09:07.
