data_PCOD9201903
_publ_section_title
;
Structure prediction by ZEFSAII (Michael W. Deem and Ramdas Pophale) SiO2 
 PCOD9201903
Probable space group: C 2/M
;
_chemical_formula_sum "Si O2"
_cell_formula_units_Z 48
_cell_length_a 9.175314
_cell_length_b 13.160099
_cell_length_c 19.178053
_cell_angle_alpha 90.000000
_cell_angle_beta 78.100091
_cell_angle_gamma 90.000000
_cell_volume 2265.946073
_symmetry_space_group_name_H-M "C 2/M"
_symmetry_group_IT_number 12
_symmetry_cell_setting 'monoclinic'
loop_
_space_group_symop_operation_xyz
x,y,z
-x,y,-z
-x,-y,-z
x,-y,z
1/2+x,1/2+y,z
1/2-x,1/2+y,-z
1/2-x,1/2-y,-z
1/2+x,1/2-y,z
loop_
_atom_site_type_symbol
_atom_site_label
_atom_site_fract_x
_atom_site_fract_y
_atom_site_fract_z
Si Si1 0.468342 0.120030 0.920084
Si Si2 0.082524 0.199741 0.812854
Si Si3 0.669922 0.811683 0.613987
Si Si4 0.867299 0.886298 0.055702
Si Si5 0.622682 0.248943 0.290143
Si Si6 0.152087 0.114030 0.527058
O O1 0.563108 0.194800 0.860153
O O2 0.297398 0.158384 0.928870
O O3 0.479515 0.000000 0.897091
O O4 0.500000 0.120807 0.000000
O O5 0.074643 0.114521 0.871703
O O6 0.241176 0.192285 0.759721
O O7 0.961950 0.195186 0.764078
O O8 0.504466 0.820516 0.661315
O O9 0.796058 0.819870 0.660855
O O10 0.715976 0.877208 0.542839
O O11 0.677010 0.695999 0.584374
O O12 0.847800 0.000000 0.028877
O O13 0.000000 0.835471 0.000000
O O14 0.000000 0.140026 0.500000
O O15 0.138756 0.000000 0.554878
#
# Coordination Sequence:
#
# PCOD9201903 Si02
#       6
#     8   8   8   8   8   8
#     4  10  22  39  59  84 114 149 196 249 295 337
#     4  11  21  39  59  83 113 158 196 238 279 359
#     4  10  20  41  59  86 124 154 178 246 282 336
#     4  10  22  39  59  84 114 149 196 249 295 337
#     4  10  22  37  59  84 120 158 190 224 298 340
#     4  10  20  37  66  93 114 149 197 236 280 334
#
# _framework density 21.183205000000001
#
# number of rings (size 3 to 8) (size 9 to 14) (size 15 to 20)
#    0.000    1.833    3.333    0.500    2.333    1.333 
#    0.000   11.667    0.000    0.000    0.000    0.000 
#    0.000    0.000    0.000    0.000    0.000    0.000 
#
# Total GULP energy -133822.091652 kJ/mol
# GULP energy per Si atom -5575.920485 kJ/mol
# Density = 2.113499 g / cm^3
# Si number density = 21.183205 Si / 1000 Ang^3
#
#
#
# Elastic Constant Matrix: (Units=GPa)
#
#
# Indices 1 2 3 4 5 6 
#
# 1 110.8971 13.5433 36.1689 0.0000 -8.0723 0.0000
# 2 13.5433 67.7019 16.1825 0.0000 2.7490 0.0000
# 3 36.1689 16.1825 99.4830 0.0000 -5.7806 0.0000
# 4 0.0000 0.0000 0.0000 -3.9702 0.0000 5.7783
# 5 -8.0723 2.7490 -5.7806 0.0000 45.0097 0.0000
# 6 0.0000 0.0000 0.0000 5.7783 0.0000 6.6309
#
#
#
# Elastic Compliance Matrix: (Units=1/GPa)
#
#
# Indices 1 2 3 4 5 6 
#
# 1 0.010425 -0.001312 -0.003489 0.000000 0.001502 0.000000
# 2 -0.001312 0.015606 -0.002146 0.000000 -0.001464 0.000000
# 3 -0.003489 -0.002146 0.011729 0.000000 0.001012 0.000000
# 4 0.000000 0.000000 0.000000 -0.111042 0.000000 0.096765
# 5 0.001502 -0.001464 0.001012 0.000000 0.022706 0.000000
# 6 0.000000 0.000000 0.000000 0.096765 0.000000 0.066486
#
#
# Mechanical properties :
#
#
# Convention : Reuss Voigt Hill
#
# Bulk Modulus (GPa) = 41.90643 45.54126 43.72384
# Shear Modulus (GPa) = 132.41648 23.67989 78.04819
#
# Velocity S-wave (km/s) = 7.91491 3.34707 6.07654
# Velocity P-wave (km/s) = 10.16630 6.04008 8.36170
#
# Compressibility (1/GPa) = 0.02386269
#
# Stress axis : x y z
#
# Youngs Moduli (GPa) = 95.92286 64.07930 85.26191
#
# Poissons Ratio (x) = 0.08409 0.29752
# Poissons Ratio (y) = 0.12588 0.18301
# Poissons Ratio (z) = 0.33472 0.13754
#
# Static dielectric constant tensor:
#      x y z
#    x 1.798510 0.000000 -0.004650 
#    y 0.000000 1.749330 0.000000 
#    z -0.004650 0.000000 1.790480 
# 
# From -- ./inp_files/255771.got.cif
#   From: 2010.05.17/outbox.cif.g08.bks.cpg/sg12_128_cif.got.tgz:255771.got - 2010.06.03 13:09:07.
