data_PCOD9201639
_publ_section_title
;
Structure prediction by ZEFSAII (Michael W. Deem and Ramdas Pophale) SiO2 
 PCOD9201639
Probable space group: C 2/M
;
_chemical_formula_sum "Si O2"
_cell_formula_units_Z 52
_cell_length_a 8.874913
_cell_length_b 26.513654
_cell_length_c 10.652947
_cell_angle_alpha 90.000000
_cell_angle_beta 110.901063
_cell_angle_gamma 90.000000
_cell_volume 2341.759665
_symmetry_space_group_name_H-M "C 2/M"
_symmetry_group_IT_number 12
_symmetry_cell_setting 'monoclinic'
loop_
_space_group_symop_operation_xyz
x,y,z
-x,y,-z
-x,-y,-z
x,-y,z
1/2+x,1/2+y,z
1/2-x,1/2+y,-z
1/2-x,1/2-y,-z
1/2+x,1/2-y,z
loop_
_atom_site_type_symbol
_atom_site_label
_atom_site_fract_x
_atom_site_fract_y
_atom_site_fract_z
Si Si1 0.173661 0.500000 0.497436
Si Si2 0.815371 0.389497 0.949437
Si Si3 0.299288 0.413705 0.364847
Si Si4 0.691976 0.000000 0.017686
Si Si5 0.009084 0.000000 0.695896
Si Si6 0.142802 0.210118 0.895263
Si Si7 0.321159 0.750297 0.717382
Si Si8 0.159184 0.328886 0.481872
O O1 0.194404 0.453138 0.411390
O O2 0.315618 0.500000 0.645114
O O3 0.000000 0.500000 0.500000
O O4 0.778528 0.401067 0.792441
O O5 0.799061 0.441396 0.024933
O O6 0.693942 0.345572 0.952019
O O7 0.000000 0.370972 0.000000
O O8 0.451809 0.447865 0.366606
O O9 0.289400 0.365608 0.453961
O O10 0.853895 0.000000 0.155329
O O11 0.500000 0.000000 0.000000
O O12 0.196725 0.219019 0.766410
O O13 0.956597 0.224220 0.842628
O O14 0.250000 0.250000 0.000000
O O15 0.242068 0.706862 0.609428
O O16 0.397627 0.791389 0.645988
O O17 0.000000 0.352787 0.500000
#
# Coordination Sequence:
#
# PCOD9201639 Si02
#       8
#     4   8   8   4   4   8   8   8
#     4  11  23  40  59  95 138 174 216 276 346 406
#     4  10  20  37  63  95 124 161 218 279 325 393
#     4  10  20  37  63  90 124 171 216 269 332 397
#     4   8  17  35  61  94 124 155 213 279 333 383
#     4   9  20  37  62  95 128 163 228 274 322 413
#     4  12  24  41  63  90 126 173 218 274 334 393
#     4  11  24  41  59  88 126 163 217 268 328 401
#     4  11  22  38  61  90 129 164 209 271 334 399
#
# _framework density 22.205525000000002
#
# number of rings (size 3 to 8) (size 9 to 14) (size 15 to 20)
#    0.000    1.538    3.077    3.231    0.000    3.692 
#    0.000    0.000    0.000    0.000    0.000   32.308 
#    0.000    0.000    0.000    0.000    0.000    0.000 
#
# Total GULP energy -144825.490198 kJ/mol
# GULP energy per Si atom -5570.211161 kJ/mol
# Density = 2.215498 g / cm^3
# Si number density = 22.205525 Si / 1000 Ang^3
#
#
#
# Elastic Constant Matrix: (Units=GPa)
#
#
# Indices 1 2 3 4 5 6 
#
# 1 106.4969 19.9774 0.7803 0.0000 7.9543 0.0000
# 2 19.9774 132.8086 -6.8007 0.0000 -1.8053 0.0000
# 3 0.7803 -6.8007 36.5924 0.0000 6.7482 0.0000
# 4 0.0000 0.0000 0.0000 43.1886 0.0000 -37.3021
# 5 7.9543 -1.8053 6.7482 0.0000 25.0003 0.0000
# 6 0.0000 0.0000 0.0000 -37.3021 0.0000 137.0528
#
#
#
# Elastic Compliance Matrix: (Units=1/GPa)
#
#
# Indices 1 2 3 4 5 6 
#
# 1 0.009923 -0.001532 0.000112 0.000000 -0.003298 0.000000
# 2 -0.001532 0.007839 0.001363 0.000000 0.000685 0.000000
# 3 0.000112 0.001363 0.029012 0.000000 -0.007768 0.000000
# 4 0.000000 0.000000 0.000000 0.030270 0.000000 0.008239
# 5 -0.003298 0.000685 -0.007768 0.000000 0.043195 0.000000
# 6 0.000000 0.000000 0.000000 0.008239 0.000000 0.009539
#
#
# Mechanical properties :
#
#
# Convention : Reuss Voigt Hill
#
# Bulk Modulus (GPa) = 21.43151 33.75689 27.59420
# Shear Modulus (GPa) = 34.37746 58.51107 46.44426
#
# Velocity S-wave (km/s) = 3.93892 5.13877 4.57832
# Velocity P-wave (km/s) = 5.50992 7.10242 6.35624
#
# Compressibility (1/GPa) = 0.04666026
#
# Stress axis : x y z
#
# Youngs Moduli (GPa) = 100.77824 127.56474 34.46900
#
# Poissons Ratio (x) = 0.19539 -0.00386
# Poissons Ratio (y) = 0.15436 -0.04699
# Poissons Ratio (z) = -0.01128 -0.17389
#
# Static dielectric constant tensor:
#      x y z
#    x 1.843860 0.000000 0.005540 
#    y 0.000000 1.796900 0.000000 
#    z 0.005540 0.000000 1.887760 
# 
# From -- ./inp_files/123804.got.cif
#   From: 2010.05.17/outbox.cif.g08.bks.cpg/sg12_62_cif.got.tgz:123804.got - 2010.06.03 13:09:07.
