data_PCOD9201945
_publ_section_title
;
Structure prediction by ZEFSAII (Michael W. Deem and Ramdas Pophale) SiO2 
 PCOD9201945
Probable space group: C 2/M
;
_chemical_formula_sum "Si O2"
_cell_formula_units_Z 48
_cell_length_a 8.799002
_cell_length_b 14.199625
_cell_length_c 18.390279
_cell_angle_alpha 90.000000
_cell_angle_beta 85.871110
_cell_angle_gamma 90.000000
_cell_volume 2291.764452
_symmetry_space_group_name_H-M "C 2/M"
_symmetry_group_IT_number 12
_symmetry_cell_setting 'monoclinic'
loop_
_space_group_symop_operation_xyz
x,y,z
-x,y,-z
-x,-y,-z
x,-y,z
1/2+x,1/2+y,z
1/2-x,1/2+y,-z
1/2-x,1/2-y,-z
1/2+x,1/2-y,z
loop_
_atom_site_type_symbol
_atom_site_label
_atom_site_fract_x
_atom_site_fract_y
_atom_site_fract_z
Si Si1 0.166488 0.000000 0.397884
Si Si2 0.691731 0.197539 0.112100
Si Si3 0.680905 0.681625 0.316018
Si Si4 0.188098 0.000000 0.570998
Si Si5 0.328497 0.391517 0.972315
Si Si6 0.145701 0.688618 0.448056
Si Si7 0.942073 0.225747 0.213426
O O1 0.232578 0.909697 0.356936
O O2 0.187634 0.000000 0.483010
O O3 0.983449 0.000000 0.394256
O O4 0.695156 0.307116 0.084611
O O5 0.837687 0.176096 0.157047
O O6 0.541947 0.195868 0.167134
O O7 0.708427 0.133078 0.040785
O O8 0.605578 0.746237 0.380983
O O9 0.823750 0.730613 0.273944
O O10 0.560247 0.664399 0.255792
O O11 0.270405 0.902810 0.586343
O O12 0.312324 0.500000 0.948177
O O13 0.500000 0.381012 0.000000
O O14 0.250000 0.750000 0.500000
O O15 0.000000 0.659808 0.500000
#
# Coordination Sequence:
#
# PCOD9201945 Si02
#       7
#     4   8   8   4   8   8   8
#     4  11  22  40  62  94 120 156 213 261 320 369
#     4  10  20  41  63  92 126 162 194 262 294 360
#     4  11  23  41  63  87 120 168 204 254 308 382
#     4  11  23  38  64  94 120 154 207 276 324 370
#     4  10  20  37  68  98 120 157 207 250 299 357
#     4  12  23  40  66  92 122 160 211 270 319 369
#     4  10  22  41  60  83 126 167 203 235 312 363
#
# _framework density 20.944559000000002
#
# number of rings (size 3 to 8) (size 9 to 14) (size 15 to 20)
#    0.000    1.333    3.333    3.250    0.000    0.000 
#    9.000    0.833    3.667    0.000    0.000    0.000 
#    0.000    0.000    0.000    0.000    0.000    0.000 
#
# Total GULP energy -134024.291948 kJ/mol
# GULP energy per Si atom -5584.345498 kJ/mol
# Density = 2.089689 g / cm^3
# Si number density = 20.944559 Si / 1000 Ang^3
#
#
#
# Elastic Constant Matrix: (Units=GPa)
#
#
# Indices 1 2 3 4 5 6 
#
# 1 34.1977 -30.1788 0.4556 0.0000 2.0069 0.0000
# 2 -30.1788 72.9212 1.2044 0.0000 10.9711 0.0000
# 3 0.4556 1.2044 76.0748 0.0000 -7.4018 0.0000
# 4 0.0000 0.0000 0.0000 -95.7333 0.0000 -48.7785
# 5 2.0069 10.9711 -7.4018 0.0000 39.3138 0.0000
# 6 0.0000 0.0000 0.0000 -48.7785 0.0000 -10.9053
#
#
#
# Elastic Compliance Matrix: (Units=1/GPa)
#
#
# Indices 1 2 3 4 5 6 
#
# 1 0.048779 0.021533 -0.001487 0.000000 -0.008779 0.000000
# 2 0.021533 0.023849 -0.001285 0.000000 -0.007997 0.000000
# 3 -0.001487 -0.001285 0.013463 0.000000 0.002969 0.000000
# 4 0.000000 0.000000 0.000000 0.008167 0.000000 -0.036529
# 5 -0.008779 -0.007997 0.002969 0.000000 0.028675 0.000000
# 6 0.000000 0.000000 0.000000 -0.036529 0.000000 0.071692
#
#
# Mechanical properties :
#
#
# Convention : Reuss Voigt Hill
#
# Bulk Modulus (GPa) = 8.08972 14.01735 11.05353
# Shear Modulus (GPa) = 25.21329 0.64921 12.93125
#
# Velocity S-wave (km/s) = 3.47336 0.55735 2.48746
# Velocity P-wave (km/s) = 4.46727 2.66858 3.67952
#
# Compressibility (1/GPa) = 0.12361374
#
# Stress axis : x y z
#
# Youngs Moduli (GPa) = 20.50054 41.93005 74.27715
#
# Poissons Ratio (x) = -0.90288 0.11047
# Poissons Ratio (y) = -0.44144 0.09541
# Poissons Ratio (z) = 0.03049 0.05386
#
# Static dielectric constant tensor:
#      x y z
#    x 1.772190 0.000000 0.010020 
#    y 0.000000 1.717130 0.000000 
#    z 0.010020 0.000000 1.738470 
# 
# From -- ./inp_files/255810.got.cif
#   From: 2010.05.17/outbox.cif.g08.bks.cpg/sg12_128_cif.got.tgz:255810.got - 2010.06.03 13:09:07.
