data_PCOD9201766
_publ_section_title
;
Structure prediction by ZEFSAII (Michael W. Deem and Ramdas Pophale) SiO2 
 PCOD9201766
Probable space group: C 2/M
;
_chemical_formula_sum "Si O2"
_cell_formula_units_Z 48
_cell_length_a 25.279675
_cell_length_b 7.617301
_cell_length_c 21.562347
_cell_angle_alpha 90.000000
_cell_angle_beta 28.178853
_cell_angle_gamma 90.000000
_cell_volume 1960.731066
_symmetry_space_group_name_H-M "C 2/M"
_symmetry_group_IT_number 12
_symmetry_cell_setting 'monoclinic'
loop_
_space_group_symop_operation_xyz
x,y,z
-x,y,-z
-x,-y,-z
x,-y,z
1/2+x,1/2+y,z
1/2-x,1/2+y,-z
1/2-x,1/2-y,-z
1/2+x,1/2-y,z
loop_
_atom_site_type_symbol
_atom_site_label
_atom_site_fract_x
_atom_site_fract_y
_atom_site_fract_z
Si Si1 0.754671 0.803582 0.423476
Si Si2 0.359174 0.301913 0.577430
Si Si3 0.797691 0.285616 0.153873
Si Si4 0.416451 0.714407 0.702169
Si Si5 0.494824 0.199992 0.131396
Si Si6 0.619784 0.709477 0.124711
O O1 0.750000 0.750000 0.500000
O O2 0.683227 0.691626 0.449234
O O3 0.881587 0.795239 0.267312
O O4 0.711148 0.000000 0.463450
O O5 0.374715 0.500000 0.585816
O O6 0.260532 0.226147 0.722105
O O7 0.482578 0.221558 0.445449
O O8 0.807294 0.500000 0.143838
O O9 0.704984 0.234787 0.198185
O O10 0.921433 0.224440 0.007208
O O11 0.418318 0.500000 0.699897
O O12 0.434912 0.767999 0.753971
O O13 0.569394 0.199538 0.116791
O O14 0.463167 0.000000 0.146972
O O15 0.604203 0.500000 0.133320
O O16 0.750000 0.750000 0.000000
#
# Coordination Sequence:
#
# PCOD9201766 Si02
#       6
#     8   8   8   8   8   8
#     4  12  26  45  65  87 118 155 202 251 306 364
#     4  10  20  37  64  91 119 159 206 250 298 355
#     4   9  18  34  59  92 124 159 200 246 299 361
#     4   9  17  32  57  89 121 154 200 250 294 351
#     4  11  22  39  62  90 125 159 202 252 304 362
#     4  11  20  33  55  86 122 159 203 252 307 360
#
# _framework density 24.480664999999998
#
# number of rings (size 3 to 8) (size 9 to 14) (size 15 to 20)
#    0.000    1.667    1.667    4.000    0.000    4.000 
#    0.000    5.833    0.000    1.000    0.000    0.000 
#    0.000    0.000    0.000    0.000    0.000    0.000 
#
# Total GULP energy -134191.880766 kJ/mol
# GULP energy per Si atom -5591.328365 kJ/mol
# Density = 2.442495 g / cm^3
# Si number density = 24.480665 Si / 1000 Ang^3
#
#
#
# Elastic Constant Matrix: (Units=GPa)
#
#
# Indices 1 2 3 4 5 6 
#
# 1 44.4813 -12.0903 10.7616 0.0028 8.2029 -0.0007
# 2 -12.0903 75.0465 4.1987 0.0071 2.6205 -0.0009
# 3 10.7616 4.1987 185.1966 0.0070 11.9219 -0.0029
# 4 0.0028 0.0071 0.0070 11.7602 -0.0012 -3.9711
# 5 8.2029 2.6205 11.9219 -0.0012 41.4970 -0.0011
# 6 -0.0007 -0.0009 -0.0029 -3.9711 -0.0011 15.5065
#
#
#
# Elastic Compliance Matrix: (Units=1/GPa)
#
#
# Indices 1 2 3 4 5 6 
#
# 1 0.024819 0.004235 -0.001228 -0.000009 -0.004821 -0.000001
# 2 0.004235 0.014089 -0.000463 -0.000010 -0.001594 -0.000002
# 3 -0.001228 -0.000463 0.005567 -0.000003 -0.001327 0.000000
# 4 -0.000009 -0.000010 -0.000003 0.093082 0.000007 0.023838
# 5 -0.004821 -0.001594 -0.001327 0.000007 0.025533 0.000003
# 6 -0.000001 -0.000002 0.000000 0.023838 0.000003 0.070594
#
#
# Mechanical properties :
#
#
# Convention : Reuss Voigt Hill
#
# Bulk Modulus (GPa) = 20.17600 34.49605 27.33603
# Shear Modulus (GPa) = 20.39855 33.87637 27.13746
#
# Velocity S-wave (km/s) = 2.88974 3.72398 3.33307
# Velocity P-wave (km/s) = 4.40382 5.71073 5.09932
#
# Compressibility (1/GPa) = 0.04956383
#
# Stress axis : x y z
#
# Youngs Moduli (GPa) = 40.29225 70.97752 179.63110
#
# Poissons Ratio (x) = -0.30062 0.22057
# Poissons Ratio (y) = -0.17065 0.08316
# Poissons Ratio (z) = 0.04947 0.03286
#
# Static dielectric constant tensor:
#      x y z
#    x 1.937160 -0.000010 0.019350 
#    y -0.000010 2.015990 0.000000 
#    z 0.019350 0.000000 1.989110 
# 
# From -- ./inp_files/327163.got.cif
#   From: 2010.05.17/outbox.cif.g08.bks.cpg/sg12_164_cif.got.tgz:327163.got - 2010.06.03 13:09:07.
