data_PCOD9201289
_publ_section_title
;
Structure prediction by ZEFSAII (Michael W. Deem and Ramdas Pophale) SiO2 
 PCOD9201289
Probable space group: C 2/M
;
_chemical_formula_sum "Si O2"
_cell_formula_units_Z 44
_cell_length_a 17.975967
_cell_length_b 9.537396
_cell_length_c 16.513569
_cell_angle_alpha 90.000000
_cell_angle_beta 134.873469
_cell_angle_gamma 90.000000
_cell_volume 2006.342156
_symmetry_space_group_name_H-M "C 2/M"
_symmetry_group_IT_number 12
_symmetry_cell_setting 'monoclinic'
loop_
_space_group_symop_operation_xyz
x,y,z
-x,y,-z
-x,-y,-z
x,-y,z
1/2+x,1/2+y,z
1/2-x,1/2+y,-z
1/2-x,1/2-y,-z
1/2+x,1/2-y,z
loop_
_atom_site_type_symbol
_atom_site_label
_atom_site_fract_x
_atom_site_fract_y
_atom_site_fract_z
Si Si1 0.034701 0.658323 0.703271
Si Si2 0.384338 0.339461 0.687047
Si Si3 0.059185 0.839536 0.961766
Si Si4 0.772724 0.845694 0.340650
Si Si5 0.258398 0.663378 0.136175
Si Si6 0.000000 0.255383 0.500000
O O1 0.040970 0.500000 0.739420
O O2 0.136931 0.750166 0.804002
O O3 0.932409 0.739413 0.656120
O O4 0.029010 0.657701 0.601634
O O5 0.369451 0.500000 0.648980
O O6 0.472997 0.336973 0.825393
O O7 0.281312 0.273381 0.647757
O O8 0.099090 0.000000 0.000579
O O9 0.155468 0.735797 0.021136
O O10 0.000000 0.803401 0.000000
O O11 0.745971 0.828961 0.224729
O O12 0.897841 0.835588 0.441341
O O13 0.735707 0.000000 0.338144
O O14 0.269692 0.500000 0.122525
#
# Coordination Sequence:
#
# PCOD9201289 Si02
#       6
#     8   8   8   8   8   4
#     4  11  24  43  65  90 122 160 206 257 309 366
#     4  11  24  40  62  93 129 162 203 254 304 359
#     4  10  20  37  61  91 126 168 207 246 298 358
#     4  10  21  39  64  93 124 160 203 253 306 363
#     4  10  21  37  62  93 126 164 207 251 301 361
#     4  10  24  44  68  92 116 158 206 256 310 372
#
# _framework density 21.930458000000002
#
# number of rings (size 3 to 8) (size 9 to 14) (size 15 to 20)
#    0.000    1.636    1.818    2.182    0.000    9.091 
#    0.000    0.000    0.000    0.000    0.000    0.000 
#    0.000    0.000    0.000    0.000    0.000    0.000 
#
# Total GULP energy -123073.512462 kJ/mol
# GULP energy per Si atom -5594.250566 kJ/mol
# Density = 2.188054 g / cm^3
# Si number density = 21.930458 Si / 1000 Ang^3
#
#
#
# Elastic Constant Matrix: (Units=GPa)
#
#
# Indices 1 2 3 4 5 6 
#
# 1 98.1168 66.5553 17.8250 0.0000 15.0834 0.0000
# 2 66.5553 167.9141 21.1234 0.0000 22.9014 0.0000
# 3 17.8250 21.1234 59.9718 0.0000 14.7779 0.0000
# 4 0.0000 0.0000 0.0000 -7.2903 0.0000 -8.4293
# 5 15.0834 22.9014 14.7779 0.0000 36.0531 0.0000
# 6 0.0000 0.0000 0.0000 -8.4293 0.0000 19.2533
#
#
#
# Elastic Compliance Matrix: (Units=1/GPa)
#
#
# Indices 1 2 3 4 5 6 
#
# 1 0.014359 -0.005183 -0.001972 0.000000 -0.001906 0.000000
# 2 -0.005183 0.008502 -0.000731 0.000000 -0.002932 0.000000
# 3 -0.001972 -0.000731 0.019133 0.000000 -0.006553 0.000000
# 4 0.000000 0.000000 0.000000 -0.091068 0.000000 -0.039871
# 5 -0.001906 -0.002932 -0.006553 0.000000 0.033083 0.000000
# 6 0.000000 0.000000 0.000000 -0.039871 0.000000 0.034483
#
#
# Mechanical properties :
#
#
# Convention : Reuss Voigt Hill
#
# Bulk Modulus (GPa) = 38.13913 59.66778 48.90346
# Shear Modulus (GPa) = 116.26052 24.30315 70.28183
#
# Velocity S-wave (km/s) = 7.28892 3.33256 5.66720
# Velocity P-wave (km/s) = 9.39503 6.48651 8.07283
#
# Compressibility (1/GPa) = 0.02621979
#
# Stress axis : x y z
#
# Youngs Moduli (GPa) = 69.64084 117.62129 52.26553
#
# Poissons Ratio (x) = 0.60968 0.10309
# Poissons Ratio (y) = 0.36098 0.03823
# Poissons Ratio (z) = 0.13736 0.08603
#
# Static dielectric constant tensor:
#      x y z
#    x 1.788130 0.000000 -0.037100 
#    y 0.000000 1.783100 0.000000 
#    z -0.037100 0.000000 1.808220 
# 
# From -- ./inp_files/275873.got.cif
#   From: 2010.05.17/outbox.cif.g08.bks.cpg/sg12_138_cif.got.tgz:275873.got - 2010.06.03 13:09:07.
