data_PCOD9201040
_publ_section_title
;
Structure prediction by ZEFSAII (Michael W. Deem and Ramdas Pophale) SiO2 
 PCOD9201040
Probable space group: C 2/M
;
_chemical_formula_sum "Si O2"
_cell_formula_units_Z 64
_cell_length_a 23.106786
_cell_length_b 14.081834
_cell_length_c 9.593130
_cell_angle_alpha 90.000000
_cell_angle_beta 89.652980
_cell_angle_gamma 90.000000
_cell_volume 3121.412224
_symmetry_space_group_name_H-M "C 2/M"
_symmetry_group_IT_number 12
_symmetry_cell_setting 'monoclinic'
loop_
_space_group_symop_operation_xyz
x,y,z
-x,y,-z
-x,-y,-z
x,-y,z
1/2+x,1/2+y,z
1/2-x,1/2+y,-z
1/2-x,1/2-y,-z
1/2+x,1/2-y,z
loop_
_atom_site_type_symbol
_atom_site_label
_atom_site_fract_x
_atom_site_fract_y
_atom_site_fract_z
Si Si1 0.947722 0.265593 0.600878
Si Si2 0.045078 0.613648 0.124575
Si Si3 0.365774 0.203235 0.363803
Si Si4 0.859320 0.111005 0.708893
Si Si5 0.350556 0.885697 0.071272
Si Si6 0.745163 0.106761 0.524463
Si Si7 0.281720 0.614944 0.964064
Si Si8 0.679507 0.390593 0.725590
O O1 0.965713 0.329299 0.732967
O O2 0.906166 0.321568 0.492919
O O3 0.911236 0.177334 0.660694
O O4 0.000000 0.235320 0.500000
O O5 0.042803 0.500000 0.150551
O O6 0.107942 0.638681 0.058388
O O7 0.000000 0.634323 0.000000
O O8 0.375823 0.151270 0.217397
O O9 0.300897 0.178049 0.413791
O O10 0.366108 0.315421 0.332001
O O11 0.806973 0.114602 0.598555
O O12 0.827825 0.147262 0.849226
O O13 0.876184 0.000000 0.723960
O O14 0.284181 0.851296 0.056181
O O15 0.349550 0.000000 0.078074
O O16 0.760813 0.116769 0.362758
O O17 0.722982 0.000000 0.552735
O O18 0.278760 0.500000 0.947188
O O19 0.305688 0.633081 0.116553
O O20 0.660341 0.500000 0.713268
#
# Coordination Sequence:
#
# PCOD9201040 Si02
#       8
#     8   8   8   8   8   8   8   8
#     4  12  28  44  64  95 124 165 226 273 312 377
#     4  10  24  47  70  89 122 169 215 267 323 373
#     4  12  23  36  63  91 129 168 209 262 321 373
#     4  10  21  42  67  93 131 170 206 257 324 391
#     4  10  21  38  62  94 128 165 207 257 320 387
#     4  10  20  37  60  92 132 168 202 250 318 394
#     4   9  19  36  59  92 128 163 205 251 313 384
#     4  10  22  36  55  89 132 169 206 250 304 379
#
# _framework density 20.503540000000001
#
# number of rings (size 3 to 8) (size 9 to 14) (size 15 to 20)
#    0.000    1.625    2.500    1.500    3.500    2.000 
#    0.000    0.000    0.000    0.375    0.000    0.000 
#    0.000    0.000    0.000    0.000    0.000    0.000 
#
# Total GULP energy -178793.438528 kJ/mol
# GULP energy per Si atom -5587.294954 kJ/mol
# Density = 2.045687 g / cm^3
# Si number density = 20.503540 Si / 1000 Ang^3
#
#
#
# Elastic Constant Matrix: (Units=GPa)
#
#
# Indices 1 2 3 4 5 6 
#
# 1 82.0402 38.5667 46.5313 0.0000 -12.3746 0.0000
# 2 38.5667 62.7095 31.9951 0.0000 -6.9613 0.0000
# 3 46.5313 31.9951 145.4978 0.0000 -18.0630 0.0000
# 4 0.0000 0.0000 0.0000 29.0889 0.0000 -1.2728
# 5 -12.3746 -6.9613 -18.0630 0.0000 33.5427 0.0000
# 6 0.0000 0.0000 0.0000 -1.2728 0.0000 17.9370
#
#
#
# Elastic Compliance Matrix: (Units=1/GPa)
#
#
# Indices 1 2 3 4 5 6 
#
# 1 0.019264 -0.009635 -0.003652 0.000000 0.003140 0.000000
# 2 -0.009635 0.022874 -0.001929 0.000000 0.000153 0.000000
# 3 -0.003652 -0.001929 0.008839 0.000000 0.003012 0.000000
# 4 0.000000 0.000000 0.000000 0.034484 0.000000 0.002447
# 5 0.003140 0.000153 0.003012 0.000000 0.032625 0.000000
# 6 0.000000 0.000000 0.000000 0.002447 0.000000 0.055924
#
#
# Mechanical properties :
#
#
# Convention : Reuss Voigt Hill
#
# Bulk Modulus (GPa) = 48.67830 58.27040 53.47435
# Shear Modulus (GPa) = 23.66395 27.65736 25.66066
#
# Velocity S-wave (km/s) = 3.40095 3.67673 3.54153
# Velocity P-wave (km/s) = 6.26218 6.81952 6.54678
#
# Compressibility (1/GPa) = 0.02054303
#
# Stress axis : x y z
#
# Youngs Moduli (GPa) = 51.91110 43.71812 113.13334
#
# Poissons Ratio (x) = 0.42124 0.41316
# Poissons Ratio (y) = 0.50018 0.21829
# Poissons Ratio (z) = 0.18958 0.08435
#
# Static dielectric constant tensor:
#      x y z
#    x 1.726920 0.000000 -0.011120 
#    y 0.000000 1.767010 0.000000 
#    z -0.011120 0.000000 1.773260 
# 
# From -- ./inp_files/96913.got.cif
#   From: 2010.05.17/outbox.cif.g08.bks.cpg/sg12_49_cif.got.tgz:96913.got - 2010.06.03 13:09:07.
