data_PCOD9201508
_publ_section_title
;
Structure prediction by ZEFSAII (Michael W. Deem and Ramdas Pophale) SiO2 
 PCOD9201508
Probable space group: C 2/M
;
_chemical_formula_sum "Si O2"
_cell_formula_units_Z 48
_cell_length_a 10.140165
_cell_length_b 19.814518
_cell_length_c 11.907800
_cell_angle_alpha 90.000000
_cell_angle_beta 99.970497
_cell_angle_gamma 90.000000
_cell_volume 2356.410218
_symmetry_space_group_name_H-M "C 2/M"
_symmetry_group_IT_number 12
_symmetry_cell_setting 'monoclinic'
loop_
_space_group_symop_operation_xyz
x,y,z
-x,y,-z
-x,-y,-z
x,-y,z
1/2+x,1/2+y,z
1/2-x,1/2+y,-z
1/2-x,1/2-y,-z
1/2+x,1/2-y,z
loop_
_atom_site_type_symbol
_atom_site_label
_atom_site_fract_x
_atom_site_fract_y
_atom_site_fract_z
Si Si1 0.127386 0.189985 0.594800
Si Si2 0.349356 0.847462 0.457768
Si Si3 0.640269 0.683335 0.064379
Si Si4 0.020357 0.576733 0.137183
Si Si5 0.242112 0.078436 0.230438
Si Si6 0.744465 0.677597 0.838946
O O1 0.260049 0.160457 0.555565
O O2 0.136549 0.271374 0.588397
O O3 0.131918 0.171509 0.726544
O O4 0.000000 0.170073 0.500000
O O5 0.500000 0.873038 0.500000
O O6 0.271884 0.892951 0.357413
O O7 0.632086 0.622465 0.149848
O O8 0.718737 0.743698 0.136771
O O9 0.500000 0.712144 0.000000
O O10 0.706625 0.656460 0.959482
O O11 0.065534 0.500000 0.171766
O O12 0.128470 0.633812 0.180616
O O13 0.880714 0.588222 0.180721
O O14 0.000000 0.579358 0.000000
O O15 0.209419 0.000000 0.227090
#
# Coordination Sequence:
#
# PCOD9201508 Si02
#       6
#     8   8   8   8   8   8
#     4  10  22  37  63  91 123 162 203 258 313 367
#     4  10  21  39  61  90 121 162 211 256 308 367
#     4  11  25  36  60  96 127 163 202 253 319 373
#     4  10  20  37  62  90 122 162 207 253 309 368
#     4  11  23  41  63  91 128 163 208 260 310 373
#     4  11  22  39  62  92 128 158 206 262 306 371
#
# _framework density 20.369966999999999
#
# number of rings (size 3 to 8) (size 9 to 14) (size 15 to 20)
#    0.000    1.500    3.333    1.500    4.667    2.000 
#    0.000    0.833    0.000    1.000    0.000    0.000 
#    0.000    0.000    0.000    0.000    0.000    0.000 
#
# Total GULP energy -134015.617571 kJ/mol
# GULP energy per Si atom -5583.984065 kJ/mol
# Density = 2.032360 g / cm^3
# Si number density = 20.369967 Si / 1000 Ang^3
#
#
#
# Elastic Constant Matrix: (Units=GPa)
#
#
# Indices 1 2 3 4 5 6 
#
# 1 40.1608 6.9527 15.6324 0.0000 10.5816 0.0000
# 2 6.9527 47.1369 51.0031 0.0000 2.0025 0.0000
# 3 15.6324 51.0031 124.9225 0.0000 23.5127 0.0000
# 4 0.0000 0.0000 0.0000 18.4901 0.0000 0.6798
# 5 10.5816 2.0025 23.5127 0.0000 26.3641 0.0000
# 6 0.0000 0.0000 0.0000 0.6798 0.0000 20.1936
#
#
#
# Elastic Compliance Matrix: (Units=1/GPa)
#
#
# Indices 1 2 3 4 5 6 
#
# 1 0.028484 -0.003868 0.000134 0.000000 -0.011258 0.000000
# 2 -0.003868 0.042750 -0.020010 0.000000 0.016151 0.000000
# 3 0.000134 -0.020010 0.019086 0.000000 -0.015555 0.000000
# 4 0.000000 0.000000 0.000000 0.054150 0.000000 -0.001823
# 5 -0.011258 0.016151 -0.015555 0.000000 0.055095 0.000000
# 6 0.000000 0.000000 0.000000 -0.001823 0.000000 0.049582
#
#
# Mechanical properties :
#
#
# Convention : Reuss Voigt Hill
#
# Bulk Modulus (GPa) = 23.34722 39.93295 31.64009
# Shear Modulus (GPa) = 16.08171 22.25169 19.16670
#
# Velocity S-wave (km/s) = 2.81282 3.30870 3.07078
# Velocity P-wave (km/s) = 4.69422 5.85176 5.30466
#
# Compressibility (1/GPa) = 0.04283165
#
# Stress axis : x y z
#
# Youngs Moduli (GPa) = 35.10777 23.39158 52.39535
#
# Poissons Ratio (x) = 0.09047 -0.00701
# Poissons Ratio (y) = 0.13579 1.04843
# Poissons Ratio (z) = -0.00469 0.46807
#
# Static dielectric constant tensor:
#      x y z
#    x 1.759570 0.000000 0.004400 
#    y 0.000000 1.685260 0.000000 
#    z 0.004400 0.000000 1.704220 
# 
# From -- ./inp_files/131757.got.cif
#   From: 2010.05.17/outbox.cif.g08.bks.cpg/sg12_66_cif.got.tgz:131757.got - 2010.06.03 13:09:07.
