data_PCOD9201123
_publ_section_title
;
Structure prediction by ZEFSAII (Michael W. Deem and Ramdas Pophale) SiO2 
 PCOD9201123
Probable space group: C 2/M
;
_chemical_formula_sum "Si O2"
_cell_formula_units_Z 48
_cell_length_a 14.688375
_cell_length_b 17.554653
_cell_length_c 14.671193
_cell_angle_alpha 90.000000
_cell_angle_beta 148.468733
_cell_angle_gamma 90.000000
_cell_volume 1978.349624
_symmetry_space_group_name_H-M "C 2/M"
_symmetry_group_IT_number 12
_symmetry_cell_setting 'monoclinic'
loop_
_space_group_symop_operation_xyz
x,y,z
-x,y,-z
-x,-y,-z
x,-y,z
1/2+x,1/2+y,z
1/2-x,1/2+y,-z
1/2-x,1/2-y,-z
1/2+x,1/2-y,z
loop_
_atom_site_type_symbol
_atom_site_label
_atom_site_fract_x
_atom_site_fract_y
_atom_site_fract_z
Si Si1 0.680101 0.683704 0.559251
Si Si2 0.448525 0.410288 0.235638
Si Si3 0.678074 0.344930 0.109360
Si Si4 0.469222 0.165664 0.666572
Si Si5 0.219837 0.911250 0.323924
Si Si6 0.321072 0.829445 0.878029
O O1 0.584988 0.612349 0.431214
O O2 0.574606 0.757004 0.429380
O O3 0.874694 0.684513 0.681246
O O4 0.702005 0.676705 0.685583
O O5 0.427890 0.500000 0.210150
O O6 0.536999 0.384286 0.215522
O O7 0.275692 0.370869 0.123272
O O8 0.780704 0.359905 0.292199
O O9 0.638045 0.256956 0.058707
O O10 0.830074 0.360176 0.165860
O O11 0.500000 0.383099 0.000000
O O12 0.358841 0.100357 0.522452
O O13 0.209057 0.000000 0.289861
O O14 0.500000 0.867986 0.000000
#
# Coordination Sequence:
#
# PCOD9201123 Si02
#       6
#     8   8   8   8   8   8
#     4  10  20  37  61  86 115 154 199 243 288 343
#     4  10  22  40  62  88 118 155 199 247 296 346
#     4  11  23  36  57  90 124 158 196 239 292 354
#     4  10  20  37  61  86 115 154 199 243 288 343
#     4  10  22  40  62  88 118 155 199 247 296 346
#     4  11  23  36  57  90 124 158 196 239 292 354
#
# _framework density 24.262647999999999
#
# number of rings (size 3 to 8) (size 9 to 14) (size 15 to 20)
#    0.000    1.667    3.333    1.000    0.000    4.667 
#    0.000    3.333    0.000    4.000    0.000    0.000 
#    0.000    0.000    0.000    0.000    0.000    0.000 
#
# Total GULP energy -133910.145368 kJ/mol
# GULP energy per Si atom -5579.589390 kJ/mol
# Density = 2.420743 g / cm^3
# Si number density = 24.262648 Si / 1000 Ang^3
#
#
#
# Elastic Constant Matrix: (Units=GPa)
#
#
# Indices 1 2 3 4 5 6 
#
# 1 168.2174 32.2574 29.7611 -0.0022 24.9673 -0.0003
# 2 32.2574 77.0787 -7.3809 -0.0023 7.9504 -0.0003
# 3 29.7611 -7.3809 65.6961 -0.0056 43.8910 -0.0006
# 4 -0.0022 -0.0023 -0.0056 16.5393 -0.0007 3.9289
# 5 24.9673 7.9504 43.8910 -0.0007 55.1333 0.0002
# 6 -0.0003 -0.0003 -0.0006 3.9289 0.0002 27.4405
#
#
#
# Elastic Compliance Matrix: (Units=1/GPa)
#
#
# Indices 1 2 3 4 5 6 
#
# 1 0.007242 -0.003430 -0.003857 -0.000001 0.000285 0.000000
# 2 -0.003430 0.015947 0.008211 0.000004 -0.007283 0.000000
# 3 -0.003857 0.008211 0.037415 0.000012 -0.029223 -0.000001
# 4 -0.000001 0.000004 0.000012 0.062591 -0.000009 -0.008962
# 5 0.000285 -0.007283 -0.029223 -0.000009 0.042323 0.000000
# 6 0.000000 0.000000 -0.000001 -0.008962 0.000000 0.037726
#
#
# Mechanical properties :
#
#
# Convention : Reuss Voigt Hill
#
# Bulk Modulus (GPa) = 16.01190 46.69638 31.35414
# Shear Modulus (GPa) = 22.50104 36.91293 29.70698
#
# Velocity S-wave (km/s) = 3.04862 3.90473 3.50293
# Velocity P-wave (km/s) = 4.35957 6.29422 5.41401
#
# Compressibility (1/GPa) = 0.06245357
#
# Stress axis : x y z
#
# Youngs Moduli (GPa) = 138.07646 62.70941 26.72722
#
# Poissons Ratio (x) = 0.21507 0.10308
# Poissons Ratio (y) = 0.47355 -0.21946
# Poissons Ratio (z) = 0.53251 -0.51491
#
# Static dielectric constant tensor:
#      x y z
#    x 1.987770 0.000000 -0.003980 
#    y 0.000000 1.891500 0.000000 
#    z -0.003980 0.000000 2.188980 
# 
# From -- ./inp_files/61694.got.cif
#   From: 2010.05.17/outbox.cif.g08.bks.cpg/sg12_31_cif.got.tgz:61694.got - 2010.06.03 13:09:07.
