data_PCOD9201075
_publ_section_title
;
Structure prediction by ZEFSAII (Michael W. Deem and Ramdas Pophale) SiO2 
 PCOD9201075
Probable space group: C 2/M
;
_chemical_formula_sum "Si O2"
_cell_formula_units_Z 64
_cell_length_a 30.492208
_cell_length_b 7.874115
_cell_length_c 15.108302
_cell_angle_alpha 90.000000
_cell_angle_beta 52.799232
_cell_angle_gamma 90.000000
_cell_volume 2889.375316
_symmetry_space_group_name_H-M "C 2/M"
_symmetry_group_IT_number 12
_symmetry_cell_setting 'monoclinic'
loop_
_space_group_symop_operation_xyz
x,y,z
-x,y,-z
-x,-y,-z
x,-y,z
1/2+x,1/2+y,z
1/2-x,1/2+y,-z
1/2-x,1/2-y,-z
1/2+x,1/2-y,z
loop_
_atom_site_type_symbol
_atom_site_label
_atom_site_fract_x
_atom_site_fract_y
_atom_site_fract_z
Si Si1 0.054562 0.200790 0.383336
Si Si2 0.810113 0.809825 0.956359
Si Si3 0.611956 0.207512 0.624451
Si Si4 0.891018 0.696875 0.004540
Si Si5 0.333302 0.806572 0.744291
Si Si6 0.014673 0.293898 0.238430
Si Si7 0.662503 0.205018 0.749161
Si Si8 0.712526 0.204308 0.376984
O O1 0.104830 0.300846 0.366052
O O2 0.043599 0.240211 0.294016
O O3 0.000000 0.253517 0.500000
O O4 0.062965 0.000000 0.385910
O O5 0.838758 0.800618 0.826289
O O6 0.808252 0.000000 0.993335
O O7 0.750000 0.750000 0.000000
O O8 0.843115 0.704858 0.988545
O O9 0.549081 0.263266 0.684057
O O10 0.630243 0.258792 0.700813
O O11 0.660877 0.265691 0.498645
O O12 0.611825 0.000000 0.621083
O O13 0.903451 0.500000 0.008315
O O14 0.866339 0.770887 0.125543
O O15 0.946181 0.768241 0.890283
O O16 0.293737 0.736164 0.717193
O O17 0.318190 0.000000 0.786174
O O18 0.014845 0.500000 0.234856
O O19 0.726770 0.253157 0.663740
O O20 0.661377 0.000000 0.753783
O O21 0.707768 0.000000 0.378535
#
# Coordination Sequence:
#
# PCOD9201075 Si02
#       8
#     8   8   8   8   8   8   8   8
#     4  11  23  37  55  84 120 155 194 239 289 348
#     4  12  24  38  58  83 117 156 194 241 291 348
#     4   9  19  37  60  87 115 151 197 247 296 348
#     4  10  21  37  58  87 118 153 197 243 292 356
#     4  11  22  37  58  85 115 152 196 237 288 350
#     4  10  20  37  61  84 115 156 199 243 293 353
#     4  10  21  37  59  86 118 152 194 246 299 349
#     4  10  21  37  58  85 117 151 197 245 293 354
#
# _framework density 22.150117000000002
#
# number of rings (size 3 to 8) (size 9 to 14) (size 15 to 20)
#    0.000    1.625    1.250    3.750    0.000    6.000 
#    0.000    3.750    0.000    0.000    0.000    2.625 
#    0.000    0.000    0.000    0.000    0.000    0.000 
#
# Total GULP energy -178695.619945 kJ/mol
# GULP energy per Si atom -5584.238123 kJ/mol
# Density = 2.209970 g / cm^3
# Si number density = 22.150117 Si / 1000 Ang^3
#
#
#
# Elastic Constant Matrix: (Units=GPa)
#
#
# Indices 1 2 3 4 5 6 
#
# 1 110.0063 -5.1565 23.5795 0.0000 -9.4550 0.0000
# 2 -5.1565 28.8306 2.0213 0.0000 -1.9731 0.0004
# 3 23.5795 2.0213 105.3687 0.0000 -10.4846 0.0000
# 4 0.0000 0.0000 0.0000 16.6945 0.0000 -9.1893
# 5 -9.4550 -1.9731 -10.4846 0.0000 41.0857 0.0000
# 6 0.0000 0.0004 0.0000 -9.1893 0.0000 2.0087
#
#
#
# Elastic Compliance Matrix: (Units=1/GPa)
#
#
# Indices 1 2 3 4 5 6 
#
# 1 0.009780 0.002018 -0.002046 0.000000 0.001826 0.000000
# 2 0.002018 0.035243 -0.000937 0.000003 0.001918 0.000005
# 3 -0.002046 -0.000937 0.010173 0.000000 0.002080 0.000000
# 4 0.000000 0.000003 0.000000 -0.039458 0.000000 -0.180507
# 5 0.001826 0.001918 0.002080 0.000000 0.025382 0.000000
# 6 0.000000 0.000005 0.000000 -0.180507 0.000000 -0.327933
#
#
# Mechanical properties :
#
#
# Convention : Reuss Voigt Hill
#
# Bulk Modulus (GPa) = 18.77330 31.67712 25.22521
# Shear Modulus (GPa) = -18.71773 26.87523 4.07875
#
# Velocity S-wave (km/s) = -2.91011 3.48706 1.35846
# Velocity P-wave (km/s) = 1.67265 5.52674 3.72472
#
# Compressibility (1/GPa) = 0.05326715
#
# Stress axis : x y z
#
# Youngs Moduli (GPa) = 102.24564 28.37429 98.29706
#
# Poissons Ratio (x) = -0.05725 0.20109
# Poissons Ratio (y) = -0.20630 0.09208
# Poissons Ratio (z) = 0.20917 0.02658
#
# Static dielectric constant tensor:
#      x y z
#    x 1.806200 0.000000 -0.065580 
#    y 0.000000 1.805840 0.000000 
#    z -0.065580 0.000000 2.059770 
# 
# From -- ./inp_files/249748.got.cif
#   From: 2010.05.17/outbox.cif.g08.bks.cpg/sg12_125_cif.got.tgz:249748.got - 2010.06.03 13:09:07.
