data_PCOD9201931
_publ_section_title
;
Structure prediction by ZEFSAII (Michael W. Deem and Ramdas Pophale) SiO2 
 PCOD9201931
Probable space group: C 2/M
;
_chemical_formula_sum "Si O2"
_cell_formula_units_Z 58
_cell_length_a 21.300534
_cell_length_b 26.545142
_cell_length_c 15.096007
_cell_angle_alpha 90.000000
_cell_angle_beta 162.055144
_cell_angle_gamma 90.000000
_cell_volume 2629.852935
_symmetry_space_group_name_H-M "C 2/M"
_symmetry_group_IT_number 12
_symmetry_cell_setting 'monoclinic'
loop_
_space_group_symop_operation_xyz
x,y,z
-x,y,-z
-x,-y,-z
x,-y,z
1/2+x,1/2+y,z
1/2-x,1/2+y,-z
1/2-x,1/2-y,-z
1/2+x,1/2-y,z
loop_
_atom_site_type_symbol
_atom_site_label
_atom_site_fract_x
_atom_site_fract_y
_atom_site_fract_z
Si Si1 0.000000 0.500000 0.500000
Si Si2 0.300398 0.559977 0.296564
Si Si3 0.458076 0.916102 0.324966
Si Si4 0.747654 0.814737 0.898500
Si Si5 0.988402 0.368562 0.783216
Si Si6 0.494074 0.556456 0.242130
Si Si7 0.357414 0.700130 0.229802
Si Si8 0.964578 0.141785 0.846890
O O1 0.908310 0.454651 0.440266
O O2 0.500000 0.567515 0.500000
O O3 0.248591 0.500000 0.219288
O O4 0.367775 0.570189 0.488113
O O5 0.113977 0.596977 0.021073
O O6 0.536258 0.906726 0.332534
O O7 0.407676 0.860752 0.295201
O O8 0.237053 0.943011 0.030005
O O9 0.902171 0.818378 0.190328
O O10 0.869435 0.820002 0.971175
O O11 0.646720 0.760493 0.773752
O O12 0.765211 0.344929 0.491348
O O13 0.138594 0.323519 0.957447
O O14 0.545525 0.500000 0.284476
O O15 0.501594 0.592425 0.168264
O O16 0.500000 0.682182 0.500000
O O17 0.000000 0.136813 0.000000
#
# Coordination Sequence:
#
# PCOD9201931 Si02
#       8
#     2   8   8   8   8   8   8   8
#     4  12  24  32  64 100 128 176 248 286 328 388
#     4  10  20  37  67  95 130 167 216 291 344 384
#     4  10  22  37  62  94 126 170 227 289 327 383
#     4   9  23  45  65  96 132 173 223 270 338 398
#     4  11  24  39  63 101 132 168 224 271 340 412
#     4  10  21  42  61  90 127 178 228 273 334 390
#     4  10  22  43  76 103 124 167 223 287 335 391
#     4  11  27  44  62  89 140 187 212 269 336 406
#
# _framework density 22.054465
#
# number of rings (size 3 to 8) (size 9 to 14) (size 15 to 20)
#    0.000    1.793    2.069    0.414    9.655    4.138 
#    0.000    1.379    0.000    0.000    0.000    0.000 
#    0.000    0.000    0.000    0.000    0.000    0.000 
#
# Total GULP energy -161558.651245 kJ/mol
# GULP energy per Si atom -5570.987974 kJ/mol
# Density = 2.200427 g / cm^3
# Si number density = 22.054465 Si / 1000 Ang^3
#
#
#
# Elastic Constant Matrix: (Units=GPa)
#
#
# Indices 1 2 3 4 5 6 
#
# 1 86.6075 10.4852 15.4971 0.0000 -21.8302 0.0000
# 2 10.4852 123.5226 5.7174 0.0001 -10.8448 0.0001
# 3 15.4971 5.7174 88.8186 0.0000 -10.9051 0.0001
# 4 0.0000 0.0001 0.0000 18.3729 0.0000 -0.4225
# 5 -21.8302 -10.8448 -10.9051 0.0000 34.6352 0.0000
# 6 0.0000 0.0001 0.0001 -0.4225 0.0000 14.4826
#
#
#
# Elastic Compliance Matrix: (Units=1/GPa)
#
#
# Indices 1 2 3 4 5 6 
#
# 1 0.013912 -0.000396 -0.001394 0.000000 0.008206 0.000000
# 2 -0.000396 0.008340 -0.000185 0.000000 0.002304 0.000000
# 3 -0.001394 -0.000185 0.011857 0.000000 0.002797 0.000000
# 4 0.000000 0.000000 0.000000 0.054464 0.000000 0.001589
# 5 0.008206 0.002304 0.002797 0.000000 0.035646 0.000000
# 6 0.000000 0.000000 0.000000 0.001589 0.000000 0.069095
#
#
# Mechanical properties :
#
#
# Convention : Reuss Voigt Hill
#
# Bulk Modulus (GPa) = 33.15759 40.26090 36.70924
# Shear Modulus (GPa) = 24.11747 31.31475 27.71611
#
# Velocity S-wave (km/s) = 3.31046 3.77222 3.54886
# Velocity P-wave (km/s) = 5.44787 6.10473 5.78563
#
# Compressibility (1/GPa) = 0.03015901
#
# Stress axis : x y z
#
# Youngs Moduli (GPa) = 71.87990 119.90261 84.33500
#
# Poissons Ratio (x) = 0.04748 0.11760
# Poissons Ratio (y) = 0.02846 0.01560
# Poissons Ratio (z) = 0.10023 0.02218
#
# Static dielectric constant tensor:
#      x y z
#    x 1.876310 0.000000 -0.047390 
#    y 0.000000 1.828510 0.000000 
#    z -0.047390 0.000000 1.953060 
# 
# From -- ./inp_files/235850.got.cif
#   From: 2010.05.17/outbox.cif.g08.bks.cpg/sg12_118_cif.got.tgz:235850.got - 2010.06.03 13:09:07.
