data_PCOD9201113
_publ_section_title
;
Structure prediction by ZEFSAII (Michael W. Deem and Ramdas Pophale) SiO2 
 PCOD9201113
Probable space group: C 2/M
;
_chemical_formula_sum "Si O2"
_cell_formula_units_Z 56
_cell_length_a 15.427970
_cell_length_b 7.421664
_cell_length_c 28.689645
_cell_angle_alpha 90.000000
_cell_angle_beta 40.896120
_cell_angle_gamma 90.000000
_cell_volume 2150.654804
_symmetry_space_group_name_H-M "C 2/M"
_symmetry_group_IT_number 12
_symmetry_cell_setting 'monoclinic'
loop_
_space_group_symop_operation_xyz
x,y,z
-x,y,-z
-x,-y,-z
x,-y,z
1/2+x,1/2+y,z
1/2-x,1/2+y,-z
1/2-x,1/2-y,-z
1/2+x,1/2-y,z
loop_
_atom_site_type_symbol
_atom_site_label
_atom_site_fract_x
_atom_site_fract_y
_atom_site_fract_z
Si Si1 0.205892 0.286503 0.900666
Si Si2 0.651869 0.283473 0.336613
Si Si3 0.068133 0.286199 0.044005
Si Si4 0.605844 0.296251 0.602721
Si Si5 0.351877 0.785925 0.556752
Si Si6 0.476004 0.204734 0.749938
Si Si7 0.421331 0.221065 0.192300
O O1 0.232651 0.500000 0.892648
O O2 0.067975 0.267405 0.929667
O O3 0.320367 0.203885 0.823261
O O4 0.181933 0.214737 0.963122
O O5 0.643147 0.500000 0.336539
O O6 0.503855 0.210834 0.386811
O O7 0.697903 0.239623 0.370150
O O8 0.766625 0.224812 0.254043
O O9 0.095180 0.500000 0.038053
O O10 0.024102 0.212837 0.111793
O O11 0.631950 0.500000 0.576205
O O12 0.747126 0.215574 0.561124
O O13 0.524149 0.303934 0.684593
O O14 0.500000 0.709067 0.500000
O O15 0.360960 0.000000 0.544668
O O16 0.023934 0.500000 0.724622
O O17 0.530335 0.276966 0.776602
O O18 0.423030 0.000000 0.189150
#
# Coordination Sequence:
#
# PCOD9201113 Si02
#       7
#     8   8   8   8   8   8   8
#     4   9  17  31  52  74  98 136 187 234 278 333
#     4  10  20  37  61  86 111 149 196 233 269 327
#     4   8  15  30  51  72  97 137 187 232 274 331
#     4  10  21  38  61  84 111 151 195 230 271 336
#     4  10  22  40  60  87 123 152 178 226 286 334
#     4  11  21  32  50  77 110 144 181 233 291 332
#     4   9  17  30  49  74 105 138 179 232 279 319
#
# _framework density 26.038581000000001
#
# number of rings (size 3 to 8) (size 9 to 14) (size 15 to 20)
#    0.000    2.429    1.429    2.143    0.000    4.286 
#    0.000    1.429    0.000    2.571    0.000    0.000 
#    0.000    0.000    0.000    0.000    0.000    0.000 
#
# Total GULP energy -156447.884992 kJ/mol
# GULP energy per Si atom -5587.424464 kJ/mol
# Density = 2.597932 g / cm^3
# Si number density = 26.038581 Si / 1000 Ang^3
#
#
#
# Elastic Constant Matrix: (Units=GPa)
#
#
# Indices 1 2 3 4 5 6 
#
# 1 100.6023 14.8557 0.4605 -0.0014 -11.4955 -0.0057
# 2 14.8557 87.4969 10.7385 -0.0071 -0.3534 -0.0122
# 3 0.4605 10.7385 97.0016 -0.0004 7.7505 0.0000
# 4 -0.0014 -0.0071 -0.0004 3.9020 0.0002 3.1946
# 5 -11.4955 -0.3534 7.7505 0.0002 43.9973 -0.0008
# 6 -0.0057 -0.0122 0.0000 3.1946 -0.0008 0.5772
#
#
#
# Elastic Compliance Matrix: (Units=1/GPa)
#
#
# Indices 1 2 3 4 5 6 
#
# 1 0.010515 -0.001765 -0.000074 0.000016 0.002746 -0.000020
# 2 -0.001765 0.011887 -0.001297 0.000048 -0.000137 -0.000033
# 3 -0.000074 -0.001297 0.010605 -0.000007 -0.001898 0.000007
# 4 0.000016 0.000048 -0.000007 -0.072573 0.000014 0.401677
# 5 0.002746 -0.000137 -0.001898 0.000014 0.023779 -0.000018
# 6 -0.000020 -0.000033 0.000007 0.401677 -0.000018 -0.490627
#
#
# Mechanical properties :
#
#
# Convention : Reuss Voigt Hill
#
# Bulk Modulus (GPa) = 37.40350 37.46779 37.43565
# Shear Modulus (GPa) = -10.17852 26.96503 8.39325
#
# Velocity S-wave (km/s) = -1.97927 3.22153 1.79733
# Velocity P-wave (km/s) = 3.02861 5.31585 4.32613
#
# Compressibility (1/GPa) = 0.02673547
#
# Stress axis : x y z
#
# Youngs Moduli (GPa) = 95.10301 84.12376 94.29839
#
# Poissons Ratio (x) = 0.14849 0.00697
# Poissons Ratio (y) = 0.16787 0.12227
# Poissons Ratio (z) = 0.00703 0.10908
#
# Static dielectric constant tensor:
#      x y z
#    x 2.071350 0.000000 -0.030150 
#    y 0.000000 2.002310 0.000000 
#    z -0.030150 0.000000 2.102970 
# 
# From -- ./inp_files/304166.got.cif
#   From: 2010.05.17/outbox.cif.g08.bks.cpg/sg12_153_cif.got.tgz:304166.got - 2010.06.03 13:09:07.
