data_PCOD9201872
_publ_section_title
;
Structure prediction by ZEFSAII (Michael W. Deem and Ramdas Pophale) SiO2 
 PCOD9201872
Probable space group: C 2/M
;
_chemical_formula_sum "Si O2"
_cell_formula_units_Z 52
_cell_length_a 23.313123
_cell_length_b 20.263800
_cell_length_c 13.581603
_cell_angle_alpha 90.000000
_cell_angle_beta 159.383627
_cell_angle_gamma 90.000000
_cell_volume 2259.173874
_symmetry_space_group_name_H-M "C 2/M"
_symmetry_group_IT_number 12
_symmetry_cell_setting 'monoclinic'
loop_
_space_group_symop_operation_xyz
x,y,z
-x,y,-z
-x,-y,-z
x,-y,z
1/2+x,1/2+y,z
1/2-x,1/2+y,-z
1/2-x,1/2-y,-z
1/2+x,1/2-y,z
loop_
_atom_site_type_symbol
_atom_site_label
_atom_site_fract_x
_atom_site_fract_y
_atom_site_fract_z
Si Si1 0.316707 0.423746 0.165736
Si Si2 0.682642 0.772384 0.613566
Si Si3 0.500000 0.226799 0.000000
Si Si4 0.883398 0.827088 0.094895
Si Si5 0.147234 0.630394 0.398989
Si Si6 0.821147 0.573541 0.858473
Si Si7 0.907897 0.921425 0.691941
O O1 0.500000 0.428796 0.500000
O O2 0.264235 0.500000 0.055579
O O3 0.321023 0.373323 0.082472
O O4 0.222827 0.393466 0.109100
O O5 0.846440 0.758086 0.811479
O O6 0.539976 0.718331 0.373532
O O7 0.625524 0.840669 0.472222
O O8 0.743682 0.782451 0.822281
O O9 0.409185 0.187633 0.766655
O O10 0.942943 0.878087 0.105453
O O11 0.325013 0.604098 0.658260
O O12 0.013851 0.575225 0.159403
O O13 0.758073 0.500000 0.771558
O O14 0.729814 0.594888 0.613510
O O15 0.936937 0.000000 0.740750
#
# Coordination Sequence:
#
# PCOD9201872 Si02
#       7
#     8   8   4   8   8   8   8
#     4  10  21  41  70  95 123 165 217 272 321 379
#     4  12  26  41  65  92 134 181 213 257 325 378
#     4  12  20  40  61  90 129 172 214 252 304 388
#     4  12  24  44  65  96 127 174 220 264 317 389
#     4  12  21  38  63  95 134 164 212 264 318 385
#     4  10  20  37  65  96 125 163 209 265 323 377
#     4  11  21  37  67  99 127 164 212 267 315 380
#
# _framework density 23.017263
#
# number of rings (size 3 to 8) (size 9 to 14) (size 15 to 20)
#    0.000    0.769    6.154    2.308    0.000    1.231 
#    0.000    7.692    0.000    1.846    0.000    0.000 
#    0.000    0.000    0.000    0.000    0.000    0.000 
#
# Total GULP energy -145181.476025 kJ/mol
# GULP energy per Si atom -5583.902924 kJ/mol
# Density = 2.296487 g / cm^3
# Si number density = 23.017263 Si / 1000 Ang^3
#
#
#
# Elastic Constant Matrix: (Units=GPa)
#
#
# Indices 1 2 3 4 5 6 
#
# 1 72.4606 16.1738 4.7344 0.0000 -8.5319 0.0000
# 2 16.1738 80.3746 27.9562 0.0000 -21.5616 0.0000
# 3 4.7344 27.9562 67.6481 0.0000 -16.2848 0.0000
# 4 0.0000 0.0000 0.0000 21.1255 0.0000 -13.9792
# 5 -8.5319 -21.5616 -16.2848 0.0000 23.9561 0.0000
# 6 0.0000 0.0000 0.0000 -13.9792 0.0000 44.0458
#
#
#
# Elastic Compliance Matrix: (Units=1/GPa)
#
#
# Indices 1 2 3 4 5 6 
#
# 1 0.014689 -0.002221 0.000799 0.000000 0.003775 0.000000
# 2 -0.002221 0.017624 -0.004185 0.000000 0.012227 0.000000
# 3 0.000799 -0.004185 0.018673 0.000000 0.009212 0.000000
# 4 0.000000 0.000000 0.000000 0.059920 0.000000 0.019017
# 5 0.003775 0.012227 0.009212 0.000000 0.060355 0.000000
# 6 0.000000 0.000000 0.000000 0.019017 0.000000 0.028739
#
#
# Mechanical properties :
#
#
# Convention : Reuss Voigt Hill
#
# Bulk Modulus (GPa) = 25.14282 35.35689 30.24985
# Shear Modulus (GPa) = 22.27453 29.26674 25.77063
#
# Velocity S-wave (km/s) = 3.11421 3.56970 3.34971
# Velocity P-wave (km/s) = 4.88654 5.69075 5.30391
#
# Compressibility (1/GPa) = 0.03977278
#
# Stress axis : x y z
#
# Youngs Moduli (GPa) = 68.07972 56.74012 53.55231
#
# Poissons Ratio (x) = 0.12601 -0.04277
# Poissons Ratio (y) = 0.15119 0.22409
# Poissons Ratio (z) = -0.05437 0.23743
#
# Static dielectric constant tensor:
#      x y z
#    x 1.914490 0.000000 0.013900 
#    y 0.000000 1.912800 0.000000 
#    z 0.013900 0.000000 1.910890 
# 
# From -- ./inp_files/247220.got.cif
#   From: 2010.05.17/outbox.cif.g08.bks.cpg/sg12_124_cif.got.tgz:247220.got - 2010.06.03 13:09:07.
