data_PCOD9201580
_publ_section_title
;
Structure prediction by ZEFSAII (Michael W. Deem and Ramdas Pophale) SiO2 
 PCOD9201580
Probable space group: C 2/M
;
_chemical_formula_sum "Si O2"
_cell_formula_units_Z 64
_cell_length_a 16.425040
_cell_length_b 29.550455
_cell_length_c 8.613959
_cell_angle_alpha 90.000000
_cell_angle_beta 139.249413
_cell_angle_gamma 90.000000
_cell_volume 2729.178499
_symmetry_space_group_name_H-M "C 2/M"
_symmetry_group_IT_number 12
_symmetry_cell_setting 'monoclinic'
loop_
_space_group_symop_operation_xyz
x,y,z
-x,y,-z
-x,-y,-z
x,-y,z
1/2+x,1/2+y,z
1/2-x,1/2+y,-z
1/2-x,1/2-y,-z
1/2+x,1/2-y,z
loop_
_atom_site_type_symbol
_atom_site_label
_atom_site_fract_x
_atom_site_fract_y
_atom_site_fract_z
Si Si1 0.552992 0.597604 0.744113
Si Si2 0.885152 0.805351 0.214327
Si Si3 0.697109 0.758270 0.159864
Si Si4 0.125167 0.879327 0.256017
Si Si5 0.790239 0.548744 0.022096
Si Si6 0.689258 0.050417 0.595295
Si Si7 0.018674 0.381164 0.715044
Si Si8 0.847169 0.307364 0.589297
O O1 0.500000 0.605948 0.500000
O O2 0.624292 0.645111 0.876926
O O3 0.434330 0.594858 0.683650
O O4 0.645851 0.556291 0.853442
O O5 0.764735 0.793772 0.143829
O O6 0.000000 0.801194 0.500000
O O7 0.892405 0.770316 0.082094
O O8 0.803135 0.724278 0.382972
O O9 0.642412 0.780043 0.236154
O O10 0.188419 0.918346 0.243418
O O11 0.230205 0.842389 0.441735
O O12 0.000000 0.858807 0.000000
O O13 0.811966 0.500000 0.974712
O O14 0.846579 0.545988 0.276257
O O15 0.850878 0.595316 0.049026
O O16 0.578416 0.080187 0.367126
O O17 0.705119 0.000000 0.554450
O O18 0.970514 0.335482 0.724559
O O19 0.000000 0.374354 0.500000
#
# Coordination Sequence:
#
# PCOD9201580 Si02
#       8
#     8   8   8   8   8   8   8   8
#     4  11  23  39  63  89 126 169 211 266 326 392
#     4  10  22  42  65  89 126 171 216 266 334 391
#     4  10  22  40  65  94 127 163 218 281 324 396
#     4  11  20  35  62  90 124 170 203 258 328 392
#     4  10  20  37  62  94 129 170 220 266 317 387
#     4   9  18  33  57  93 126 161 211 262 312 379
#     4   9  19  34  60  95 132 175 212 264 320 394
#     4  10  21  38  62  97 134 165 216 270 343 393
#
# _framework density 23.450279999999999
#
# number of rings (size 3 to 8) (size 9 to 14) (size 15 to 20)
#    0.000    2.000    1.250    2.625    3.500    3.000 
#    2.250    1.875    2.750    2.250    0.000    8.750 
#    0.000    0.000    0.000    0.000    0.000    1.125 
#
# Total GULP energy -178565.344970 kJ/mol
# GULP energy per Si atom -5580.167030 kJ/mol
# Density = 2.339691 g / cm^3
# Si number density = 23.450280 Si / 1000 Ang^3
#
#
#
# Elastic Constant Matrix: (Units=GPa)
#
#
# Indices 1 2 3 4 5 6 
#
# 1 78.0054 35.9641 21.5552 0.0000 6.6597 0.0000
# 2 35.9641 119.1268 20.0680 0.0000 0.2152 0.0000
# 3 21.5552 20.0680 47.2781 0.0000 -3.6206 0.0000
# 4 0.0000 0.0000 0.0000 10.9392 0.0000 5.9804
# 5 6.6597 0.2152 -3.6206 0.0000 31.8699 0.0000
# 6 0.0000 0.0000 0.0000 5.9804 0.0000 33.2689
#
#
#
# Elastic Compliance Matrix: (Units=1/GPa)
#
#
# Indices 1 2 3 4 5 6 
#
# 1 0.016748 -0.003994 -0.006261 0.000000 -0.004184 0.000000
# 2 -0.003994 0.010001 -0.002386 0.000000 0.000496 0.000000
# 3 -0.006261 -0.002386 0.025341 0.000000 0.004203 0.000000
# 4 0.000000 0.000000 0.000000 0.101377 0.000000 -0.018223
# 5 -0.004184 0.000496 0.004203 0.000000 0.032726 0.000000
# 6 0.000000 0.000000 0.000000 -0.018223 0.000000 0.033334
#
#
# Mechanical properties :
#
#
# Convention : Reuss Voigt Hill
#
# Bulk Modulus (GPa) = 37.30262 44.39833 40.85047
# Shear Modulus (GPa) = 19.70471 26.33712 23.02091
#
# Velocity S-wave (km/s) = 2.90190 3.35491 3.13659
# Velocity P-wave (km/s) = 5.21245 5.82935 5.52951
#
# Compressibility (1/GPa) = 0.02680777
#
# Stress axis : x y z
#
# Youngs Moduli (GPa) = 59.70717 99.98712 39.46199
#
# Poissons Ratio (x) = 0.39935 0.24708
# Poissons Ratio (y) = 0.23847 0.09417
# Poissons Ratio (z) = 0.37383 0.23860
#
# Static dielectric constant tensor:
#      x y z
#    x 1.984680 0.000000 0.098390 
#    y 0.000000 1.957250 0.000000 
#    z 0.098390 0.000000 2.005560 
# 
# From -- ./inp_files/68639.got.cif
#   From: 2010.05.17/outbox.cif.g08.bks.cpg/sg12_35_cif.got.tgz:68639.got - 2010.06.03 13:09:07.
