data_PCOD9201768
_publ_section_title
;
Structure prediction by ZEFSAII (Michael W. Deem and Ramdas Pophale) SiO2 
 PCOD9201768
Probable space group: C 2/M
;
_chemical_formula_sum "Si O2"
_cell_formula_units_Z 48
_cell_length_a 23.642947
_cell_length_b 15.592636
_cell_length_c 14.048402
_cell_angle_alpha 90.000000
_cell_angle_beta 20.099420
_cell_angle_gamma 90.000000
_cell_volume 1779.773195
_symmetry_space_group_name_H-M "C 2/M"
_symmetry_group_IT_number 12
_symmetry_cell_setting 'monoclinic'
loop_
_space_group_symop_operation_xyz
x,y,z
-x,y,-z
-x,-y,-z
x,-y,z
1/2+x,1/2+y,z
1/2-x,1/2+y,-z
1/2-x,1/2-y,-z
1/2+x,1/2-y,z
loop_
_atom_site_type_symbol
_atom_site_label
_atom_site_fract_x
_atom_site_fract_y
_atom_site_fract_z
Si Si1 0.724045 0.092467 0.680660
Si Si2 0.852668 0.900902 0.166802
Si Si3 0.964483 0.145437 0.457323
Si Si4 0.056724 0.398073 0.518381
Si Si5 0.352984 0.763112 0.962639
Si Si6 0.582964 0.837761 0.734678
O O1 0.876677 0.098922 0.509205
O O2 0.693427 0.170223 0.655393
O O3 0.730337 0.000000 0.621633
O O4 0.564682 0.100533 0.998741
O O5 0.751382 0.874908 0.230538
O O6 0.699844 0.886570 0.478358
O O7 0.900055 0.000000 0.075216
O O8 0.000000 0.863014 0.000000
O O9 0.000000 0.097933 0.500000
O O10 0.117089 0.191604 0.164933
O O11 0.825985 0.213564 0.713656
O O12 0.044129 0.500000 0.556191
O O13 0.000000 0.383144 0.500000
O O14 0.932540 0.346605 0.782931
O O15 0.485181 0.759045 0.841662
#
# Coordination Sequence:
#
# PCOD9201768 Si02
#       6
#     8   8   8   8   8   8
#     4  10  20  37  64  91 121 157 202 254 309 371
#     4   9  16  28  48  79 116 149 188 236 293 357
#     4  11  24  42  62  90 122 168 209 255 307 364
#     4   9  18  35  60  89 119 158 206 256 312 375
#     4  10  22  41  66  87 121 163 211 254 307 369
#     4   9  18  36  61  87 112 155 199 243 304 369
#
# _framework density 26.969728
#
# number of rings (size 3 to 8) (size 9 to 14) (size 15 to 20)
#    0.000    2.333    0.000    3.000    0.000    5.667 
#    9.000    0.000    3.667    0.000    0.000    0.000 
#    0.000    0.000    0.000    0.000    0.000    0.000 
#
# Total GULP energy -134003.543117 kJ/mol
# GULP energy per Si atom -5583.480963 kJ/mol
# Density = 2.690834 g / cm^3
# Si number density = 26.969728 Si / 1000 Ang^3
#
#
#
# Elastic Constant Matrix: (Units=GPa)
#
#
# Indices 1 2 3 4 5 6 
#
# 1 182.0022 16.1206 27.4825 -0.0003 -39.7758 0.0001
# 2 16.1206 51.7341 12.9447 -0.0006 -19.0469 -0.0003
# 3 27.4825 12.9447 130.7070 0.0008 -6.5827 -0.0007
# 4 -0.0003 -0.0006 0.0008 5.2964 -0.0004 -10.3515
# 5 -39.7758 -19.0469 -6.5827 -0.0004 57.4225 0.0004
# 6 0.0001 -0.0003 -0.0007 -10.3515 0.0004 32.2002
#
#
#
# Elastic Compliance Matrix: (Units=1/GPa)
#
#
# Indices 1 2 3 4 5 6 
#
# 1 0.006650 -0.000154 -0.001160 0.000002 0.004422 0.000000
# 2 -0.000154 0.022463 -0.001833 0.000009 0.007134 0.000003
# 3 -0.001160 -0.001833 0.008052 -0.000003 -0.000489 -0.000001
# 4 0.000002 0.000009 -0.000003 0.507955 0.000006 0.163294
# 5 0.004422 0.007134 -0.000489 0.000006 0.022788 0.000002
# 6 0.000000 0.000003 -0.000001 0.163294 0.000002 0.083550
#
#
# Mechanical properties :
#
#
# Convention : Reuss Voigt Hill
#
# Bulk Modulus (GPa) = 32.39372 53.05989 42.72680
# Shear Modulus (GPa) = 7.48456 39.51020 23.49738
#
# Velocity S-wave (km/s) = 1.66769 3.83166 2.95490
# Velocity P-wave (km/s) = 3.96806 6.26834 5.24584
#
# Compressibility (1/GPa) = 0.03087018
#
# Stress axis : x y z
#
# Youngs Moduli (GPa) = 150.38291 44.51818 124.19933
#
# Poissons Ratio (x) = 0.00684 0.14410
# Poissons Ratio (y) = 0.02311 0.22766
# Poissons Ratio (z) = 0.17448 0.08160
#
# Static dielectric constant tensor:
#      x y z
#    x 2.333510 0.000000 -0.058070 
#    y 0.000000 2.093450 0.000000 
#    z -0.058070 0.000000 2.047850 
# 
# From -- ./inp_files/241824.got.cif
#   From: 2010.05.17/outbox.cif.g08.bks.cpg/sg12_121_cif.got.tgz:241824.got - 2010.06.03 13:09:07.
