data_PCOD9201436
_publ_section_title
;
Structure prediction by ZEFSAII (Michael W. Deem and Ramdas Pophale) SiO2 
 PCOD9201436
Probable space group: C 2/M
;
_chemical_formula_sum "Si O2"
_cell_formula_units_Z 40
_cell_length_a 23.221560
_cell_length_b 10.999435
_cell_length_c 11.699260
_cell_angle_alpha 90.000000
_cell_angle_beta 42.458743
_cell_angle_gamma 90.000000
_cell_volume 2017.260499
_symmetry_space_group_name_H-M "C 2/M"
_symmetry_group_IT_number 12
_symmetry_cell_setting 'monoclinic'
loop_
_space_group_symop_operation_xyz
x,y,z
-x,y,-z
-x,-y,-z
x,-y,z
1/2+x,1/2+y,z
1/2-x,1/2+y,-z
1/2-x,1/2-y,-z
1/2+x,1/2-y,z
loop_
_atom_site_type_symbol
_atom_site_label
_atom_site_fract_x
_atom_site_fract_y
_atom_site_fract_z
Si Si1 0.901128 0.853329 0.641241
Si Si2 0.039786 0.865018 0.814676
Si Si3 0.661121 0.131294 0.631717
Si Si4 0.361650 0.641988 0.951352
Si Si5 0.260568 0.744384 0.683342
O O1 0.857833 0.818591 0.825315
O O2 0.846698 0.799780 0.617687
O O3 0.000000 0.814877 0.500000
O O4 0.900125 0.000000 0.635010
O O5 0.100684 0.749372 0.717677
O O6 0.960561 0.852404 0.844616
O O7 0.079212 0.000000 0.738577
O O8 0.000000 0.865255 0.000000
O O9 0.718702 0.146248 0.434369
O O10 0.718119 0.145774 0.661674
O O11 0.617556 0.000000 0.695519
O O12 0.336280 0.500000 0.995775
O O13 0.305250 0.717045 0.122308
#
# Coordination Sequence:
#
# PCOD9201436 Si02
#       5
#     8   8   8   8   8
#     4  10  21  38  61  86 114 152 203 255 300 353
#     4  10  20  38  63  89 118 158 202 243 293 359
#     4  11  24  38  59  90 126 163 199 249 302 353
#     4  10  20  37  62  89 116 154 201 247 296 359
#     4  11  22  38  58  85 122 160 202 246 299 361
#
# _framework density 19.828872
#
# number of rings (size 3 to 8) (size 9 to 14) (size 15 to 20)
#    0.000    1.600    2.000    3.000    0.000    6.000 
#    0.000    0.000    0.000   13.200    0.000    0.000 
#    0.000    0.000    0.000    0.000    0.000    0.000 
#
# Total GULP energy -111710.710841 kJ/mol
# GULP energy per Si atom -5585.535542 kJ/mol
# Density = 1.978374 g / cm^3
# Si number density = 19.828872 Si / 1000 Ang^3
#
#
#
# Elastic Constant Matrix: (Units=GPa)
#
#
# Indices 1 2 3 4 5 6 
#
# 1 128.6602 36.5705 43.4731 0.0000 13.2427 0.0000
# 2 36.5705 115.8618 47.7017 0.0000 -6.1093 0.0000
# 3 43.4731 47.7017 95.3389 0.0000 10.4001 0.0000
# 4 0.0000 0.0000 0.0000 8.7446 0.0000 -11.2177
# 5 13.2427 -6.1093 10.4001 0.0000 35.0358 0.0000
# 6 0.0000 0.0000 0.0000 -11.2177 0.0000 9.1895
#
#
#
# Elastic Compliance Matrix: (Units=1/GPa)
#
#
# Indices 1 2 3 4 5 6 
#
# 1 0.009693 -0.001940 -0.003113 0.000000 -0.003078 0.000000
# 2 -0.001940 0.011724 -0.005461 0.000000 0.004399 0.000000
# 3 -0.003113 -0.005461 0.015106 0.000000 -0.004259 0.000000
# 4 0.000000 0.000000 0.000000 -0.202063 0.000000 -0.246660
# 5 -0.003078 0.004399 -0.004259 0.000000 0.031737 0.000000
# 6 0.000000 0.000000 0.000000 -0.246660 0.000000 -0.192280
#
#
# Mechanical properties :
#
#
# Convention : Reuss Voigt Hill
#
# Bulk Modulus (GPa) = 64.54435 66.15016 65.34725
# Shear Modulus (GPa) = -16.67270 24.73501 4.03115
#
# Velocity S-wave (km/s) = -2.90285 3.53572 1.42737
# Velocity P-wave (km/s) = 4.62449 7.07823 5.97860
#
# Compressibility (1/GPa) = 0.01549322
#
# Stress axis : x y z
#
# Youngs Moduli (GPa) = 103.17213 85.29824 66.20081
#
# Poissons Ratio (x) = 0.16546 0.20611
# Poissons Ratio (y) = 0.20014 0.36153
# Poissons Ratio (z) = 0.32121 0.46582
#
# Static dielectric constant tensor:
#      x y z
#    x 1.700680 0.000000 0.001320 
#    y 0.000000 1.683580 0.000000 
#    z 0.001320 0.000000 1.727180 
# 
# From -- ./inp_files/140804.got.cif
#   From: 2010.05.17/outbox.cif.g08.bks.cpg/sg12_71_cif.got.tgz:140804.got - 2010.06.03 13:09:07.
