data_PCOD9201374
_publ_section_title
;
Structure prediction by ZEFSAII (Michael W. Deem and Ramdas Pophale) SiO2 
 PCOD9201374
Probable space group: C 2/M
;
_chemical_formula_sum "Si O2"
_cell_formula_units_Z 48
_cell_length_a 13.143357
_cell_length_b 12.832287
_cell_length_c 22.212922
_cell_angle_alpha 90.000000
_cell_angle_beta 144.012199
_cell_angle_gamma 90.000000
_cell_volume 2201.443011
_symmetry_space_group_name_H-M "C 2/M"
_symmetry_group_IT_number 12
_symmetry_cell_setting 'monoclinic'
loop_
_space_group_symop_operation_xyz
x,y,z
-x,y,-z
-x,-y,-z
x,-y,z
1/2+x,1/2+y,z
1/2-x,1/2+y,-z
1/2-x,1/2-y,-z
1/2+x,1/2-y,z
loop_
_atom_site_type_symbol
_atom_site_label
_atom_site_fract_x
_atom_site_fract_y
_atom_site_fract_z
Si Si1 0.813243 0.788816 0.790580
Si Si2 0.547222 0.380455 0.670867
Si Si3 0.072130 0.830390 0.824872
Si Si4 0.059246 0.613349 0.959298
Si Si5 0.944564 0.378747 0.236092
Si Si6 0.834192 0.875514 0.459908
O O1 0.684737 0.697791 0.708170
O O2 0.699360 0.857351 0.781506
O O3 0.897687 0.852296 0.777259
O O4 0.965830 0.718875 0.892999
O O5 0.593264 0.500000 0.680966
O O6 0.557015 0.364338 0.747649
O O7 0.373800 0.359248 0.549877
O O8 0.100465 0.704996 0.836400
O O9 0.234545 0.877358 0.937202
O O10 0.011533 0.500000 0.908110
O O11 0.000000 0.606835 0.000000
O O12 0.944805 0.500000 0.220088
O O13 0.138494 0.344317 0.349679
O O14 0.000000 0.835984 0.500000
O O15 0.832701 0.000000 0.449383
#
# Coordination Sequence:
#
# PCOD9201374 Si02
#       6
#     8   8   8   8   8   8
#     4  11  23  38  59  89 120 152 196 245 301 357
#     4  10  20  37  62  87 115 155 205 251 290 342
#     4  11  23  38  59  90 120 153 201 245 296 355
#     4  11  21  40  65  87 116 154 199 250 294 346
#     4  10  22  39  57  83 123 159 191 242 299 351
#     4   9  18  35  60  88 118 158 204 243 289 350
#
# _framework density 21.803882000000002
#
# number of rings (size 3 to 8) (size 9 to 14) (size 15 to 20)
#    0.000    1.667    3.333    2.500    0.000    6.667 
#    0.000    4.167    0.000    3.000    0.000    0.000 
#    0.000    0.667    0.000    0.000    0.000    0.000 
#
# Total GULP energy -133833.555320 kJ/mol
# GULP energy per Si atom -5576.398138 kJ/mol
# Density = 2.175426 g / cm^3
# Si number density = 21.803882 Si / 1000 Ang^3
#
#
#
# Elastic Constant Matrix: (Units=GPa)
#
#
# Indices 1 2 3 4 5 6 
#
# 1 108.2529 -9.2389 30.3368 0.0000 21.1574 0.0000
# 2 -9.2389 75.6169 21.7088 0.0000 4.7676 0.0000
# 3 30.3368 21.7088 82.4431 0.0000 6.0247 0.0000
# 4 0.0000 0.0000 0.0000 77.1427 0.0000 28.9232
# 5 21.1574 4.7676 6.0247 0.0000 26.1586 0.0000
# 6 0.0000 0.0000 0.0000 28.9232 0.0000 6.0975
#
#
#
# Elastic Compliance Matrix: (Units=1/GPa)
#
#
# Indices 1 2 3 4 5 6 
#
# 1 0.012881 0.003627 -0.004969 0.000000 -0.009935 0.000000
# 2 0.003627 0.015408 -0.005057 0.000000 -0.004577 0.000000
# 3 -0.004969 -0.005057 0.015184 0.000000 0.001444 0.000000
# 4 0.000000 0.000000 0.000000 -0.016652 0.000000 0.078987
# 5 -0.009935 -0.004577 0.001444 0.000000 0.046766 0.000000
# 6 0.000000 0.000000 0.000000 0.078987 0.000000 -0.210670
#
#
# Mechanical properties :
#
#
# Convention : Reuss Voigt Hill
#
# Bulk Modulus (GPa) = 32.60007 39.10292 35.85149
# Shear Modulus (GPa) = -43.83748 36.78016 -3.52866
#
# Velocity S-wave (km/s) = -4.48876 4.11160 -1.27353
# Velocity P-wave (km/s) = 3.44694 6.36500 3.78364
#
# Compressibility (1/GPa) = 0.03067478
#
# Stress axis : x y z
#
# Youngs Moduli (GPa) = 77.63092 64.90058 65.85771
#
# Poissons Ratio (x) = -0.23538 0.32725
# Poissons Ratio (y) = -0.28155 0.33307
# Poissons Ratio (z) = 0.38575 0.32823
#
# Static dielectric constant tensor:
#      x y z
#    x 1.845410 0.000000 -0.032860 
#    y 0.000000 1.826890 0.000000 
#    z -0.032860 0.000000 1.870880 
# 
# From -- ./inp_files/340211.got.cif
#   From: 2010.05.17/outbox.cif.g08.bks.cpg/sg12_171_cif.got.tgz:340211.got - 2010.06.03 13:09:07.
