data_PCOD9201054
_publ_section_title
;
Structure prediction by ZEFSAII (Michael W. Deem and Ramdas Pophale) SiO2 
 PCOD9201054
Probable space group: C 2/M
;
_chemical_formula_sum "Si O2"
_cell_formula_units_Z 58
_cell_length_a 19.823767
_cell_length_b 14.340387
_cell_length_c 25.020648
_cell_angle_alpha 90.000000
_cell_angle_beta 23.171765
_cell_angle_gamma 90.000000
_cell_volume 2798.840274
_symmetry_space_group_name_H-M "C 2/M"
_symmetry_group_IT_number 12
_symmetry_cell_setting 'monoclinic'
loop_
_space_group_symop_operation_xyz
x,y,z
-x,y,-z
-x,-y,-z
x,-y,z
1/2+x,1/2+y,z
1/2-x,1/2+y,-z
1/2-x,1/2-y,-z
1/2+x,1/2-y,z
loop_
_atom_site_type_symbol
_atom_site_label
_atom_site_fract_x
_atom_site_fract_y
_atom_site_fract_z
Si Si1 0.473314 0.247503 0.461084
Si Si2 0.832509 0.181549 0.172661
Si Si3 0.669817 0.610353 0.518081
Si Si4 0.784466 0.110239 0.940161
Si Si5 0.500000 0.500000 0.000000
Si Si6 0.675002 0.388698 0.642148
Si Si7 0.314849 0.251589 0.073512
Si Si8 0.432642 0.110113 0.798370
O O1 0.500000 0.293715 0.500000
O O2 0.645785 0.186339 0.332308
O O3 0.448200 0.323781 0.432415
O O4 0.314072 0.177103 0.568655
O O5 0.825427 0.255505 0.129043
O O6 0.001846 0.211326 0.081609
O O7 0.880306 0.081992 0.113808
O O8 0.628443 0.500000 0.542823
O O9 0.668268 0.631773 0.582838
O O10 0.864969 0.624287 0.354541
O O11 0.735239 0.161084 0.921887
O O12 0.985265 0.129182 0.803657
O O13 0.767667 0.000000 0.946451
O O14 0.656181 0.138771 0.081103
O O15 0.712659 0.500000 0.620168
O O16 0.169956 0.329483 0.169424
O O17 0.397936 0.000000 0.815491
#
# Coordination Sequence:
#
# PCOD9201054 Si02
#       8
#     8   8   8   8   2   8   8   8
#     4  12  26  39  61  94 136 170 204 260 326 387
#     4  10  24  39  59  93 118 166 208 236 314 373
#     4  10  22  43  67  90 121 170 227 266 308 373
#     4  10  21  37  60  89 118 155 204 265 316 359
#     4   8  20  44  62  80 122 164 208 250 270 380
#     4  10  22  41  63  89 120 166 213 263 325 385
#     4  10  20  37  61  82 122 153 203 258 296 369
#     4  10  21  34  62  92 112 153 209 264 314 356
#
# _framework density 20.722868999999999
#
# number of rings (size 3 to 8) (size 9 to 14) (size 15 to 20)
#    0.000    1.931    0.000    3.310    8.690    0.552 
#    0.000    2.069    0.000    0.000    0.000    0.000 
#    0.000    0.000    0.000    0.000    0.000    0.000 
#
# Total GULP energy -161623.624037 kJ/mol
# GULP energy per Si atom -5573.228415 kJ/mol
# Density = 2.067570 g / cm^3
# Si number density = 20.722869 Si / 1000 Ang^3
#
#
#
# Elastic Constant Matrix: (Units=GPa)
#
#
# Indices 1 2 3 4 5 6 
#
# 1 71.6150 26.1594 6.3248 -0.0049 -2.5576 0.0018
# 2 26.1594 51.1422 31.7312 -0.0218 -13.7957 -0.0052
# 3 6.3248 31.7312 84.6215 -0.0144 -5.1919 -0.0045
# 4 -0.0049 -0.0218 -0.0144 33.3676 0.0022 4.5440
# 5 -2.5576 -13.7957 -5.1919 0.0022 26.6415 0.0015
# 6 0.0018 -0.0052 -0.0045 4.5440 0.0015 -17.7312
#
#
#
# Elastic Compliance Matrix: (Units=1/GPa)
#
#
# Indices 1 2 3 4 5 6 
#
# 1 0.017980 -0.012095 0.002948 -0.000004 -0.003962 0.000003
# 2 -0.012095 0.037626 -0.012227 0.000017 0.015940 -0.000003
# 3 0.002948 -0.012227 0.016002 0.000000 -0.002930 -0.000001
# 4 -0.000004 0.000017 0.000000 0.028959 0.000005 0.007421
# 5 -0.003962 0.015940 -0.002930 0.000005 0.044838 0.000001
# 6 0.000003 -0.000003 -0.000001 0.007421 0.000001 -0.054496
#
#
# Mechanical properties :
#
#
# Convention : Reuss Voigt Hill
#
# Bulk Modulus (GPa) = 34.64910 37.31217 35.98064
# Shear Modulus (GPa) = 34.89790 17.99980 26.44885
#
# Velocity S-wave (km/s) = 4.10814 2.95039 3.57643
# Velocity P-wave (km/s) = 6.26570 5.44526 5.86983
#
# Compressibility (1/GPa) = 0.02886078
#
# Stress axis : x y z
#
# Youngs Moduli (GPa) = 55.61851 26.57748 62.49216
#
# Poissons Ratio (x) = 0.32145 -0.18425
# Poissons Ratio (y) = 0.67269 0.76408
# Poissons Ratio (z) = -0.16398 0.32496
#
# Static dielectric constant tensor:
#      x y z
#    x 1.627350 0.000010 -0.069510 
#    y 0.000010 1.712670 0.000010 
#    z -0.069510 0.000010 1.724310 
# 
# From -- ./inp_files/366549.got.cif
#   From: 2010.05.17/outbox.cif.g08.bks.cpg/sg12_184_cif.got.tgz:366549.got - 2010.06.03 13:09:07.
