data_PCOD9201476
_publ_section_title
;
Structure prediction by ZEFSAII (Michael W. Deem and Ramdas Pophale) SiO2 
 PCOD9201476
Probable space group: C 2/M
;
_chemical_formula_sum "Si O2"
_cell_formula_units_Z 48
_cell_length_a 17.894308
_cell_length_b 33.902900
_cell_length_c 8.914268
_cell_angle_alpha 90.000000
_cell_angle_beta 28.811083
_cell_angle_gamma 90.000000
_cell_volume 2606.245086
_symmetry_space_group_name_H-M "C 2/M"
_symmetry_group_IT_number 12
_symmetry_cell_setting 'monoclinic'
loop_
_space_group_symop_operation_xyz
x,y,z
-x,y,-z
-x,-y,-z
x,-y,z
1/2+x,1/2+y,z
1/2-x,1/2+y,-z
1/2-x,1/2-y,-z
1/2+x,1/2-y,z
loop_
_atom_site_type_symbol
_atom_site_label
_atom_site_fract_x
_atom_site_fract_y
_atom_site_fract_z
Si Si1 0.129053 0.096432 0.373115
Si Si2 0.909136 0.324560 0.515058
Si Si3 0.567355 0.546993 0.044538
Si Si4 0.363813 0.149717 0.141508
Si Si5 0.686913 0.708676 0.673830
Si Si6 0.334158 0.084206 0.735455
O O1 0.246552 0.122065 0.261354
O O2 0.000000 0.119466 0.500000
O O3 0.041408 0.067247 0.639285
O O4 0.229586 0.077100 0.065814
O O5 0.763692 0.301125 0.701056
O O6 0.855175 0.369298 0.654994
O O7 0.000000 0.308220 0.500000
O O8 0.037599 0.326838 0.157046
O O9 0.566424 0.500000 0.062356
O O10 0.500000 0.557457 0.000000
O O11 0.740914 0.563441 0.765973
O O12 0.261121 0.176269 0.432130
O O13 0.500000 0.129383 0.000000
O O14 0.750000 0.750000 0.500000
O O15 0.500000 0.707571 0.000000
O O16 0.500000 0.069709 0.500000
#
# Coordination Sequence:
#
# PCOD9201476 Si02
#       6
#     8   8   8   8   8   8
#     4  10  21  35  60  87 120 151 204 242 303 355
#     4  10  20  39  63  91 124 153 202 258 300 352
#     4  10  24  40  57  86 126 162 204 252 303 363
#     4  10  21  36  61  88 120 154 194 255 296 357
#     4  11  25  42  62  90 124 164 202 240 304 366
#     4  10  20  37  62  90 116 156 202 252 302 359
#
# _framework density 18.417300999999998
#
# number of rings (size 3 to 8) (size 9 to 14) (size 15 to 20)
#    0.000    1.833    3.333    1.500    9.333    3.333 
#    0.000    4.167    0.000    2.500    0.000    0.000 
#    0.000    0.000    0.000    0.000    0.000    0.000 
#
# Total GULP energy -133686.485186 kJ/mol
# GULP energy per Si atom -5570.270216 kJ/mol
# Density = 1.837538 g / cm^3
# Si number density = 18.417301 Si / 1000 Ang^3
#
#
#
# Elastic Constant Matrix: (Units=GPa)
#
#
# Indices 1 2 3 4 5 6 
#
# 1 211.3548 56.9272 66.1714 0.0000 -40.9616 0.0000
# 2 56.9272 44.0232 18.0092 0.0000 -19.5175 0.0000
# 3 66.1714 18.0092 110.4860 0.0000 -27.5185 0.0000
# 4 0.0000 0.0000 0.0000 -203.9885 0.0000 -134.6757
# 5 -40.9616 -19.5175 -27.5185 0.0000 41.9066 0.0000
# 6 0.0000 0.0000 0.0000 -134.6757 0.0000 -58.3289
#
#
#
# Elastic Compliance Matrix: (Units=1/GPa)
#
#
# Indices 1 2 3 4 5 6 
#
# 1 0.008478 -0.008723 -0.003113 0.000000 0.002180 0.000000
# 2 -0.008723 0.037842 0.001581 0.000000 0.010136 0.000000
# 3 -0.003113 0.001581 0.012055 0.000000 0.005609 0.000000
# 4 0.000000 0.000000 0.000000 0.009349 0.000000 -0.021586
# 5 0.002180 0.010136 0.005609 0.000000 0.034398 0.000000
# 6 0.000000 0.000000 0.000000 -0.021586 0.000000 0.032695
#
#
# Mechanical properties :
#
#
# Convention : Reuss Voigt Hill
#
# Bulk Modulus (GPa) = 26.40973 72.00885 49.20929
# Shear Modulus (GPa) = 29.77100 -29.09841 0.33630
#
# Velocity S-wave (km/s) = 4.02490 -3.97917 0.42778
# Velocity P-wave (km/s) = 5.99754 4.25107 5.19818
#
# Compressibility (1/GPa) = 0.03786483
#
# Stress axis : x y z
#
# Youngs Moduli (GPa) = 117.95327 26.42532 82.95565
#
# Poissons Ratio (x) = 0.23051 0.25821
# Poissons Ratio (y) = 1.02891 -0.13112
# Poissons Ratio (z) = 0.36715 -0.04177
#
# Static dielectric constant tensor:
#      x y z
#    x 1.689180 0.000000 -0.017340 
#    y 0.000000 1.619830 0.000000 
#    z -0.017340 0.000000 1.661890 
# 
# From -- ./inp_files/80632.got.cif
#   From: 2010.05.17/outbox.cif.g08.bks.cpg/sg12_41_cif.got.tgz:80632.got - 2010.06.03 13:09:07.
