data_PCOD9201968
_publ_section_title
;
Structure prediction by ZEFSAII (Michael W. Deem and Ramdas Pophale) SiO2 
 PCOD9201968
Probable space group: C 2/M
;
_chemical_formula_sum "Si O2"
_cell_formula_units_Z 64
_cell_length_a 16.861067
_cell_length_b 30.775940
_cell_length_c 11.805080
_cell_angle_alpha 90.000000
_cell_angle_beta 33.693748
_cell_angle_gamma 90.000000
_cell_volume 3398.329442
_symmetry_space_group_name_H-M "C 2/M"
_symmetry_group_IT_number 12
_symmetry_cell_setting 'monoclinic'
loop_
_space_group_symop_operation_xyz
x,y,z
-x,y,-z
-x,-y,-z
x,-y,z
1/2+x,1/2+y,z
1/2-x,1/2+y,-z
1/2-x,1/2-y,-z
1/2+x,1/2-y,z
loop_
_atom_site_type_symbol
_atom_site_label
_atom_site_fract_x
_atom_site_fract_y
_atom_site_fract_z
Si Si1 0.759433 0.122175 0.981208
Si Si2 0.253262 0.785348 0.896233
Si Si3 0.073583 0.791458 0.738332
Si Si4 0.141414 0.049277 0.755382
Si Si5 0.333906 0.051067 0.727107
Si Si6 0.902455 0.118020 0.380609
Si Si7 0.334998 0.142850 0.156459
Si Si8 0.781275 0.237622 0.653084
O O1 0.692970 0.123776 0.934960
O O2 0.934086 0.122201 0.768473
O O3 0.711483 0.167131 0.098843
O O4 0.709750 0.081400 0.116071
O O5 0.336220 0.766798 0.690174
O O6 0.250000 0.750000 0.000000
O O7 0.092035 0.788484 0.039483
O O8 0.119992 0.841488 0.678562
O O9 0.097371 0.775902 0.580433
O O10 0.167686 0.762953 0.709861
O O11 0.257161 0.068051 0.704531
O O12 0.114468 0.075442 0.674100
O O13 0.183124 0.000000 0.678202
O O14 0.000000 0.048749 0.000000
O O15 0.500000 0.051923 0.500000
O O16 0.291619 0.000000 0.795639
O O17 0.780400 0.121572 0.620639
O O18 0.291929 0.194038 0.210411
O O19 0.500000 0.138086 0.000000
#
# Coordination Sequence:
#
# PCOD9201968 Si02
#       8
#     8   8   8   8   8   8   8   8
#     4  11  23  40  60  89 119 162 204 244 306 365
#     4  11  21  35  54  81 116 155 196 247 286 345
#     4   9  21  35  56  77 111 156 196 237 294 344
#     4  10  20  38  66  95 120 148 187 237 297 359
#     4  10  23  43  66  93 126 155 188 250 314 364
#     4  10  22  38  62  87 120 157 198 245 294 359
#     4  11  23  39  60  83 119 161 206 252 295 351
#     4  10  20  38  54  78 112 157 200 244 293 343
#
# _framework density 18.832782000000002
#
# number of rings (size 3 to 8) (size 9 to 14) (size 15 to 20)
#    0.000    1.750    2.500    1.500    3.500    0.500 
#    2.250    0.625    0.000    2.250    0.000    0.000 
#    0.000    0.000    0.000    0.000    0.000    0.000 
#
# Total GULP energy -178601.469314 kJ/mol
# GULP energy per Si atom -5581.295916 kJ/mol
# Density = 1.878992 g / cm^3
# Si number density = 18.832782 Si / 1000 Ang^3
#
#
#
# Elastic Constant Matrix: (Units=GPa)
#
#
# Indices 1 2 3 4 5 6 
#
# 1 109.4160 45.2240 38.4208 0.0000 7.1420 0.0001
# 2 45.2240 88.7131 32.4685 0.0000 19.5067 0.0000
# 3 38.4208 32.4685 80.0171 0.0000 3.3089 0.0001
# 4 0.0000 0.0000 0.0000 33.7461 0.0000 14.9878
# 5 7.1420 19.5067 3.3089 0.0000 27.4973 -0.0001
# 6 0.0001 0.0000 0.0001 14.9878 -0.0001 29.1858
#
#
#
# Elastic Compliance Matrix: (Units=1/GPa)
#
#
# Indices 1 2 3 4 5 6 
#
# 1 0.012621 -0.005159 -0.004002 0.000000 0.000863 0.000000
# 2 -0.005159 0.017862 -0.004324 0.000000 -0.010811 0.000000
# 3 -0.004002 -0.004324 0.016084 0.000000 0.002171 0.000000
# 4 0.000000 0.000000 0.000000 0.038389 0.000000 -0.019714
# 5 0.000863 -0.010811 0.002171 0.000000 0.043551 0.000000
# 6 0.000000 0.000000 0.000000 -0.019714 0.000000 0.044387
#
#
# Mechanical properties :
#
#
# Convention : Reuss Voigt Hill
#
# Bulk Modulus (GPa) = 51.02922 56.70807 53.86865
# Shear Modulus (GPa) = 24.22546 28.88803 26.55675
#
# Velocity S-wave (km/s) = 3.59046 3.92078 3.75925
# Velocity P-wave (km/s) = 6.65908 7.11853 6.89263
#
# Compressibility (1/GPa) = 0.01959662
#
# Stress axis : x y z
#
# Youngs Moduli (GPa) = 79.23484 55.98560 62.17468
#
# Poissons Ratio (x) = 0.28881 0.24885
# Poissons Ratio (y) = 0.40875 0.26882
# Poissons Ratio (z) = 0.31713 0.24206
#
# Static dielectric constant tensor:
#      x y z
#    x 1.537120 0.000000 0.131240 
#    y 0.000000 1.672940 0.000000 
#    z 0.131240 0.000000 1.479130 
# 
# From -- ./inp_files/149773.got.cif
#   From: 2010.05.17/outbox.cif.g08.bks.cpg/sg12_75_cif.got.tgz:149773.got - 2010.06.03 13:09:07.
