data_PCOD9201883
_publ_section_title
;
Structure prediction by ZEFSAII (Michael W. Deem and Ramdas Pophale) SiO2 
 PCOD9201883
Probable space group: C 2/M
;
_chemical_formula_sum "Si O2"
_cell_formula_units_Z 40
_cell_length_a 12.033705
_cell_length_b 16.174762
_cell_length_c 8.915214
_cell_angle_alpha 90.000000
_cell_angle_beta 104.447431
_cell_angle_gamma 90.000000
_cell_volume 1680.403119
_symmetry_space_group_name_H-M "C 2/M"
_symmetry_group_IT_number 12
_symmetry_cell_setting 'monoclinic'
loop_
_space_group_symop_operation_xyz
x,y,z
-x,y,-z
-x,-y,-z
x,-y,z
1/2+x,1/2+y,z
1/2-x,1/2+y,-z
1/2-x,1/2-y,-z
1/2+x,1/2-y,z
loop_
_atom_site_type_symbol
_atom_site_label
_atom_site_fract_x
_atom_site_fract_y
_atom_site_fract_z
Si Si1 0.252780 0.900654 0.771914
Si Si2 0.074675 0.404923 0.674580
Si Si3 0.695639 0.595621 0.427345
Si Si4 0.012342 0.096819 0.826293
Si Si5 0.381321 0.208802 0.029198
O O1 0.241720 0.868505 0.598224
O O2 0.135101 0.873907 0.813579
O O3 0.354911 0.861931 0.898376
O O4 0.263214 0.000000 0.779792
O O5 0.042432 0.500000 0.712134
O O6 0.204857 0.408232 0.660193
O O7 0.000000 0.386644 0.500000
O O8 0.080023 0.335447 0.803717
O O9 0.667981 0.500000 0.459800
O O10 0.587462 0.635894 0.308605
O O11 0.010224 0.000000 0.784932
O O12 0.000000 0.095209 0.000000
O O13 0.500000 0.249392 0.000000
O O14 0.250000 0.250000 0.000000
#
# Coordination Sequence:
#
# PCOD9201883 Si02
#       5
#     8   8   8   8   8
#     4  10  20  37  65  98 129 167 221 285 345 400
#     4  10  21  41  72 104 131 166 222 291 350 399
#     4   9  17  31  56  94 133 164 206 270 342 407
#     4   9  16  27  48  85 130 169 206 254 318 389
#     4  12  28  48  67  95 137 183 228 275 336 412
#
# _framework density 23.803812000000001
#
# number of rings (size 3 to 8) (size 9 to 14) (size 15 to 20)
#    0.000    2.000    0.000    3.600    0.000   11.200 
#    0.000    6.000    0.000    0.600    0.000    0.000 
#    0.000    0.000    0.000    0.000    0.000    0.000 
#
# Total GULP energy -111494.830777 kJ/mol
# GULP energy per Si atom -5574.741539 kJ/mol
# Density = 2.374963 g / cm^3
# Si number density = 23.803812 Si / 1000 Ang^3
#
#
#
# Elastic Constant Matrix: (Units=GPa)
#
#
# Indices 1 2 3 4 5 6 
#
# 1 111.5740 43.5605 25.1659 0.0000 3.4692 0.0000
# 2 43.5605 56.8413 36.8157 0.0000 16.7552 0.0000
# 3 25.1659 36.8157 103.4521 0.0000 16.6159 0.0000
# 4 0.0000 0.0000 0.0000 14.9339 0.0000 28.2653
# 5 3.4692 16.7552 16.6159 0.0000 50.0507 0.0000
# 6 0.0000 0.0000 0.0000 28.2653 0.0000 56.0794
#
#
#
# Elastic Compliance Matrix: (Units=1/GPa)
#
#
# Indices 1 2 3 4 5 6 
#
# 1 0.013123 -0.011048 0.000308 0.000000 0.002687 0.000000
# 2 -0.011048 0.033539 -0.007994 0.000000 -0.007808 0.000000
# 3 0.000308 -0.007994 0.012686 0.000000 -0.001557 0.000000
# 4 0.000000 0.000000 0.000000 1.454363 0.000000 -0.733031
# 5 0.002687 -0.007808 -0.001557 0.000000 0.022924 0.000000
# 6 0.000000 0.000000 0.000000 -0.733031 0.000000 0.387295
#
#
# Mechanical properties :
#
#
# Convention : Reuss Voigt Hill
#
# Bulk Modulus (GPa) = 45.70443 53.66129 49.68286
# Shear Modulus (GPa) = 2.53976 35.30117 18.92047
#
# Velocity S-wave (km/s) = 1.03406 3.85516 2.82237
# Velocity P-wave (km/s) = 4.54619 6.51217 5.61588
#
# Compressibility (1/GPa) = 0.02187972
#
# Stress axis : x y z
#
# Youngs Moduli (GPa) = 76.20128 29.81613 78.82553
#
# Poissons Ratio (x) = 0.32942 -0.02427
# Poissons Ratio (y) = 0.84190 0.63012
# Poissons Ratio (z) = -0.02346 0.23835
#
# Static dielectric constant tensor:
#      x y z
#    x 1.954850 0.000000 0.071260 
#    y 0.000000 1.998630 0.000000 
#    z 0.071260 0.000000 1.846420 
# 
# From -- ./inp_files/47152.got.cif
#   From: 2010.05.17/outbox.cif.g08.bks.cpg/sg12_24_cif.got.tgz:47152.got - 2010.06.03 13:09:07.
