data_PCOD9201388
_publ_section_title
;
Structure prediction by ZEFSAII (Michael W. Deem and Ramdas Pophale) SiO2 
 PCOD9201388
Probable space group: C 2/M
;
_chemical_formula_sum "Si O2"
_cell_formula_units_Z 64
_cell_length_a 16.517393
_cell_length_b 8.659359
_cell_length_c 33.480963
_cell_angle_alpha 90.000000
_cell_angle_beta 41.740769
_cell_angle_gamma 90.000000
_cell_volume 3188.187380
_symmetry_space_group_name_H-M "C 2/M"
_symmetry_group_IT_number 12
_symmetry_cell_setting 'monoclinic'
loop_
_space_group_symop_operation_xyz
x,y,z
-x,y,-z
-x,-y,-z
x,-y,z
1/2+x,1/2+y,z
1/2-x,1/2+y,-z
1/2-x,1/2-y,-z
1/2+x,1/2-y,z
loop_
_atom_site_type_symbol
_atom_site_label
_atom_site_fract_x
_atom_site_fract_y
_atom_site_fract_z
Si Si1 0.846734 0.315386 0.995560
Si Si2 0.281417 0.820563 0.247927
Si Si3 0.400547 0.680845 0.127481
Si Si4 0.958584 0.682684 0.633922
Si Si5 0.103099 0.813644 0.430406
Si Si6 0.870532 0.688378 0.360368
Si Si7 0.266643 0.318036 0.876562
Si Si8 0.013278 0.317954 0.763740
O O1 0.855678 0.500000 0.988549
O O2 0.976190 0.242023 0.937864
O O3 0.750000 0.250000 0.000000
O O4 0.797999 0.280707 0.057826
O O5 0.366936 0.769904 0.180182
O O6 0.160911 0.719387 0.295786
O O7 0.360456 0.803648 0.258980
O O8 0.247324 0.000000 0.256188
O O9 0.410866 0.500000 0.131913
O O10 0.293575 0.717736 0.135894
O O11 0.970613 0.500000 0.623970
O O12 0.933985 0.757488 0.599963
O O13 0.074244 0.738895 0.617469
O O14 0.235341 0.759725 0.397641
O O15 0.000000 0.767723 0.500000
O O16 0.108246 0.000000 0.426961
O O17 0.868406 0.500000 0.361579
O O18 0.961746 0.732181 0.290824
O O19 0.247953 0.500000 0.875476
O O20 0.408785 0.278322 0.823816
O O21 0.980215 0.500000 0.776585
#
# Coordination Sequence:
#
# PCOD9201388 Si02
#       8
#     8   8   8   8   8   8   8   8
#     4  11  24  42  62  85 116 156 201 255 313 373
#     4  11  22  39  64  91 122 161 207 255 307 373
#     4  12  25  40  60  87 120 158 202 253 313 374
#     4  11  22  37  62  93 129 166 205 260 319 375
#     4  10  21  41  66  89 122 170 217 258 309 378
#     4   9  19  38  60  88 124 164 206 253 314 375
#     4  11  24  40  59  86 119 154 202 255 304 369
#     4  10  20  37  62  87 119 160 201 249 311 376
#
# _framework density 20.074103000000001
#
# number of rings (size 3 to 8) (size 9 to 14) (size 15 to 20)
#    0.000    1.375    1.250    4.500    0.000    8.250 
#    0.000    1.875    0.000    0.000    0.000    0.000 
#    0.000    0.000    0.000    0.000    0.000    0.000 
#
# Total GULP energy -178870.272679 kJ/mol
# GULP energy per Si atom -5589.696021 kJ/mol
# Density = 2.002841 g / cm^3
# Si number density = 20.074103 Si / 1000 Ang^3
#
#
#
# Elastic Constant Matrix: (Units=GPa)
#
#
# Indices 1 2 3 4 5 6 
#
# 1 102.7776 10.1792 33.2221 0.0004 10.7330 0.0017
# 2 10.1792 11.5470 3.6461 0.0029 6.4944 0.0043
# 3 33.2221 3.6461 94.7892 -0.0001 2.3048 0.0007
# 4 0.0004 0.0029 -0.0001 25.0924 0.0000 3.5928
# 5 10.7330 6.4944 2.3048 0.0000 18.1905 0.0003
# 6 0.0017 0.0043 0.0007 3.5928 0.0003 22.9187
#
#
#
# Elastic Compliance Matrix: (Units=1/GPa)
#
#
# Indices 1 2 3 4 5 6 
#
# 1 0.012119 -0.007150 -0.003872 0.000001 -0.004107 0.000001
# 2 -0.007150 0.113580 -0.000982 -0.000010 -0.036207 -0.000019
# 3 -0.003872 -0.000982 0.011917 0.000000 0.001126 0.000000
# 4 0.000001 -0.000010 0.000000 0.040768 0.000003 -0.006391
# 5 -0.004107 -0.036207 0.001126 0.000003 0.070181 0.000006
# 6 0.000001 -0.000019 0.000000 -0.006391 0.000006 0.044634
#
#
# Mechanical properties :
#
#
# Convention : Reuss Voigt Hill
#
# Bulk Modulus (GPa) = 8.80242 33.68982 21.24612
# Shear Modulus (GPa) = 14.08144 24.04476 19.06310
#
# Velocity S-wave (km/s) = 2.65141 3.46468 3.08496
# Velocity P-wave (km/s) = 3.71049 5.72927 4.82661
#
# Compressibility (1/GPa) = 0.11360515
#
# Stress axis : x y z
#
# Youngs Moduli (GPa) = 82.51817 8.80439 83.91111
#
# Poissons Ratio (x) = 0.06295 0.32494
# Poissons Ratio (y) = 0.59004 0.08243
# Poissons Ratio (z) = 0.31955 0.00865
#
# Static dielectric constant tensor:
#      x y z
#    x 1.729870 0.000000 -0.024190 
#    y 0.000000 1.680450 0.000000 
#    z -0.024190 0.000000 1.729330 
# 
# From -- ./inp_files/375509.got.cif
#   From: 2010.05.17/outbox.cif.g08.bks.cpg/sg12_188_cif.got.tgz:375509.got - 2010.06.03 13:09:07.
