data_PCOD9201603
_publ_section_title
;
Structure prediction by ZEFSAII (Michael W. Deem and Ramdas Pophale) SiO2 
 PCOD9201603
Probable space group: C 2/M
;
_chemical_formula_sum "Si O2"
_cell_formula_units_Z 48
_cell_length_a 29.039593
_cell_length_b 18.614475
_cell_length_c 10.271862
_cell_angle_alpha 90.000000
_cell_angle_beta 150.742269
_cell_angle_gamma 90.000000
_cell_volume 2713.735134
_symmetry_space_group_name_H-M "C 2/M"
_symmetry_group_IT_number 12
_symmetry_cell_setting 'monoclinic'
loop_
_space_group_symop_operation_xyz
x,y,z
-x,y,-z
-x,-y,-z
x,-y,z
1/2+x,1/2+y,z
1/2-x,1/2+y,-z
1/2-x,1/2-y,-z
1/2+x,1/2-y,z
loop_
_atom_site_type_symbol
_atom_site_label
_atom_site_fract_x
_atom_site_fract_y
_atom_site_fract_z
Si Si1 0.686620 0.665676 0.712273
Si Si2 0.981041 0.585466 0.604591
Si Si3 0.003895 0.085344 0.164745
Si Si4 0.295385 0.164236 0.246146
Si Si5 0.709755 0.585516 0.282443
Si Si6 0.689848 0.085494 0.197138
O O1 0.585374 0.631262 0.432704
O O2 0.688220 0.751042 0.695326
O O3 0.759065 0.628394 0.791217
O O4 0.722805 0.652752 0.947881
O O5 0.961515 0.500000 0.561829
O O6 0.893360 0.627698 0.446089
O O7 0.000000 0.603931 0.500000
O O8 0.078473 0.599810 0.920097
O O9 0.024517 0.000000 0.229674
O O10 0.000000 0.099989 0.000000
O O11 0.901080 0.099780 0.970471
O O12 0.253890 0.128967 0.273158
O O13 0.721042 0.500000 0.287468
O O14 0.762537 0.602647 0.547820
O O15 0.702876 0.000000 0.205311
#
# Coordination Sequence:
#
# PCOD9201603 Si02
#       6
#     8   8   8   8   8   8
#     4  11  23  40  60  86 121 165 195 236 299 361
#     4  10  20  37  63  87 110 153 206 245 285 348
#     4  10  20  39  66  91 115 153 206 249 290 354
#     4  11  25  40  56  89 126 156 194 246 302 350
#     4  10  22  40  62  90 121 150 193 256 302 341
#     4  10  20  38  64  87 112 155 201 241 292 355
#
# _framework density 17.687798000000001
#
# number of rings (size 3 to 8) (size 9 to 14) (size 15 to 20)
#    0.000    1.667    3.333    1.000    0.000    5.333 
#    3.000    4.167    0.000    0.000    0.000    0.000 
#    0.000    0.000    0.000    0.000    0.000    0.000 
#
# Total GULP energy -134080.579140 kJ/mol
# GULP energy per Si atom -5586.690797 kJ/mol
# Density = 1.764754 g / cm^3
# Si number density = 17.687798 Si / 1000 Ang^3
#
#
#
# Elastic Constant Matrix: (Units=GPa)
#
#
# Indices 1 2 3 4 5 6 
#
# 1 111.7171 68.7903 61.5653 0.0000 3.1510 0.0000
# 2 68.7903 70.0777 78.2967 0.0000 -1.6456 0.0000
# 3 61.5653 78.2967 150.1944 0.0000 3.8592 0.0000
# 4 0.0000 0.0000 0.0000 25.0171 0.0000 -10.3133
# 5 3.1510 -1.6456 3.8592 0.0000 22.5219 0.0000
# 6 0.0000 0.0000 0.0000 -10.3133 0.0000 28.8956
#
#
#
# Elastic Compliance Matrix: (Units=1/GPa)
#
#
# Indices 1 2 3 4 5 6 
#
# 1 0.025816 -0.033279 0.006952 0.000000 -0.007235 0.000000
# 2 -0.033279 0.077786 -0.027295 0.000000 0.015017 0.000000
# 3 0.006952 -0.027295 0.018193 0.000000 -0.006085 0.000000
# 4 0.000000 0.000000 0.000000 0.046869 0.000000 0.016728
# 5 -0.007235 0.015017 -0.006085 0.000000 0.047553 0.000000
# 6 0.000000 0.000000 0.000000 0.016728 0.000000 0.040578
#
#
# Mechanical properties :
#
#
# Convention : Reuss Voigt Hill
#
# Bulk Modulus (GPa) = 68.71730 83.25487 75.98608
# Shear Modulus (GPa) = 13.55425 23.50938 18.53181
#
# Velocity S-wave (km/s) = 2.77122 3.64968 3.24036
# Velocity P-wave (km/s) = 7.01242 8.05801 7.55333
#
# Compressibility (1/GPa) = 0.01455238
#
# Stress axis : x y z
#
# Youngs Moduli (GPa) = 38.73636 12.85580 54.96516
#
# Poissons Ratio (x) = 0.42783 -0.38214
# Poissons Ratio (y) = 1.28910 1.50026
# Poissons Ratio (z) = -0.26931 0.35089
#
# Static dielectric constant tensor:
#      x y z
#    x 1.564880 0.000000 -0.001520 
#    y 0.000000 1.584910 0.000000 
#    z -0.001520 0.000000 1.598850 
# 
# From -- ./inp_files/77263.got.cif
#   From: 2010.05.17/outbox.cif.g08.bks.cpg/sg12_39_cif.got.tgz:77263.got - 2010.06.03 13:09:07.
