data_PCOD9201262
_publ_section_title
;
Structure prediction by ZEFSAII (Michael W. Deem and Ramdas Pophale) SiO2 
 PCOD9201262
Probable space group: C 2/M
;
_chemical_formula_sum "Si O2"
_cell_formula_units_Z 48
_cell_length_a 30.651125
_cell_length_b 19.390019
_cell_length_c 8.703409
_cell_angle_alpha 90.000000
_cell_angle_beta 149.737953
_cell_angle_gamma 90.000000
_cell_volume 2606.791634
_symmetry_space_group_name_H-M "C 2/M"
_symmetry_group_IT_number 12
_symmetry_cell_setting 'monoclinic'
loop_
_space_group_symop_operation_xyz
x,y,z
-x,y,-z
-x,-y,-z
x,-y,z
1/2+x,1/2+y,z
1/2-x,1/2+y,-z
1/2-x,1/2-y,-z
1/2+x,1/2-y,z
loop_
_atom_site_type_symbol
_atom_site_label
_atom_site_fract_x
_atom_site_fract_y
_atom_site_fract_z
Si Si1 0.327589 0.702716 0.792851
Si Si2 0.015500 0.289293 0.867097
Si Si3 0.430253 0.080233 0.151967
Si Si4 0.079732 0.918258 0.359561
Si Si5 0.229741 0.080623 0.578153
Si Si6 0.580383 0.305807 0.626355
O O1 0.250000 0.750000 0.500000
O O2 0.308404 0.626664 0.673710
O O3 0.410603 0.735507 0.960817
O O4 0.340521 0.702110 0.015185
O O5 0.045110 0.364629 0.902425
O O6 0.933883 0.262215 0.520287
O O7 0.000000 0.286079 0.000000
O O8 0.500000 0.088693 0.500000
O O9 0.433179 0.000000 0.111038
O O10 0.331985 0.095059 0.908464
O O11 0.169585 0.905823 0.542456
O O12 0.079436 0.870118 0.507826
O O13 0.072999 0.000000 0.375709
O O14 0.000000 0.902170 0.000000
O O15 0.220681 0.000000 0.514848
O O16 0.500000 0.312963 0.500000
#
# Coordination Sequence:
#
# PCOD9201262 Si02
#       6
#     8   8   8   8   8   8
#     4  11  21  37  59  85 115 154 194 239 297 346
#     4  11  22  39  61  86 117 151 196 249 292 350
#     4  10  21  40  63  84 113 158 201 243 296 346
#     4  10  20  37  61  90 123 157 190 237 298 360
#     4  10  21  38  61  87 120 156 194 239 291 355
#     4  10  21  36  59  83 118 154 192 238 290 352
#
# _framework density 18.413439
#
# number of rings (size 3 to 8) (size 9 to 14) (size 15 to 20)
#    0.000    1.667    1.667    5.000    0.000    1.333 
#    3.000    1.667    0.000    0.000    0.000    0.000 
#    0.000    0.000    0.000    0.000    0.000    0.000 
#
# Total GULP energy -133926.614457 kJ/mol
# GULP energy per Si atom -5580.275602 kJ/mol
# Density = 1.837153 g / cm^3
# Si number density = 18.413439 Si / 1000 Ang^3
#
#
#
# Elastic Constant Matrix: (Units=GPa)
#
#
# Indices 1 2 3 4 5 6 
#
# 1 127.1673 73.7196 66.8676 0.0000 -24.8617 0.0000
# 2 73.7196 85.6484 54.4471 0.0000 -15.4231 0.0000
# 3 66.8676 54.4471 114.5247 0.0000 -20.1061 0.0000
# 4 0.0000 0.0000 0.0000 22.7989 0.0000 -3.5759
# 5 -24.8617 -15.4231 -20.1061 0.0000 22.5952 0.0000
# 6 0.0000 0.0000 0.0000 -3.5759 0.0000 38.8015
#
#
#
# Elastic Compliance Matrix: (Units=1/GPa)
#
#
# Indices 1 2 3 4 5 6 
#
# 1 0.018410 -0.012036 -0.003452 0.000000 0.008969 0.000000
# 2 -0.012036 0.025123 -0.005014 0.000000 -0.000557 0.000000
# 3 -0.003452 -0.005014 0.014060 0.000000 0.005290 0.000000
# 4 0.000000 0.000000 0.000000 0.044505 0.000000 0.004102
# 5 0.008969 -0.000557 0.005290 0.000000 0.058453 0.000000
# 6 0.000000 0.000000 0.000000 0.004102 0.000000 0.026150
#
#
# Mechanical properties :
#
#
# Convention : Reuss Voigt Hill
#
# Bulk Modulus (GPa) = 60.28552 79.71211 69.99882
# Shear Modulus (GPa) = 21.43771 25.65951 23.54861
#
# Velocity S-wave (km/s) = 3.41580 3.73704 3.58003
# Velocity P-wave (km/s) = 6.95471 7.87431 7.42875
#
# Compressibility (1/GPa) = 0.01658773
#
# Stress axis : x y z
#
# Youngs Moduli (GPa) = 54.31922 39.80492 71.12484
#
# Poissons Ratio (x) = 0.47909 0.24553
# Poissons Ratio (y) = 0.65379 0.35662
# Poissons Ratio (z) = 0.18752 0.19958
#
# Static dielectric constant tensor:
#      x y z
#    x 1.602380 0.000000 0.020280 
#    y 0.000000 1.649960 0.000000 
#    z 0.020280 0.000000 1.719050 
# 
# From -- ./inp_files/75081.got.cif
#   From: 2010.05.17/outbox.cif.g08.bks.cpg/sg12_38_cif.got.tgz:75081.got - 2010.06.03 13:09:07.
