data_PCOD9201951
_publ_section_title
;
Structure prediction by ZEFSAII (Michael W. Deem and Ramdas Pophale) SiO2 
 PCOD9201951
Probable space group: C 2/M
;
_chemical_formula_sum "Si O2"
_cell_formula_units_Z 48
_cell_length_a 9.189481
_cell_length_b 14.551013
_cell_length_c 18.022612
_cell_angle_alpha 90.000000
_cell_angle_beta 98.042254
_cell_angle_gamma 90.000000
_cell_volume 2386.215094
_symmetry_space_group_name_H-M "C 2/M"
_symmetry_group_IT_number 12
_symmetry_cell_setting 'monoclinic'
loop_
_space_group_symop_operation_xyz
x,y,z
-x,y,-z
-x,-y,-z
x,-y,z
1/2+x,1/2+y,z
1/2-x,1/2+y,-z
1/2-x,1/2-y,-z
1/2+x,1/2-y,z
loop_
_atom_site_type_symbol
_atom_site_label
_atom_site_fract_x
_atom_site_fract_y
_atom_site_fract_z
Si Si1 0.338788 0.606467 0.026830
Si Si2 0.906891 0.000000 0.416703
Si Si3 0.675339 0.000000 0.516514
Si Si4 0.392721 0.677533 0.316163
Si Si5 0.115318 0.265394 0.215920
Si Si6 0.655892 0.807316 0.551203
Si Si7 0.831877 0.703509 0.113344
O O1 0.316335 0.500000 0.049262
O O2 0.334208 0.689266 0.086334
O O3 0.500000 0.611047 0.000000
O O4 0.219044 0.638660 0.957166
O O5 0.928309 0.910834 0.367956
O O6 0.000000 0.000000 0.500000
O O7 0.741939 0.000000 0.438873
O O8 0.500000 0.000000 0.500000
O O9 0.722923 0.091723 0.561317
O O10 0.237789 0.669413 0.261792
O O11 0.521603 0.708726 0.269950
O O12 0.364140 0.759295 0.372337
O O13 0.210452 0.199470 0.169372
O O14 0.992433 0.315900 0.157586
O O15 0.500000 0.814090 0.500000
O O16 0.750000 0.750000 0.500000
#
# Coordination Sequence:
#
# PCOD9201951 Si02
#       7
#     8   4   4   8   8   8   8
#     4  10  20  37  72 101 128 164 223 257 307 362
#     4  12  26  44  64  96 122 158 225 279 328 379
#     4  10  24  38  62  88 118 150 197 277 324 369
#     4  11  24  42  64  89 122 171 209 262 327 395
#     4  10  23  42  62  85 134 172 210 245 328 385
#     4  11  21  38  63  87 115 152 205 267 318 375
#     4  10  20  43  64  97 130 174 203 271 300 371
#
# _framework density 20.115537
#
# number of rings (size 3 to 8) (size 9 to 14) (size 15 to 20)
#    0.000    1.500    3.333    1.500    4.667    0.000 
#    9.000    0.833    3.667    0.000    0.000    0.000 
#    0.000    0.000    0.000    0.000    0.000    0.000 
#
# Total GULP energy -133979.108020 kJ/mol
# GULP energy per Si atom -5582.462834 kJ/mol
# Density = 2.006975 g / cm^3
# Si number density = 20.115537 Si / 1000 Ang^3
#
#
#
# Elastic Constant Matrix: (Units=GPa)
#
#
# Indices 1 2 3 4 5 6 
#
# 1 121.7410 17.5255 34.5143 0.0000 11.6900 0.0000
# 2 17.5255 134.5058 32.8454 0.0000 -3.6153 0.0000
# 3 34.5143 32.8454 86.3194 0.0000 8.2932 0.0000
# 4 0.0000 0.0000 0.0000 17.2932 0.0000 2.4513
# 5 11.6900 -3.6153 8.2932 0.0000 50.8771 0.0000
# 6 0.0000 0.0000 0.0000 2.4513 0.0000 7.0769
#
#
#
# Elastic Compliance Matrix: (Units=1/GPa)
#
#
# Indices 1 2 3 4 5 6 
#
# 1 0.009408 -0.000429 -0.003442 0.000000 -0.001631 0.000000
# 2 -0.000429 0.008278 -0.003093 0.000000 0.001191 0.000000
# 3 -0.003442 -0.003093 0.014307 0.000000 -0.001761 0.000000
# 4 0.000000 0.000000 0.000000 0.060812 0.000000 -0.021064
# 5 -0.001631 0.001191 -0.001761 0.000000 0.020402 0.000000
# 6 0.000000 0.000000 0.000000 -0.021064 0.000000 0.148601
#
#
# Mechanical properties :
#
#
# Convention : Reuss Voigt Hill
#
# Bulk Modulus (GPa) = 55.35297 56.92629 56.13963
# Shear Modulus (GPa) = 17.74576 32.22816 24.98696
#
# Velocity S-wave (km/s) = 2.97339 4.00703 3.52827
# Velocity P-wave (km/s) = 6.27418 7.05475 6.67588
#
# Compressibility (1/GPa) = 0.01806588
#
# Stress axis : x y z
#
# Youngs Moduli (GPa) = 106.28837 120.80585 69.89573
#
# Poissons Ratio (x) = 0.05185 0.24057
# Poissons Ratio (y) = 0.04562 0.21616
# Poissons Ratio (z) = 0.36583 0.37360
#
# Static dielectric constant tensor:
#      x y z
#    x 1.760330 0.000000 0.034590 
#    y 0.000000 1.726500 0.000000 
#    z 0.034590 0.000000 1.712550 
# 
# From -- ./inp_files/255817.got.cif
#   From: 2010.05.17/outbox.cif.g08.bks.cpg/sg12_128_cif.got.tgz:255817.got - 2010.06.03 13:09:07.
