data_PCOD9201589
_publ_section_title
;
Structure prediction by ZEFSAII (Michael W. Deem and Ramdas Pophale) SiO2 
 PCOD9201589
Probable space group: C 2/M
;
_chemical_formula_sum "Si O2"
_cell_formula_units_Z 40
_cell_length_a 24.807516
_cell_length_b 14.226449
_cell_length_c 12.139295
_cell_angle_alpha 90.000000
_cell_angle_beta 157.138586
_cell_angle_gamma 90.000000
_cell_volume 1664.440130
_symmetry_space_group_name_H-M "C 2/M"
_symmetry_group_IT_number 12
_symmetry_cell_setting 'monoclinic'
loop_
_space_group_symop_operation_xyz
x,y,z
-x,y,-z
-x,-y,-z
x,-y,z
1/2+x,1/2+y,z
1/2-x,1/2+y,-z
1/2-x,1/2-y,-z
1/2+x,1/2-y,z
loop_
_atom_site_type_symbol
_atom_site_label
_atom_site_fract_x
_atom_site_fract_y
_atom_site_fract_z
Si Si1 0.991515 0.693117 0.644996
Si Si2 0.489221 0.396695 0.311724
Si Si3 0.882087 0.889489 0.858517
Si Si4 0.069236 0.612305 0.248006
Si Si5 0.702036 0.104991 0.889821
O O1 0.933962 0.798782 0.526357
O O2 0.133765 0.678140 0.845454
O O3 0.012245 0.664930 0.809348
O O4 0.881436 0.624211 0.380491
O O5 0.557484 0.500000 0.448415
O O6 0.428138 0.388162 0.072598
O O7 0.362278 0.393956 0.159049
O O8 0.727667 0.851164 0.551241
O O9 0.869346 0.000000 0.803551
O O10 0.000000 0.848918 0.000000
O O11 0.068736 0.500000 0.270918
O O12 0.000000 0.625153 0.000000
O O13 0.668936 0.000000 0.868029
#
# Coordination Sequence:
#
# PCOD9201589 Si02
#       5
#     8   8   8   8   8
#     4  11  20  35  61  94 117 155 211 260 304 369
#     4  10  21  38  59  85 123 166 207 253 307 376
#     4   9  18  37  62  85 119 171 212 243 305 384
#     4  10  20  37  62  96 130 158 203 269 321 363
#     4  10  20  38  65  89 119 161 206 253 313 379
#
# _framework density 24.032105999999999
#
# number of rings (size 3 to 8) (size 9 to 14) (size 15 to 20)
#    0.000    2.000    2.000    3.000    0.000    0.800 
#    3.600    4.000    0.000    2.400    0.000    0.000 
#    0.000    0.800    0.000    0.000    0.000    0.000 
#
# Total GULP energy -111874.264544 kJ/mol
# GULP energy per Si atom -5593.713227 kJ/mol
# Density = 2.397741 g / cm^3
# Si number density = 24.032106 Si / 1000 Ang^3
#
#
#
# Elastic Constant Matrix: (Units=GPa)
#
#
# Indices 1 2 3 4 5 6 
#
# 1 126.4166 22.5487 10.5216 0.0000 -16.5263 0.0000
# 2 22.5487 132.3849 7.0861 0.0000 -9.4524 0.0000
# 3 10.5216 7.0861 54.7268 0.0000 -14.3099 0.0000
# 4 0.0000 0.0000 0.0000 7.8801 0.0000 -2.1846
# 5 -16.5263 -9.4524 -14.3099 0.0000 24.1088 0.0000
# 6 0.0000 0.0000 0.0000 -2.1846 0.0000 13.6269
#
#
#
# Elastic Compliance Matrix: (Units=1/GPa)
#
#
# Indices 1 2 3 4 5 6 
#
# 1 0.008844 -0.001103 -0.000101 0.000000 0.005570 0.000000
# 2 -0.001103 0.007912 -0.000236 0.000000 0.002206 0.000000
# 3 -0.000101 -0.000236 0.021639 0.000000 0.012682 0.000000
# 4 0.000000 0.000000 0.000000 0.132805 0.000000 0.021291
# 5 0.005570 0.002206 0.012682 0.000000 0.053689 0.000000
# 6 0.000000 0.000000 0.000000 0.021291 0.000000 0.076798
#
#
# Mechanical properties :
#
#
# Convention : Reuss Voigt Hill
#
# Bulk Modulus (GPa) = 28.15755 43.76013 35.95884
# Shear Modulus (GPa) = 15.80261 27.34794 21.57528
#
# Velocity S-wave (km/s) = 2.56708 3.37705 2.99953
# Velocity P-wave (km/s) = 4.53085 5.78399 5.19534
#
# Compressibility (1/GPa) = 0.03551445
#
# Stress axis : x y z
#
# Youngs Moduli (GPa) = 113.07533 126.39428 46.21371
#
# Poissons Ratio (x) = 0.13944 0.00467
# Poissons Ratio (y) = 0.12475 0.01088
# Poissons Ratio (z) = 0.01143 0.02977
#
# Static dielectric constant tensor:
#      x y z
#    x 1.890970 0.000000 0.014460 
#    y 0.000000 1.918600 0.000000 
#    z 0.014460 0.000000 1.912240 
# 
# From -- ./inp_files/176549.got.cif
#   From: 2010.05.17/outbox.cif.g08.bks.cpg/sg12_89_cif.got.tgz:176549.got - 2010.06.03 13:09:07.
