data_PCOD9201922
_publ_section_title
;
Structure prediction by ZEFSAII (Michael W. Deem and Ramdas Pophale) SiO2 
 PCOD9201922
Probable space group: C 2/M
;
_chemical_formula_sum "Si O2"
_cell_formula_units_Z 64
_cell_length_a 8.949070
_cell_length_b 14.661673
_cell_length_c 25.396422
_cell_angle_alpha 90.000000
_cell_angle_beta 111.764873
_cell_angle_gamma 90.000000
_cell_volume 3094.679293
_symmetry_space_group_name_H-M "C 2/M"
_symmetry_group_IT_number 12
_symmetry_cell_setting 'monoclinic'
loop_
_space_group_symop_operation_xyz
x,y,z
-x,y,-z
-x,-y,-z
x,-y,z
1/2+x,1/2+y,z
1/2-x,1/2+y,-z
1/2-x,1/2-y,-z
1/2+x,1/2-y,z
loop_
_atom_site_type_symbol
_atom_site_label
_atom_site_fract_x
_atom_site_fract_y
_atom_site_fract_z
Si Si1 0.176109 0.098953 0.335903
Si Si2 0.880938 0.756864 0.835889
Si Si3 0.277855 0.655296 0.430540
Si Si4 0.805124 0.605961 0.978501
Si Si5 0.286076 0.202457 0.084643
Si Si6 0.495956 0.893720 0.314029
Si Si7 0.041720 0.218270 0.754730
Si Si8 0.348749 0.354453 0.552705
O O1 0.341528 0.130707 0.330454
O O2 0.029462 0.164911 0.303527
O O3 0.191140 0.091946 0.400048
O O4 0.138940 0.000000 0.308282
O O5 0.824330 0.813849 0.879074
O O6 0.943286 0.811052 0.793453
O O7 0.725593 0.704704 0.793853
O O8 0.028937 0.694926 0.873721
O O9 0.153657 0.619911 0.370860
O O10 0.459290 0.653415 0.432047
O O11 0.279094 0.608682 0.488439
O O12 0.224706 0.756630 0.440520
O O13 0.758053 0.500000 0.961688
O O14 0.740744 0.690154 0.934381
O O15 0.754980 0.638548 0.030727
O O16 0.000000 0.609920 0.000000
O O17 0.489088 0.824211 0.264228
O O18 0.485557 0.000000 0.297684
#
# Coordination Sequence:
#
# PCOD9201922 Si02
#       8
#     8   8   8   8   8   8   8   8
#     4  11  24  41  62  89 120 157 203 257 317 378
#     4  10  22  39  66  86 123 168 210 252 306 338
#     4  10  21  37  60  89 119 154 197 249 313 382
#     4  10  20  37  66  99 134 167 201 246 300 358
#     4  10  20  41  62  96 129 168 202 254 292 362
#     4  11  24  41  62  89 120 157 203 257 317 378
#     4  11  22  43  61  85 117 166 207 258 304 360
#     4  10  21  37  60  89 119 154 197 249 313 382
#
# _framework density 20.680655000000002
#
# number of rings (size 3 to 8) (size 9 to 14) (size 15 to 20)
#    0.000    1.625    3.750    0.750    1.750    2.500 
#    0.000   11.250    0.000    0.000    0.000    0.000 
#    0.000    0.000    0.000    0.000    0.000    0.000 
#
# Total GULP energy -178435.751329 kJ/mol
# GULP energy per Si atom -5576.117229 kJ/mol
# Density = 2.063359 g / cm^3
# Si number density = 20.680655 Si / 1000 Ang^3
#
#
#
# Elastic Constant Matrix: (Units=GPa)
#
#
# Indices 1 2 3 4 5 6 
#
# 1 78.8328 7.4330 22.9406 0.0000 -6.6513 0.0000
# 2 7.4330 93.5344 23.4248 0.0000 1.7150 0.0000
# 3 22.9406 23.4248 89.1192 0.0000 -6.4449 0.0000
# 4 0.0000 0.0000 0.0000 0.1751 0.0000 -6.9924
# 5 -6.6513 1.7150 -6.4449 0.0000 41.4110 0.0000
# 6 0.0000 0.0000 0.0000 -6.9924 0.0000 15.0582
#
#
#
# Elastic Compliance Matrix: (Units=1/GPa)
#
#
# Indices 1 2 3 4 5 6 
#
# 1 0.013835 -0.000289 -0.003362 0.000000 0.001711 0.000000
# 2 -0.000289 0.011488 -0.003017 0.000000 -0.000992 0.000000
# 3 -0.003362 -0.003017 0.012996 0.000000 0.001608 0.000000
# 4 0.000000 0.000000 0.000000 -0.325539 0.000000 -0.151166
# 5 0.001711 -0.000992 0.001608 0.000000 0.024714 0.000000
# 6 0.000000 0.000000 0.000000 -0.151166 0.000000 -0.003786
#
#
# Mechanical properties :
#
#
# Convention : Reuss Voigt Hill
#
# Bulk Modulus (GPa) = 40.02656 41.00925 40.51791
# Shear Modulus (GPa) = -20.43906 25.17473 2.36783
#
# Velocity S-wave (km/s) = -3.14716 3.49278 1.07118
# Velocity P-wave (km/s) = 2.48806 6.01156 4.60050
#
# Compressibility (1/GPa) = 0.02498341
#
# Stress axis : x y z
#
# Youngs Moduli (GPa) = 72.28085 87.04762 76.94956
#
# Poissons Ratio (x) = 0.02515 0.25868
# Poissons Ratio (y) = 0.02088 0.23215
# Poissons Ratio (z) = 0.24298 0.26262
#
# Static dielectric constant tensor:
#      x y z
#    x 1.747620 0.000000 -0.005070 
#    y 0.000000 1.497860 0.000000 
#    z -0.005070 0.000000 1.755670 
# 
# From -- ./inp_files/356182.got.cif
#   From: 2010.05.17/outbox.cif.g08.bks.cpg/sg12_179_cif.got.tgz:356182.got - 2010.06.03 13:09:07.
