data_PCOD9201590
_publ_section_title
;
Structure prediction by ZEFSAII (Michael W. Deem and Ramdas Pophale) SiO2 
 PCOD9201590
Probable space group: C 2/M
;
_chemical_formula_sum "Si O2"
_cell_formula_units_Z 44
_cell_length_a 9.409114
_cell_length_b 23.687531
_cell_length_c 10.838945
_cell_angle_alpha 90.000000
_cell_angle_beta 61.910216
_cell_angle_gamma 90.000000
_cell_volume 2131.218247
_symmetry_space_group_name_H-M "C 2/M"
_symmetry_group_IT_number 12
_symmetry_cell_setting 'monoclinic'
loop_
_space_group_symop_operation_xyz
x,y,z
-x,y,-z
-x,-y,-z
x,-y,z
1/2+x,1/2+y,z
1/2-x,1/2+y,-z
1/2-x,1/2-y,-z
1/2+x,1/2-y,z
loop_
_atom_site_type_symbol
_atom_site_label
_atom_site_fract_x
_atom_site_fract_y
_atom_site_fract_z
Si Si1 0.829137 0.765950 0.597183
Si Si2 0.500000 0.373124 0.000000
Si Si3 0.212107 0.067553 0.568226
Si Si4 0.316013 0.849614 0.742734
Si Si5 0.640981 0.127269 0.734496
Si Si6 0.863221 0.933865 0.818333
O O1 0.750000 0.750000 0.500000
O O2 0.863089 0.708755 0.657866
O O3 0.713175 0.809802 0.710516
O O4 0.000000 0.794652 0.500000
O O5 0.356345 0.339690 0.123437
O O6 0.583060 0.410576 0.071515
O O7 0.292827 0.101542 0.649170
O O8 0.279802 0.095265 0.416099
O O9 0.019647 0.075541 0.665739
O O10 0.243563 0.000000 0.559234
O O11 0.452443 0.868475 0.782722
O O12 0.706661 0.095587 0.826852
O O13 0.836062 0.000000 0.836776
#
# Coordination Sequence:
#
# PCOD9201590 Si02
#       6
#     8   4   8   8   8   8
#     4  12  22  40  67  96 131 162 200 254 318 381
#     4  10  25  46  64  82 126 170 217 256 298 370
#     4  10  20  37  62  96 132 160 197 257 323 377
#     4  11  24  42  60  94 124 170 211 252 310 369
#     4  12  23  37  65  97 127 156 208 262 317 372
#     4  10  22  41  65  91 125 169 209 254 312 372
#
# _framework density 20.64547
#
# number of rings (size 3 to 8) (size 9 to 14) (size 15 to 20)
#    0.000    1.091    3.636    3.000    2.545    5.091 
#    0.000    4.545    0.000    0.000    0.000    0.000 
#    0.000    0.000    0.000    0.000    0.000    0.000 
#
# Total GULP energy -123009.603919 kJ/mol
# GULP energy per Si atom -5591.345633 kJ/mol
# Density = 2.059848 g / cm^3
# Si number density = 20.645470 Si / 1000 Ang^3
#
#
#
# Elastic Constant Matrix: (Units=GPa)
#
#
# Indices 1 2 3 4 5 6 
#
# 1 135.5803 8.5989 19.2254 0.0000 1.0763 0.0000
# 2 8.5989 63.5160 8.6231 0.0000 -11.1510 0.0000
# 3 19.2254 8.6231 57.2058 0.0000 3.7813 0.0000
# 4 0.0000 0.0000 0.0000 -37.9966 0.0000 13.6325
# 5 1.0763 -11.1510 3.7813 0.0000 19.7261 0.0000
# 6 0.0000 0.0000 0.0000 13.6325 0.0000 14.1360
#
#
#
# Elastic Compliance Matrix: (Units=1/GPa)
#
#
# Indices 1 2 3 4 5 6 
#
# 1 0.007779 -0.000787 -0.002469 0.000000 -0.000396 0.000000
# 2 -0.000787 0.018208 -0.003204 0.000000 0.010950 0.000000
# 3 -0.002469 -0.003204 0.019147 0.000000 -0.005347 0.000000
# 4 0.000000 0.000000 0.000000 -0.019553 0.000000 0.018856
# 5 -0.000396 0.010950 -0.005347 0.000000 0.057931 0.000000
# 6 0.000000 0.000000 0.000000 0.018856 0.000000 0.052557
#
#
# Mechanical properties :
#
#
# Convention : Reuss Voigt Hill
#
# Bulk Modulus (GPa) = 31.04366 36.57742 33.81054
# Shear Modulus (GPa) = 31.30339 13.83008 22.56673
#
# Velocity S-wave (km/s) = 3.89811 2.59102 3.30973
# Velocity P-wave (km/s) = 5.94387 5.16784 5.56939
#
# Compressibility (1/GPa) = 0.03221270
#
# Stress axis : x y z
#
# Youngs Moduli (GPa) = 128.55195 54.92090 52.22749
#
# Poissons Ratio (x) = 0.04325 0.12897
# Poissons Ratio (y) = 0.10123 0.16733
# Poissons Ratio (z) = 0.31745 0.17595
#
# Static dielectric constant tensor:
#      x y z
#    x 1.675100 0.000000 -0.023240 
#    y 0.000000 1.699590 0.000000 
#    z -0.023240 0.000000 1.755900 
# 
# From -- ./inp_files/121747.got.cif
#   From: 2010.05.17/outbox.cif.g08.bks.cpg/sg12_61_cif.got.tgz:121747.got - 2010.06.03 13:09:07.
