data_PCOD9201965
_publ_section_title
;
Structure prediction by ZEFSAII (Michael W. Deem and Ramdas Pophale) SiO2 
 PCOD9201965
Probable space group: C 2/M
;
_chemical_formula_sum "Si O2"
_cell_formula_units_Z 58
_cell_length_a 18.101459
_cell_length_b 12.920108
_cell_length_c 19.927359
_cell_angle_alpha 90.000000
_cell_angle_beta 39.769649
_cell_angle_gamma 90.000000
_cell_volume 2981.313225
_symmetry_space_group_name_H-M "C 2/M"
_symmetry_group_IT_number 12
_symmetry_cell_setting 'monoclinic'
loop_
_space_group_symop_operation_xyz
x,y,z
-x,y,-z
-x,-y,-z
x,-y,z
1/2+x,1/2+y,z
1/2-x,1/2+y,-z
1/2-x,1/2-y,-z
1/2+x,1/2-y,z
loop_
_atom_site_type_symbol
_atom_site_label
_atom_site_fract_x
_atom_site_fract_y
_atom_site_fract_z
Si Si1 0.502545 0.123008 0.115116
Si Si2 0.252392 0.820774 0.259839
Si Si3 0.681458 0.619733 0.600865
Si Si4 0.447875 0.187717 0.633518
Si Si5 0.164962 0.189008 0.463188
Si Si6 0.500000 0.000000 0.500000
Si Si7 0.543549 0.757940 0.222487
Si Si8 0.747466 0.384523 0.115522
O O1 0.390126 0.182322 0.167317
O O2 0.527203 0.166443 0.171833
O O3 0.476662 0.000000 0.133060
O O4 0.618172 0.138521 0.991197
O O5 0.182710 0.714487 0.296679
O O6 0.209814 0.859012 0.362594
O O7 0.222770 0.881772 0.212473
O O8 0.692034 0.500000 0.614331
O O9 0.772876 0.698803 0.569922
O O10 0.694010 0.627933 0.511075
O O11 0.557872 0.671592 0.704473
O O12 0.529326 0.285279 0.556850
O O13 0.489289 0.089685 0.565053
O O14 0.461135 0.180661 0.704069
O O15 0.664679 0.697628 0.138119
O O16 0.724809 0.500000 0.105466
#
# Coordination Sequence:
#
# PCOD9201965 Si02
#       8
#     8   8   8   8   8   2   8   8
#     4  11  23  39  62  91 118 154 200 253 306 351
#     4  11  20  39  57  86 122 153 193 250 295 352
#     4  10  21  35  57  85 120 156 192 239 295 354
#     4  10  23  36  59  85 119 158 202 242 287 353
#     4  10  20  38  52  88 121 149 200 240 289 351
#     4  12  20  36  60  84 116 164 202 234 284 352
#     4  10  21  41  59  90 121 155 198 248 296 353
#     4  10  22  39  64  90 117 155 201 247 303 360
#
# _framework density 19.454514
#
# number of rings (size 3 to 8) (size 9 to 14) (size 15 to 20)
#    0.000    1.655    2.759    1.655    1.931    2.207 
#    0.000    0.690    0.000    7.448    0.000    2.897 
#    0.000    0.000    0.000    0.000    0.000    0.000 
#
# Total GULP energy -161590.522628 kJ/mol
# GULP energy per Si atom -5572.086987 kJ/mol
# Density = 1.941023 g / cm^3
# Si number density = 19.454514 Si / 1000 Ang^3
#
#
#
# Elastic Constant Matrix: (Units=GPa)
#
#
# Indices 1 2 3 4 5 6 
#
# 1 80.4333 19.8203 24.7073 0.0000 -7.4689 0.0000
# 2 19.8203 57.0043 24.3881 0.0000 -8.6794 0.0000
# 3 24.7073 24.3881 77.9407 0.0000 -2.9238 0.0000
# 4 0.0000 0.0000 0.0000 12.6631 0.0000 8.7439
# 5 -7.4689 -8.6794 -2.9238 0.0000 35.8007 0.0000
# 6 0.0000 0.0000 0.0000 8.7439 0.0000 6.2742
#
#
#
# Elastic Compliance Matrix: (Units=1/GPa)
#
#
# Indices 1 2 3 4 5 6 
#
# 1 0.014489 -0.003241 -0.003506 0.000000 0.001951 0.000000
# 2 -0.003241 0.021696 -0.005607 0.000000 0.004126 0.000000
# 3 -0.003506 -0.005607 0.015666 0.000000 -0.000811 0.000000
# 4 0.000000 0.000000 0.000000 2.094652 0.000000 -2.919147
# 5 0.001951 0.004126 -0.000811 0.000000 0.029273 0.000000
# 6 0.000000 0.000000 0.000000 -2.919147 0.000000 4.227560
#
#
# Mechanical properties :
#
#
# Convention : Reuss Voigt Hill
#
# Bulk Modulus (GPa) = 36.84037 39.24553 38.04295
# Shear Modulus (GPa) = 0.77675 20.71178 10.74426
#
# Velocity S-wave (km/s) = 0.63256 3.26640 2.35261
# Velocity P-wave (km/s) = 4.41716 5.86878 5.19393
#
# Compressibility (1/GPa) = 0.02714414
#
# Stress axis : x y z
#
# Youngs Moduli (GPa) = 69.01612 46.09068 63.83427
#
# Poissons Ratio (x) = 0.14938 0.22379
# Poissons Ratio (y) = 0.22368 0.35790
# Poissons Ratio (z) = 0.24196 0.25842
#
# Static dielectric constant tensor:
#      x y z
#    x 1.707670 0.000000 -0.012900 
#    y 0.000000 1.642400 0.000000 
#    z -0.012900 0.000000 1.710940 
# 
# From -- ./inp_files/315941.got.cif
#   From: 2010.05.17/outbox.cif.g08.bks.cpg/sg12_158_cif.got.tgz:315941.got - 2010.06.03 13:09:07.
