data_PCOD9201116
_publ_section_title
;
Structure prediction by ZEFSAII (Michael W. Deem and Ramdas Pophale) SiO2 
 PCOD9201116
Probable space group: C 2/M
;
_chemical_formula_sum "Si O2"
_cell_formula_units_Z 56
_cell_length_a 17.090946
_cell_length_b 9.012459
_cell_length_c 19.868374
_cell_angle_alpha 90.000000
_cell_angle_beta 60.467344
_cell_angle_gamma 90.000000
_cell_volume 2662.737585
_symmetry_space_group_name_H-M "C 2/M"
_symmetry_group_IT_number 12
_symmetry_cell_setting 'monoclinic'
loop_
_space_group_symop_operation_xyz
x,y,z
-x,y,-z
-x,-y,-z
x,-y,z
1/2+x,1/2+y,z
1/2-x,1/2+y,-z
1/2-x,1/2-y,-z
1/2+x,1/2-y,z
loop_
_atom_site_type_symbol
_atom_site_label
_atom_site_fract_x
_atom_site_fract_y
_atom_site_fract_z
Si Si1 0.841225 0.674053 0.048296
Si Si2 0.347579 0.826307 0.893781
Si Si3 0.978536 0.823291 0.382488
Si Si4 0.148821 0.824025 0.821284
Si Si5 0.692614 0.322947 0.465376
Si Si6 0.187380 0.821076 0.315528
Si Si7 0.962636 0.674352 0.250330
O O1 0.848751 0.500000 0.059713
O O2 0.736762 0.722895 0.085973
O O3 0.881347 0.764261 0.093223
O O4 0.879101 0.701804 0.957401
O O5 0.431271 0.805908 0.809360
O O6 0.318568 0.000000 0.903242
O O7 0.911938 0.792985 0.472673
O O8 0.943357 0.738220 0.331889
O O9 0.082296 0.785561 0.351329
O O10 0.974566 0.000000 0.371171
O O11 0.248716 0.761160 0.763868
O O12 0.089348 0.758551 0.786400
O O13 0.148770 0.000000 0.820355
O O14 0.705502 0.500000 0.462662
O O15 0.750000 0.250000 0.500000
O O16 0.714575 0.276383 0.380104
O O17 0.197910 0.000000 0.304444
O O18 0.941010 0.500000 0.255977
#
# Coordination Sequence:
#
# PCOD9201116 Si02
#       7
#     8   8   8   8   8   8   8
#     4  10  20  37  61  86 114 149 188 231 282 338
#     4   9  20  38  60  86 115 148 188 234 280 332
#     4  10  21  38  60  86 115 148 188 233 280 333
#     4  12  25  39  56  82 116 150 189 237 285 335
#     4  10  21  37  58  85 117 151 187 230 279 331
#     4  10  21  39  62  85 112 150 192 232 280 337
#     4  11  23  39  58  82 114 150 189 233 283 337
#
# _framework density 21.030987
#
# number of rings (size 3 to 8) (size 9 to 14) (size 15 to 20)
#    0.000    1.714    0.000    4.286    0.000   10.286 
#    0.000    2.857    0.000    2.571    0.000    0.000 
#    0.000    0.000    0.000    0.000    0.000    0.000 
#
# Total GULP energy -156596.724263 kJ/mol
# GULP energy per Si atom -5592.740152 kJ/mol
# Density = 2.098312 g / cm^3
# Si number density = 21.030987 Si / 1000 Ang^3
#
#
#
# Elastic Constant Matrix: (Units=GPa)
#
#
# Indices 1 2 3 4 5 6 
#
# 1 42.9091 10.0699 -9.1898 0.0000 12.6001 0.0000
# 2 10.0699 41.8793 20.8527 0.0000 8.8880 0.0000
# 3 -9.1898 20.8527 80.4661 0.0000 16.2461 0.0000
# 4 0.0000 0.0000 0.0000 30.7178 0.0000 5.9612
# 5 12.6001 8.8880 16.2461 0.0000 34.8369 0.0000
# 6 0.0000 0.0000 0.0000 5.9612 0.0000 28.4606
#
#
#
# Elastic Compliance Matrix: (Units=1/GPa)
#
#
# Indices 1 2 3 4 5 6 
#
# 1 0.030991 -0.008928 0.008452 0.000000 -0.012873 0.000000
# 2 -0.008928 0.030519 -0.008841 0.000000 -0.000434 0.000000
# 3 0.008452 -0.008841 0.017493 0.000000 -0.008959 0.000000
# 4 0.000000 0.000000 0.000000 0.033934 0.000000 -0.007108
# 5 -0.012873 -0.000434 -0.008959 0.000000 0.037650 0.000000
# 6 0.000000 0.000000 0.000000 -0.007108 0.000000 0.036625
#
#
# Mechanical properties :
#
#
# Convention : Reuss Voigt Hill
#
# Bulk Modulus (GPa) = 16.56497 23.19112 19.87804
# Shear Modulus (GPa) = 22.12699 28.37118 25.24908
#
# Velocity S-wave (km/s) = 3.24715 3.67688 3.46868
# Velocity P-wave (km/s) = 4.68532 5.39231 5.05120
#
# Compressibility (1/GPa) = 0.06036836
#
# Stress axis : x y z
#
# Youngs Moduli (GPa) = 32.26791 32.76626 57.16614
#
# Poissons Ratio (x) = 0.29254 -0.48317
# Poissons Ratio (y) = 0.28809 0.50541
# Poissons Ratio (z) = -0.27273 0.28969
#
# Static dielectric constant tensor:
#      x y z
#    x 1.771430 0.000000 -0.004740 
#    y 0.000000 1.698790 0.000000 
#    z -0.004740 0.000000 1.740590 
# 
# From -- ./inp_files/275213.got.cif
#   From: 2010.05.17/outbox.cif.g08.bks.cpg/sg12_138_cif.got.tgz:275213.got - 2010.06.03 13:09:07.
