data_PCOD9201143
_publ_section_title
;
Structure prediction by ZEFSAII (Michael W. Deem and Ramdas Pophale) SiO2 
 PCOD9201143
Probable space group: C 2/M
;
_chemical_formula_sum "Si O2"
_cell_formula_units_Z 48
_cell_length_a 24.713010
_cell_length_b 9.548126
_cell_length_c 23.585017
_cell_angle_alpha 90.000000
_cell_angle_beta 25.893967
_cell_angle_gamma 90.000000
_cell_volume 2430.357709
_symmetry_space_group_name_H-M "C 2/M"
_symmetry_group_IT_number 12
_symmetry_cell_setting 'monoclinic'
loop_
_space_group_symop_operation_xyz
x,y,z
-x,y,-z
-x,-y,-z
x,-y,z
1/2+x,1/2+y,z
1/2-x,1/2+y,-z
1/2-x,1/2-y,-z
1/2+x,1/2-y,z
loop_
_atom_site_type_symbol
_atom_site_label
_atom_site_fract_x
_atom_site_fract_y
_atom_site_fract_z
Si Si1 0.212118 0.338739 0.153354
Si Si2 0.662366 0.660608 0.496921
Si Si3 0.479565 0.163816 0.456303
Si Si4 0.484538 0.335402 0.947880
Si Si5 0.441070 0.834588 0.225680
Si Si6 0.431412 0.335864 0.800036
O O1 0.207537 0.500000 0.136943
O O2 0.105192 0.323402 0.301537
O O3 0.175151 0.235211 0.137413
O O4 0.342792 0.316598 0.060799
O O5 0.655073 0.500000 0.484240
O O6 0.625286 0.759682 0.480396
O O7 0.803774 0.684450 0.381413
O O8 0.557845 0.676813 0.643479
O O9 0.500000 0.220474 0.500000
O O10 0.448057 0.000000 0.490668
O O11 0.517350 0.500000 0.907952
O O12 0.560502 0.233368 0.835225
O O13 0.500000 0.306066 0.000000
O O14 0.538913 0.749009 0.171102
O O15 0.469114 0.000000 0.197926
O O16 0.408308 0.500000 0.832460
#
# Coordination Sequence:
#
# PCOD9201143 Si02
#       6
#     8   8   8   8   8   8
#     4   9  19  37  57  82 115 147 185 236 285 332
#     4   9  20  36  54  83 118 149 183 229 283 339
#     4   9  18  31  54  84 111 145 187 231 280 333
#     4  10  23  41  61  83 112 152 195 236 278 331
#     4  11  23  38  58  85 117 152 190 233 285 337
#     4  10  20  37  61  87 114 147 189 233 285 341
#
# _framework density 19.75018
#
# number of rings (size 3 to 8) (size 9 to 14) (size 15 to 20)
#    0.000    2.333    0.000    1.500    2.333    4.000 
#    0.000    0.000    0.000    0.000    0.000    0.000 
#    0.000    0.000    0.000    0.000    0.000    0.000 
#
# Total GULP energy -134014.015403 kJ/mol
# GULP energy per Si atom -5583.917308 kJ/mol
# Density = 1.970523 g / cm^3
# Si number density = 19.750180 Si / 1000 Ang^3
#
#
#
# Elastic Constant Matrix: (Units=GPa)
#
#
# Indices 1 2 3 4 5 6 
#
# 1 112.6390 72.9749 28.9436 -0.0001 8.5788 0.0000
# 2 72.9749 89.8494 43.0657 -0.0001 -0.6799 0.0001
# 3 28.9436 43.0657 58.3890 -0.0002 -9.7953 0.0000
# 4 -0.0001 -0.0001 -0.0002 16.9144 0.0001 -4.9430
# 5 8.5788 -0.6799 -9.7953 0.0001 23.5616 0.0000
# 6 0.0000 0.0001 0.0000 -4.9430 0.0000 29.9619
#
#
#
# Elastic Compliance Matrix: (Units=1/GPa)
#
#
# Indices 1 2 3 4 5 6 
#
# 1 0.020135 -0.017080 0.001402 0.000000 -0.007241 0.000000
# 2 -0.017080 0.032304 -0.015222 0.000000 0.000823 0.000000
# 3 0.001402 -0.015222 0.029561 0.000000 0.011340 0.000000
# 4 0.000000 0.000000 0.000000 0.062116 0.000000 0.010248
# 5 -0.007241 0.000823 0.011340 0.000000 0.049816 0.000000
# 6 0.000000 0.000000 0.000000 0.010248 0.000000 0.035066
#
#
# Mechanical properties :
#
#
# Convention : Reuss Voigt Hill
#
# Bulk Modulus (GPa) = 49.50429 61.20508 55.35468
# Shear Modulus (GPa) = 16.80497 21.81381 19.30939
#
# Velocity S-wave (km/s) = 2.92014 3.32699 3.13018
# Velocity P-wave (km/s) = 6.04064 6.76870 6.41501
#
# Compressibility (1/GPa) = 0.02020027
#
# Stress axis : x y z
#
# Youngs Moduli (GPa) = 49.66552 30.95579 33.82853
#
# Poissons Ratio (x) = 0.52873 -0.04743
# Poissons Ratio (y) = 0.84829 0.51493
# Poissons Ratio (z) = -0.06963 0.47120
#
# Static dielectric constant tensor:
#      x y z
#    x 1.665020 0.000000 0.008070 
#    y 0.000000 1.666880 0.000000 
#    z 0.008070 0.000000 1.735600 
# 
# From -- ./inp_files/172882.got.cif
#   From: 2010.05.17/outbox.cif.g08.bks.cpg/sg12_87_cif.got.tgz:172882.got - 2010.06.03 13:09:07.
