data_PCOD9201565
_publ_section_title
;
Structure prediction by ZEFSAII (Michael W. Deem and Ramdas Pophale) SiO2 
 PCOD9201565
Probable space group: C 2/M
;
_chemical_formula_sum "Si O2"
_cell_formula_units_Z 64
_cell_length_a 15.720433
_cell_length_b 8.728395
_cell_length_c 28.732132
_cell_angle_alpha 90.000000
_cell_angle_beta 123.254067
_cell_angle_gamma 90.000000
_cell_volume 3296.867121
_symmetry_space_group_name_H-M "C 2/M"
_symmetry_group_IT_number 12
_symmetry_cell_setting 'monoclinic'
loop_
_space_group_symop_operation_xyz
x,y,z
-x,y,-z
-x,-y,-z
x,-y,z
1/2+x,1/2+y,z
1/2-x,1/2+y,-z
1/2-x,1/2-y,-z
1/2+x,1/2-y,z
loop_
_atom_site_type_symbol
_atom_site_label
_atom_site_fract_x
_atom_site_fract_y
_atom_site_fract_z
Si Si1 0.864232 0.181708 0.737566
Si Si2 0.910089 0.183848 0.935842
Si Si3 0.359604 0.319948 0.325963
Si Si4 0.034852 0.680687 0.324240
Si Si5 0.780342 0.315361 0.059302
Si Si6 0.590134 0.818045 0.563103
Si Si7 0.268881 0.182281 0.556589
Si Si8 0.484044 0.183577 0.860644
O O1 0.747117 0.232223 0.706602
O O2 0.913841 0.262463 0.707681
O O3 0.923670 0.235983 0.801121
O O4 0.870224 0.000000 0.733711
O O5 0.803388 0.231704 0.927449
O O6 0.937358 0.266387 0.896096
O O7 0.907232 0.000000 0.926948
O O8 0.000000 0.213742 0.000000
O O9 0.340183 0.500000 0.319837
O O10 0.432795 0.270181 0.306171
O O11 0.415833 0.271620 0.390518
O O12 0.013523 0.500000 0.314955
O O13 0.117400 0.704212 0.390137
O O14 0.775885 0.500000 0.055270
O O15 0.896530 0.271984 0.105003
O O16 0.750000 0.250000 0.000000
O O17 0.500000 0.782705 0.500000
O O18 0.693836 0.767834 0.569348
O O19 0.588764 0.000000 0.571913
O O20 0.250000 0.250000 0.500000
O O21 0.248044 0.000000 0.550596
O O22 0.477251 0.000000 0.853569
#
# Coordination Sequence:
#
# PCOD9201565 Si02
#       8
#     8   8   8   8   8   8   8   8
#     4  12  26  46  70  94 128 175 223 275 330 388
#     4  10  20  37  62  92 129 171 214 261 317 385
#     4  12  25  43  68  97 129 170 218 269 330 395
#     4  11  24  44  68  96 130 171 217 269 328 392
#     4  10  21  37  61  92 128 169 209 259 318 376
#     4  11  23  39  61  92 130 169 214 267 326 391
#     4  11  23  38  61  92 129 169 212 267 326 389
#     4  11  24  41  63  94 131 169 215 269 322 386
#
# _framework density 19.412369999999999
#
# number of rings (size 3 to 8) (size 9 to 14) (size 15 to 20)
#    0.000    1.000    2.500    4.500    0.000    7.750 
#    0.000    3.750    0.000    0.000    0.000    0.000 
#    0.000    0.000    0.000    0.000    0.000    0.000 
#
# Total GULP energy -179023.339763 kJ/mol
# GULP energy per Si atom -5594.479368 kJ/mol
# Density = 1.936819 g / cm^3
# Si number density = 19.412370 Si / 1000 Ang^3
#
#
#
# Elastic Constant Matrix: (Units=GPa)
#
#
# Indices 1 2 3 4 5 6 
#
# 1 102.3023 -4.3867 17.5616 0.0000 3.7657 0.0000
# 2 -4.3867 31.1271 22.3578 0.0000 0.7631 0.0000
# 3 17.5616 22.3578 83.6754 0.0000 -2.8610 0.0000
# 4 0.0000 0.0000 0.0000 32.6390 0.0000 -3.3156
# 5 3.7657 0.7631 -2.8610 0.0000 23.2231 0.0000
# 6 0.0000 0.0000 0.0000 -3.3156 0.0000 33.5892
#
#
#
# Elastic Compliance Matrix: (Units=1/GPa)
#
#
# Indices 1 2 3 4 5 6 
#
# 1 0.010606 0.003966 -0.003363 0.000000 -0.002264 0.000000
# 2 0.003966 0.041399 -0.012013 0.000000 -0.003483 0.000000
# 3 -0.003363 -0.012013 0.015966 0.000000 0.002907 0.000000
# 4 0.000000 0.000000 0.000000 0.030949 0.000000 0.003055
# 5 -0.002264 -0.003483 0.002907 0.000000 0.043900 0.000000
# 6 0.000000 0.000000 0.000000 0.003055 0.000000 0.030073
#
#
# Mechanical properties :
#
#
# Convention : Reuss Voigt Hill
#
# Bulk Modulus (GPa) = 22.14833 32.01892 27.08363
# Shear Modulus (GPa) = 23.72320 29.99504 26.85912
#
# Velocity S-wave (km/s) = 3.49960 3.93511 3.72372
# Velocity P-wave (km/s) = 5.26913 6.09726 5.69826
#
# Compressibility (1/GPa) = 0.04515013
#
# Stress axis : x y z
#
# Youngs Moduli (GPa) = 94.28948 24.15493 62.63298
#
# Poissons Ratio (x) = -0.09579 0.21063
# Poissons Ratio (y) = -0.37392 0.75242
# Poissons Ratio (z) = 0.31709 0.29018
#
# Static dielectric constant tensor:
#      x y z
#    x 1.687610 0.000000 0.006630 
#    y 0.000000 1.647970 0.000000 
#    z 0.006630 0.000000 1.660980 
# 
# From -- ./inp_files/375693.got.cif
#   From: 2010.05.17/outbox.cif.g08.bks.cpg/sg12_188_cif.got.tgz:375693.got - 2010.06.03 13:09:07.
