data_PCOD9201966
_publ_section_title
;
Structure prediction by ZEFSAII (Michael W. Deem and Ramdas Pophale) SiO2 
 PCOD9201966
Probable space group: C 2/M
;
_chemical_formula_sum "Si O2"
_cell_formula_units_Z 36
_cell_length_a 24.168858
_cell_length_b 10.314771
_cell_length_c 14.264862
_cell_angle_alpha 90.000000
_cell_angle_beta 27.900753
_cell_angle_gamma 90.000000
_cell_volume 1664.082265
_symmetry_space_group_name_H-M "C 2/M"
_symmetry_group_IT_number 12
_symmetry_cell_setting 'monoclinic'
loop_
_space_group_symop_operation_xyz
x,y,z
-x,y,-z
-x,-y,-z
x,-y,z
1/2+x,1/2+y,z
1/2-x,1/2+y,-z
1/2-x,1/2-y,-z
1/2+x,1/2-y,z
loop_
_atom_site_type_symbol
_atom_site_label
_atom_site_fract_x
_atom_site_fract_y
_atom_site_fract_z
Si Si1 0.112345 0.784688 0.951630
Si Si2 0.261675 0.000000 0.627904
Si Si3 0.675226 0.000000 0.871048
Si Si4 0.549766 0.500000 0.567125
Si Si5 0.576651 0.500000 0.751521
Si Si6 0.027052 0.500000 0.279398
Si Si7 0.614216 0.737148 0.174940
O O1 0.128796 0.635324 0.895461
O O2 0.214351 0.873944 0.754402
O O3 0.117929 0.780633 0.056310
O O4 0.994119 0.870090 0.110901
O O5 0.201547 0.000000 0.616036
O O6 0.401180 0.000000 0.418127
O O7 0.817019 0.000000 0.669708
O O8 0.623918 0.000000 0.052456
O O9 0.574700 0.500000 0.642491
O O10 0.466937 0.621281 0.666917
O O11 0.048335 0.368768 0.302011
O O12 0.750000 0.750000 0.000000
#
# Coordination Sequence:
#
# PCOD9201966 Si02
#       7
#     8   4   4   4   4   4   8
#     4   9  19  36  59  83 112 148 190 235 285 348
#     4  11  20  40  60  81 112 154 198 240 283 337
#     4  10  20  38  53  80 118 146 181 238 285 332
#     4  10  20  38  62  84 114 154 193 230 285 353
#     4   9  20  39  61  80 108 155 197 238 288 337
#     4  10  22  37  56  81 116 151 188 242 286 335
#     4  10  20  38  59  85 116 148 185 237 290 342
#
# _framework density 21.633547
#
# number of rings (size 3 to 8) (size 9 to 14) (size 15 to 20)
#    0.000    2.222    0.000    4.000    0.000    0.000 
#    0.000   40.556    0.000    0.000    0.000    0.000 
#    0.000    0.000    0.000    0.000    0.000    0.000 
#
# Total GULP energy -100456.689511 kJ/mol
# GULP energy per Si atom -5580.927195 kJ/mol
# Density = 2.158431 g / cm^3
# Si number density = 21.633547 Si / 1000 Ang^3
#
#
#
# Elastic Constant Matrix: (Units=GPa)
#
#
# Indices 1 2 3 4 5 6 
#
# 1 42.4552 10.7857 10.2450 0.0000 -14.5562 0.0000
# 2 10.7857 222.5053 57.9303 0.0000 -21.0332 0.0000
# 3 10.2450 57.9303 148.1719 0.0000 -28.3787 0.0000
# 4 0.0000 0.0000 0.0000 -44.0507 0.0000 -5.4338
# 5 -14.5562 -21.0332 -28.3787 0.0000 44.2695 0.0000
# 6 0.0000 0.0000 0.0000 -5.4338 0.0000 -14.5604
#
#
#
# Elastic Compliance Matrix: (Units=1/GPa)
#
#
# Indices 1 2 3 4 5 6 
#
# 1 0.026597 -0.000480 -0.000023 0.000000 0.008503 0.000000
# 2 -0.000480 0.005077 -0.001733 0.000000 0.001144 0.000000
# 3 -0.000023 -0.001733 0.008286 0.000000 0.004481 0.000000
# 4 0.000000 0.000000 0.000000 -0.023797 0.000000 0.008881
# 5 0.008503 0.001144 0.004481 0.000000 0.028801 0.000000
# 6 0.000000 0.000000 0.000000 0.008881 0.000000 -0.071994
#
#
# Mechanical properties :
#
#
# Convention : Reuss Voigt Hill
#
# Bulk Modulus (GPa) = 28.17741 63.45048 45.81394
# Shear Modulus (GPa) = -466.00083 19.40976 -223.29554
#
# Velocity S-wave (km/s) = -14.69266 2.99859 -10.17061
# Velocity P-wave (km/s) = 16.57646 6.43289 10.80271
#
# Compressibility (1/GPa) = 0.03548942
#
# Stress axis : x y z
#
# Youngs Moduli (GPa) = 37.59840 196.97722 120.68355
#
# Poissons Ratio (x) = 0.09445 0.00278
# Poissons Ratio (y) = 0.01803 0.20910
# Poissons Ratio (z) = 0.00087 0.34129
#
# Static dielectric constant tensor:
#      x y z
#    x 1.783140 0.000000 0.017620 
#    y 0.000000 1.880350 0.000000 
#    z 0.017620 0.000000 1.746630 
# 
# From -- ./inp_files/293055.got.cif
#   From: 2010.05.17/outbox.cif.g08.bks.cpg/sg12_147_cif.got.tgz:293055.got - 2010.06.03 13:09:07.
