data_PCOD9201483
_publ_section_title
;
Structure prediction by ZEFSAII (Michael W. Deem and Ramdas Pophale) SiO2 
 PCOD9201483
Probable space group: C 2/M
;
_chemical_formula_sum "Si O2"
_cell_formula_units_Z 48
_cell_length_a 17.520922
_cell_length_b 25.099336
_cell_length_c 8.117242
_cell_angle_alpha 90.000000
_cell_angle_beta 145.434601
_cell_angle_gamma 90.000000
_cell_volume 2025.238149
_symmetry_space_group_name_H-M "C 2/M"
_symmetry_group_IT_number 12
_symmetry_cell_setting 'monoclinic'
loop_
_space_group_symop_operation_xyz
x,y,z
-x,y,-z
-x,-y,-z
x,-y,z
1/2+x,1/2+y,z
1/2-x,1/2+y,-z
1/2-x,1/2-y,-z
1/2+x,1/2-y,z
loop_
_atom_site_type_symbol
_atom_site_label
_atom_site_fract_x
_atom_site_fract_y
_atom_site_fract_z
Si Si1 0.312709 0.560346 0.543129
Si Si2 0.759953 0.757661 0.822340
Si Si3 0.807587 0.619716 0.363236
Si Si4 0.944134 0.560543 0.090257
Si Si5 0.527164 0.699183 0.236336
Si Si6 0.945807 0.088392 0.232657
O O1 0.280929 0.500000 0.542308
O O2 0.266821 0.601904 0.599400
O O3 0.465630 0.562573 0.754716
O O4 0.213626 0.572142 0.212280
O O5 0.709640 0.817604 0.692923
O O6 0.671909 0.718741 0.552384
O O7 0.750000 0.750000 0.000000
O O8 0.917825 0.754215 0.064091
O O9 0.960517 0.600434 0.642130
O O10 0.714250 0.587499 0.068729
O O11 0.961411 0.500000 0.180874
O O12 0.000000 0.562062 0.000000
O O13 0.485247 0.650613 0.279380
O O14 0.500000 0.682376 0.000000
O O15 0.000000 0.067380 0.500000
#
# Coordination Sequence:
#
# PCOD9201483 Si02
#       6
#     8   8   8   8   8   8
#     4  10  21  39  64  93 123 158 205 258 310 370
#     4  11  23  40  61  91 129 165 205 260 326 381
#     4  10  20  37  62  90 117 159 208 252 308 371
#     4   8  16  33  59  90 120 149 193 255 308 355
#     4  11  23  41  63  89 120 159 213 266 312 373
#     4  11  23  39  57  84 124 164 203 253 311 367
#
# _framework density 23.700915999999999
#
# number of rings (size 3 to 8) (size 9 to 14) (size 15 to 20)
#    0.000    1.833    0.000    7.000    0.000    5.667 
#    0.000    4.167    0.000    2.000    0.000    0.000 
#    0.000    0.000    0.000    0.000    0.000    0.000 
#
# Total GULP energy -134120.365085 kJ/mol
# GULP energy per Si atom -5588.348545 kJ/mol
# Density = 2.364697 g / cm^3
# Si number density = 23.700916 Si / 1000 Ang^3
#
#
#
# Elastic Constant Matrix: (Units=GPa)
#
#
# Indices 1 2 3 4 5 6 
#
# 1 43.2451 6.2476 10.6496 0.0000 -22.5771 0.0000
# 2 6.2476 83.0701 41.7601 0.0000 -7.3833 0.0000
# 3 10.6496 41.7601 94.1032 0.0000 -6.6063 0.0000
# 4 0.0000 0.0000 0.0000 39.0688 0.0000 7.9571
# 5 -22.5771 -7.3833 -6.6063 0.0000 40.0887 0.0000
# 6 0.0000 0.0000 0.0000 7.9571 0.0000 -34.6528
#
#
#
# Elastic Compliance Matrix: (Units=1/GPa)
#
#
# Indices 1 2 3 4 5 6 
#
# 1 0.033333 0.000485 -0.002694 0.000000 0.018418 0.000000
# 2 0.000485 0.015623 -0.006846 0.000000 0.002022 0.000000
# 3 -0.002694 -0.006846 0.013936 0.000000 -0.000482 0.000000
# 4 0.000000 0.000000 0.000000 0.024452 0.000000 0.005615
# 5 0.018418 0.002022 -0.000482 0.000000 0.035610 0.000000
# 6 0.000000 0.000000 0.000000 0.005615 0.000000 -0.027568
#
#
# Mechanical properties :
#
#
# Convention : Reuss Voigt Hill
#
# Bulk Modulus (GPa) = 22.33135 37.52588 29.92862
# Shear Modulus (GPa) = 38.93385 19.68503 29.30944
#
# Velocity S-wave (km/s) = 4.05744 2.88507 3.52040
# Velocity P-wave (km/s) = 5.60295 5.19284 5.40179
#
# Compressibility (1/GPa) = 0.04478009
#
# Stress axis : x y z
#
# Youngs Moduli (GPa) = 30.00046 64.00929 71.75837
#
# Poissons Ratio (x) = -0.03101 0.19334
# Poissons Ratio (y) = -0.01454 0.49124
# Poissons Ratio (z) = 0.08083 0.43819
#
# Static dielectric constant tensor:
#      x y z
#    x 1.940900 0.000000 -0.011030 
#    y 0.000000 1.890990 0.000000 
#    z -0.011030 0.000000 1.956420 
# 
# From -- ./inp_files/91453.got.cif
#   From: 2010.05.17/outbox.cif.g08.bks.cpg/sg12_46_cif.got.tgz:91453.got - 2010.06.03 13:09:07.
