data_PCOD9201763
_publ_section_title
;
Structure prediction by ZEFSAII (Michael W. Deem and Ramdas Pophale) SiO2 
 PCOD9201763
Probable space group: C 2/M
;
_chemical_formula_sum "Si O2"
_cell_formula_units_Z 44
_cell_length_a 19.915049
_cell_length_b 14.768196
_cell_length_c 24.878830
_cell_angle_alpha 90.000000
_cell_angle_beta 164.413705
_cell_angle_gamma 90.000000
_cell_volume 1966.026451
_symmetry_space_group_name_H-M "C 2/M"
_symmetry_group_IT_number 12
_symmetry_cell_setting 'monoclinic'
loop_
_space_group_symop_operation_xyz
x,y,z
-x,y,-z
-x,-y,-z
x,-y,z
1/2+x,1/2+y,z
1/2-x,1/2+y,-z
1/2-x,1/2-y,-z
1/2+x,1/2-y,z
loop_
_atom_site_type_symbol
_atom_site_label
_atom_site_fract_x
_atom_site_fract_y
_atom_site_fract_z
Si Si1 0.575077 0.600217 0.474930
Si Si2 0.946623 0.596993 0.218984
Si Si3 0.500000 0.757031 0.500000
Si Si4 0.124452 0.785563 0.848009
Si Si5 0.877387 0.897971 0.739692
Si Si6 0.667443 0.103107 0.078299
O O1 0.502873 0.500000 0.440592
O O2 0.480733 0.684882 0.436334
O O3 0.446945 0.605394 0.317665
O O4 0.869820 0.599907 0.691264
O O5 0.004767 0.500000 0.291401
O O6 0.976900 0.699266 0.263426
O O7 0.654742 0.593051 0.978658
O O8 0.721204 0.825759 0.653933
O O9 0.332339 0.834061 0.972567
O O10 0.920740 0.856142 0.713502
O O11 0.250000 0.750000 0.000000
O O12 0.769659 0.000000 0.655060
O O13 0.601602 0.000000 0.013490
O O14 0.500000 0.130089 0.000000
#
# Coordination Sequence:
#
# PCOD9201763 Si02
#       6
#     8   8   4   8   8   8
#     4  10  22  38  59  90 125 164 213 267 322 375
#     4   9  19  37  58  85 118 157 209 262 308 369
#     4  12  22  36  60  92 128 176 216 260 318 382
#     4  10  20  37  64  91 116 165 214 256 317 382
#     4  10  21  36  59  89 124 164 215 264 310 376
#     4  10  23  40  62  95 133 166 206 269 331 381
#
# _framework density 22.380165999999999
#
# number of rings (size 3 to 8) (size 9 to 14) (size 15 to 20)
#    0.000    2.000    1.818    1.091    5.091    1.455 
#    0.000    5.455    0.000    1.636    0.000    0.000 
#    0.000    0.000    0.000    0.000    0.000    0.000 
#
# Total GULP energy -122539.047746 kJ/mol
# GULP energy per Si atom -5569.956716 kJ/mol
# Density = 2.232923 g / cm^3
# Si number density = 22.380166 Si / 1000 Ang^3
#
#
#
# Elastic Constant Matrix: (Units=GPa)
#
#
# Indices 1 2 3 4 5 6 
#
# 1 96.3212 62.1035 28.0404 -0.0214 27.2485 -0.0086
# 2 62.1035 171.2606 50.6398 0.0471 31.4551 -0.0234
# 3 28.0404 50.6398 63.9950 -0.0193 16.2280 -0.0625
# 4 -0.0214 0.0471 -0.0193 16.9750 -0.0591 6.2138
# 5 27.2485 31.4551 16.2280 -0.0591 30.0081 -0.0102
# 6 -0.0086 -0.0234 -0.0625 6.2138 -0.0102 31.8824
#
#
#
# Elastic Compliance Matrix: (Units=1/GPa)
#
#
# Indices 1 2 3 4 5 6 
#
# 1 0.015903 -0.003434 -0.001740 -0.000006 -0.009900 -0.000004
# 2 -0.003434 0.009230 -0.004794 -0.000051 -0.003964 0.000005
# 3 -0.001740 -0.004794 0.021449 0.000005 -0.004994 0.000035
# 4 -0.000006 -0.000051 0.000005 0.063437 0.000176 -0.012364
# 5 -0.009900 -0.003964 -0.004994 0.000176 0.049170 -0.000034
# 6 -0.000004 0.000005 0.000035 -0.012364 -0.000034 0.033775
#
#
# Mechanical properties :
#
#
# Convention : Reuss Voigt Hill
#
# Bulk Modulus (GPa) = 37.53004 68.12713 52.82859
# Shear Modulus (GPa) = 22.54466 28.49266 25.51866
#
# Velocity S-wave (km/s) = 3.17732 3.57195 3.38040
# Velocity P-wave (km/s) = 5.50147 6.89338 6.23638
#
# Compressibility (1/GPa) = 0.02664532
#
# Stress axis : x y z
#
# Youngs Moduli (GPa) = 62.87994 108.34319 46.62330
#
# Poissons Ratio (x) = 0.37205 0.08115
# Poissons Ratio (y) = 0.21593 0.22350
# Poissons Ratio (z) = 0.10944 0.51937
#
# Static dielectric constant tensor:
#      x y z
#    x 1.811400 0.000040 -0.009300 
#    y 0.000040 1.954230 -0.000170 
#    z -0.009300 -0.000170 1.897530 
# 
# From -- ./inp_files/344125.got.cif
#   From: 2010.05.17/outbox.cif.g08.bks.cpg/sg12_173_cif.got.tgz:344125.got - 2010.06.03 13:09:07.
