data_PCOD9201636
_publ_section_title
;
Structure prediction by ZEFSAII (Michael W. Deem and Ramdas Pophale) SiO2 
 PCOD9201636
Probable space group: C 2/M
;
_chemical_formula_sum "Si O2"
_cell_formula_units_Z 64
_cell_length_a 14.594752
_cell_length_b 14.542254
_cell_length_c 16.685499
_cell_angle_alpha 90.000000
_cell_angle_beta 58.170828
_cell_angle_gamma 90.000000
_cell_volume 3008.808603
_symmetry_space_group_name_H-M "C 2/M"
_symmetry_group_IT_number 12
_symmetry_cell_setting 'monoclinic'
loop_
_space_group_symop_operation_xyz
x,y,z
-x,y,-z
-x,-y,-z
x,-y,z
1/2+x,1/2+y,z
1/2-x,1/2+y,-z
1/2-x,1/2-y,-z
1/2+x,1/2-y,z
loop_
_atom_site_type_symbol
_atom_site_label
_atom_site_fract_x
_atom_site_fract_y
_atom_site_fract_z
Si Si1 0.614433 0.892122 0.968251
Si Si2 0.826741 0.696802 0.903183
Si Si3 0.801646 0.611744 0.235969
Si Si4 0.441971 0.274023 0.232415
Si Si5 0.277612 0.612047 0.204117
Si Si6 0.887518 0.103509 0.567001
Si Si7 0.111015 0.395063 0.414193
Si Si8 0.700510 0.343033 0.557516
O O1 0.696023 0.863107 0.859603
O O2 0.607466 0.000000 0.957019
O O3 0.500000 0.846396 0.000000
O O4 0.630813 0.879515 0.054205
O O5 0.756827 0.650691 0.865907
O O6 0.929370 0.759089 0.829836
O O7 0.750000 0.750000 0.000000
O O8 0.813956 0.500000 0.241069
O O9 0.892541 0.672318 0.238057
O O10 0.692811 0.642395 0.330440
O O11 0.384817 0.339787 0.191661
O O12 0.395717 0.316093 0.336928
O O13 0.288071 0.500000 0.200677
O O14 0.176091 0.641116 0.307487
O O15 0.834169 0.101754 0.504525
O O16 0.000000 0.152483 0.500000
O O17 0.910324 0.000000 0.585603
O O18 0.083892 0.500000 0.404924
O O19 0.203632 0.391446 0.438661
O O20 0.000000 0.354537 0.500000
O O21 0.750000 0.250000 0.500000
#
# Coordination Sequence:
#
# PCOD9201636 Si02
#       8
#     8   8   8   8   8   8   8   8
#     4  10  20  37  63  90 122 158 202 263 328 380
#     4  12  26  41  67  95 128 167 224 277 330 388
#     4  10  20  37  63  93 127 169 210 259 326 386
#     4  11  24  44  65  94 134 174 217 275 333 388
#     4  10  24  45  69  98 135 179 226 271 331 403
#     4  10  22  39  60  88 126 167 209 257 309 383
#     4   9  20  39  63  90 126 166 211 268 320 382
#     4  11  22  36  58  92 124 166 207 251 322 384
#
# _framework density 21.270879000000001
#
# number of rings (size 3 to 8) (size 9 to 14) (size 15 to 20)
#    0.000    1.625    2.500    1.500    1.750    3.500 
#    0.000    1.875    0.000    0.750    0.000    0.000 
#    0.000    0.000    0.000    0.000    0.000    0.000 
#
# Total GULP energy -178341.510990 kJ/mol
# GULP energy per Si atom -5573.172218 kJ/mol
# Density = 2.122247 g / cm^3
# Si number density = 21.270879 Si / 1000 Ang^3
#
#
#
# Elastic Constant Matrix: (Units=GPa)
#
#
# Indices 1 2 3 4 5 6 
#
# 1 59.5581 10.8388 50.7985 0.0000 -0.2263 0.0000
# 2 10.8388 97.9116 21.6800 0.0000 -8.4447 0.0000
# 3 50.7985 21.6800 146.6379 0.0000 -8.8974 0.0000
# 4 0.0000 0.0000 0.0000 34.0252 0.0000 14.5748
# 5 -0.2263 -8.4447 -8.8974 0.0000 44.2719 0.0000
# 6 0.0000 0.0000 0.0000 14.5748 0.0000 23.3417
#
#
#
# Elastic Compliance Matrix: (Units=1/GPa)
#
#
# Indices 1 2 3 4 5 6 
#
# 1 0.024027 -0.000974 -0.008284 0.000000 -0.001728 0.000000
# 2 -0.000974 0.010730 -0.001139 0.000000 0.001813 0.000000
# 3 -0.008284 -0.001139 0.009963 0.000000 0.001743 0.000000
# 4 0.000000 0.000000 0.000000 0.040121 0.000000 -0.025052
# 5 -0.001728 0.001813 0.001743 0.000000 0.023275 0.000000
# 6 0.000000 0.000000 0.000000 -0.025052 0.000000 0.058485
#
#
# Mechanical properties :
#
#
# Convention : Reuss Voigt Hill
#
# Bulk Modulus (GPa) = 41.79710 52.30469 47.05090
# Shear Modulus (GPa) = 25.59236 35.04710 30.31973
#
# Velocity S-wave (km/s) = 3.47243 4.06354 3.77956
# Velocity P-wave (km/s) = 5.98077 6.83079 6.41986
#
# Compressibility (1/GPa) = 0.02392510
#
# Stress axis : x y z
#
# Youngs Moduli (GPa) = 41.62002 93.19944 100.36674
#
# Poissons Ratio (x) = 0.09082 0.83146
# Poissons Ratio (y) = 0.04056 0.11430
# Poissons Ratio (z) = 0.34479 0.10613
#
# Static dielectric constant tensor:
#      x y z
#    x 1.447910 0.000000 -0.151500 
#    y 0.000000 2.042570 0.000000 
#    z -0.151500 0.000000 1.775050 
# 
# From -- ./inp_files/270653.got.cif
#   From: 2010.05.17/outbox.cif.g08.bks.cpg/sg12_136_cif.got.tgz:270653.got - 2010.06.03 13:09:07.
