data_PCOD9201657
_publ_section_title
;
Structure prediction by ZEFSAII (Michael W. Deem and Ramdas Pophale) SiO2 
 PCOD9201657
Probable space group: C 2/M
;
_chemical_formula_sum "Si O2"
_cell_formula_units_Z 48
_cell_length_a 27.619317
_cell_length_b 14.112880
_cell_length_c 12.659917
_cell_angle_alpha 90.000000
_cell_angle_beta 30.883331
_cell_angle_gamma 90.000000
_cell_volume 2532.932371
_symmetry_space_group_name_H-M "C 2/M"
_symmetry_group_IT_number 12
_symmetry_cell_setting 'monoclinic'
loop_
_space_group_symop_operation_xyz
x,y,z
-x,y,-z
-x,-y,-z
x,-y,z
1/2+x,1/2+y,z
1/2-x,1/2+y,-z
1/2-x,1/2-y,-z
1/2+x,1/2-y,z
loop_
_atom_site_type_symbol
_atom_site_label
_atom_site_fract_x
_atom_site_fract_y
_atom_site_fract_z
Si Si1 0.274516 0.887225 0.539643
Si Si2 0.705489 0.887020 0.060972
Si Si3 0.106192 0.254858 0.834912
Si Si4 0.919703 0.715802 0.874066
Si Si5 0.385084 0.112928 0.544884
Si Si6 0.584145 0.388448 0.261138
O O1 0.176080 0.835020 0.701048
O O2 0.350808 0.835256 0.322128
O O3 0.307702 0.870162 0.598486
O O4 0.271216 0.000000 0.528371
O O5 0.658877 0.833988 0.050962
O O6 0.653159 0.860503 0.268161
O O7 0.693896 0.000000 0.068691
O O8 0.815857 0.867864 0.870695
O O9 0.103442 0.291024 0.960068
O O10 0.000000 0.231392 0.000000
O O11 0.924945 0.823955 0.824675
O O12 0.019568 0.667037 0.661780
O O13 0.404016 0.000000 0.510554
O O14 0.500000 0.367524 0.500000
O O15 0.582340 0.500000 0.238639
#
# Coordination Sequence:
#
# PCOD9201657 Si02
#       6
#     8   8   8   8   8   8
#     4  10  23  44  68  90 123 167 208 256 315 368
#     4  10  21  37  58  91 123 152 198 253 306 369
#     4  11  24  43  63  94 127 160 215 262 304 370
#     4  12  22  36  63  89 122 158 197 254 312 360
#     4  10  20  37  63  92 120 154 199 251 312 375
#     4  10  22  39  57  84 124 166 204 240 298 374
#
# _framework density 18.950365999999999
#
# number of rings (size 3 to 8) (size 9 to 14) (size 15 to 20)
#    0.000    1.500    1.667    3.500    0.000    6.667 
#    0.000    0.000    0.000    0.000    0.000    0.000 
#    0.000    0.000    0.000    0.000    0.000    0.000 
#
# Total GULP energy -134200.622200 kJ/mol
# GULP energy per Si atom -5591.692592 kJ/mol
# Density = 1.890723 g / cm^3
# Si number density = 18.950366 Si / 1000 Ang^3
#
#
#
# Elastic Constant Matrix: (Units=GPa)
#
#
# Indices 1 2 3 4 5 6 
#
# 1 96.8155 28.8023 27.8723 0.0000 5.1209 0.0000
# 2 28.8023 53.9618 9.3915 0.0000 -7.8128 0.0000
# 3 27.8723 9.3915 76.9935 0.0000 -17.0204 0.0000
# 4 0.0000 0.0000 0.0000 14.6213 0.0000 1.1775
# 5 5.1209 -7.8128 -17.0204 0.0000 32.5918 0.0000
# 6 0.0000 0.0000 0.0000 1.1775 0.0000 27.3232
#
#
#
# Elastic Compliance Matrix: (Units=1/GPa)
#
#
# Indices 1 2 3 4 5 6 
#
# 1 0.014811 -0.007924 -0.006025 0.000000 -0.007373 0.000000
# 2 -0.007924 0.023592 0.001714 0.000000 0.007796 0.000000
# 3 -0.006025 0.001714 0.017252 0.000000 0.010367 0.000000
# 4 0.000000 0.000000 0.000000 0.068632 0.000000 -0.002958
# 5 -0.007373 0.007796 0.010367 0.000000 0.039124 0.000000
# 6 0.000000 0.000000 0.000000 -0.002958 0.000000 0.036726
#
#
# Mechanical properties :
#
#
# Convention : Reuss Voigt Hill
#
# Bulk Modulus (GPa) = 32.06729 39.98923 36.02826
# Shear Modulus (GPa) = 21.27650 25.68756 23.48203
#
# Velocity S-wave (km/s) = 3.35438 3.68573 3.52395
# Velocity P-wave (km/s) = 5.65340 6.26584 5.96748
#
# Compressibility (1/GPa) = 0.03118442
#
# Stress axis : x y z
#
# Youngs Moduli (GPa) = 67.51777 42.38802 57.96464
#
# Poissons Ratio (x) = 0.33590 0.34924
# Poissons Ratio (y) = 0.53503 -0.09937
# Poissons Ratio (z) = 0.40680 -0.07267
#
# Static dielectric constant tensor:
#      x y z
#    x 1.628160 0.000000 -0.006880 
#    y 0.000000 1.654960 0.000000 
#    z -0.006880 0.000000 1.646300 
# 
# From -- ./inp_files/142757.got.cif
#   From: 2010.05.17/outbox.cif.g08.bks.cpg/sg12_72_cif.got.tgz:142757.got - 2010.06.03 13:09:07.
