data_PCOD9201058
_publ_section_title
;
Structure prediction by ZEFSAII (Michael W. Deem and Ramdas Pophale) SiO2 
 PCOD9201058
Probable space group: C 2/M
;
_chemical_formula_sum "Si O2"
_cell_formula_units_Z 48
_cell_length_a 20.444602
_cell_length_b 15.698568
_cell_length_c 9.000663
_cell_angle_alpha 90.000000
_cell_angle_beta 52.611646
_cell_angle_gamma 90.000000
_cell_volume 2295.238953
_symmetry_space_group_name_H-M "C 2/M"
_symmetry_group_IT_number 12
_symmetry_cell_setting 'monoclinic'
loop_
_space_group_symop_operation_xyz
x,y,z
-x,y,-z
-x,-y,-z
x,-y,z
1/2+x,1/2+y,z
1/2-x,1/2+y,-z
1/2-x,1/2-y,-z
1/2+x,1/2-y,z
loop_
_atom_site_type_symbol
_atom_site_label
_atom_site_fract_x
_atom_site_fract_y
_atom_site_fract_z
Si Si1 0.300093 0.595905 0.064401
Si Si2 0.530945 0.774136 0.626367
Si Si3 0.751701 0.595690 0.191389
Si Si4 0.988871 0.907579 0.694496
Si Si5 0.938875 0.593958 0.945958
Si Si6 0.714245 0.231591 0.387144
O O1 0.289865 0.500000 0.140935
O O2 0.274603 0.669665 0.212067
O O3 0.245119 0.602863 0.991388
O O4 0.393206 0.601699 0.872897
O O5 0.500000 0.770066 0.500000
O O6 0.531504 0.678181 0.690279
O O7 0.465940 0.831707 0.800928
O O8 0.623262 0.808858 0.514519
O O9 0.718539 0.500000 0.269884
O O10 0.704590 0.677164 0.317905
O O11 0.844317 0.602306 0.124239
O O12 0.000000 0.909896 0.500000
O O13 0.017841 0.000000 0.711334
O O14 0.946497 0.500000 0.864505
O O15 0.000000 0.597073 0.000000
O O16 0.750000 0.250000 0.500000
#
# Coordination Sequence:
#
# PCOD9201058 Si02
#       6
#     8   8   8   8   8   8
#     4  10  21  39  63  88 117 155 201 250 295 351
#     4  11  22  36  58  85 114 150 192 238 284 342
#     4  10  20  37  61  83 108 151 203 249 292 344
#     4   9  18  35  60  88 114 143 188 245 296 341
#     4  10  21  37  56  78 108 148 192 239 289 339
#     4  12  25  38  57  88 126 161 192 239 301 361
#
# _framework density 20.912853999999999
#
# number of rings (size 3 to 8) (size 9 to 14) (size 15 to 20)
#    0.000    1.667    0.000    5.500    0.000    3.667 
#    0.000    0.000    0.000    2.500    0.000    0.000 
#    0.000    0.000    0.000    0.000    0.000    0.000 
#
# Total GULP energy -134008.864358 kJ/mol
# GULP energy per Si atom -5583.702682 kJ/mol
# Density = 2.086525 g / cm^3
# Si number density = 20.912854 Si / 1000 Ang^3
#
#
#
# Elastic Constant Matrix: (Units=GPa)
#
#
# Indices 1 2 3 4 5 6 
#
# 1 58.0476 -16.8157 6.3934 0.0000 -4.2162 0.0000
# 2 -16.8157 116.5970 28.3050 0.0000 8.1731 0.0000
# 3 6.3934 28.3050 30.5919 0.0000 -8.5650 0.0000
# 4 0.0000 0.0000 0.0000 9.6208 0.0000 -20.0302
# 5 -4.2162 8.1731 -8.5650 0.0000 29.6797 0.0000
# 6 0.0000 0.0000 0.0000 -20.0302 0.0000 45.4113
#
#
#
# Elastic Compliance Matrix: (Units=1/GPa)
#
#
# Indices 1 2 3 4 5 6 
#
# 1 0.019651 0.005173 -0.009259 0.000000 -0.001305 0.000000
# 2 0.005173 0.013721 -0.015915 0.000000 -0.007636 0.000000
# 3 -0.009259 -0.015915 0.054620 0.000000 0.018830 0.000000
# 4 0.000000 0.000000 0.000000 1.272698 0.000000 0.561369
# 5 -0.001305 -0.007636 0.018830 0.000000 0.041044 0.000000
# 6 0.000000 0.000000 0.000000 0.561369 0.000000 0.269632
#
#
# Mechanical properties :
#
#
# Convention : Reuss Voigt Hill
#
# Bulk Modulus (GPa) = 20.83682 26.77800 23.80741
# Shear Modulus (GPa) = 2.89458 29.43261 16.16360
#
# Velocity S-wave (km/s) = 1.17776 3.75559 2.78313
# Velocity P-wave (km/s) = 3.44017 5.62480 4.66225
#
# Compressibility (1/GPa) = 0.04799198
#
# Stress axis : x y z
#
# Youngs Moduli (GPa) = 50.88851 72.87918 18.30825
#
# Poissons Ratio (x) = -0.37701 0.16951
# Poissons Ratio (y) = -0.26325 0.29137
# Poissons Ratio (z) = 0.47116 1.15985
#
# Static dielectric constant tensor:
#      x y z
#    x 1.738130 0.000000 -0.034300 
#    y 0.000000 1.788630 0.000000 
#    z -0.034300 0.000000 1.727180 
# 
# From -- ./inp_files/87729.got.cif
#   From: 2010.05.17/outbox.cif.g08.bks.cpg/sg12_44_cif.got.tgz:87729.got - 2010.06.03 13:09:07.
