data_PCOD9201985
_publ_section_title
;
Structure prediction by ZEFSAII (Michael W. Deem and Ramdas Pophale) SiO2 
 PCOD9201985
Probable space group: C 2/M
;
_chemical_formula_sum "Si O2"
_cell_formula_units_Z 32
_cell_length_a 7.825132
_cell_length_b 21.748428
_cell_length_c 11.912557
_cell_angle_alpha 90.000000
_cell_angle_beta 129.689212
_cell_angle_gamma 90.000000
_cell_volume 1560.070918
_symmetry_space_group_name_H-M "C 2/M"
_symmetry_group_IT_number 12
_symmetry_cell_setting 'monoclinic'
loop_
_space_group_symop_operation_xyz
x,y,z
-x,y,-z
-x,-y,-z
x,-y,z
1/2+x,1/2+y,z
1/2-x,1/2+y,-z
1/2-x,1/2-y,-z
1/2+x,1/2-y,z
loop_
_atom_site_type_symbol
_atom_site_label
_atom_site_fract_x
_atom_site_fract_y
_atom_site_fract_z
Si Si1 0.084515 0.293443 0.199886
Si Si2 0.818607 0.072630 0.708596
Si Si3 0.141294 0.168451 0.901238
Si Si4 0.891374 0.645793 0.560162
O O1 0.245316 0.318899 0.171708
O O2 0.157125 0.313464 0.353655
O O3 0.047269 0.220784 0.167236
O O4 0.838307 0.320595 0.071620
O O5 0.587551 0.096105 0.666729
O O6 0.803226 0.106496 0.579944
O O7 0.026101 0.102824 0.857762
O O8 0.825797 0.000000 0.702971
O O9 0.000000 0.682703 0.500000
#
# Coordination Sequence:
#
# PCOD9201985 Si02
#       4
#     8   8   8   8
#     4  10  20  38  55  85 108 140 184 223 282 309
#     4   9  19  38  56  81 110 145 184 217 269 324
#     4  10  21  35  60  79 112 143 178 231 264 329
#     4   8  19  36  57  80 106 143 176 227 266 316
#
# _framework density 20.511887000000002
#
# number of rings (size 3 to 8) (size 9 to 14) (size 15 to 20)
#    1.500    1.000    0.000    3.000    0.000    5.000 
#    0.000   10.000    0.000    0.000    0.000    0.000 
#    0.000    0.000    0.000    0.000    0.000    0.000 
#
# Total GULP energy -89188.153833 kJ/mol
# GULP energy per Si atom -5574.259615 kJ/mol
# Density = 2.046520 g / cm^3
# Si number density = 20.511887 Si / 1000 Ang^3
#
#
#
# Elastic Constant Matrix: (Units=GPa)
#
#
# Indices 1 2 3 4 5 6 
#
# 1 50.6276 16.5611 17.2039 0.0000 -13.0289 0.0000
# 2 16.5611 71.9430 31.0297 0.0000 4.0807 0.0000
# 3 17.2039 31.0297 38.0052 0.0000 0.9123 0.0000
# 4 0.0000 0.0000 0.0000 23.7521 0.0000 1.7717
# 5 -13.0289 4.0807 0.9123 0.0000 32.9703 0.0000
# 6 0.0000 0.0000 0.0000 1.7717 0.0000 2.0884
#
#
#
# Elastic Compliance Matrix: (Units=1/GPa)
#
#
# Indices 1 2 3 4 5 6 
#
# 1 0.027004 -0.002262 -0.010647 0.000000 0.011246 0.000000
# 2 -0.002262 0.021801 -0.016701 0.000000 -0.003130 0.000000
# 3 -0.010647 -0.016701 0.044849 0.000000 -0.003381 0.000000
# 4 0.000000 0.000000 0.000000 0.044946 0.000000 -0.038129
# 5 0.011246 -0.003130 -0.003381 0.000000 0.035255 0.000000
# 6 0.000000 0.000000 0.000000 -0.038129 0.000000 0.511189
#
#
# Mechanical properties :
#
#
# Convention : Reuss Voigt Hill
#
# Bulk Modulus (GPa) = 29.04098 32.24060 30.64079
# Shear Modulus (GPa) = 6.61601 18.14756 12.38178
#
# Velocity S-wave (km/s) = 1.79790 2.97767 2.45957
# Velocity P-wave (km/s) = 4.30102 5.25111 4.79963
#
# Compressibility (1/GPa) = 0.03443410
#
# Stress axis : x y z
#
# Youngs Moduli (GPa) = 37.03137 45.86864 22.29721
#
# Poissons Ratio (x) = 0.10375 0.23740
# Poissons Ratio (y) = 0.08376 0.37238
# Poissons Ratio (z) = 0.39428 0.76605
#
# Static dielectric constant tensor:
#      x y z
#    x 1.751090 0.000000 0.002320 
#    y 0.000000 1.686510 0.000000 
#    z 0.002320 0.000000 1.788010 
# 
# From -- ./inp_files/38478.got.cif
#   From: 2010.05.17/outbox.cif.g08.bks.cpg/sg12_20_cif.got.tgz:38478.got - 2010.06.03 13:09:07.
