data_PCOD9201680
_publ_section_title
;
Structure prediction by ZEFSAII (Michael W. Deem and Ramdas Pophale) SiO2 
 PCOD9201680
Probable space group: C 2/M
;
_chemical_formula_sum "Si O2"
_cell_formula_units_Z 44
_cell_length_a 5.532941
_cell_length_b 17.765585
_cell_length_c 18.660259
_cell_angle_alpha 90.000000
_cell_angle_beta 94.258062
_cell_angle_gamma 90.000000
_cell_volume 1829.164649
_symmetry_space_group_name_H-M "C 2/M"
_symmetry_group_IT_number 12
_symmetry_cell_setting 'monoclinic'
loop_
_space_group_symop_operation_xyz
x,y,z
-x,y,-z
-x,-y,-z
x,-y,z
1/2+x,1/2+y,z
1/2-x,1/2+y,-z
1/2-x,1/2-y,-z
1/2+x,1/2-y,z
loop_
_atom_site_type_symbol
_atom_site_label
_atom_site_fract_x
_atom_site_fract_y
_atom_site_fract_z
Si Si1 0.629431 0.415174 0.909295
Si Si2 0.257349 0.662611 0.529369
Si Si3 0.693431 0.407151 0.315002
Si Si4 0.438750 0.729191 0.855993
Si Si5 0.000000 0.670159 0.000000
Si Si6 0.830189 0.412440 0.760833
O O1 0.546641 0.500000 0.914561
O O2 0.428747 0.357176 0.878585
O O3 0.770286 0.383351 0.980869
O O4 0.820982 0.410851 0.847091
O O5 0.500000 0.629110 0.500000
O O6 0.250000 0.750000 0.500000
O O7 0.279170 0.643232 0.613294
O O8 0.000000 0.629156 0.500000
O O9 0.698395 0.500000 0.326759
O O10 0.431792 0.387374 0.275199
O O11 0.921453 0.385274 0.269466
O O12 0.688010 0.742714 0.818896
O O13 0.496505 0.775770 0.930744
O O14 0.830277 0.500000 0.741813
#
# Coordination Sequence:
#
# PCOD9201680 Si02
#       6
#     8   8   8   8   4   8
#     4  10  20  37  63  93 121 162 217 267 320 371
#     4  10  21  37  62  87 123 159 190 240 297 336
#     4  10  20  38  62  89 122 160 198 239 294 359
#     4  10  21  39  60  81 118 162 195 256 319 372
#     4  10  21  40  63  86 128 164 208 272 325 378
#     4   9  20  36  58  87 123 160 198 250 302 357
#
# _framework density 24.054697999999998
#
# number of rings (size 3 to 8) (size 9 to 14) (size 15 to 20)
#    0.000    2.182    0.000    3.545    0.000    3.636 
#    0.000   11.364   48.000    0.000    0.000    0.000 
#    0.000    0.000    0.000    0.000    0.000    0.000 
#
# Total GULP energy -122799.295492 kJ/mol
# GULP energy per Si atom -5581.786159 kJ/mol
# Density = 2.399995 g / cm^3
# Si number density = 24.054698 Si / 1000 Ang^3
#
#
#
# Elastic Constant Matrix: (Units=GPa)
#
#
# Indices 1 2 3 4 5 6 
#
# 1 194.3705 33.4828 54.5454 0.0000 -10.1713 0.0000
# 2 33.4828 146.3911 37.2309 0.0000 17.8840 0.0000
# 3 54.5454 37.2309 120.8079 0.0000 2.3516 0.0000
# 4 0.0000 0.0000 0.0000 42.5264 0.0000 2.4518
# 5 -10.1713 17.8840 2.3516 0.0000 30.1448 0.0000
# 6 0.0000 0.0000 0.0000 2.4518 0.0000 13.4247
#
#
#
# Elastic Compliance Matrix: (Units=1/GPa)
#
#
# Indices 1 2 3 4 5 6 
#
# 1 0.006200 -0.001143 -0.002505 0.000000 0.002966 0.000000
# 2 -0.001143 0.008202 -0.001912 0.000000 -0.005103 0.000000
# 3 -0.002505 -0.001912 0.010007 0.000000 -0.000491 0.000000
# 4 0.000000 0.000000 0.000000 0.023765 0.000000 -0.004340
# 5 0.002966 -0.005103 -0.000491 0.000000 0.037239 0.000000
# 6 0.000000 0.000000 0.000000 -0.004340 0.000000 0.075282
#
#
# Mechanical properties :
#
#
# Convention : Reuss Voigt Hill
#
# Bulk Modulus (GPa) = 75.25020 79.12083 77.18552
# Shear Modulus (GPa) = 28.36942 39.63989 34.00465
#
# Velocity S-wave (km/s) = 3.43792 4.06385 3.76392
# Velocity P-wave (km/s) = 6.86367 7.41507 7.14469
#
# Compressibility (1/GPa) = 0.01328900
#
# Stress axis : x y z
#
# Youngs Moduli (GPa) = 161.29509 121.91803 99.92672
#
# Poissons Ratio (x) = 0.13939 0.25028
# Poissons Ratio (y) = 0.18442 0.19108
# Poissons Ratio (z) = 0.40398 0.23314
#
# Static dielectric constant tensor:
#      x y z
#    x 2.072040 0.000000 -0.047630 
#    y 0.000000 1.950070 0.000000 
#    z -0.047630 0.000000 1.917050 
# 
# From -- ./inp_files/252930.got.cif
#   From: 2010.05.17/outbox.cif.g08.bks.cpg/sg12_127_cif.got.tgz:252930.got - 2010.06.03 13:09:07.
