data_PCOD9201550
_publ_section_title
;
Structure prediction by ZEFSAII (Michael W. Deem and Ramdas Pophale) SiO2 
 PCOD9201550
Probable space group: C 2/M
;
_chemical_formula_sum "Si O2"
_cell_formula_units_Z 58
_cell_length_a 5.412909
_cell_length_b 28.470470
_cell_length_c 22.186432
_cell_angle_alpha 90.000000
_cell_angle_beta 58.633456
_cell_angle_gamma 90.000000
_cell_volume 2919.422102
_symmetry_space_group_name_H-M "C 2/M"
_symmetry_group_IT_number 12
_symmetry_cell_setting 'monoclinic'
loop_
_space_group_symop_operation_xyz
x,y,z
-x,y,-z
-x,-y,-z
x,-y,z
1/2+x,1/2+y,z
1/2-x,1/2+y,-z
1/2-x,1/2-y,-z
1/2+x,1/2-y,z
loop_
_atom_site_type_symbol
_atom_site_label
_atom_site_fract_x
_atom_site_fract_y
_atom_site_fract_z
Si Si1 0.250177 0.947820 0.801868
Si Si2 0.688201 0.180455 0.918889
Si Si3 0.729302 0.921960 0.567528
Si Si4 0.203383 0.122250 0.700473
Si Si5 0.485967 0.276491 0.768970
Si Si6 0.500000 0.000000 0.500000
Si Si7 0.893993 0.951418 0.670821
Si Si8 0.814162 0.119581 0.080291
O O1 0.134739 0.911787 0.766224
O O2 0.579709 0.953063 0.739530
O O3 0.246780 0.922460 0.866375
O O4 0.115515 0.000000 0.819124
O O5 0.808196 0.215982 0.853924
O O6 0.471809 0.145132 0.909871
O O7 0.970818 0.155215 0.911501
O O8 0.500000 0.198837 0.000000
O O9 0.519202 0.887260 0.631769
O O10 0.568561 0.957671 0.542575
O O11 0.873693 0.952575 0.602005
O O12 0.000000 0.898032 0.500000
O O13 0.117131 0.174022 0.730401
O O14 0.012918 0.098766 0.673186
O O15 0.755291 0.243026 0.750457
O O16 0.048436 0.000000 0.671971
O O17 0.000000 0.102483 0.000000
#
# Coordination Sequence:
#
# PCOD9201550 Si02
#       8
#     8   8   8   8   8   2   8   8
#     4  10  21  36  59  91 127 177 225 269 321 396
#     4  10  21  40  66  94 130 169 215 282 358 414
#     4  11  24  37  62  96 140 176 213 258 320 390
#     4  11  24  41  66  89 135 174 219 276 338 396
#     4  12  27  44  71  99 128 172 230 289 344 405
#     4  12  22  40  60 110 144 180 214 264 312 414
#     4  10  21  37  61  94 131 177 215 255 322 397
#     4  10  20  37  62  91 131 179 220 273 336 399
#
# _framework density 19.866945000000001
#
# number of rings (size 3 to 8) (size 9 to 14) (size 15 to 20)
#    0.000    1.379    2.069    3.103    7.724    0.828 
#    0.000    0.000    0.000    3.310    0.000    0.000 
#    0.000    0.000    0.000    0.000    0.000    0.000 
#
# Total GULP energy -161470.106502 kJ/mol
# GULP energy per Si atom -5567.934707 kJ/mol
# Density = 1.982173 g / cm^3
# Si number density = 19.866945 Si / 1000 Ang^3
#
#
#
# Elastic Constant Matrix: (Units=GPa)
#
#
# Indices 1 2 3 4 5 6 
#
# 1 70.4525 25.0593 27.3457 0.0000 11.1505 0.0000
# 2 25.0593 80.6083 23.8908 0.0000 -7.5839 0.0000
# 3 27.3457 23.8908 73.5831 0.0000 7.8507 0.0000
# 4 0.0000 0.0000 0.0000 41.6023 0.0000 -14.6424
# 5 11.1505 -7.5839 7.8507 0.0000 27.2623 0.0000
# 6 0.0000 0.0000 0.0000 -14.6424 0.0000 35.2221
#
#
#
# Elastic Compliance Matrix: (Units=1/GPa)
#
#
# Indices 1 2 3 4 5 6 
#
# 1 0.019119 -0.005361 -0.004510 0.000000 -0.008013 0.000000
# 2 -0.005361 0.016003 -0.004036 0.000000 0.007807 0.000000
# 3 -0.004510 -0.004036 0.017023 0.000000 -0.004180 0.000000
# 4 0.000000 0.000000 0.000000 0.028157 0.000000 0.011705
# 5 -0.008013 0.007807 -0.004180 0.000000 0.043333 0.000000
# 6 0.000000 0.000000 0.000000 0.011705 0.000000 0.033257
#
#
# Mechanical properties :
#
#
# Convention : Reuss Voigt Hill
#
# Bulk Modulus (GPa) = 41.10070 41.91506 41.50788
# Shear Modulus (GPa) = 25.93120 30.70722 28.31921
#
# Velocity S-wave (km/s) = 3.61673 3.93573 3.77960
# Velocity P-wave (km/s) = 6.17850 6.46506 6.32341
#
# Compressibility (1/GPa) = 0.02433048
#
# Stress axis : x y z
#
# Youngs Moduli (GPa) = 52.30267 62.48789 58.74526
#
# Poissons Ratio (x) = 0.33500 0.26494
# Poissons Ratio (y) = 0.28040 0.23712
# Poissons Ratio (z) = 0.23588 0.25223
#
# Static dielectric constant tensor:
#      x y z
#    x 1.802800 0.000000 -0.020270 
#    y 0.000000 1.642310 0.000000 
#    z -0.020270 0.000000 1.740820 
# 
# From -- ./inp_files/298363.got.cif
#   From: 2010.05.17/outbox.cif.g08.bks.cpg/sg12_150_cif.got.tgz:298363.got - 2010.06.03 13:09:07.
