data_PCOD9201135
_publ_section_title
;
Structure prediction by ZEFSAII (Michael W. Deem and Ramdas Pophale) SiO2 
 PCOD9201135
Probable space group: C 2/M
;
_chemical_formula_sum "Si O2"
_cell_formula_units_Z 58
_cell_length_a 19.922334
_cell_length_b 9.762140
_cell_length_c 18.589836
_cell_angle_alpha 90.000000
_cell_angle_beta 133.737739
_cell_angle_gamma 90.000000
_cell_volume 2612.196401
_symmetry_space_group_name_H-M "C 2/M"
_symmetry_group_IT_number 12
_symmetry_cell_setting 'monoclinic'
loop_
_space_group_symop_operation_xyz
x,y,z
-x,y,-z
-x,-y,-z
x,-y,z
1/2+x,1/2+y,z
1/2-x,1/2+y,-z
1/2-x,1/2-y,-z
1/2+x,1/2-y,z
loop_
_atom_site_type_symbol
_atom_site_label
_atom_site_fract_x
_atom_site_fract_y
_atom_site_fract_z
Si Si1 0.537136 0.243627 0.429607
Si Si2 0.623387 0.342734 0.350921
Si Si3 0.815128 0.337849 0.812131
Si Si4 0.000000 0.000000 0.500000
Si Si5 0.340205 0.658118 0.058621
Si Si6 0.788471 0.650288 0.377075
Si Si7 0.975273 0.161916 0.877066
Si Si8 0.361787 0.343117 0.239127
O O1 0.583820 0.253324 0.385626
O O2 0.544977 0.381411 0.481380
O O3 0.602950 0.147329 0.524898
O O4 0.427355 0.237450 0.329962
O O5 0.606392 0.500000 0.359869
O O6 0.730813 0.328546 0.408264
O O7 0.572392 0.321519 0.236800
O O8 0.831020 0.500000 0.812104
O O9 0.748227 0.270059 0.701781
O O10 0.910888 0.253694 0.880614
O O11 0.747717 0.321543 0.830852
O O12 0.315298 0.500000 0.024363
O O13 0.418210 0.702084 0.059166
O O14 0.384218 0.658458 0.171661
O O15 0.250000 0.750000 0.000000
O O16 0.759352 0.500000 0.326589
O O17 0.972178 0.000000 0.893483
O O18 0.380370 0.500000 0.281203
#
# Coordination Sequence:
#
# PCOD9201135 Si02
#       8
#     8   8   8   2   8   8   8   8
#     4  12  20  34  54  81 114 155 202 243 289 342
#     4   9  16  33  56  78 108 150 196 237 289 345
#     4  10  21  36  60  89 117 154 202 243 290 350
#     4  12  24  28  54  88 112 144 200 256 272 336
#     4  10  21  40  67  94 119 152 191 244 298 363
#     4  10  23  37  52  80 119 158 197 245 297 346
#     4   9  18  37  62  86 116 157 187 234 300 362
#     4  10  20  37  61  86 118 152 196 247 307 350
#
# _framework density 22.203538000000002
#
# number of rings (size 3 to 8) (size 9 to 14) (size 15 to 20)
#    0.000    1.931    2.759    2.483    2.897    0.552 
#    0.000    9.310    0.000    4.138    0.000    0.000 
#    0.000    0.000    0.000    0.000    0.000    0.000 
#
# Total GULP energy -161465.081471 kJ/mol
# GULP energy per Si atom -5567.761430 kJ/mol
# Density = 2.215300 g / cm^3
# Si number density = 22.203538 Si / 1000 Ang^3
#
#
#
# Elastic Constant Matrix: (Units=GPa)
#
#
# Indices 1 2 3 4 5 6 
#
# 1 127.8722 41.7367 30.2392 0.0000 25.9328 0.0000
# 2 41.7367 65.6159 29.5283 0.0000 19.0571 0.0000
# 3 30.2392 29.5283 84.2581 0.0000 33.6888 0.0000
# 4 0.0000 0.0000 0.0000 21.0316 0.0000 12.7242
# 5 25.9328 19.0571 33.6888 0.0000 48.4640 0.0000
# 6 0.0000 0.0000 0.0000 12.7242 0.0000 24.5272
#
#
#
# Elastic Compliance Matrix: (Units=1/GPa)
#
#
# Indices 1 2 3 4 5 6 
#
# 1 0.010344 -0.005439 -0.000621 0.000000 -0.002965 0.000000
# 2 -0.005439 0.021459 -0.004651 0.000000 -0.002295 0.000000
# 3 -0.000621 -0.004651 0.017806 0.000000 -0.010216 0.000000
# 4 0.000000 0.000000 0.000000 0.069297 0.000000 -0.035950
# 5 -0.002965 -0.002295 -0.010216 0.000000 0.030224 0.000000
# 6 0.000000 0.000000 0.000000 -0.035950 0.000000 0.059421
#
#
# Mechanical properties :
#
#
# Convention : Reuss Voigt Hill
#
# Bulk Modulus (GPa) = 35.47678 53.41718 44.44698
# Shear Modulus (GPa) = 20.88829 30.55403 25.72116
#
# Velocity S-wave (km/s) = 3.07052 3.71359 3.40726
# Velocity P-wave (km/s) = 5.34635 6.51904 5.96160
#
# Compressibility (1/GPa) = 0.02818745
#
# Stress axis : x y z
#
# Youngs Moduli (GPa) = 96.67851 46.59994 56.16157
#
# Poissons Ratio (x) = 0.25345 0.03487
# Poissons Ratio (y) = 0.52583 0.26120
# Poissons Ratio (z) = 0.06002 0.21673
#
# Static dielectric constant tensor:
#      x y z
#    x 1.861390 0.000000 0.020670 
#    y 0.000000 1.746140 0.000000 
#    z 0.020670 0.000000 1.912250 
# 
# From -- ./inp_files/346509.got.cif
#   From: 2010.05.17/outbox.cif.g08.bks.cpg/sg12_174_cif.got.tgz:346509.got - 2010.06.03 13:09:07.
