data_PCOD9201030
_publ_section_title
;
Structure prediction by ZEFSAII (Michael W. Deem and Ramdas Pophale) SiO2 
 PCOD9201030
Probable space group: C 2/M
;
_chemical_formula_sum "Si O2"
_cell_formula_units_Z 56
_cell_length_a 15.751260
_cell_length_b 15.516209
_cell_length_c 11.491264
_cell_angle_alpha 90.000000
_cell_angle_beta 87.833736
_cell_angle_gamma 90.000000
_cell_volume 2806.456029
_symmetry_space_group_name_H-M "C 2/M"
_symmetry_group_IT_number 12
_symmetry_cell_setting 'monoclinic'
loop_
_space_group_symop_operation_xyz
x,y,z
-x,y,-z
-x,-y,-z
x,-y,z
1/2+x,1/2+y,z
1/2-x,1/2+y,-z
1/2-x,1/2-y,-z
1/2+x,1/2-y,z
loop_
_atom_site_type_symbol
_atom_site_label
_atom_site_fract_x
_atom_site_fract_y
_atom_site_fract_z
Si Si1 0.338753 0.305294 0.613573
Si Si2 0.096181 0.907909 0.211269
Si Si3 0.655165 0.731611 0.042427
Si Si4 0.007636 0.669210 0.363763
Si Si5 0.440640 0.905113 0.886841
Si Si6 0.899501 0.899477 0.152706
Si Si7 0.335479 0.280463 0.346690
O O1 0.380511 0.393066 0.657119
O O2 0.409710 0.231316 0.633044
O O3 0.325847 0.314077 0.477339
O O4 0.247333 0.277956 0.669564
O O5 0.996987 0.899155 0.190298
O O6 0.124478 0.000000 0.165107
O O7 0.146971 0.831395 0.150769
O O8 0.608556 0.672855 0.947230
O O9 0.750000 0.750000 0.000000
O O10 0.615401 0.822174 0.080582
O O11 0.019677 0.611618 0.245295
O O12 0.000000 0.634019 0.500000
O O13 0.922729 0.725093 0.341396
O O14 0.398830 0.000000 0.883926
O O15 0.500000 0.907796 0.000000
O O16 0.842328 0.859520 0.257481
O O17 0.879880 0.000000 0.123436
#
# Coordination Sequence:
#
# PCOD9201030 Si02
#       7
#     8   8   8   8   8   8   8
#     4  10  20  37  60  91 123 173 212 256 319 380
#     4  11  22  38  62  91 123 161 207 260 318 386
#     4  12  24  41  62  87 128 167 208 264 323 387
#     4  10  20  40  66  92 129 173 218 266 327 394
#     4  11  24  42  65  91 123 166 219 272 324 385
#     4  11  23  38  62  94 126 167 212 262 328 393
#     4  10  20  37  62  88 127 171 213 260 316 384
#
# _framework density 19.953990999999998
#
# number of rings (size 3 to 8) (size 9 to 14) (size 15 to 20)
#    0.000    1.286    2.857    3.429    0.000    3.143 
#    0.000    3.571    0.000    5.143    0.000    0.000 
#    0.000    0.000    0.000    0.000    0.000    0.000 
#
# Total GULP energy -155976.311638 kJ/mol
# GULP energy per Si atom -5570.582558 kJ/mol
# Density = 1.990857 g / cm^3
# Si number density = 19.953991 Si / 1000 Ang^3
#
#
#
# Elastic Constant Matrix: (Units=GPa)
#
#
# Indices 1 2 3 4 5 6 
#
# 1 74.2468 37.3149 27.8099 0.0000 1.7348 0.0000
# 2 37.3149 148.6882 57.9576 0.0000 -7.3225 0.0000
# 3 27.8099 57.9576 112.1299 0.0000 5.2928 0.0000
# 4 0.0000 0.0000 0.0000 8.0357 0.0000 6.0763
# 5 1.7348 -7.3225 5.2928 0.0000 28.0572 0.0000
# 6 0.0000 0.0000 0.0000 6.0763 0.0000 8.5455
#
#
#
# Elastic Compliance Matrix: (Units=1/GPa)
#
#
# Indices 1 2 3 4 5 6 
#
# 1 0.015947 -0.003200 -0.002235 0.000000 -0.001399 0.000000
# 2 -0.003200 0.009331 -0.004191 0.000000 0.003424 0.000000
# 3 -0.002235 -0.004191 0.011789 0.000000 -0.003179 0.000000
# 4 0.000000 0.000000 0.000000 0.269166 0.000000 -0.191388
# 5 -0.001399 0.003424 -0.003179 0.000000 0.037221 0.000000
# 6 0.000000 0.000000 0.000000 -0.191388 0.000000 0.253106
#
#
# Mechanical properties :
#
#
# Convention : Reuss Voigt Hill
#
# Bulk Modulus (GPa) = 56.13309 64.58106 60.35708
# Shear Modulus (GPa) = 8.04185 23.05986 15.55085
#
# Velocity S-wave (km/s) = 2.00971 3.40318 2.79469
# Velocity P-wave (km/s) = 5.79462 6.91935 6.38181
#
# Compressibility (1/GPa) = 0.01781480
#
# Stress axis : x y z
#
# Youngs Moduli (GPa) = 62.70951 107.17387 84.82625
#
# Poissons Ratio (x) = 0.34292 0.18959
# Poissons Ratio (y) = 0.20065 0.35549
# Poissons Ratio (z) = 0.14016 0.44915
#
# Static dielectric constant tensor:
#      x y z
#    x 1.672690 0.000000 0.001590 
#    y 0.000000 1.833110 0.000000 
#    z 0.001590 0.000000 1.856340 
# 
# From -- ./inp_files/143700.got.cif
#   From: 2010.05.17/outbox.cif.g08.bks.cpg/sg12_72_cif.got.tgz:143700.got - 2010.06.03 13:09:07.
