data_PCOD9201995
_publ_section_title
;
Structure prediction by ZEFSAII (Michael W. Deem and Ramdas Pophale) SiO2 
 PCOD9201995
Probable space group: C 2/M
;
_chemical_formula_sum "Si O2"
_cell_formula_units_Z 56
_cell_length_a 21.008129
_cell_length_b 15.430344
_cell_length_c 20.760867
_cell_angle_alpha 90.000000
_cell_angle_beta 23.516571
_cell_angle_gamma 90.000000
_cell_volume 2685.325351
_symmetry_space_group_name_H-M "C 2/M"
_symmetry_group_IT_number 12
_symmetry_cell_setting 'monoclinic'
loop_
_space_group_symop_operation_xyz
x,y,z
-x,y,-z
-x,-y,-z
x,-y,z
1/2+x,1/2+y,z
1/2-x,1/2+y,-z
1/2-x,1/2-y,-z
1/2+x,1/2-y,z
loop_
_atom_site_type_symbol
_atom_site_label
_atom_site_fract_x
_atom_site_fract_y
_atom_site_fract_z
Si Si1 0.049622 0.651068 0.386926
Si Si2 0.152866 0.829247 0.430683
Si Si3 0.816295 0.716478 0.151732
Si Si4 0.381706 0.771456 0.323975
Si Si5 0.359156 0.596894 0.773484
Si Si6 0.047538 0.097934 0.163937
Si Si7 0.910049 0.404728 0.791805
O O1 0.226871 0.691403 0.230113
O O2 0.036835 0.602619 0.331569
O O3 0.000000 0.607037 0.500000
O O4 0.935160 0.735518 0.486861
O O5 0.225372 0.837429 0.292542
O O6 0.296689 0.825738 0.347354
O O7 0.015725 0.892470 0.583372
O O8 0.772384 0.665860 0.127094
O O9 0.000000 0.722994 0.000000
O O10 0.250000 0.750000 0.500000
O O11 0.443044 0.679541 0.240086
O O12 0.516132 0.828043 0.234429
O O13 0.294475 0.500000 0.828954
O O14 0.417958 0.611108 0.791808
O O15 0.981097 0.000000 0.217106
O O16 0.219256 0.101446 0.971211
O O17 0.955341 0.500000 0.775511
#
# Coordination Sequence:
#
# PCOD9201995 Si02
#       7
#     8   8   8   8   8   8   8
#     4   9  19  40  59  79 114 151 191 237 292 343
#     4  10  21  36  55  87 112 149 198 234 285 355
#     4  10  22  35  57  85 110 146 203 247 284 344
#     4  12  21  37  64  89 120 156 196 242 298 347
#     4  10  20  38  56  76 117 159 189 236 296 350
#     4  10  23  40  60  88 121 156 195 243 298 355
#     4  11  24  39  60  90 121 156 197 241 294 356
#
# _framework density 20.854084
#
# number of rings (size 3 to 8) (size 9 to 14) (size 15 to 20)
#    0.000    1.714    2.857    2.571    4.000    2.857 
#    0.000    0.000    0.000    0.429    0.000    0.000 
#    0.000    0.000    0.000    0.000    0.000    0.000 
#
# Total GULP energy -156373.187092 kJ/mol
# GULP energy per Si atom -5584.756682 kJ/mol
# Density = 2.080662 g / cm^3
# Si number density = 20.854084 Si / 1000 Ang^3
#
#
#
# Elastic Constant Matrix: (Units=GPa)
#
#
# Indices 1 2 3 4 5 6 
#
# 1 60.4655 0.5863 2.1476 0.0010 -1.6976 0.0002
# 2 0.5863 72.1808 15.8479 0.0008 -14.1906 0.0039
# 3 2.1476 15.8479 56.2226 0.0004 -8.2970 0.0035
# 4 0.0010 0.0008 0.0004 13.3872 -0.0003 0.5577
# 5 -1.6976 -14.1906 -8.2970 -0.0003 35.2402 -0.0019
# 6 0.0002 0.0039 0.0035 0.5577 -0.0019 7.6935
#
#
#
# Elastic Compliance Matrix: (Units=1/GPa)
#
#
# Indices 1 2 3 4 5 6 
#
# 1 0.016577 0.000130 -0.000564 -0.000001 0.000718 0.000000
# 2 0.000130 0.015728 -0.003629 0.000000 0.005485 -0.000005
# 3 -0.000564 -0.003629 0.019281 0.000000 0.003051 -0.000006
# 4 -0.000001 0.000000 0.000000 0.074925 0.000000 -0.005431
# 5 0.000718 0.005485 0.003051 0.000000 0.031339 0.000004
# 6 0.000000 -0.000005 -0.000006 -0.005431 0.000004 0.130374
#
#
# Mechanical properties :
#
#
# Convention : Reuss Voigt Hill
#
# Bulk Modulus (GPa) = 23.00878 25.11472 24.06175
# Shear Modulus (GPa) = 16.08566 22.61665 19.35116
#
# Velocity S-wave (km/s) = 2.78032 3.29678 3.04950
# Velocity P-wave (km/s) = 4.62213 5.15372 4.89515
#
# Compressibility (1/GPa) = 0.04346166
#
# Stress axis : x y z
#
# Youngs Moduli (GPa) = 60.32349 63.58005 51.86415
#
# Poissons Ratio (x) = -0.00829 0.02925
# Poissons Ratio (y) = -0.00787 0.18821
# Poissons Ratio (z) = 0.03402 0.23073
#
# Static dielectric constant tensor:
#      x y z
#    x 1.770970 0.000000 0.029200 
#    y 0.000000 1.731590 0.000000 
#    z 0.029200 0.000000 1.758370 
# 
# From -- ./inp_files/349737.got.cif
#   From: 2010.05.17/outbox.cif.g08.bks.cpg/sg12_175_cif.got.tgz:349737.got - 2010.06.03 13:09:07.
