data_PCOD9201770
_publ_section_title
;
Structure prediction by ZEFSAII (Michael W. Deem and Ramdas Pophale) SiO2 
 PCOD9201770
Probable space group: C 2/M
;
_chemical_formula_sum "Si O2"
_cell_formula_units_Z 56
_cell_length_a 27.221163
_cell_length_b 8.832660
_cell_length_c 12.812479
_cell_angle_alpha 90.000000
_cell_angle_beta 68.256384
_cell_angle_gamma 90.000000
_cell_volume 2861.391824
_symmetry_space_group_name_H-M "C 2/M"
_symmetry_group_IT_number 12
_symmetry_cell_setting 'monoclinic'
loop_
_space_group_symop_operation_xyz
x,y,z
-x,y,-z
-x,-y,-z
x,-y,z
1/2+x,1/2+y,z
1/2-x,1/2+y,-z
1/2-x,1/2-y,-z
1/2+x,1/2-y,z
loop_
_atom_site_type_symbol
_atom_site_label
_atom_site_fract_x
_atom_site_fract_y
_atom_site_fract_z
Si Si1 0.610194 0.681675 0.277977
Si Si2 0.156847 0.819314 0.829505
Si Si3 0.801805 0.320147 0.406940
Si Si4 0.996141 0.321084 0.322413
Si Si5 0.034816 0.821143 0.869907
Si Si6 0.691882 0.682663 0.033976
Si Si7 0.890250 0.180017 0.484686
O O1 0.602697 0.500000 0.273330
O O2 0.554016 0.760413 0.304497
O O3 0.652750 0.730763 0.158074
O O4 0.628135 0.710666 0.382559
O O5 0.192089 0.734530 0.716797
O O6 0.095706 0.790815 0.849472
O O7 0.165711 0.000000 0.812904
O O8 0.168768 0.774886 0.938921
O O9 0.799573 0.500000 0.413357
O O10 0.750000 0.250000 0.500000
O O11 0.852517 0.260320 0.431198
O O12 0.992873 0.500000 0.341428
O O13 0.984247 0.277614 0.211781
O O14 0.949927 0.238902 0.423836
O O15 0.029834 0.000000 0.845611
O O16 0.000000 0.795393 0.000000
O O17 0.694917 0.500000 0.035417
O O18 0.750000 0.750000 0.000000
O O19 0.888851 0.000000 0.467116
#
# Coordination Sequence:
#
# PCOD9201770 Si02
#       7
#     8   8   8   8   8   8   8
#     4  10  23  43  66  91 125 171 216 259 313 381
#     4  10  21  40  65  93 127 166 210 257 310 376
#     4  12  26  43  66  95 129 166 212 264 319 377
#     4  12  24  38  60  95 132 166 209 262 318 376
#     4  10  20  37  64  91 123 168 212 256 310 375
#     4  10  23  43  66  95 126 164 212 261 317 376
#     4  11  23  42  67  95 128 168 215 261 314 378
#
# _framework density 19.570896000000001
#
# number of rings (size 3 to 8) (size 9 to 14) (size 15 to 20)
#    0.000    1.286    1.429    4.286    2.000    6.571 
#    0.000    1.429    0.000    0.000    0.000    0.000 
#    0.000    0.000    0.000    0.000    0.000    0.000 
#
# Total GULP energy -156633.170254 kJ/mol
# GULP energy per Si atom -5594.041795 kJ/mol
# Density = 1.952635 g / cm^3
# Si number density = 19.570896 Si / 1000 Ang^3
#
#
#
# Elastic Constant Matrix: (Units=GPa)
#
#
# Indices 1 2 3 4 5 6 
#
# 1 52.1811 14.6092 28.4457 0.0000 -7.0615 0.0000
# 2 14.6092 44.3833 41.0462 0.0000 1.6024 0.0000
# 3 28.4457 41.0462 147.2610 0.0000 -10.4586 0.0000
# 4 0.0000 0.0000 0.0000 20.3388 0.0000 -6.2022
# 5 -7.0615 1.6024 -10.4586 0.0000 38.1488 0.0000
# 6 0.0000 0.0000 0.0000 -6.2022 0.0000 30.7463
#
#
#
# Elastic Compliance Matrix: (Units=1/GPa)
#
#
# Indices 1 2 3 4 5 6 
#
# 1 0.022539 -0.005071 -0.002681 0.000000 0.003650 0.000000
# 2 -0.005071 0.032008 -0.008265 0.000000 -0.004549 0.000000
# 3 -0.002681 -0.008265 0.009792 0.000000 0.002536 0.000000
# 4 0.000000 0.000000 0.000000 0.052390 0.000000 0.010568
# 5 0.003650 -0.004549 0.002536 0.000000 0.027775 0.000000
# 6 0.000000 0.000000 0.000000 0.010568 0.000000 0.034656
#
#
# Mechanical properties :
#
#
# Convention : Reuss Voigt Hill
#
# Bulk Modulus (GPa) = 30.95509 45.78083 38.36796
# Shear Modulus (GPa) = 22.52613 28.49506 25.51060
#
# Velocity S-wave (km/s) = 3.39632 3.81989 3.61431
# Velocity P-wave (km/s) = 5.58849 6.54969 6.08809
#
# Compressibility (1/GPa) = 0.03230486
#
# Stress axis : x y z
#
# Youngs Moduli (GPa) = 44.36685 31.24190 102.12027
#
# Poissons Ratio (x) = 0.15844 0.27379
# Poissons Ratio (y) = 0.22500 0.84404
# Poissons Ratio (z) = 0.11895 0.25822
#
# Static dielectric constant tensor:
#      x y z
#    x 1.650990 0.000000 0.006910 
#    y 0.000000 1.657280 0.000000 
#    z 0.006910 0.000000 1.684960 
# 
# From -- ./inp_files/180845.got.cif
#   From: 2010.05.17/outbox.cif.g08.bks.cpg/sg12_91_cif.got.tgz:180845.got - 2010.06.03 13:09:07.
