data_PCOD9201421
_publ_section_title
;
Structure prediction by ZEFSAII (Michael W. Deem and Ramdas Pophale) SiO2 
 PCOD9201421
Probable space group: C 2/M
;
_chemical_formula_sum "Si O2"
_cell_formula_units_Z 60
_cell_length_a 29.585182
_cell_length_b 9.727253
_cell_length_c 11.893041
_cell_angle_alpha 90.000000
_cell_angle_beta 112.720752
_cell_angle_gamma 90.000000
_cell_volume 3157.009196
_symmetry_space_group_name_H-M "C 2/M"
_symmetry_group_IT_number 12
_symmetry_cell_setting 'monoclinic'
loop_
_space_group_symop_operation_xyz
x,y,z
-x,y,-z
-x,-y,-z
x,-y,z
1/2+x,1/2+y,z
1/2-x,1/2+y,-z
1/2-x,1/2-y,-z
1/2+x,1/2-y,z
loop_
_atom_site_type_symbol
_atom_site_label
_atom_site_fract_x
_atom_site_fract_y
_atom_site_fract_z
Si Si1 0.075105 0.337317 0.744643
Si Si2 0.219275 0.773610 0.624174
Si Si3 0.378898 0.160938 0.965076
Si Si4 0.238746 0.500000 0.506055
Si Si5 0.734719 0.163740 0.093953
Si Si6 0.050399 0.837886 0.111490
Si Si7 0.614630 0.341139 0.591774
Si Si8 0.478539 0.340922 0.658521
O O1 0.072211 0.500000 0.719865
O O2 0.111211 0.262023 0.692761
O O3 0.022864 0.262767 0.681376
O O4 0.093647 0.317236 0.889791
O O5 0.229122 0.621541 0.590285
O O6 0.233452 0.795485 0.767531
O O7 0.161608 0.809339 0.560544
O O8 0.249680 0.880671 0.578616
O O9 0.321932 0.191923 0.928779
O O10 0.405133 0.252198 0.896592
O O11 0.383466 0.000000 0.939540
O O12 0.739441 0.000000 0.077465
O O13 0.750000 0.250000 0.000000
O O14 0.042467 0.819044 0.236409
O O15 0.058190 0.000000 0.097458
O O16 0.000000 0.797337 0.000000
O O17 0.617631 0.500000 0.632328
O O18 0.565141 0.324846 0.471889
O O19 0.496320 0.500000 0.668995
#
# Coordination Sequence:
#
# PCOD9201421 Si02
#       8
#     8   8   8   4   8   8   8   8
#     4  11  23  39  61  88 127 162 205 256 305 367
#     4  11  23  46  67  96 130 169 212 269 324 386
#     4  10  23  40  60  91 123 163 203 252 313 363
#     4  10  24  42  72  92 128 170 212 264 328 382
#     4  11  24  43  66  97 132 170 218 268 323 384
#     4  10  20  37  62  88 119 156 204 249 299 370
#     4  11  23  40  63  92 121 163 207 251 308 372
#     4  10  22  40  60  89 125 160 203 253 305 366
#
# _framework density 19.005327999999999
#
# number of rings (size 3 to 8) (size 9 to 14) (size 15 to 20)
#    0.000    1.467    2.667    1.600    1.867    6.133 
#    2.400    0.000    0.000    0.000    0.000    0.000 
#    0.000    0.000    0.000    0.000    0.000    0.000 
#
# Total GULP energy -167137.581749 kJ/mol
# GULP energy per Si atom -5571.252725 kJ/mol
# Density = 1.896207 g / cm^3
# Si number density = 19.005328 Si / 1000 Ang^3
#
#
#
# Elastic Constant Matrix: (Units=GPa)
#
#
# Indices 1 2 3 4 5 6 
#
# 1 64.0872 41.9760 24.2090 0.0000 -4.6972 0.0000
# 2 41.9760 117.6018 34.4902 0.0000 -11.1108 0.0000
# 3 24.2090 34.4902 34.7713 0.0000 -8.0169 0.0000
# 4 0.0000 0.0000 0.0000 25.9860 0.0000 -7.9144
# 5 -4.6972 -11.1108 -8.0169 0.0000 28.0469 0.0000
# 6 0.0000 0.0000 0.0000 -7.9144 0.0000 25.0603
#
#
#
# Elastic Compliance Matrix: (Units=1/GPa)
#
#
# Indices 1 2 3 4 5 6 
#
# 1 0.023111 -0.005031 -0.011421 0.000000 -0.001387 0.000000
# 2 -0.005031 0.013142 -0.009129 0.000000 0.001754 0.000000
# 3 -0.011421 -0.009129 0.047630 0.000000 0.008086 0.000000
# 4 0.000000 0.000000 0.000000 0.042578 0.000000 0.013447
# 5 -0.001387 0.001754 0.008086 0.000000 0.038429 0.000000
# 6 0.000000 0.000000 0.000000 0.013447 0.000000 0.044150
#
#
# Mechanical properties :
#
#
# Convention : Reuss Voigt Hill
#
# Bulk Modulus (GPa) = 30.55945 46.42340 38.49143
# Shear Modulus (GPa) = 18.44294 23.53765 20.99030
#
# Velocity S-wave (km/s) = 3.11852 3.52302 3.32692
# Velocity P-wave (km/s) = 5.39270 6.40534 5.92071
#
# Compressibility (1/GPa) = 0.03272310
#
# Stress axis : x y z
#
# Youngs Moduli (GPa) = 43.26891 76.09261 20.99535
#
# Poissons Ratio (x) = 0.38281 0.23978
# Poissons Ratio (y) = 0.21768 0.19166
# Poissons Ratio (z) = 0.49415 0.69461
#
# Static dielectric constant tensor:
#      x y z
#    x 1.656950 0.000000 0.005390 
#    y 0.000000 1.631140 0.000000 
#    z 0.005390 0.000000 1.636460 
# 
# From -- ./inp_files/187639.got.cif
#   From: 2010.05.17/outbox.cif.g08.bks.cpg/sg12_94_cif.got.tgz:187639.got - 2010.06.03 13:09:07.
