data_PCOD9201941
_publ_section_title
;
Structure prediction by ZEFSAII (Michael W. Deem and Ramdas Pophale) SiO2 
 PCOD9201941
Probable space group: C 2/M
;
_chemical_formula_sum "Si O2"
_cell_formula_units_Z 56
_cell_length_a 30.943832
_cell_length_b 21.465611
_cell_length_c 9.003269
_cell_angle_alpha 90.000000
_cell_angle_beta 32.182078
_cell_angle_gamma 90.000000
_cell_volume 3185.137358
_symmetry_space_group_name_H-M "C 2/M"
_symmetry_group_IT_number 12
_symmetry_cell_setting 'monoclinic'
loop_
_space_group_symop_operation_xyz
x,y,z
-x,y,-z
-x,-y,-z
x,-y,z
1/2+x,1/2+y,z
1/2-x,1/2+y,-z
1/2-x,1/2-y,-z
1/2+x,1/2-y,z
loop_
_atom_site_type_symbol
_atom_site_label
_atom_site_fract_x
_atom_site_fract_y
_atom_site_fract_z
Si Si1 0.166267 0.283823 0.800662
Si Si2 0.765736 0.180600 0.014330
Si Si3 0.833265 0.376117 0.445806
Si Si4 0.084433 0.500000 0.672257
Si Si5 0.275657 0.891010 0.155171
Si Si6 0.088490 0.168740 0.174699
Si Si7 0.822878 0.927205 0.277799
Si Si8 0.906215 0.500000 0.711529
O O1 0.250000 0.250000 0.500000
O O2 0.128889 0.328766 0.783494
O O3 0.190242 0.328874 0.865766
O O4 0.105625 0.231435 0.032470
O O5 0.694420 0.165312 0.336575
O O6 0.750000 0.250000 0.000000
O O7 0.759651 0.130421 0.899821
O O8 0.846744 0.171798 0.877476
O O9 0.876146 0.436510 0.383727
O O10 0.755741 0.403627 0.584177
O O11 0.085197 0.500000 0.491905
O O12 0.000000 0.500000 0.000000
O O13 0.204420 0.915021 0.472578
O O14 0.349376 0.940948 0.925185
O O15 0.000000 0.164643 0.500000
O O16 0.107396 0.113496 0.002465
O O17 0.836784 0.000000 0.216278
O O18 0.000000 0.500000 0.500000
#
# Coordination Sequence:
#
# PCOD9201941 Si02
#       8
#     8   8   8   4   8   8   8   4
#     4  11  19  38  66  90 118 162 212 247 309 381
#     4  11  20  39  63  90 120 159 212 253 301 380
#     4  10  21  37  62  86 116 168 210 248 295 384
#     4  12  26  42  56  88 137 166 209 257 318 366
#     4  11  21  38  66  89 122 167 210 250 305 377
#     4  11  24  41  63  93 127 158 202 271 318 359
#     4  10  20  37  68  87 115 162 213 243 308 377
#     4  12  28  40  60 100 133 161 209 270 319 367
#
# _framework density 17.581658999999998
#
# number of rings (size 3 to 8) (size 9 to 14) (size 15 to 20)
#    0.000    1.143    8.571    0.000    4.000    0.857 
#    2.571    0.714    0.000    0.857    0.000    0.000 
#    0.000    0.000    0.000    0.000    0.000    0.000 
#
# Total GULP energy -156056.589620 kJ/mol
# GULP energy per Si atom -5573.449629 kJ/mol
# Density = 1.754164 g / cm^3
# Si number density = 17.581659 Si / 1000 Ang^3
#
#
#
# Elastic Constant Matrix: (Units=GPa)
#
#
# Indices 1 2 3 4 5 6 
#
# 1 91.2749 45.3427 41.3701 0.0000 24.3986 0.0000
# 2 45.3427 138.1825 55.7590 0.0000 12.2696 0.0000
# 3 41.3701 55.7590 124.6947 0.0000 14.7752 0.0000
# 4 0.0000 0.0000 0.0000 23.9462 0.0000 12.8852
# 5 24.3986 12.2696 14.7752 0.0000 25.0343 0.0000
# 6 0.0000 0.0000 0.0000 12.8852 0.0000 29.9424
#
#
#
# Elastic Compliance Matrix: (Units=1/GPa)
#
#
# Indices 1 2 3 4 5 6 
#
# 1 0.017588 -0.003475 -0.002636 0.000000 -0.013882 0.000000
# 2 -0.003475 0.009625 -0.003219 0.000000 0.000569 0.000000
# 3 -0.002636 -0.003219 0.010582 0.000000 -0.002099 0.000000
# 4 0.000000 0.000000 0.000000 0.054344 0.000000 -0.023386
# 5 -0.013882 0.000569 -0.002099 0.000000 0.054435 0.000000
# 6 0.000000 0.000000 0.000000 -0.023386 0.000000 0.043461
#
#
# Mechanical properties :
#
#
# Convention : Reuss Voigt Hill
#
# Bulk Modulus (GPa) = 52.25830 71.01065 61.63448
# Shear Modulus (GPa) = 23.24789 29.89661 26.57225
#
# Velocity S-wave (km/s) = 3.64026 4.12812 3.89184
# Velocity P-wave (km/s) = 6.88886 7.94975 7.43824
#
# Compressibility (1/GPa) = 0.01913571
#
# Stress axis : x y z
#
# Youngs Moduli (GPa) = 56.85733 103.89316 94.49819
#
# Poissons Ratio (x) = 0.36100 0.24914
# Poissons Ratio (y) = 0.19756 0.30416
# Poissons Ratio (z) = 0.14990 0.33440
#
# Static dielectric constant tensor:
#      x y z
#    x 1.613430 0.000000 0.025020 
#    y 0.000000 1.581080 0.000000 
#    z 0.025020 0.000000 1.595750 
# 
# From -- ./inp_files/113370.got.cif
#   From: 2010.05.17/outbox.cif.g08.bks.cpg/sg12_57_cif.got.tgz:113370.got - 2010.06.03 13:09:07.
