data_PCOD9201397
_publ_section_title
;
Structure prediction by ZEFSAII (Michael W. Deem and Ramdas Pophale) SiO2 
 PCOD9201397
Probable space group: C 2/M
;
_chemical_formula_sum "Si O2"
_cell_formula_units_Z 48
_cell_length_a 15.572899
_cell_length_b 8.507078
_cell_length_c 19.495681
_cell_angle_alpha 90.000000
_cell_angle_beta 89.691931
_cell_angle_gamma 90.000000
_cell_volume 2582.747882
_symmetry_space_group_name_H-M "C 2/M"
_symmetry_group_IT_number 12
_symmetry_cell_setting 'monoclinic'
loop_
_space_group_symop_operation_xyz
x,y,z
-x,y,-z
-x,-y,-z
x,-y,z
1/2+x,1/2+y,z
1/2-x,1/2+y,-z
1/2-x,1/2-y,-z
1/2+x,1/2-y,z
loop_
_atom_site_type_symbol
_atom_site_label
_atom_site_fract_x
_atom_site_fract_y
_atom_site_fract_z
Si Si1 0.625462 0.688120 0.326401
Si Si2 0.278102 0.810047 0.425342
Si Si3 0.724123 0.811152 0.924933
Si Si4 0.471128 0.191502 0.076305
Si Si5 0.874046 0.311561 0.827743
Si Si6 0.525817 0.810129 0.577712
O O1 0.628395 0.500000 0.322430
O O2 0.708873 0.742432 0.369340
O O3 0.625229 0.756123 0.250279
O O4 0.541578 0.739396 0.368993
O O5 0.250000 0.750000 0.500000
O O6 0.375868 0.760828 0.409990
O O7 0.277295 0.000000 0.427218
O O8 0.626536 0.759093 0.909905
O O9 0.791708 0.750635 0.869199
O O10 0.725693 0.000000 0.926103
O O11 0.750000 0.750000 0.000000
O O12 0.540798 0.243513 0.131709
O O13 0.471764 0.000000 0.076186
O O14 0.500000 0.241716 0.000000
O O15 0.872953 0.500000 0.829965
O O16 0.500000 0.765993 0.500000
O O17 0.521173 0.000000 0.582300
#
# Coordination Sequence:
#
# PCOD9201397 Si02
#       6
#     8   8   8   8   8   8
#     4  11  24  40  58  87 124 155 189 242 301 346
#     4  10  21  37  60  87 117 153 195 240 290 347
#     4  11  21  37  62  90 119 152 196 243 290 347
#     4   9  18  36  61  86 114 153 196 235 286 350
#     4  11  23  41  62  85 118 158 197 240 293 348
#     4  10  20  37  62  88 114 151 199 240 283 348
#
# _framework density 18.584857
#
# number of rings (size 3 to 8) (size 9 to 14) (size 15 to 20)
#    0.000    1.667    3.333    1.500    0.000    3.000 
#    0.000   10.833    0.000    0.000    0.000    0.000 
#    0.000    0.000    0.000    0.000    0.000    0.000 
#
# Total GULP energy -134079.610302 kJ/mol
# GULP energy per Si atom -5586.650429 kJ/mol
# Density = 1.854256 g / cm^3
# Si number density = 18.584857 Si / 1000 Ang^3
#
#
#
# Elastic Constant Matrix: (Units=GPa)
#
#
# Indices 1 2 3 4 5 6 
#
# 1 224.8374 40.1530 118.4204 0.0000 4.0657 0.0000
# 2 40.1530 31.4286 37.2956 0.0000 -1.5578 0.0000
# 3 118.4204 37.2956 184.4303 0.0000 2.6168 0.0000
# 4 0.0000 0.0000 0.0000 34.6572 0.0000 -5.9984
# 5 4.0657 -1.5578 2.6168 0.0000 34.7266 0.0000
# 6 0.0000 0.0000 0.0000 -5.9984 0.0000 29.0823
#
#
#
# Elastic Compliance Matrix: (Units=1/GPa)
#
#
# Indices 1 2 3 4 5 6 
#
# 1 0.007279 -0.005008 -0.003649 0.000000 -0.000802 0.000000
# 2 -0.005008 0.045532 -0.006035 0.000000 0.003084 0.000000
# 3 -0.003649 -0.006035 0.008993 0.000000 -0.000521 0.000000
# 4 0.000000 0.000000 0.000000 0.029922 0.000000 0.006172
# 5 -0.000802 0.003084 -0.000521 0.000000 0.029068 0.000000
# 6 0.000000 0.000000 0.000000 0.006172 0.000000 0.035658
#
#
# Mechanical properties :
#
#
# Convention : Reuss Voigt Hill
#
# Bulk Modulus (GPa) = 30.84767 92.49271 61.67019
# Shear Modulus (GPa) = 25.42666 36.01501 30.72084
#
# Velocity S-wave (km/s) = 3.70285 4.40690 4.07013
# Velocity P-wave (km/s) = 5.90896 8.70461 7.43929
#
# Compressibility (1/GPa) = 0.03241736
#
# Stress axis : x y z
#
# Youngs Moduli (GPa) = 137.38741 21.96271 111.19490
#
# Poissons Ratio (x) = 0.11000 0.40579
# Poissons Ratio (y) = 0.68808 0.67111
# Poissons Ratio (z) = 0.50138 0.13255
#
# Static dielectric constant tensor:
#      x y z
#    x 1.642880 0.000000 0.021630 
#    y 0.000000 1.642630 0.000000 
#    z 0.021630 0.000000 1.595050 
# 
# From -- ./inp_files/267599.got.cif
#   From: 2010.05.17/outbox.cif.g08.bks.cpg/sg12_134_cif.got.tgz:267599.got - 2010.06.03 13:09:07.
