data_PCOD9201671
_publ_section_title
;
Structure prediction by ZEFSAII (Michael W. Deem and Ramdas Pophale) SiO2 
 PCOD9201671
Probable space group: C 2/M
;
_chemical_formula_sum "Si O2"
_cell_formula_units_Z 52
_cell_length_a 19.878297
_cell_length_b 11.253827
_cell_length_c 20.833457
_cell_angle_alpha 90.000000
_cell_angle_beta 148.584168
_cell_angle_gamma 90.000000
_cell_volume 2429.310573
_symmetry_space_group_name_H-M "C 2/M"
_symmetry_group_IT_number 12
_symmetry_cell_setting 'monoclinic'
loop_
_space_group_symop_operation_xyz
x,y,z
-x,y,-z
-x,-y,-z
x,-y,z
1/2+x,1/2+y,z
1/2-x,1/2+y,-z
1/2-x,1/2-y,-z
1/2+x,1/2-y,z
loop_
_atom_site_type_symbol
_atom_site_label
_atom_site_fract_x
_atom_site_fract_y
_atom_site_fract_z
Si Si1 0.248289 0.638588 0.263394
Si Si2 0.321426 0.629189 0.100485
Si Si3 0.500000 0.738954 0.000000
Si Si4 0.902288 0.864244 0.657370
Si Si5 0.911160 0.363829 0.341872
Si Si6 0.294198 0.670378 0.930391
Si Si7 0.827790 0.225466 0.463501
O O1 0.272397 0.500000 0.263934
O O2 0.340520 0.747148 0.314228
O O3 0.275608 0.650611 0.361408
O O4 0.106706 0.681749 0.124293
O O5 0.342643 0.500000 0.145014
O O6 0.459073 0.693316 0.215870
O O7 0.219193 0.690901 0.062768
O O8 0.292275 0.622354 0.001329
O O9 0.581450 0.660120 0.014433
O O10 0.881195 0.855896 0.564251
O O11 0.791739 0.795728 0.604040
O O12 0.901023 0.000000 0.678994
O O13 0.900301 0.500000 0.359952
O O14 0.832012 0.369943 0.210626
O O15 0.059289 0.321266 0.459841
#
# Coordination Sequence:
#
# PCOD9201671 Si02
#       7
#     8   8   4   8   8   8   8
#     4  11  25  43  66  93 127 169 214 267 324 387
#     4  10  20  37  63  92 125 167 213 263 319 382
#     4  10  23  44  67  94 131 168 219 272 331 392
#     4  10  21  37  60  90 124 162 208 259 315 377
#     4  11  24  42  64  94 130 171 215 264 321 385
#     4  10  21  40  63  94 128 170 215 267 322 386
#     4  11  22  39  61  91 126 167 210 261 315 381
#
# _framework density 21.405249999999999
#
# number of rings (size 3 to 8) (size 9 to 14) (size 15 to 20)
#    0.000    1.538    1.538    3.000    0.000    6.769 
#    0.000   11.154    0.000    0.000    0.000    0.000 
#    0.000    0.000    0.000    0.000    0.000    0.000 
#
# Total GULP energy -144787.477964 kJ/mol
# GULP energy per Si atom -5568.749152 kJ/mol
# Density = 2.135653 g / cm^3
# Si number density = 21.405250 Si / 1000 Ang^3
#
#
#
# Elastic Constant Matrix: (Units=GPa)
#
#
# Indices 1 2 3 4 5 6 
#
# 1 61.6177 25.3072 40.3742 0.0000 -2.7703 0.0000
# 2 25.3072 112.8250 9.5459 0.0000 8.2844 0.0000
# 3 40.3742 9.5459 91.9062 0.0000 -11.2261 0.0000
# 4 0.0000 0.0000 0.0000 -28.1905 0.0000 6.3295
# 5 -2.7703 8.2844 -11.2261 0.0000 31.9805 0.0000
# 6 0.0000 0.0000 0.0000 6.3295 0.0000 -54.2290
#
#
#
# Elastic Compliance Matrix: (Units=1/GPa)
#
#
# Indices 1 2 3 4 5 6 
#
# 1 0.025069 -0.004706 -0.010563 0.000000 -0.000317 0.000000
# 2 -0.004706 0.010065 0.000683 0.000000 -0.002775 0.000000
# 3 -0.010563 0.000683 0.016003 0.000000 0.004525 0.000000
# 4 0.000000 0.000000 0.000000 -0.036428 0.000000 -0.004252
# 5 -0.000317 -0.002775 0.004525 0.000000 0.033549 0.000000
# 6 0.000000 0.000000 0.000000 -0.004252 0.000000 -0.018937
#
#
# Mechanical properties :
#
#
# Convention : Reuss Voigt Hill
#
# Bulk Modulus (GPa) = 45.52722 46.31151 45.91937
# Shear Modulus (GPa) = 75.97164 2.65363 39.31263
#
# Velocity S-wave (km/s) = 5.96398 1.11463 4.29019
# Velocity P-wave (km/s) = 8.29101 4.83105 6.78528
#
# Compressibility (1/GPa) = 0.02196488
#
# Stress axis : x y z
#
# Youngs Moduli (GPa) = 39.89036 99.35558 62.48973
#
# Poissons Ratio (x) = 0.46757 0.66005
# Poissons Ratio (y) = 0.18773 -0.04268
# Poissons Ratio (z) = 0.42135 -0.06786
#
# Static dielectric constant tensor:
#      x y z
#    x 1.799060 0.000000 -0.014990 
#    y 0.000000 1.840560 0.000000 
#    z -0.014990 0.000000 1.796190 
# 
# From -- ./inp_files/321579.got.cif
#   From: 2010.05.17/outbox.cif.g08.bks.cpg/sg12_161_cif.got.tgz:321579.got - 2010.06.03 13:09:07.
