data_PCOD9201334
_publ_section_title
;
Structure prediction by ZEFSAII (Michael W. Deem and Ramdas Pophale) SiO2 
 PCOD9201334
Probable space group: C 2/M
;
_chemical_formula_sum "Si O2"
_cell_formula_units_Z 64
_cell_length_a 20.962219
_cell_length_b 8.705919
_cell_length_c 20.825411
_cell_angle_alpha 90.000000
_cell_angle_beta 72.443131
_cell_angle_gamma 90.000000
_cell_volume 3623.504550
_symmetry_space_group_name_H-M "C 2/M"
_symmetry_group_IT_number 12
_symmetry_cell_setting 'monoclinic'
loop_
_space_group_symop_operation_xyz
x,y,z
-x,y,-z
-x,-y,-z
x,-y,z
1/2+x,1/2+y,z
1/2-x,1/2+y,-z
1/2-x,1/2-y,-z
1/2+x,1/2-y,z
loop_
_atom_site_type_symbol
_atom_site_label
_atom_site_fract_x
_atom_site_fract_y
_atom_site_fract_z
Si Si1 0.313736 0.684075 0.290445
Si Si2 0.576801 0.816160 0.493300
Si Si3 0.419565 0.677813 0.012544
Si Si4 0.333268 0.315345 0.647598
Si Si5 0.397871 0.818039 0.151506
Si Si6 0.932417 0.813420 0.729365
Si Si7 0.545194 0.686515 0.134707
Si Si8 0.421379 0.685575 0.366707
O O1 0.312302 0.500000 0.287468
O O2 0.240791 0.748017 0.327920
O O3 0.342124 0.749866 0.215279
O O4 0.366157 0.727686 0.330622
O O5 0.500000 0.772910 0.500000
O O6 0.625862 0.740971 0.426699
O O7 0.591916 0.758952 0.560319
O O8 0.582360 0.000000 0.488022
O O9 0.398361 0.500000 0.023552
O O10 0.387826 0.771770 0.080184
O O11 0.500000 0.680873 0.000000
O O12 0.413306 0.734204 0.941144
O O13 0.330492 0.500000 0.648320
O O14 0.375050 0.263505 0.697858
O O15 0.469553 0.747748 0.151003
O O16 0.400487 0.000000 0.156934
O O17 0.925945 0.764883 0.805360
O O18 0.005144 0.766307 0.680552
O O19 0.932224 0.000000 0.729581
O O20 0.541431 0.500000 0.133870
O O21 0.421647 0.500000 0.372852
#
# Coordination Sequence:
#
# PCOD9201334 Si02
#       8
#     8   8   8   8   8   8   8   8
#     4  11  23  40  59  80 112 147 185 227 273 330
#     4  11  23  38  58  85 116 145 179 225 274 324
#     4   8  15  27  47  74 107 145 183 223 271 324
#     4  11  23  39  60  84 112 144 182 225 276 332
#     4  11  20  30  49  78 113 147 182 225 275 324
#     4   9  17  33  58  84 108 140 184 229 272 322
#     4   9  16  31  53  79 109 144 186 227 271 324
#     4  10  20  37  62  84 105 143 187 228 273 321
#
# _framework density 17.662458000000001
#
# number of rings (size 3 to 8) (size 9 to 14) (size 15 to 20)
#    0.000    2.000    2.500    3.000    0.000    4.250 
#    0.000    1.250    0.000    0.750    0.000    0.000 
#    0.000    0.000    0.000    0.000    0.000    0.000 
#
# Total GULP energy -178582.395175 kJ/mol
# GULP energy per Si atom -5580.699849 kJ/mol
# Density = 1.762226 g / cm^3
# Si number density = 17.662458 Si / 1000 Ang^3
#
#
#
# Elastic Constant Matrix: (Units=GPa)
#
#
# Indices 1 2 3 4 5 6 
#
# 1 82.2885 27.5448 49.7521 0.0000 -2.0176 0.0000
# 2 27.5448 42.7771 41.6915 0.0000 -2.5989 0.0000
# 3 49.7521 41.6915 147.0940 0.0000 12.3398 0.0000
# 4 0.0000 0.0000 0.0000 9.8546 0.0000 -1.2015
# 5 -2.0176 -2.5989 12.3398 0.0000 27.6823 0.0000
# 6 0.0000 0.0000 0.0000 -1.2015 0.0000 13.0227
#
#
#
# Elastic Compliance Matrix: (Units=1/GPa)
#
#
# Indices 1 2 3 4 5 6 
#
# 1 0.016912 -0.006880 -0.003968 0.000000 0.002355 0.000000
# 2 -0.006880 0.036622 -0.008622 0.000000 0.006780 0.000000
# 3 -0.003968 -0.008622 0.011091 0.000000 -0.006043 0.000000
# 4 0.000000 0.000000 0.000000 0.102630 0.000000 0.009469
# 5 0.002355 0.006780 -0.006043 0.000000 0.039626 0.000000
# 6 0.000000 0.000000 0.000000 0.009469 0.000000 0.077662
#
#
# Mechanical properties :
#
#
# Convention : Reuss Voigt Hill
#
# Bulk Modulus (GPa) = 38.93118 56.68184 47.80651
# Shear Modulus (GPa) = 15.05824 20.32332 17.69078
#
# Velocity S-wave (km/s) = 2.92302 3.39580 3.16825
# Velocity P-wave (km/s) = 5.78634 6.89469 6.36468
#
# Compressibility (1/GPa) = 0.02568635
#
# Stress axis : x y z
#
# Youngs Moduli (GPa) = 59.12968 27.30618 90.16268
#
# Poissons Ratio (x) = 0.18786 0.35776
# Poissons Ratio (y) = 0.40679 0.77736
# Poissons Ratio (z) = 0.23462 0.23543
#
# Static dielectric constant tensor:
#      x y z
#    x 1.584230 0.000000 0.024440 
#    y 0.000000 1.589700 0.000000 
#    z 0.024440 0.000000 1.606180 
# 
# From -- ./inp_files/319863.got.cif
#   From: 2010.05.17/outbox.cif.g08.bks.cpg/sg12_160_cif.got.tgz:319863.got - 2010.06.03 13:09:07.
