data_PCOD9201959
_publ_section_title
;
Structure prediction by ZEFSAII (Michael W. Deem and Ramdas Pophale) SiO2 
 PCOD9201959
Probable space group: C 2/M
;
_chemical_formula_sum "Si O2"
_cell_formula_units_Z 40
_cell_length_a 31.659349
_cell_length_b 12.675446
_cell_length_c 5.371964
_cell_angle_alpha 90.000000
_cell_angle_beta 74.994904
_cell_angle_gamma 90.000000
_cell_volume 2082.244624
_symmetry_space_group_name_H-M "C 2/M"
_symmetry_group_IT_number 12
_symmetry_cell_setting 'monoclinic'
loop_
_space_group_symop_operation_xyz
x,y,z
-x,y,-z
-x,-y,-z
x,-y,z
1/2+x,1/2+y,z
1/2-x,1/2+y,-z
1/2-x,1/2-y,-z
1/2+x,1/2-y,z
loop_
_atom_site_type_symbol
_atom_site_label
_atom_site_fract_x
_atom_site_fract_y
_atom_site_fract_z
Si Si1 0.385090 0.248301 0.496142
Si Si2 0.126842 0.620193 0.998726
Si Si3 0.026341 0.873321 0.711501
Si Si4 0.781515 0.301302 0.150175
Si Si5 0.695582 0.377263 0.530119
O O1 0.392873 0.188186 0.744607
O O2 0.426321 0.320859 0.370939
O O3 0.341262 0.321028 0.584257
O O4 0.379262 0.169178 0.268739
O O5 0.111281 0.500000 0.025625
O O6 0.178885 0.623896 0.981467
O O7 0.000000 0.846387 0.500000
O O8 0.031102 0.000000 0.711566
O O9 0.000000 0.841116 0.000000
O O10 0.746222 0.363535 0.371088
O O11 0.805105 0.199310 0.232501
O O12 0.750000 0.250000 0.000000
O O13 0.685778 0.500000 0.582370
#
# Coordination Sequence:
#
# PCOD9201959 Si02
#       5
#     8   8   8   8   8
#     4  11  22  40  61  89 120 148 200 244 289 353
#     4  11  23  39  61  84 119 164 201 242 289 342
#     4  10  21  39  65  94 122 153 185 232 305 367
#     4  10  20  38  51  81 116 156 203 241 287 342
#     4  10  21  35  55  81 116 154 193 244 293 341
#
# _framework density 19.210039999999999
#
# number of rings (size 3 to 8) (size 9 to 14) (size 15 to 20)
#    0.000    1.600    2.000    3.000    0.000    1.600 
#    0.000    2.000    0.000   12.000    0.000    0.000 
#    0.000    0.000    0.000    0.000    0.000    0.000 
#
# Total GULP energy -111442.505423 kJ/mol
# GULP energy per Si atom -5572.125271 kJ/mol
# Density = 1.916632 g / cm^3
# Si number density = 19.210040 Si / 1000 Ang^3
#
#
#
# Elastic Constant Matrix: (Units=GPa)
#
#
# Indices 1 2 3 4 5 6 
#
# 1 49.2552 12.3755 10.9581 0.0000 -5.6782 0.0000
# 2 12.3755 101.4996 20.6528 0.0000 0.2902 0.0000
# 3 10.9581 20.6528 90.1063 0.0000 -7.3058 0.0000
# 4 0.0000 0.0000 0.0000 10.0645 0.0000 -0.9626
# 5 -5.6782 0.2902 -7.3058 0.0000 25.4346 0.0000
# 6 0.0000 0.0000 0.0000 -0.9626 0.0000 18.4480
#
#
#
# Elastic Compliance Matrix: (Units=1/GPa)
#
#
# Indices 1 2 3 4 5 6 
#
# 1 0.021780 -0.002309 -0.001764 0.000000 0.004382 0.000000
# 2 -0.002309 0.010596 -0.002252 0.000000 -0.001283 0.000000
# 3 -0.001764 -0.002252 0.012080 0.000000 0.003102 0.000000
# 4 0.000000 0.000000 0.000000 0.099857 0.000000 0.005211
# 5 0.004382 -0.001283 0.003102 0.000000 0.041200 0.000000
# 6 0.000000 0.000000 0.000000 0.005211 0.000000 0.054478
#
#
# Mechanical properties :
#
#
# Convention : Reuss Voigt Hill
#
# Bulk Modulus (GPa) = 31.44085 36.53712 33.98899
# Shear Modulus (GPa) = 18.99378 23.91441 21.45409
#
# Velocity S-wave (km/s) = 3.14784 3.53213 3.34551
# Velocity P-wave (km/s) = 5.44190 5.97459 5.71445
#
# Compressibility (1/GPa) = 0.03180576
#
# Stress axis : x y z
#
# Youngs Moduli (GPa) = 45.91315 94.37829 82.78031
#
# Poissons Ratio (x) = 0.21793 0.14604
# Poissons Ratio (y) = 0.10602 0.18640
# Poissons Ratio (z) = 0.08100 0.21252
#
# Static dielectric constant tensor:
#      x y z
#    x 1.714430 0.000000 0.013060 
#    y 0.000000 1.673370 0.000000 
#    z 0.013060 0.000000 1.743850 
# 
# From -- ./inp_files/27380.got.cif
#   From: 2010.05.17/outbox.cif.g08.bks.cpg/sg12_14_cif.got.tgz:27380.got - 2010.06.03 13:09:07.
