data_PCOD9201619
_publ_section_title
;
Structure prediction by ZEFSAII (Michael W. Deem and Ramdas Pophale) SiO2 
 PCOD9201619
Probable space group: C 2/M
;
_chemical_formula_sum "Si O2"
_cell_formula_units_Z 56
_cell_length_a 10.635144
_cell_length_b 17.999149
_cell_length_c 16.661641
_cell_angle_alpha 90.000000
_cell_angle_beta 122.831465
_cell_angle_gamma 90.000000
_cell_volume 2679.979393
_symmetry_space_group_name_H-M "C 2/M"
_symmetry_group_IT_number 12
_symmetry_cell_setting 'monoclinic'
loop_
_space_group_symop_operation_xyz
x,y,z
-x,y,-z
-x,-y,-z
x,-y,z
1/2+x,1/2+y,z
1/2-x,1/2+y,-z
1/2-x,1/2-y,-z
1/2+x,1/2-y,z
loop_
_atom_site_type_symbol
_atom_site_label
_atom_site_fract_x
_atom_site_fract_y
_atom_site_fract_z
Si Si1 0.082045 0.366561 0.323663
Si Si2 0.931340 0.582793 0.857519
Si Si3 0.244252 0.160260 0.179721
Si Si4 0.698705 0.680904 0.862432
Si Si5 0.333059 0.914462 0.474970
Si Si6 0.706062 0.584005 0.015389
Si Si7 0.110434 0.807169 0.305034
O O1 0.120267 0.402613 0.251542
O O2 0.158323 0.403050 0.426502
O O3 0.117452 0.278658 0.333667
O O4 0.901242 0.372767 0.265692
O O5 0.888565 0.500000 0.869560
O O6 0.849296 0.642417 0.883847
O O7 0.111000 0.587411 0.920852
O O8 0.281453 0.230714 0.135340
O O9 0.163240 0.103325 0.092207
O O10 0.159023 0.187839 0.228615
O O11 0.561554 0.666353 0.754019
O O12 0.659039 0.644715 0.933807
O O13 0.500000 0.898289 0.500000
O O14 0.216769 0.858686 0.394269
O O15 0.297495 0.000000 0.442958
O O16 0.662921 0.500000 0.978680
#
# Coordination Sequence:
#
# PCOD9201619 Si02
#       7
#     8   8   8   8   8   8   8
#     4  10  20  40  64  88 116 154 201 245 289 346
#     4  10  20  37  63  89 119 157 199 243 290 348
#     4  10  21  39  60  88 118 154 205 242 290 348
#     4  11  22  38  59  88 123 158 194 244 299 348
#     4  11  23  39  63  90 118 153 194 243 295 354
#     4  10  22  39  61  87 118 159 203 245 287 344
#     4  11  23  40  61  89 119 156 195 244 297 352
#
# _framework density 20.895682999999998
#
# number of rings (size 3 to 8) (size 9 to 14) (size 15 to 20)
#    0.000    1.571    2.857    2.143    0.000    4.000 
#    2.571    1.429    0.000    1.714    0.000    0.000 
#    0.000    0.000    0.000    0.000    0.000    0.000 
#
# Total GULP energy -156507.711759 kJ/mol
# GULP energy per Si atom -5589.561134 kJ/mol
# Density = 2.084812 g / cm^3
# Si number density = 20.895683 Si / 1000 Ang^3
#
#
#
# Elastic Constant Matrix: (Units=GPa)
#
#
# Indices 1 2 3 4 5 6 
#
# 1 30.4492 -7.5361 -5.2840 0.0000 -0.4297 0.0000
# 2 -7.5361 50.6095 30.8810 0.0000 20.8144 0.0000
# 3 -5.2840 30.8810 92.1082 0.0000 1.2776 0.0000
# 4 0.0000 0.0000 0.0000 5.2679 0.0000 -6.0388
# 5 -0.4297 20.8144 1.2776 0.0000 29.9316 0.0000
# 6 0.0000 0.0000 0.0000 -6.0388 0.0000 24.8224
#
#
#
# Elastic Compliance Matrix: (Units=1/GPa)
#
#
# Indices 1 2 3 4 5 6 
#
# 1 0.034500 0.007226 -0.000381 0.000000 -0.004513 0.000000
# 2 0.007226 0.039445 -0.012439 0.000000 -0.026795 0.000000
# 3 -0.000381 -0.012439 0.014894 0.000000 0.008009 0.000000
# 4 0.000000 0.000000 0.000000 0.263244 0.000000 0.064042
# 5 -0.004513 -0.026795 0.008009 0.000000 0.051636 0.000000
# 6 0.000000 0.000000 0.000000 0.064042 0.000000 0.055866
#
#
# Mechanical properties :
#
#
# Convention : Reuss Voigt Hill
#
# Bulk Modulus (GPa) = 12.87788 23.25429 18.06608
# Shear Modulus (GPa) = 10.06730 22.34479 16.20605
#
# Velocity S-wave (km/s) = 2.19735 3.27364 2.78793
# Velocity P-wave (km/s) = 3.55163 5.04399 4.36211
#
# Compressibility (1/GPa) = 0.07765255
#
# Stress axis : x y z
#
# Youngs Moduli (GPa) = 28.98534 25.35164 67.14057
#
# Poissons Ratio (x) = -0.18319 0.02557
# Poissons Ratio (y) = -0.20944 0.83513
# Poissons Ratio (z) = 0.01104 0.31534
#
# Static dielectric constant tensor:
#      x y z
#    x 1.766350 0.000000 -0.006340 
#    y 0.000000 1.723820 0.000000 
#    z -0.006340 0.000000 1.735100 
# 
# From -- ./inp_files/206741.got.cif
#   From: 2010.05.17/outbox.cif.g08.bks.cpg/sg12_104_cif.got.tgz:206741.got - 2010.06.03 13:09:07.
