data_PCOD9201110
_publ_section_title
;
Structure prediction by ZEFSAII (Michael W. Deem and Ramdas Pophale) SiO2 
 PCOD9201110
Probable space group: C 2/M
;
_chemical_formula_sum "Si O2"
_cell_formula_units_Z 56
_cell_length_a 11.629339
_cell_length_b 14.959993
_cell_length_c 15.041140
_cell_angle_alpha 90.000000
_cell_angle_beta 105.928298
_cell_angle_gamma 90.000000
_cell_volume 2516.310833
_symmetry_space_group_name_H-M "C 2/M"
_symmetry_group_IT_number 12
_symmetry_cell_setting 'monoclinic'
loop_
_space_group_symop_operation_xyz
x,y,z
-x,y,-z
-x,-y,-z
x,-y,z
1/2+x,1/2+y,z
1/2-x,1/2+y,-z
1/2-x,1/2-y,-z
1/2+x,1/2-y,z
loop_
_atom_site_type_symbol
_atom_site_label
_atom_site_fract_x
_atom_site_fract_y
_atom_site_fract_z
Si Si1 0.228484 0.865177 0.089748
Si Si2 0.469919 0.397640 0.813384
Si Si3 0.136610 0.890460 0.537568
Si Si4 0.071643 0.394652 0.720507
Si Si5 0.731145 0.341428 0.894983
Si Si6 0.816030 0.606288 0.722717
Si Si7 0.232982 0.109280 0.369675
O O1 0.109618 0.898469 0.114017
O O2 0.340101 0.888806 0.176094
O O3 0.219315 0.758203 0.085418
O O4 0.246026 0.892592 0.991484
O O5 0.507789 0.500000 0.801330
O O6 0.588693 0.340193 0.847470
O O7 0.379540 0.367019 0.716933
O O8 0.205893 0.859662 0.640086
O O9 0.210282 0.863734 0.465504
O O10 0.000000 0.860230 0.500000
O O11 0.132809 0.000000 0.538090
O O12 0.054471 0.500000 0.698213
O O13 0.147061 0.357702 0.653328
O O14 0.942396 0.355770 0.715555
O O15 0.794178 0.379743 0.821726
O O16 0.819670 0.500000 0.709386
O O17 0.236216 0.000000 0.368558
#
# Coordination Sequence:
#
# PCOD9201110 Si02
#       7
#     8   8   8   8   8   8   8
#     4  10  23  38  55  79 109 149 191 230 286 347
#     4  10  20  37  61  86 109 143 196 244 281 334
#     4   9  16  28  50  83 117 144 179 230 280 327
#     4   9  19  36  55  78 110 148 188 228 274 334
#     4  11  23  36  55  81 112 147 186 236 290 339
#     4  10  21  34  53  85 116 145 185 230 280 336
#     4   8  15  30  54  81 110 145 184 230 279 326
#
# _framework density 22.254802999999999
#
# number of rings (size 3 to 8) (size 9 to 14) (size 15 to 20)
#    0.000    2.429    0.000    3.000    2.000    6.286 
#    0.000    4.286    0.000    3.429    7.429    0.000 
#    0.000    0.000    0.000    0.000    0.000    0.000 
#
# Total GULP energy -156423.824581 kJ/mol
# GULP energy per Si atom -5586.565164 kJ/mol
# Density = 2.220415 g / cm^3
# Si number density = 22.254803 Si / 1000 Ang^3
#
#
#
# Elastic Constant Matrix: (Units=GPa)
#
#
# Indices 1 2 3 4 5 6 
#
# 1 100.7199 -5.7477 20.1776 0.0000 -5.8080 0.0000
# 2 -5.7477 37.8698 -7.7903 0.0000 -2.5648 0.0000
# 3 20.1776 -7.7903 65.3887 0.0000 -24.3576 0.0000
# 4 0.0000 0.0000 0.0000 39.4027 0.0000 -23.9094
# 5 -5.8080 -2.5648 -24.3576 0.0000 25.6371 0.0000
# 6 0.0000 0.0000 0.0000 -23.9094 0.0000 25.0565
#
#
#
# Elastic Compliance Matrix: (Units=1/GPa)
#
#
# Indices 1 2 3 4 5 6 
#
# 1 0.010627 0.000841 -0.003484 0.000000 -0.000819 0.000000
# 2 0.000841 0.028526 0.006614 0.000000 0.009328 0.000000
# 3 -0.003484 0.006614 0.026481 0.000000 0.025031 0.000000
# 4 0.000000 0.000000 0.000000 0.060285 0.000000 0.057525
# 5 -0.000819 0.009328 0.025031 0.000000 0.063536 0.000000
# 6 0.000000 0.000000 0.000000 0.057525 0.000000 0.094802
#
#
# Mechanical properties :
#
#
# Convention : Reuss Voigt Hill
#
# Bulk Modulus (GPa) = 13.59152 24.13973 18.86563
# Shear Modulus (GPa) = 16.62007 31.17516 23.89762
#
# Velocity S-wave (km/s) = 2.73574 3.74682 3.28047
# Velocity P-wave (km/s) = 4.01242 5.43956 4.77956
#
# Compressibility (1/GPa) = 0.07357528
#
# Stress axis : x y z
#
# Youngs Moduli (GPa) = 94.09733 35.05552 37.76345
#
# Poissons Ratio (x) = -0.02947 0.13157
# Poissons Ratio (y) = -0.07912 -0.24976
# Poissons Ratio (z) = 0.32785 -0.23185
#
# Static dielectric constant tensor:
#      x y z
#    x 1.791640 0.000000 -0.010670 
#    y 0.000000 1.844990 0.000000 
#    z -0.010670 0.000000 1.815530 
# 
# From -- ./inp_files/206260.got.cif
#   From: 2010.05.17/outbox.cif.g08.bks.cpg/sg12_104_cif.got.tgz:206260.got - 2010.06.03 13:09:07.
