data_PCOD9201936
_publ_section_title
;
Structure prediction by ZEFSAII (Michael W. Deem and Ramdas Pophale) SiO2 
 PCOD9201936
Probable space group: C 2/M
;
_chemical_formula_sum "Si O2"
_cell_formula_units_Z 40
_cell_length_a 10.191542
_cell_length_b 19.162102
_cell_length_c 10.037167
_cell_angle_alpha 90.000000
_cell_angle_beta 91.135167
_cell_angle_gamma 90.000000
_cell_volume 1959.787366
_symmetry_space_group_name_H-M "C 2/M"
_symmetry_group_IT_number 12
_symmetry_cell_setting 'monoclinic'
loop_
_space_group_symop_operation_xyz
x,y,z
-x,y,-z
-x,-y,-z
x,-y,z
1/2+x,1/2+y,z
1/2-x,1/2+y,-z
1/2-x,1/2-y,-z
1/2+x,1/2-y,z
loop_
_atom_site_type_symbol
_atom_site_label
_atom_site_fract_x
_atom_site_fract_y
_atom_site_fract_z
Si Si1 0.846990 0.418975 0.506828
Si Si2 0.152184 0.417454 0.963971
Si Si3 0.728911 0.819011 0.721564
Si Si4 0.510820 0.704025 0.660806
Si Si5 0.182698 0.080620 0.766511
O O1 0.833187 0.500000 0.466663
O O2 0.769128 0.369194 0.407156
O O3 0.793188 0.411964 0.654329
O O4 0.000000 0.400622 0.500000
O O5 0.160937 0.500000 0.927670
O O6 0.197481 0.367587 0.846328
O O7 0.247064 0.405239 0.092001
O O8 0.000000 0.404579 0.000000
O O9 0.614718 0.763242 0.699683
O O10 0.869640 0.781968 0.723397
O O11 0.500000 0.700604 0.500000
O O12 0.566963 0.632324 0.723373
O O13 0.138147 0.000000 0.764951
#
# Coordination Sequence:
#
# PCOD9201936 Si02
#       5
#     8   8   8   8   8
#     4  10  20  37  68 101 129 172 225 277 334 399
#     4  10  23  45  73 103 136 175 222 280 338 398
#     4  12  26  43  69  96 139 179 228 273 335 404
#     4  12  27  45  67 101 137 182 225 282 340 390
#     4  10  23  43  67  98 136 172 222 284 339 397
#
# _framework density 20.410375999999999
#
# number of rings (size 3 to 8) (size 9 to 14) (size 15 to 20)
#    0.000    1.200    2.000    3.000    5.600    6.800 
#    0.000    2.000    0.000    0.000    0.000    0.000 
#    0.000    0.000    0.000    0.000    0.000    0.000 
#
# Total GULP energy -111911.659010 kJ/mol
# GULP energy per Si atom -5595.582950 kJ/mol
# Density = 2.036392 g / cm^3
# Si number density = 20.410376 Si / 1000 Ang^3
#
#
#
# Elastic Constant Matrix: (Units=GPa)
#
#
# Indices 1 2 3 4 5 6 
#
# 1 141.8995 62.9156 49.0927 0.0000 -3.2032 0.0000
# 2 62.9156 90.4177 81.7231 0.0000 9.1970 0.0000
# 3 49.0927 81.7231 128.0338 0.0000 9.5391 0.0000
# 4 0.0000 0.0000 0.0000 75.5589 0.0000 -10.1934
# 5 -3.2032 9.1970 9.5391 0.0000 23.1463 0.0000
# 6 0.0000 0.0000 0.0000 -10.1934 0.0000 47.7792
#
#
#
# Elastic Compliance Matrix: (Units=1/GPa)
#
#
# Indices 1 2 3 4 5 6 
#
# 1 0.010753 -0.009248 0.001439 0.000000 0.004569 0.000000
# 2 -0.009248 0.034392 -0.017841 0.000000 -0.007593 0.000000
# 3 0.001439 -0.017841 0.018676 0.000000 -0.000409 0.000000
# 4 0.000000 0.000000 0.000000 0.013627 0.000000 0.002907
# 5 0.004569 -0.007593 -0.000409 0.000000 0.047021 0.000000
# 6 0.000000 0.000000 0.000000 0.002907 0.000000 0.021550
#
#
# Mechanical properties :
#
#
# Convention : Reuss Voigt Hill
#
# Bulk Modulus (GPa) = 79.85144 83.09042 81.47093
# Shear Modulus (GPa) = 24.81488 40.40485 32.60986
#
# Velocity S-wave (km/s) = 3.49061 4.45412 4.00147
# Velocity P-wave (km/s) = 7.44673 8.20064 7.83276
#
# Compressibility (1/GPa) = 0.01252326
#
# Stress axis : x y z
#
# Youngs Moduli (GPa) = 92.99940 29.07642 53.54336
#
# Poissons Ratio (x) = 0.26890 -0.07707
# Poissons Ratio (y) = 0.86006 0.95524
# Poissons Ratio (z) = -0.13387 0.51874
#
# Static dielectric constant tensor:
#      x y z
#    x 1.725800 0.000000 0.005680 
#    y 0.000000 1.720900 0.000000 
#    z 0.005680 0.000000 1.689730 
# 
# From -- ./inp_files/47084.got.cif
#   From: 2010.05.17/outbox.cif.g08.bks.cpg/sg12_24_cif.got.tgz:47084.got - 2010.06.03 13:09:07.
