data_PCOD9201926
_publ_section_title
;
Structure prediction by ZEFSAII (Michael W. Deem and Ramdas Pophale) SiO2 
 PCOD9201926
Probable space group: C 2/M
;
_chemical_formula_sum "Si O2"
_cell_formula_units_Z 64
_cell_length_a 11.193596
_cell_length_b 14.824188
_cell_length_c 27.973520
_cell_angle_alpha 90.000000
_cell_angle_beta 38.741798
_cell_angle_gamma 90.000000
_cell_volume 2904.901595
_symmetry_space_group_name_H-M "C 2/M"
_symmetry_group_IT_number 12
_symmetry_cell_setting 'monoclinic'
loop_
_space_group_symop_operation_xyz
x,y,z
-x,y,-z
-x,-y,-z
x,-y,z
1/2+x,1/2+y,z
1/2-x,1/2+y,-z
1/2-x,1/2-y,-z
1/2+x,1/2-y,z
loop_
_atom_site_type_symbol
_atom_site_label
_atom_site_fract_x
_atom_site_fract_y
_atom_site_fract_z
Si Si1 0.745933 0.395654 0.689951
Si Si2 0.313872 0.400305 0.793190
Si Si3 0.100648 0.281656 0.586119
Si Si4 0.286638 0.230572 0.044571
Si Si5 0.366852 0.105129 0.330182
Si Si6 0.042636 0.105555 0.849894
Si Si7 0.570484 0.598416 0.341699
Si Si8 0.193197 0.702297 0.166712
O O1 0.812806 0.500000 0.670919
O O2 0.545906 0.397482 0.724641
O O3 0.677896 0.362356 0.763950
O O4 0.912248 0.328796 0.622044
O O5 0.256243 0.500000 0.830598
O O6 0.273576 0.400375 0.749342
O O7 0.256359 0.305664 0.834109
O O8 0.250000 0.250000 0.500000
O O9 0.158929 0.351905 0.609484
O O10 0.048437 0.188063 0.627769
O O11 0.175269 0.298903 0.115181
O O12 0.172098 0.138130 0.089076
O O13 0.500000 0.228714 0.000000
O O14 0.250000 0.250000 0.000000
O O15 0.172205 0.105075 0.361001
O O16 0.514868 0.164584 0.252525
O O17 0.432324 0.000000 0.312472
O O18 0.130170 0.142642 0.871078
O O19 0.051858 0.000000 0.844974
O O20 0.473015 0.500000 0.369317
#
# Coordination Sequence:
#
# PCOD9201926 Si02
#       8
#     8   8   8   8   8   8   8   8
#     4  10  20  39  68 102 134 176 241 297 346 418
#     4  10  20  37  67 103 132 170 230 296 347 404
#     4  12  25  40  65  97 136 178 226 284 362 422
#     4  12  27  46  68 107 151 194 237 298 376 442
#     4  11  24  44  71 102 134 181 241 293 347 420
#     4  11  23  43  74 104 137 192 250 300 353 432
#     4  10  23  41  61  93 135 172 223 284 343 407
#     4  12  22  40  75  99 143 185 244 293 357 419
#
# _framework density 22.031727
#
# number of rings (size 3 to 8) (size 9 to 14) (size 15 to 20)
#    0.000    1.000    5.000    1.500    1.750    1.750 
#    0.000    3.125    0.000    2.250    0.000    0.000 
#    0.000    0.000    0.000    0.000    0.000    0.000 
#
# Total GULP energy -178548.722986 kJ/mol
# GULP energy per Si atom -5579.647593 kJ/mol
# Density = 2.198158 g / cm^3
# Si number density = 22.031727 Si / 1000 Ang^3
#
#
#
# Elastic Constant Matrix: (Units=GPa)
#
#
# Indices 1 2 3 4 5 6 
#
# 1 74.1166 5.7345 24.7350 0.0001 17.6726 -0.0001
# 2 5.7345 100.4131 45.5920 -0.0003 3.7975 -0.0001
# 3 24.7350 45.5920 100.4081 -0.0007 11.4173 -0.0004
# 4 0.0001 -0.0003 -0.0007 11.3772 -0.0002 1.0644
# 5 17.6726 3.7975 11.4173 -0.0002 27.4880 0.0002
# 6 -0.0001 -0.0001 -0.0004 1.0644 0.0002 33.4514
#
#
#
# Elastic Compliance Matrix: (Units=1/GPa)
#
#
# Indices 1 2 3 4 5 6 
#
# 1 0.016860 0.000997 -0.003524 0.000000 -0.009513 0.000000
# 2 0.000997 0.012616 -0.005986 0.000000 0.000102 0.000000
# 3 -0.003524 -0.005986 0.013848 0.000001 -0.002659 0.000000
# 4 0.000000 0.000000 0.000001 0.088157 0.000001 -0.002805
# 5 -0.009513 0.000102 -0.002659 0.000001 0.043586 0.000000
# 6 0.000000 0.000000 0.000000 -0.002805 0.000000 0.029983
#
#
# Mechanical properties :
#
#
# Convention : Reuss Voigt Hill
#
# Bulk Modulus (GPa) = 38.02631 47.45121 42.73876
# Shear Modulus (GPa) = 21.65987 27.72174 24.69081
#
# Velocity S-wave (km/s) = 3.13888 3.55105 3.35131
# Velocity P-wave (km/s) = 5.51670 6.19659 5.86650
#
# Compressibility (1/GPa) = 0.02629758
#
# Stress axis : x y z
#
# Youngs Moduli (GPa) = 59.31308 79.26554 72.21363
#
# Poissons Ratio (x) = -0.07904 0.25450
# Poissons Ratio (y) = -0.05914 0.43225
# Poissons Ratio (z) = 0.20904 0.47446
#
# Static dielectric constant tensor:
#      x y z
#    x 1.907060 0.000000 0.018960 
#    y 0.000000 1.811520 0.000000 
#    z 0.018960 0.000000 1.891080 
# 
# From -- ./inp_files/358418.got.cif
#   From: 2010.05.17/outbox.cif.g08.bks.cpg/sg12_180_cif.got.tgz:358418.got - 2010.06.03 13:09:07.
