data_PCOD9201243
_publ_section_title
;
Structure prediction by ZEFSAII (Michael W. Deem and Ramdas Pophale) SiO2 
 PCOD9201243
Probable space group: C 2/M
;
_chemical_formula_sum "Si O2"
_cell_formula_units_Z 40
_cell_length_a 23.106347
_cell_length_b 14.042763
_cell_length_c 17.832369
_cell_angle_alpha 90.000000
_cell_angle_beta 160.707569
_cell_angle_gamma 90.000000
_cell_volume 1911.698557
_symmetry_space_group_name_H-M "C 2/M"
_symmetry_group_IT_number 12
_symmetry_cell_setting 'monoclinic'
loop_
_space_group_symop_operation_xyz
x,y,z
-x,y,-z
-x,-y,-z
x,-y,z
1/2+x,1/2+y,z
1/2-x,1/2+y,-z
1/2-x,1/2-y,-z
1/2+x,1/2-y,z
loop_
_atom_site_type_symbol
_atom_site_label
_atom_site_fract_x
_atom_site_fract_y
_atom_site_fract_z
Si Si1 0.873212 0.155786 0.786033
Si Si2 0.996038 0.363099 0.081463
Si Si3 0.500928 0.766360 0.675604
Si Si4 0.745912 0.388635 0.912769
Si Si5 0.137262 0.100348 0.393505
O O1 0.680959 0.190449 0.577367
O O2 0.843598 0.104424 0.671750
O O3 0.983562 0.249816 0.899585
O O4 0.000000 0.105587 0.000000
O O5 0.171591 0.397649 0.336415
O O6 0.837535 0.385908 0.943073
O O7 0.000000 0.396644 0.000000
O O8 0.595555 0.692845 0.734558
O O9 0.454730 0.694497 0.687698
O O10 0.620800 0.848876 0.859174
O O11 0.699303 0.500000 0.868139
O O12 0.049518 0.000000 0.306560
#
# Coordination Sequence:
#
# PCOD9201243 Si02
#       5
#     8   8   8   8   8
#     4  10  20  38  60  85 121 168 207 255 300 352
#     4  10  20  37  61  89 124 161 202 253 310 365
#     4  10  21  39  59  90 125 159 202 254 310 364
#     4  11  21  36  63  92 123 162 202 251 315 373
#     4  11  20  36  60  89 124 162 207 254 301 364
#
# _framework density 20.923801000000001
#
# number of rings (size 3 to 8) (size 9 to 14) (size 15 to 20)
#    0.000    1.600    4.000    2.400    0.000    2.000 
#    0.000    9.000    0.000   13.800    0.000    4.200 
#    0.000    0.000    0.000    0.000    0.000    0.000 
#
# Total GULP energy -111487.701809 kJ/mol
# GULP energy per Si atom -5574.385090 kJ/mol
# Density = 2.087618 g / cm^3
# Si number density = 20.923801 Si / 1000 Ang^3
#
#
#
# Elastic Constant Matrix: (Units=GPa)
#
#
# Indices 1 2 3 4 5 6 
#
# 1 145.0176 32.6740 61.4874 0.0004 -4.4238 0.0001
# 2 32.6740 110.3483 17.6874 0.0004 -5.0060 -0.0002
# 3 61.4874 17.6874 103.5960 -0.0002 -18.3640 0.0029
# 4 0.0004 0.0004 -0.0002 30.4511 0.0004 -67.5480
# 5 -4.4238 -5.0060 -18.3640 0.0004 42.3917 0.0006
# 6 0.0001 -0.0002 0.0029 -67.5480 0.0006 42.3429
#
#
#
# Elastic Compliance Matrix: (Units=1/GPa)
#
#
# Indices 1 2 3 4 5 6 
#
# 1 0.009734 -0.002041 -0.005732 0.000000 -0.001708 0.000000
# 2 -0.002041 0.009753 -0.000311 0.000000 0.000804 0.000000
# 3 -0.005732 -0.000311 0.014076 0.000001 0.005463 0.000000
# 4 0.000000 0.000000 0.000001 -0.012936 0.000001 -0.020636
# 5 -0.001708 0.000804 0.005463 0.000001 0.025873 0.000001
# 6 0.000000 0.000000 0.000000 -0.020636 0.000001 -0.009303
#
#
# Mechanical properties :
#
#
# Convention : Reuss Voigt Hill
#
# Bulk Modulus (GPa) = 57.48694 64.73993 61.11344
# Shear Modulus (GPa) = 84.51223 39.51134 62.01179
#
# Velocity S-wave (km/s) = 6.36224 4.35022 5.44989
# Velocity P-wave (km/s) = 9.02801 7.49937 8.29896
#
# Compressibility (1/GPa) = 0.01739526
#
# Stress axis : x y z
#
# Youngs Moduli (GPa) = 102.73668 102.53363 71.04155
#
# Poissons Ratio (x) = 0.20926 0.40718
# Poissons Ratio (y) = 0.20968 0.02212
# Poissons Ratio (z) = 0.58884 0.03192
#
# Static dielectric constant tensor:
#      x y z
#    x 1.783670 0.000000 0.009770 
#    y 0.000000 1.841160 0.000000 
#    z 0.009770 0.000000 1.776630 
# 
# From -- ./inp_files/60317.got.cif
#   From: 2010.05.17/outbox.cif.g08.bks.cpg/sg12_31_cif.got.tgz:60317.got - 2010.06.03 13:09:07.
