data_PCOD9201758
_publ_section_title
;
Structure prediction by ZEFSAII (Michael W. Deem and Ramdas Pophale) SiO2 
 PCOD9201758
Probable space group: C 2/M
;
_chemical_formula_sum "Si O2"
_cell_formula_units_Z 64
_cell_length_a 17.125071
_cell_length_b 14.764928
_cell_length_c 17.146352
_cell_angle_alpha 90.000000
_cell_angle_beta 139.115990
_cell_angle_gamma 90.000000
_cell_volume 2837.689703
_symmetry_space_group_name_H-M "C 2/M"
_symmetry_group_IT_number 12
_symmetry_cell_setting 'monoclinic'
loop_
_space_group_symop_operation_xyz
x,y,z
-x,y,-z
-x,-y,-z
x,-y,z
1/2+x,1/2+y,z
1/2-x,1/2+y,-z
1/2-x,1/2-y,-z
1/2+x,1/2-y,z
loop_
_atom_site_type_symbol
_atom_site_label
_atom_site_fract_x
_atom_site_fract_y
_atom_site_fract_z
Si Si1 0.531276 0.739735 0.604928
Si Si2 0.639470 0.600769 0.793432
Si Si3 0.874214 0.647173 0.879960
Si Si4 0.720278 0.663730 0.174843
Si Si5 0.321554 0.837214 0.522385
Si Si6 0.955008 0.692601 0.773733
Si Si7 0.120814 0.099564 0.261196
Si Si8 0.209001 0.605488 0.943568
O O1 0.500000 0.692468 0.500000
O O2 0.545827 0.669785 0.686349
O O3 0.655314 0.793763 0.699864
O O4 0.422285 0.806185 0.537934
O O5 0.591183 0.500000 0.756998
O O6 0.756156 0.602572 0.825183
O O7 0.690127 0.626385 0.916210
O O8 0.864371 0.750035 0.904803
O O9 0.882747 0.656711 0.793963
O O10 0.000000 0.606039 0.000000
O O11 0.666519 0.608042 0.206094
O O12 0.747385 0.618724 0.112199
O O13 0.250000 0.750000 0.500000
O O14 0.396939 0.859835 0.656220
O O15 0.229202 0.898606 0.405880
O O16 0.940775 0.802466 0.768067
O O17 0.093359 0.665206 0.875853
O O18 0.060610 0.000000 0.221096
O O19 0.177698 0.500000 0.931651
#
# Coordination Sequence:
#
# PCOD9201758 Si02
#       8
#     8   8   8   8   8   8   8   8
#     4  11  21  40  65  89 122 170 218 269 328 394
#     4  10  24  40  61  94 129 169 224 273 323 384
#     4  10  20  37  64  90 121 175 213 254 327 385
#     4  10  21  37  64  97 129 163 215 262 326 398
#     4  10  21  38  62  87 124 166 214 265 313 389
#     4  10  21  38  62  95 128 171 216 267 329 389
#     4  10  21  40  64  95 133 172 217 268 328 394
#     4  11  22  39  65 100 135 171 220 273 322 389
#
# _framework density 22.553557999999999
#
# number of rings (size 3 to 8) (size 9 to 14) (size 15 to 20)
#    0.000    1.750    3.750    0.375    1.750    4.500 
#    0.000    3.125    0.000   12.375    0.000    0.875 
#    0.000    0.000    0.000    0.000    0.000    0.000 
#
# Total GULP energy -178709.562050 kJ/mol
# GULP energy per Si atom -5584.673814 kJ/mol
# Density = 2.250223 g / cm^3
# Si number density = 22.553558 Si / 1000 Ang^3
#
#
#
# Elastic Constant Matrix: (Units=GPa)
#
#
# Indices 1 2 3 4 5 6 
#
# 1 124.8172 38.3902 23.2298 0.0000 -18.7507 0.0000
# 2 38.3902 101.4532 42.4922 0.0000 -7.7692 0.0000
# 3 23.2298 42.4922 79.6704 0.0000 -33.0776 0.0000
# 4 0.0000 0.0000 0.0000 15.2316 0.0000 -3.0551
# 5 -18.7507 -7.7692 -33.0776 0.0000 45.6586 0.0000
# 6 0.0000 0.0000 0.0000 -3.0551 0.0000 0.1518
#
#
#
# Elastic Compliance Matrix: (Units=1/GPa)
#
#
# Indices 1 2 3 4 5 6 
#
# 1 0.009571 -0.003642 0.000753 0.000000 0.003856 0.000000
# 2 -0.003642 0.014589 -0.009024 0.000000 -0.005550 0.000000
# 3 0.000753 -0.009024 0.023792 0.000000 0.016010 0.000000
# 4 0.000000 0.000000 0.000000 -0.021615 0.000000 -0.435085
# 5 0.003856 -0.005550 0.016010 0.000000 0.034139 0.000000
# 6 0.000000 0.000000 0.000000 -0.435085 0.000000 -2.169166
#
#
# Mechanical properties :
#
#
# Convention : Reuss Voigt Hill
#
# Bulk Modulus (GPa) = 41.44776 57.12946 49.28861
# Shear Modulus (GPa) = -2.40752 25.66364 11.62806
#
# Velocity S-wave (km/s) = -1.03431 3.37693 2.27309
# Velocity P-wave (km/s) = 4.12201 6.37106 5.36570
#
# Compressibility (1/GPa) = 0.02412676
#
# Stress axis : x y z
#
# Youngs Moduli (GPa) = 104.48243 68.54404 42.03078
#
# Poissons Ratio (x) = 0.24961 -0.03163
# Poissons Ratio (y) = 0.38048 0.37927
# Poissons Ratio (z) = -0.07863 0.61852
#
# Static dielectric constant tensor:
#      x y z
#    x 1.862410 0.000000 -0.004800 
#    y 0.000000 1.830500 0.000000 
#    z -0.004800 0.000000 1.863900 
# 
# From -- ./inp_files/278197.got.cif
#   From: 2010.05.17/outbox.cif.g08.bks.cpg/sg12_140_cif.got.tgz:278197.got - 2010.06.03 13:09:07.
