data_PCOD9201660
_publ_section_title
;
Structure prediction by ZEFSAII (Michael W. Deem and Ramdas Pophale) SiO2 
 PCOD9201660
Probable space group: C 2/M
;
_chemical_formula_sum "Si O2"
_cell_formula_units_Z 32
_cell_length_a 21.173143
_cell_length_b 8.525815
_cell_length_c 9.174329
_cell_angle_alpha 90.000000
_cell_angle_beta 90.058004
_cell_angle_gamma 90.000000
_cell_volume 1656.133428
_symmetry_space_group_name_H-M "C 2/M"
_symmetry_group_IT_number 12
_symmetry_cell_setting 'monoclinic'
loop_
_space_group_symop_operation_xyz
x,y,z
-x,y,-z
-x,-y,-z
x,-y,z
1/2+x,1/2+y,z
1/2-x,1/2+y,-z
1/2-x,1/2-y,-z
1/2+x,1/2-y,z
loop_
_atom_site_type_symbol
_atom_site_label
_atom_site_fract_x
_atom_site_fract_y
_atom_site_fract_z
Si Si1 0.936988 0.691243 0.416572
Si Si2 0.810784 0.311469 0.585952
Si Si3 0.065197 0.689990 0.920912
Si Si4 0.688914 0.313178 0.085011
O O1 0.937868 0.500000 0.416779
O O2 0.874246 0.740311 0.502077
O O3 0.935861 0.739986 0.248024
O O4 0.000000 0.744084 0.500000
O O5 0.809785 0.500000 0.587374
O O6 0.750000 0.250000 0.500000
O O7 0.810971 0.250946 0.750692
O O8 0.069426 0.500000 0.925160
O O9 0.125668 0.757493 0.003379
O O10 0.000000 0.734879 0.000000
O O11 0.691478 0.500000 0.088069
O O12 0.750000 0.250000 0.000000
#
# Coordination Sequence:
#
# PCOD9201660 Si02
#       4
#     8   8   8   8
#     4   9  18  34  58  87 116 150 193 238 287 349
#     4  11  22  38  61  88 120 157 199 247 301 359
#     4  10  20  37  63  92 122 157 198 245 301 364
#     4  12  25  41  61  86 119 158 204 255 308 363
#
# _framework density 19.322116000000001
#
# number of rings (size 3 to 8) (size 9 to 14) (size 15 to 20)
#    0.000    1.500    0.000    6.000    0.000    6.500 
#    0.000    1.250    0.000    5.250    0.000    0.000 
#    0.000    0.000    0.000    0.000    0.000    0.000 
#
# Total GULP energy -89485.200423 kJ/mol
# GULP energy per Si atom -5592.825026 kJ/mol
# Density = 1.927814 g / cm^3
# Si number density = 19.322116 Si / 1000 Ang^3
#
#
#
# Elastic Constant Matrix: (Units=GPa)
#
#
# Indices 1 2 3 4 5 6 
#
# 1 243.5389 59.1999 151.8385 0.0000 -0.4577 0.0000
# 2 59.1999 61.0616 53.6055 0.0000 -1.6673 0.0000
# 3 151.8385 53.6055 246.7172 0.0000 -0.9255 0.0000
# 4 0.0000 0.0000 0.0000 29.3125 0.0000 6.2061
# 5 -0.4577 -1.6673 -0.9255 0.0000 46.8603 0.0000
# 6 0.0000 0.0000 0.0000 6.2061 0.0000 32.8511
#
#
#
# Elastic Compliance Matrix: (Units=1/GPa)
#
#
# Indices 1 2 3 4 5 6 
#
# 1 0.007344 -0.003899 -0.003673 0.000000 -0.000140 0.000000
# 2 -0.003899 0.022326 -0.002449 0.000000 0.000708 0.000000
# 3 -0.003673 -0.002449 0.006846 0.000000 0.000012 0.000000
# 4 0.000000 0.000000 0.000000 0.035537 0.000000 -0.006713
# 5 -0.000140 0.000708 0.000012 0.000000 0.021364 0.000000
# 6 0.000000 0.000000 0.000000 -0.006713 0.000000 0.031709
#
#
# Mechanical properties :
#
#
# Convention : Reuss Voigt Hill
#
# Bulk Modulus (GPa) = 60.70090 120.06728 90.38409
# Shear Modulus (GPa) = 33.18797 40.91638 37.05218
#
# Velocity S-wave (km/s) = 4.14891 4.60672 4.38380
# Velocity P-wave (km/s) = 7.37799 9.51686 8.51485
#
# Compressibility (1/GPa) = 0.01647422
#
# Stress axis : x y z
#
# Youngs Moduli (GPa) = 136.17400 44.79073 146.07771
#
# Poissons Ratio (x) = 0.17464 0.53652
# Poissons Ratio (y) = 0.53096 0.35768
# Poissons Ratio (z) = 0.50014 0.10967
#
# Static dielectric constant tensor:
#      x y z
#    x 1.635890 0.000000 -0.009450 
#    y 0.000000 1.666400 0.000000 
#    z -0.009450 0.000000 1.636770 
# 
# From -- ./inp_files/81653.got.cif
#   From: 2010.05.17/outbox.cif.g08.bks.cpg/sg12_41_cif.got.tgz:81653.got - 2010.06.03 13:09:07.
