data_PCOD9201730
_publ_section_title
;
Structure prediction by ZEFSAII (Michael W. Deem and Ramdas Pophale) SiO2 
 PCOD9201730
Probable space group: C 2/M
;
_chemical_formula_sum "Si O2"
_cell_formula_units_Z 58
_cell_length_a 12.768923
_cell_length_b 13.004567
_cell_length_c 13.680661
_cell_angle_alpha 90.000000
_cell_angle_beta 89.148783
_cell_angle_gamma 90.000000
_cell_volume 2271.482086
_symmetry_space_group_name_H-M "C 2/M"
_symmetry_group_IT_number 12
_symmetry_cell_setting 'monoclinic'
loop_
_space_group_symop_operation_xyz
x,y,z
-x,y,-z
-x,-y,-z
x,-y,z
1/2+x,1/2+y,z
1/2-x,1/2+y,-z
1/2-x,1/2-y,-z
1/2+x,1/2-y,z
loop_
_atom_site_type_symbol
_atom_site_label
_atom_site_fract_x
_atom_site_fract_y
_atom_site_fract_z
Si Si1 0.684864 0.811834 0.892869
Si Si2 0.270512 0.618814 0.241471
Si Si3 0.603349 0.185438 0.405064
Si Si4 0.490437 0.613827 0.752278
Si Si5 0.906876 0.819862 0.942704
Si Si6 0.821299 0.111664 0.582247
Si Si7 0.500000 0.000000 0.500000
Si Si8 0.401180 0.882748 0.308052
O O1 0.724490 0.702783 0.845096
O O2 0.618254 0.778486 0.987945
O O3 0.623618 0.868314 0.806479
O O4 0.792089 0.867158 0.924494
O O5 0.247055 0.500000 0.214025
O O6 0.190296 0.657326 0.323946
O O7 0.389269 0.622024 0.279500
O O8 0.640716 0.283426 0.467440
O O9 0.586692 0.089969 0.474991
O O10 0.492992 0.189580 0.347384
O O11 0.481757 0.500000 0.800397
O O12 0.455862 0.694286 0.835094
O O13 0.408506 0.611244 0.666567
O O14 0.000000 0.875682 0.000000
O O15 0.711742 0.125497 0.639784
O O16 0.824793 0.000000 0.531861
O O17 0.441745 0.000000 0.331009
#
# Coordination Sequence:
#
# PCOD9201730 Si02
#       8
#     8   8   8   8   8   8   2   8
#     4  11  23  36  60  91 132 188 241 304 349 409
#     4  11  21  37  63  99 129 180 242 290 344 437
#     4  12  24  46  75 105 149 180 235 287 363 452
#     4  10  20  37  63  97 136 185 242 304 363 407
#     4  11  22  36  52  89 136 188 236 302 368 394
#     4  10  22  41  75 107 138 184 251 297 347 425
#     4  12  28  52  74 120 146 196 210 294 376 458
#     4  11  22  42  73 103 135 192 251 293 355 437
#
# _framework density 25.533989999999999
#
# number of rings (size 3 to 8) (size 9 to 14) (size 15 to 20)
#    0.000    1.103    5.517    0.828    1.931    0.828 
#    0.000    3.103    0.000    0.828    0.000    0.000 
#    0.000    0.000    0.000    0.000    0.000    0.000 
#
# Total GULP energy -161961.298721 kJ/mol
# GULP energy per Si atom -5584.872370 kJ/mol
# Density = 2.547587 g / cm^3
# Si number density = 25.533990 Si / 1000 Ang^3
#
#
#
# Elastic Constant Matrix: (Units=GPa)
#
#
# Indices 1 2 3 4 5 6 
#
# 1 176.2605 36.9518 36.5988 0.0000 6.9553 0.0000
# 2 36.9518 164.3081 21.4714 0.0000 -16.1209 0.0000
# 3 36.5988 21.4714 68.5264 0.0000 -1.1634 0.0000
# 4 0.0000 0.0000 0.0000 28.2394 0.0000 1.3734
# 5 6.9553 -16.1209 -1.1634 0.0000 54.4148 0.0000
# 6 0.0000 0.0000 0.0000 1.3734 0.0000 29.1495
#
#
#
# Elastic Compliance Matrix: (Units=1/GPa)
#
#
# Indices 1 2 3 4 5 6 
#
# 1 0.006638 -0.001201 -0.003191 0.000000 -0.001272 0.000000
# 2 -0.001201 0.006752 -0.001438 0.000000 0.002123 0.000000
# 3 -0.003191 -0.001438 0.016753 0.000000 0.000340 0.000000
# 4 0.000000 0.000000 0.000000 0.035493 0.000000 -0.001672
# 5 -0.001272 0.002123 0.000340 0.000000 0.019176 0.000000
# 6 0.000000 0.000000 0.000000 -0.001672 0.000000 0.034385
#
#
# Mechanical properties :
#
#
# Convention : Reuss Voigt Hill
#
# Bulk Modulus (GPa) = 54.09985 66.57098 60.33542
# Shear Modulus (GPa) = 36.49150 43.29896 39.89523
#
# Velocity S-wave (km/s) = 3.78449 4.12240 3.95705
# Velocity P-wave (km/s) = 6.35058 6.98477 6.67521
#
# Compressibility (1/GPa) = 0.01848434
#
# Stress axis : x y z
#
# Youngs Moduli (GPa) = 150.65161 148.09460 59.68945
#
# Poissons Ratio (x) = 0.17782 0.19044
# Poissons Ratio (y) = 0.18089 0.08586
# Poissons Ratio (z) = 0.48066 0.21302
#
# Static dielectric constant tensor:
#      x y z
#    x 2.010140 0.000000 0.017820 
#    y 0.000000 2.160570 0.000000 
#    z 0.017820 0.000000 1.843260 
# 
# From -- ./inp_files/262909.got.cif
#   From: 2010.05.17/outbox.cif.g08.bks.cpg/sg12_132_cif.got.tgz:262909.got - 2010.06.03 13:09:07.
