data_PCOD9201464
_publ_section_title
;
Structure prediction by ZEFSAII (Michael W. Deem and Ramdas Pophale) SiO2 
 PCOD9201464
Probable space group: C 2/M
;
_chemical_formula_sum "Si O2"
_cell_formula_units_Z 56
_cell_length_a 20.024986
_cell_length_b 8.601850
_cell_length_c 17.054836
_cell_angle_alpha 90.000000
_cell_angle_beta 107.848428
_cell_angle_gamma 90.000000
_cell_volume 2796.337450
_symmetry_space_group_name_H-M "C 2/M"
_symmetry_group_IT_number 12
_symmetry_cell_setting 'monoclinic'
loop_
_space_group_symop_operation_xyz
x,y,z
-x,y,-z
-x,-y,-z
x,-y,z
1/2+x,1/2+y,z
1/2-x,1/2+y,-z
1/2-x,1/2-y,-z
1/2+x,1/2-y,z
loop_
_atom_site_type_symbol
_atom_site_label
_atom_site_fract_x
_atom_site_fract_y
_atom_site_fract_z
Si Si1 0.187359 0.185781 0.823950
Si Si2 0.178785 0.815623 0.512255
Si Si3 0.385163 0.186006 0.355808
Si Si4 0.843063 0.812268 0.872984
Si Si5 0.598529 0.688466 0.939696
Si Si6 0.538657 0.687791 0.205083
Si Si7 0.040349 0.314575 0.380161
O O1 0.141415 0.260353 0.738584
O O2 0.267069 0.237390 0.843210
O O3 0.157786 0.234399 0.898282
O O4 0.180840 0.000000 0.816097
O O5 0.250000 0.750000 0.500000
O O6 0.164177 0.755483 0.594854
O O7 0.109840 0.763000 0.439567
O O8 0.183507 0.000000 0.514140
O O9 0.466790 0.234238 0.393947
O O10 0.382603 0.000000 0.359891
O O11 0.889298 0.776460 0.813610
O O12 0.835780 0.000000 0.874061
O O13 0.883390 0.759304 0.966386
O O14 0.596643 0.500000 0.942463
O O15 0.524608 0.735520 0.875479
O O16 0.533960 0.500000 0.214735
O O17 0.533675 0.769923 0.286561
O O18 0.046910 0.500000 0.391868
#
# Coordination Sequence:
#
# PCOD9201464 Si02
#       7
#     8   8   8   8   8   8   8
#     4  11  22  37  60  89 124 165 210 262 315 377
#     4  12  27  46  71 100 131 164 202 252 309 372
#     4  11  24  44  68  94 127 167 211 257 312 373
#     4  10  21  36  58  87 123 165 210 266 321 373
#     4   9  18  36  60  87 118 161 216 264 315 375
#     4  10  20  37  62  89 121 164 214 262 313 373
#     4  11  24  43  67  95 129 167 209 258 312 371
#
# _framework density 20.026195000000001
#
# number of rings (size 3 to 8) (size 9 to 14) (size 15 to 20)
#    0.000    1.429    1.429    3.857    2.000    5.714 
#    0.000    1.429    0.000    1.714    0.000    0.000 
#    0.000    0.000    0.000    0.000    0.000    0.000 
#
# Total GULP energy -156554.508011 kJ/mol
# GULP energy per Si atom -5591.232429 kJ/mol
# Density = 1.998061 g / cm^3
# Si number density = 20.026195 Si / 1000 Ang^3
#
#
#
# Elastic Constant Matrix: (Units=GPa)
#
#
# Indices 1 2 3 4 5 6 
#
# 1 64.6009 16.1598 -20.4879 0.0000 -27.6950 0.0000
# 2 16.1598 46.5309 0.2181 0.0000 -14.8441 0.0000
# 3 -20.4879 0.2181 42.2550 0.0000 -17.8415 0.0000
# 4 0.0000 0.0000 0.0000 20.0333 0.0000 1.6761
# 5 -27.6950 -14.8441 -17.8415 0.0000 28.9223 0.0000
# 6 0.0000 0.0000 0.0000 1.6761 0.0000 26.9039
#
#
#
# Elastic Compliance Matrix: (Units=1/GPa)
#
#
# Indices 1 2 3 4 5 6 
#
# 1 -0.108403 -0.026245 -0.137846 0.000000 -0.202307 0.000000
# 2 -0.026245 0.021152 -0.025506 0.000000 -0.030009 0.000000
# 3 -0.137846 -0.025506 -0.141034 0.000000 -0.232087 0.000000
# 4 0.000000 0.000000 0.000000 0.050178 0.000000 -0.003126
# 5 -0.202307 -0.030009 -0.232087 0.000000 -0.317718 0.000000
# 6 0.000000 0.000000 0.000000 -0.003126 0.000000 0.037364
#
#
# Mechanical properties :
#
#
# Convention : Reuss Voigt Hill
#
# Bulk Modulus (GPa) = -1.64615 16.12967 7.24176
# Shear Modulus (GPa) = -17.74565 25.67167 3.96301
#
# Velocity S-wave (km/s) = -2.98001 3.58425 1.40827
# Velocity P-wave (km/s) = 3.55871 5.02005 2.50365
#
# Compressibility (1/GPa) = -0.60747818
#
# Stress axis : x y z
#
# Youngs Moduli (GPa) = -9.22485 47.27676 -7.09049
#
# Poissons Ratio (x) = 1.24079 -0.97739
# Poissons Ratio (y) = -0.24211 -0.18085
# Poissons Ratio (z) = -1.27161 1.20582
#
# Static dielectric constant tensor:
#      x y z
#    x 1.696960 0.000000 -0.000860 
#    y 0.000000 1.683080 0.000000 
#    z -0.000860 0.000000 1.691800 
# 
# From -- ./inp_files/275666.got.cif
#   From: 2010.05.17/outbox.cif.g08.bks.cpg/sg12_138_cif.got.tgz:275666.got - 2010.06.03 13:09:07.
