data_PCOD9201465
_publ_section_title
;
Structure prediction by ZEFSAII (Michael W. Deem and Ramdas Pophale) SiO2 
 PCOD9201465
Probable space group: C 2/M
;
_chemical_formula_sum "Si O2"
_cell_formula_units_Z 40
_cell_length_a 14.834783
_cell_length_b 22.534301
_cell_length_c 8.175467
_cell_angle_alpha 90.000000
_cell_angle_beta 36.940893
_cell_angle_gamma 90.000000
_cell_volume 1642.501210
_symmetry_space_group_name_H-M "C 2/M"
_symmetry_group_IT_number 12
_symmetry_cell_setting 'monoclinic'
loop_
_space_group_symop_operation_xyz
x,y,z
-x,y,-z
-x,-y,-z
x,-y,z
1/2+x,1/2+y,z
1/2-x,1/2+y,-z
1/2-x,1/2-y,-z
1/2+x,1/2-y,z
loop_
_atom_site_type_symbol
_atom_site_label
_atom_site_fract_x
_atom_site_fract_y
_atom_site_fract_z
Si Si1 0.336076 0.067792 0.683199
Si Si2 0.104088 0.144542 0.204459
Si Si3 0.435748 0.239677 0.408669
Si Si4 0.171245 0.435525 0.695850
Si Si5 0.173583 0.689302 0.859337
O O1 0.500000 0.091984 0.500000
O O2 0.325242 0.068783 0.504176
O O3 0.333947 0.000000 0.746547
O O4 0.190903 0.099871 0.964536
O O5 0.004119 0.195457 0.268711
O O6 0.237410 0.180109 0.099649
O O7 0.000000 0.117656 0.500000
O O8 0.500000 0.226434 0.500000
O O9 0.257847 0.251771 0.670503
O O10 0.502362 0.197856 0.170069
O O11 0.243794 0.500000 0.637540
O O12 0.213860 0.372324 0.710906
O O13 0.000000 0.440562 0.000000
#
# Coordination Sequence:
#
# PCOD9201465 Si02
#       5
#     8   8   8   8   8
#     4  10  21  38  62  88 114 152 203 252 298 355
#     4   9  19  36  59  88 121 155 197 247 298 354
#     4   9  19  36  59  91 123 157 199 244 295 351
#     4  10  22  39  59  88 123 157 198 249 301 351
#     4  10  20  37  62  89 122 157 195 247 298 350
#
# _framework density 24.353103000000001
#
# number of rings (size 3 to 8) (size 9 to 14) (size 15 to 20)
#    0.000    2.800    0.000    3.600    0.000    8.400 
#    0.000   11.000    0.000   13.200    0.000    4.200 
#    0.000    0.000    0.000    0.000    0.000    0.000 
#
# Total GULP energy -111605.276849 kJ/mol
# GULP energy per Si atom -5580.263842 kJ/mol
# Density = 2.429767 g / cm^3
# Si number density = 24.353103 Si / 1000 Ang^3
#
#
#
# Elastic Constant Matrix: (Units=GPa)
#
#
# Indices 1 2 3 4 5 6 
#
# 1 26.2069 32.8087 15.0610 0.0000 5.0107 0.0000
# 2 32.8087 125.7942 65.5448 0.0000 10.3995 0.0000
# 3 15.0610 65.5448 170.9647 0.0000 22.7698 0.0000
# 4 0.0000 0.0000 0.0000 56.8614 0.0000 1.0092
# 5 5.0107 10.3995 22.7698 0.0000 33.3793 0.0000
# 6 0.0000 0.0000 0.0000 1.0092 0.0000 27.2880
#
#
#
# Elastic Compliance Matrix: (Units=1/GPa)
#
#
# Indices 1 2 3 4 5 6 
#
# 1 0.057457 -0.015350 0.001469 0.000000 -0.004844 0.000000
# 2 -0.015350 0.014044 -0.004131 0.000000 0.000747 0.000000
# 3 0.001469 -0.004131 0.007877 0.000000 -0.004307 0.000000
# 4 0.000000 0.000000 0.000000 0.017598 0.000000 -0.000651
# 5 -0.004844 0.000747 -0.004307 0.000000 0.033391 0.000000
# 6 0.000000 0.000000 0.000000 -0.000651 0.000000 0.036670
#
#
# Mechanical properties :
#
#
# Convention : Reuss Voigt Hill
#
# Bulk Modulus (GPa) = 23.06683 61.08831 42.07757
# Shear Modulus (GPa) = 22.98691 37.47582 30.23136
#
# Velocity S-wave (km/s) = 3.07563 3.92708 3.52714
# Velocity P-wave (km/s) = 4.70160 6.76028 5.82265
#
# Compressibility (1/GPa) = 0.04335229
#
# Stress axis : x y z
#
# Youngs Moduli (GPa) = 17.40421 71.20504 126.94709
#
# Poissons Ratio (x) = 1.09302 -0.18643
# Poissons Ratio (y) = 0.26716 0.52447
# Poissons Ratio (z) = -0.02556 0.29418
#
# Static dielectric constant tensor:
#      x y z
#    x 2.010550 0.000000 -0.015250 
#    y 0.000000 2.004680 0.000000 
#    z -0.015250 0.000000 2.044390 
# 
# From -- ./inp_files/79252.got.cif
#   From: 2010.05.17/outbox.cif.g08.bks.cpg/sg12_40_cif.got.tgz:79252.got - 2010.06.03 13:09:07.
