data_PCOD9201441
_publ_section_title
;
Structure prediction by ZEFSAII (Michael W. Deem and Ramdas Pophale) SiO2 
 PCOD9201441
Probable space group: C 2/M
;
_chemical_formula_sum "Si O2"
_cell_formula_units_Z 40
_cell_length_a 9.623293
_cell_length_b 22.745291
_cell_length_c 7.620499
_cell_angle_alpha 90.000000
_cell_angle_beta 105.423410
_cell_angle_gamma 90.000000
_cell_volume 1607.939537
_symmetry_space_group_name_H-M "C 2/M"
_symmetry_group_IT_number 12
_symmetry_cell_setting 'monoclinic'
loop_
_space_group_symop_operation_xyz
x,y,z
-x,y,-z
-x,-y,-z
x,-y,z
1/2+x,1/2+y,z
1/2-x,1/2+y,-z
1/2-x,1/2-y,-z
1/2+x,1/2-y,z
loop_
_atom_site_type_symbol
_atom_site_label
_atom_site_fract_x
_atom_site_fract_y
_atom_site_fract_z
Si Si1 0.351611 0.434972 0.112782
Si Si2 0.410595 0.352272 0.645789
Si Si3 0.346411 0.243402 0.859038
Si Si4 0.676404 0.068404 0.687506
Si Si5 0.904631 0.615846 0.789366
O O1 0.417839 0.500000 0.147877
O O2 0.468981 0.385606 0.194978
O O3 0.221921 0.429113 0.207516
O O4 0.273071 0.428119 0.899191
O O5 0.500000 0.337857 0.500000
O O6 0.342833 0.296306 0.720522
O O7 0.275125 0.396529 0.583002
O O8 0.335784 0.181024 0.756791
O O9 0.500000 0.246159 0.000000
O O10 0.250000 0.250000 0.000000
O O11 0.522488 0.096562 0.686863
O O12 0.659731 0.000000 0.638356
O O13 0.000000 0.618178 0.000000
#
# Coordination Sequence:
#
# PCOD9201441 Si02
#       5
#     8   8   8   8   8
#     4  10  20  37  63  90 117 154 201 248 294 350
#     4  12  25  39  57  86 124 160 197 245 301 353
#     4  11  21  39  65  87 116 155 200 248 296 356
#     4  10  20  37  62  89 117 153 199 247 297 356
#     4   9  18  35  61  91 116 144 193 253 300 341
#
# _framework density 24.876556999999998
#
# number of rings (size 3 to 8) (size 9 to 14) (size 15 to 20)
#    0.000    1.600    0.000    7.800    0.000    5.600 
#    0.000   10.000    0.000    2.400    0.000    0.000 
#    0.000    0.000    0.000    0.000    0.000    0.000 
#
# Total GULP energy -111996.170311 kJ/mol
# GULP energy per Si atom -5599.808516 kJ/mol
# Density = 2.481994 g / cm^3
# Si number density = 24.876557 Si / 1000 Ang^3
#
#
#
# Elastic Constant Matrix: (Units=GPa)
#
#
# Indices 1 2 3 4 5 6 
#
# 1 190.6064 66.0688 38.3902 0.0000 -54.6603 0.0000
# 2 66.0688 183.4455 55.9899 0.0000 -40.5251 0.0000
# 3 38.3902 55.9899 128.3433 0.0000 -47.5426 0.0000
# 4 0.0000 0.0000 0.0000 22.8383 0.0000 -2.3669
# 5 -54.6603 -40.5251 -47.5426 0.0000 50.5114 0.0000
# 6 0.0000 0.0000 0.0000 -2.3669 0.0000 19.3010
#
#
#
# Elastic Compliance Matrix: (Units=1/GPa)
#
#
# Indices 1 2 3 4 5 6 
#
# 1 0.007989 -0.001358 0.001538 0.000000 0.009004 0.000000
# 2 -0.001358 0.007028 -0.001712 0.000000 0.002557 0.000000
# 3 0.001538 -0.001712 0.012568 0.000000 0.012120 0.000000
# 4 0.000000 0.000000 0.000000 0.044350 0.000000 0.005439
# 5 0.009004 0.002557 0.012120 0.000000 0.043000 0.000000
# 6 0.000000 0.000000 0.000000 0.005439 0.000000 0.052478
#
#
# Mechanical properties :
#
#
# Convention : Reuss Voigt Hill
#
# Bulk Modulus (GPa) = 40.78217 91.47700 66.12959
# Shear Modulus (GPa) = 27.98754 41.32655 34.65705
#
# Velocity S-wave (km/s) = 3.35783 4.08028 3.73656
# Velocity P-wave (km/s) = 5.60916 7.68443 6.72730
#
# Compressibility (1/GPa) = 0.02452052
#
# Stress axis : x y z
#
# Youngs Moduli (GPa) = 125.16789 142.29191 79.56573
#
# Poissons Ratio (x) = 0.19319 -0.12235
# Poissons Ratio (y) = 0.16994 0.13625
# Poissons Ratio (z) = -0.19248 0.24367
#
# Static dielectric constant tensor:
#      x y z
#    x 1.921230 0.000000 0.056180 
#    y 0.000000 2.017840 0.000000 
#    z 0.056180 0.000000 2.033500 
# 
# From -- ./inp_files/39307.got.cif
#   From: 2010.05.17/outbox.cif.g08.bks.cpg/sg12_20_cif.got.tgz:39307.got - 2010.06.03 13:09:07.
