data_PCOD9201960
_publ_section_title
;
Structure prediction by ZEFSAII (Michael W. Deem and Ramdas Pophale) SiO2 
 PCOD9201960
Probable space group: C 2/M
;
_chemical_formula_sum "Si O2"
_cell_formula_units_Z 64
_cell_length_a 8.576434
_cell_length_b 22.877747
_cell_length_c 16.785176
_cell_angle_alpha 90.000000
_cell_angle_beta 101.447504
_cell_angle_gamma 90.000000
_cell_volume 3227.894823
_symmetry_space_group_name_H-M "C 2/M"
_symmetry_group_IT_number 12
_symmetry_cell_setting 'monoclinic'
loop_
_space_group_symop_operation_xyz
x,y,z
-x,y,-z
-x,-y,-z
x,-y,z
1/2+x,1/2+y,z
1/2-x,1/2+y,-z
1/2-x,1/2-y,-z
1/2+x,1/2-y,z
loop_
_atom_site_type_symbol
_atom_site_label
_atom_site_fract_x
_atom_site_fract_y
_atom_site_fract_z
Si Si1 0.399534 0.338692 0.419237
Si Si2 0.856197 0.722420 0.242194
Si Si3 0.135927 0.878775 0.962605
Si Si4 0.492462 0.667753 0.788982
Si Si5 0.914136 0.679641 0.071704
Si Si6 0.615327 0.064363 0.120428
Si Si7 0.128210 0.067802 0.716188
Si Si8 0.442453 0.217826 0.584313
O O1 0.500000 0.367562 0.500000
O O2 0.508088 0.396685 0.249438
O O3 0.350539 0.391477 0.357653
O O4 0.526878 0.287837 0.407449
O O5 0.676806 0.699554 0.231439
O O6 0.918276 0.709142 0.158662
O O7 0.876134 0.792749 0.243731
O O8 0.956703 0.697391 0.327339
O O9 0.254275 0.924722 0.934897
O O10 0.056330 0.842106 0.883823
O O11 0.235809 0.833918 0.026424
O O12 0.000000 0.908078 0.000000
O O13 0.995074 0.616970 0.096580
O O14 0.000000 0.704458 0.000000
O O15 0.715201 0.069749 0.212076
O O16 0.544128 0.000000 0.107956
O O17 0.261015 0.197349 0.576033
O O18 0.091518 0.000000 0.697687
O O19 0.500000 0.201072 0.500000
#
# Coordination Sequence:
#
# PCOD9201960 Si02
#       8
#     8   8   8   8   8   8   8   8
#     4  11  22  38  66  98 130 166 209 256 323 379
#     4  12  24  39  64  93 126 170 206 256 327 388
#     4  10  20  38  51  85 125 158 205 258 312 370
#     4  11  25  38  64  92 124 166 211 258 323 382
#     4  10  22  37  60  87 129 165 209 260 316 378
#     4   9  20  38  61  84 116 167 219 262 306 364
#     4  10  22  42  65  90 126 166 216 266 310 380
#     4  11  23  38  64 103 134 164 209 265 315 375
#
# _framework density 19.827165000000001
#
# number of rings (size 3 to 8) (size 9 to 14) (size 15 to 20)
#    0.000    1.500    2.500    3.000    7.000    3.750 
#    0.000    0.625    0.000    1.125    0.000    0.000 
#    0.000    0.000    0.000    0.000    0.000    0.000 
#
# Total GULP energy -178400.487968 kJ/mol
# GULP energy per Si atom -5575.015249 kJ/mol
# Density = 1.978204 g / cm^3
# Si number density = 19.827165 Si / 1000 Ang^3
#
#
#
# Elastic Constant Matrix: (Units=GPa)
#
#
# Indices 1 2 3 4 5 6 
#
# 1 71.7284 46.7308 26.7335 0.0000 5.8827 0.0000
# 2 46.7308 111.9494 45.5029 0.0000 -2.6934 0.0000
# 3 26.7335 45.5029 127.2437 0.0000 9.3169 0.0000
# 4 0.0000 0.0000 0.0000 3.5412 0.0000 4.5386
# 5 5.8827 -2.6934 9.3169 0.0000 24.9821 0.0000
# 6 0.0000 0.0000 0.0000 4.5386 0.0000 14.9293
#
#
#
# Elastic Compliance Matrix: (Units=1/GPa)
#
#
# Indices 1 2 3 4 5 6 
#
# 1 0.019988 -0.008095 -0.000921 0.000000 -0.005236 0.000000
# 2 -0.008095 0.013896 -0.003617 0.000000 0.004753 0.000000
# 3 -0.000921 -0.003617 0.009621 0.000000 -0.003761 0.000000
# 4 0.000000 0.000000 0.000000 0.462657 0.000000 -0.140652
# 5 -0.005236 0.004753 -0.003761 0.000000 0.043177 0.000000
# 6 0.000000 0.000000 0.000000 -0.140652 0.000000 0.109742
#
#
# Mechanical properties :
#
#
# Convention : Reuss Voigt Hill
#
# Bulk Modulus (GPa) = 54.82579 60.98399 57.90489
# Shear Modulus (GPa) = 7.24190 21.48747 14.36468
#
# Velocity S-wave (km/s) = 1.91323 3.29559 2.69456
# Velocity P-wave (km/s) = 5.70898 6.73096 6.24092
#
# Compressibility (1/GPa) = 0.01823959
#
# Stress axis : x y z
#
# Youngs Moduli (GPa) = 50.02948 71.96265 103.93735
#
# Poissons Ratio (x) = 0.58255 0.09575
# Poissons Ratio (y) = 0.40500 0.37590
# Poissons Ratio (z) = 0.04609 0.26026
#
# Static dielectric constant tensor:
#      x y z
#    x 1.705040 0.000000 -0.011490 
#    y 0.000000 1.694120 0.000000 
#    z -0.011490 0.000000 1.831650 
# 
# From -- ./inp_files/198893.got.cif
#   From: 2010.05.17/outbox.cif.g08.bks.cpg/sg12_100_cif.got.tgz:198893.got - 2010.06.03 13:09:07.
