data_PCOD9201462
_publ_section_title
;
Structure prediction by ZEFSAII (Michael W. Deem and Ramdas Pophale) SiO2 
 PCOD9201462
Probable space group: C 2/M
;
_chemical_formula_sum "Si O2"
_cell_formula_units_Z 56
_cell_length_a 19.710685
_cell_length_b 9.071996
_cell_length_c 15.426757
_cell_angle_alpha 90.000000
_cell_angle_beta 116.030169
_cell_angle_gamma 90.000000
_cell_volume 2478.721794
_symmetry_space_group_name_H-M "C 2/M"
_symmetry_group_IT_number 12
_symmetry_cell_setting 'monoclinic'
loop_
_space_group_symop_operation_xyz
x,y,z
-x,y,-z
-x,-y,-z
x,-y,z
1/2+x,1/2+y,z
1/2-x,1/2+y,-z
1/2-x,1/2-y,-z
1/2+x,1/2-y,z
loop_
_atom_site_type_symbol
_atom_site_label
_atom_site_fract_x
_atom_site_fract_y
_atom_site_fract_z
Si Si1 0.127493 0.825152 0.419121
Si Si2 0.041825 0.827421 0.936021
Si Si3 0.651901 0.170462 0.876758
Si Si4 0.528290 0.167117 0.651836
Si Si5 0.762793 0.325363 0.816283
Si Si6 0.332922 0.172397 0.388898
Si Si7 0.118451 0.171748 0.219889
O O1 0.171042 0.736062 0.517274
O O2 0.147804 0.786003 0.331453
O O3 0.039326 0.781617 0.380441
O O4 0.137506 0.000000 0.435599
O O5 0.971944 0.816752 0.829710
O O6 0.111866 0.738969 0.937947
O O7 0.062111 0.000000 0.958199
O O8 0.000000 0.777693 0.000000
O O9 0.587936 0.178396 0.764727
O O10 0.723398 0.256901 0.878732
O O11 0.671062 0.000000 0.900833
O O12 0.580575 0.182684 0.596401
O O13 0.496364 0.000000 0.635945
O O14 0.761230 0.500000 0.820320
O O15 0.714076 0.264992 0.707255
O O16 0.844744 0.265263 0.835982
O O17 0.311522 0.000000 0.372798
O O18 0.136120 0.000000 0.213612
#
# Coordination Sequence:
#
# PCOD9201462 Si02
#       7
#     8   8   8   8   8   8   8
#     4  11  21  32  52  81 114 154 198 245 293 344
#     4  10  21  40  67  96 123 152 191 241 294 351
#     4  10  20  37  62  89 121 158 194 239 296 354
#     4   9  18  32  51  77 111 152 194 238 290 345
#     4  11  23  39  61  86 116 157 205 246 288 349
#     4  10  21  36  53  78 115 158 199 245 294 342
#     4  10  22  40  59  85 121 157 193 241 300 352
#
# _framework density 22.592288
#
# number of rings (size 3 to 8) (size 9 to 14) (size 15 to 20)
#    0.000    1.857    1.429    3.857    0.000    7.143 
#    0.000    0.714    0.000    0.000    0.000    0.000 
#    0.000    0.000    0.000    0.000    0.000    0.000 
#
# Total GULP energy -156648.900580 kJ/mol
# GULP energy per Si atom -5594.603592 kJ/mol
# Density = 2.254087 g / cm^3
# Si number density = 22.592288 Si / 1000 Ang^3
#
#
#
# Elastic Constant Matrix: (Units=GPa)
#
#
# Indices 1 2 3 4 5 6 
#
# 1 120.3024 79.2786 31.1757 0.0000 -27.3737 0.0000
# 2 79.2786 120.4779 35.1560 0.0000 -33.9013 0.0000
# 3 31.1757 35.1560 95.7979 0.0000 -29.0193 0.0000
# 4 0.0000 0.0000 0.0000 14.3794 0.0000 -15.2790
# 5 -27.3737 -33.9013 -29.0193 0.0000 45.1936 0.0000
# 6 0.0000 0.0000 0.0000 -15.2790 0.0000 33.1572
#
#
#
# Elastic Compliance Matrix: (Units=1/GPa)
#
#
# Indices 1 2 3 4 5 6 
#
# 1 0.014917 -0.009071 -0.001055 0.000000 0.001553 0.000000
# 2 -0.009071 0.016301 -0.001229 0.000000 0.005944 0.000000
# 3 -0.001055 -0.001229 0.013359 0.000000 0.007016 0.000000
# 4 0.000000 0.000000 0.000000 0.136264 0.000000 0.062791
# 5 0.001553 0.005944 0.007016 0.000000 0.032032 0.000000
# 6 0.000000 0.000000 0.000000 0.062791 0.000000 0.059094
#
#
# Mechanical properties :
#
#
# Convention : Reuss Voigt Hill
#
# Bulk Modulus (GPa) = 45.73474 69.75543 57.74509
# Shear Modulus (GPa) = 16.55822 31.27721 23.91771
#
# Velocity S-wave (km/s) = 2.71018 3.72482 3.25725
# Velocity P-wave (km/s) = 5.48460 7.03149 6.30566
#
# Compressibility (1/GPa) = 0.02186522
#
# Stress axis : x y z
#
# Youngs Moduli (GPa) = 67.03811 61.34759 74.85802
#
# Poissons Ratio (x) = 0.55648 0.07898
# Poissons Ratio (y) = 0.60809 0.09204
# Poissons Ratio (z) = 0.07073 0.07543
#
# Static dielectric constant tensor:
#      x y z
#    x 1.852630 0.000000 0.038200 
#    y 0.000000 1.752930 0.000000 
#    z 0.038200 0.000000 1.894360 
# 
# From -- ./inp_files/280439.got.cif
#   From: 2010.05.17/outbox.cif.g08.bks.cpg/sg12_141_cif.got.tgz:280439.got - 2010.06.03 13:09:07.
