data_PCOD9201876
_publ_section_title
;
Structure prediction by ZEFSAII (Michael W. Deem and Ramdas Pophale) SiO2 
 PCOD9201876
Probable space group: C 2/M
;
_chemical_formula_sum "Si O2"
_cell_formula_units_Z 56
_cell_length_a 16.606398
_cell_length_b 18.093649
_cell_length_c 11.266519
_cell_angle_alpha 90.000000
_cell_angle_beta 48.118227
_cell_angle_gamma 90.000000
_cell_volume 2520.403277
_symmetry_space_group_name_H-M "C 2/M"
_symmetry_group_IT_number 12
_symmetry_cell_setting 'monoclinic'
loop_
_space_group_symop_operation_xyz
x,y,z
-x,y,-z
-x,-y,-z
x,-y,z
1/2+x,1/2+y,z
1/2-x,1/2+y,-z
1/2-x,1/2-y,-z
1/2+x,1/2-y,z
loop_
_atom_site_type_symbol
_atom_site_label
_atom_site_fract_x
_atom_site_fract_y
_atom_site_fract_z
Si Si1 0.756744 0.581650 0.748669
Si Si2 0.056356 0.849960 0.324337
Si Si3 0.192974 0.233393 0.725230
Si Si4 0.960502 0.915780 0.912561
Si Si5 0.053512 0.412451 0.259087
Si Si6 0.918463 0.721102 0.398518
Si Si7 0.207789 0.312685 0.949913
O O1 0.755407 0.500000 0.696861
O O2 0.712578 0.645462 0.708291
O O3 0.871303 0.594802 0.698123
O O4 0.669292 0.582675 0.942631
O O5 0.014787 0.882835 0.239937
O O6 0.185252 0.856399 0.197567
O O7 0.000000 0.878357 0.500000
O O8 0.023051 0.763859 0.343303
O O9 0.109735 0.260276 0.709350
O O10 0.315953 0.255514 0.568446
O O11 0.164693 0.266527 0.880130
O O12 0.001206 0.000000 0.873102
O O13 0.000000 0.881652 0.000000
O O14 0.039352 0.500000 0.250478
O O15 0.944083 0.365570 0.382563
O O16 0.120963 0.368102 0.091906
O O17 0.250000 0.250000 0.000000
#
# Coordination Sequence:
#
# PCOD9201876 Si02
#       7
#     8   8   8   8   8   8   8
#     4  10  20  37  65  96 129 166 217 286 339 397
#     4  12  22  37  65  97 133 172 228 284 348 413
#     4  11  23  42  63  95 131 173 231 274 343 415
#     4  10  21  38  61  94 132 172 225 283 341 410
#     4  11  24  43  68 102 136 176 229 285 349 414
#     4  11  25  41  63  93 134 178 220 281 343 415
#     4  12  21  39  67  93 130 177 227 287 330 411
#
# _framework density 22.218667
#
# number of rings (size 3 to 8) (size 9 to 14) (size 15 to 20)
#    0.000    1.000    5.714    0.857    0.000    1.429 
#    0.000    2.857    0.000    1.714    0.000    0.000 
#    0.000    0.000    0.000    0.000    0.000    0.000 
#
# Total GULP energy -156401.830580 kJ/mol
# GULP energy per Si atom -5585.779664 kJ/mol
# Density = 2.216810 g / cm^3
# Si number density = 22.218667 Si / 1000 Ang^3
#
#
#
# Elastic Constant Matrix: (Units=GPa)
#
#
# Indices 1 2 3 4 5 6 
#
# 1 95.3115 44.8763 34.5601 0.0000 16.2399 0.0000
# 2 44.8763 118.0552 25.3475 0.0000 23.2427 0.0000
# 3 34.5601 25.3475 107.5073 0.0000 20.6955 0.0000
# 4 0.0000 0.0000 0.0000 22.4661 0.0000 -2.1755
# 5 16.2399 23.2427 20.6955 0.0000 41.6103 0.0000
# 6 0.0000 0.0000 0.0000 -2.1755 0.0000 29.3956
#
#
#
# Elastic Compliance Matrix: (Units=1/GPa)
#
#
# Indices 1 2 3 4 5 6 
#
# 1 0.013928 -0.004329 -0.003180 0.000000 -0.001436 0.000000
# 2 -0.004329 0.011043 -0.000387 0.000000 -0.004287 0.000000
# 3 -0.003180 -0.000387 0.011208 0.000000 -0.004117 0.000000
# 4 0.000000 0.000000 0.000000 0.044833 0.000000 0.003318
# 5 -0.001436 -0.004287 -0.004117 0.000000 0.029035 0.000000
# 6 0.000000 0.000000 0.000000 0.003318 0.000000 0.034264
#
#
# Mechanical properties :
#
#
# Convention : Reuss Voigt Hill
#
# Bulk Modulus (GPa) = 49.05140 58.93796 53.99468
# Shear Modulus (GPa) = 29.95828 33.10042 31.52935
#
# Velocity S-wave (km/s) = 3.67596 3.86392 3.77111
# Velocity P-wave (km/s) = 6.33573 6.81839 6.58149
#
# Compressibility (1/GPa) = 0.02038678
#
# Stress axis : x y z
#
# Youngs Moduli (GPa) = 71.79788 90.55384 89.22338
#
# Poissons Ratio (x) = 0.39200 0.28376
# Poissons Ratio (y) = 0.31080 0.03452
# Poissons Ratio (z) = 0.22834 0.03504
#
# Static dielectric constant tensor:
#      x y z
#    x 1.839180 0.000000 -0.066670 
#    y 0.000000 1.846950 0.000000 
#    z -0.066670 0.000000 1.940440 
# 
# From -- ./inp_files/158206.got.cif
#   From: 2010.05.17/outbox.cif.g08.bks.cpg/sg12_80_cif.got.tgz:158206.got - 2010.06.03 13:09:07.
