data_PCOD9201980
_publ_section_title
;
Structure prediction by ZEFSAII (Michael W. Deem and Ramdas Pophale) SiO2 
 PCOD9201980
Probable space group: C 2/M
;
_chemical_formula_sum "Si O2"
_cell_formula_units_Z 64
_cell_length_a 9.975414
_cell_length_b 19.455365
_cell_length_c 23.283383
_cell_angle_alpha 90.000000
_cell_angle_beta 121.562771
_cell_angle_gamma 90.000000
_cell_volume 3850.261740
_symmetry_space_group_name_H-M "C 2/M"
_symmetry_group_IT_number 12
_symmetry_cell_setting 'monoclinic'
loop_
_space_group_symop_operation_xyz
x,y,z
-x,y,-z
-x,-y,-z
x,-y,z
1/2+x,1/2+y,z
1/2-x,1/2+y,-z
1/2-x,1/2-y,-z
1/2+x,1/2-y,z
loop_
_atom_site_type_symbol
_atom_site_label
_atom_site_fract_x
_atom_site_fract_y
_atom_site_fract_z
Si Si1 0.406474 0.918388 0.799080
Si Si2 0.064533 0.582201 0.327819
Si Si3 0.178613 0.835980 0.541739
Si Si4 0.937688 0.316995 0.078017
Si Si5 0.820419 0.323624 0.447649
Si Si6 0.251219 0.315129 0.076535
Si Si7 0.243241 0.918203 0.323952
Si Si8 0.099666 0.919424 0.803838
O O1 0.426313 0.897912 0.737161
O O2 0.518939 0.875151 0.866241
O O3 0.228092 0.907261 0.782055
O O4 0.438948 0.000000 0.811041
O O5 0.088031 0.500000 0.336079
O O6 0.199816 0.619398 0.394529
O O7 0.893873 0.597034 0.317391
O O8 0.180278 0.757789 0.566454
O O9 0.231089 0.832578 0.487412
O O10 0.000000 0.861975 0.500000
O O11 0.857724 0.251313 0.089315
O O12 0.100749 0.297596 0.082662
O O13 0.819903 0.339469 0.000472
O O14 0.755075 0.370900 0.382636
O O15 0.000000 0.343933 0.500000
O O16 0.347771 0.373229 0.131173
O O17 0.077159 0.904791 0.255926
O O18 0.248665 0.000000 0.339392
O O19 0.109690 0.000000 0.820809
#
# Coordination Sequence:
#
# PCOD9201980 Si02
#       8
#     8   8   8   8   8   8   8   8
#     4   9  19  35  53  75 105 136 171 213 257 304
#     4  10  21  37  54  76 105 136 171 211 257 308
#     4  10  22  36  54  78 105 135 168 212 259 306
#     4   9  18  33  53  78 106 138 172 210 256 302
#     4  10  20  38  55  75 104 134 172 211 254 308
#     4   9  18  33  53  78 107 136 172 213 253 303
#     4  10  21  36  56  77 101 136 174 213 255 303
#     4   9  19  35  53  76 103 135 174 214 254 300
#
# _framework density 16.622247000000002
#
# number of rings (size 3 to 8) (size 9 to 14) (size 15 to 20)
#    0.000    2.500    1.250    0.000    1.750    3.500 
#    0.000    5.000    0.000    0.000    0.000    7.000 
#    0.000    0.000    0.000    0.000    0.000    0.000 
#
# Total GULP energy -178397.690258 kJ/mol
# GULP energy per Si atom -5574.927821 kJ/mol
# Density = 1.658441 g / cm^3
# Si number density = 16.622247 Si / 1000 Ang^3
#
#
#
# Elastic Constant Matrix: (Units=GPa)
#
#
# Indices 1 2 3 4 5 6 
#
# 1 86.7107 51.4185 78.1300 0.0000 12.3211 0.0000
# 2 51.4185 62.3617 84.1629 0.0000 5.7331 0.0000
# 3 78.1300 84.1629 141.2935 0.0000 6.6500 0.0000
# 4 0.0000 0.0000 0.0000 68.0902 0.0000 -13.1072
# 5 12.3211 5.7331 6.6500 0.0000 28.5357 0.0000
# 6 0.0000 0.0000 0.0000 -13.1072 0.0000 33.1440
#
#
#
# Elastic Compliance Matrix: (Units=1/GPa)
#
#
# Indices 1 2 3 4 5 6 
#
# 1 0.025440 -0.009105 -0.008304 0.000000 -0.007220 0.000000
# 2 -0.009105 0.085781 -0.045939 0.000000 -0.002597 0.000000
# 3 -0.008304 -0.045939 0.038857 0.000000 0.003760 0.000000
# 4 0.000000 0.000000 0.000000 0.015897 0.000000 0.006287
# 5 -0.007220 -0.002597 0.003760 0.000000 0.037807 0.000000
# 6 0.000000 0.000000 0.000000 0.006287 0.000000 0.032657
#
#
# Mechanical properties :
#
#
# Convention : Reuss Voigt Hill
#
# Bulk Modulus (GPa) = 42.77014 79.75431 61.26222
# Shear Modulus (GPa) = 13.47970 31.06427 22.27199
#
# Velocity S-wave (km/s) = 2.85080 4.32769 3.66442
# Velocity P-wave (km/s) = 6.05166 8.54731 7.40537
#
# Compressibility (1/GPa) = 0.02338080
#
# Stress axis : x y z
#
# Youngs Moduli (GPa) = 39.30820 11.65766 25.73560
#
# Poissons Ratio (x) = 0.10614 0.21372
# Poissons Ratio (y) = 0.35788 1.18228
# Poissons Ratio (z) = 0.32643 0.53554
#
# Static dielectric constant tensor:
#      x y z
#    x 1.537730 0.000000 0.015850 
#    y 0.000000 1.540930 0.000000 
#    z 0.015850 0.000000 1.517400 
# 
# From -- ./inp_files/301763.got.cif
#   From: 2010.05.17/outbox.cif.g08.bks.cpg/sg12_151_cif.got.tgz:301763.got - 2010.06.03 13:09:07.
