data_PCOD9201851
_publ_section_title
;
Structure prediction by ZEFSAII (Michael W. Deem and Ramdas Pophale) SiO2 
 PCOD9201851
Probable space group: C 2/M
;
_chemical_formula_sum "Si O2"
_cell_formula_units_Z 56
_cell_length_a 19.248864
_cell_length_b 19.446712
_cell_length_c 7.702084
_cell_angle_alpha 90.000000
_cell_angle_beta 74.113776
_cell_angle_gamma 90.000000
_cell_volume 2772.985121
_symmetry_space_group_name_H-M "C 2/M"
_symmetry_group_IT_number 12
_symmetry_cell_setting 'monoclinic'
loop_
_space_group_symop_operation_xyz
x,y,z
-x,y,-z
-x,-y,-z
x,-y,z
1/2+x,1/2+y,z
1/2-x,1/2+y,-z
1/2-x,1/2-y,-z
1/2+x,1/2-y,z
loop_
_atom_site_type_symbol
_atom_site_label
_atom_site_fract_x
_atom_site_fract_y
_atom_site_fract_z
Si Si1 0.540905 0.213025 0.710482
Si Si2 0.682943 0.078966 0.115064
Si Si3 0.611778 0.214478 0.033987
Si Si4 0.580694 0.926977 0.520354
Si Si5 0.836015 0.856953 0.099818
Si Si6 0.435354 0.581554 0.751825
Si Si7 0.907770 0.854167 0.419869
O O1 0.453616 0.214407 0.780179
O O2 0.575831 0.141041 0.635096
O O3 0.571687 0.274394 0.574392
O O4 0.570044 0.225279 0.882762
O O5 0.649827 0.140478 0.021671
O O6 0.636093 0.079337 0.324168
O O7 0.763684 0.101772 0.106803
O O8 0.680215 0.000000 0.049205
O O9 0.664526 0.280527 0.987875
O O10 0.500000 0.930930 0.500000
O O11 0.595360 0.000000 0.602736
O O12 0.852580 0.858183 0.295585
O O13 0.901184 0.894054 0.954698
O O14 0.434788 0.500000 0.736516
O O15 0.517189 0.608819 0.684751
O O16 0.390782 0.613495 0.619007
#
# Coordination Sequence:
#
# PCOD9201851 Si02
#       7
#     8   8   8   8   8   8   8
#     4  10  20  37  65  90 118 158 202 265 315 352
#     4  11  24  40  61  89 124 170 207 248 318 374
#     4  10  21  39  62  92 119 157 211 252 310 375
#     4  10  21  37  59  87 118 160 209 255 308 361
#     4  11  23  43  62  89 132 168 202 254 312 375
#     4  11  23  37  62  94 122 164 211 256 311 361
#     4  10  22  39  63  96 123 159 214 255 306 373
#
# _framework density 20.194842999999999
#
# number of rings (size 3 to 8) (size 9 to 14) (size 15 to 20)
#    0.000    1.571    2.857    2.143    4.000    3.429 
#    2.571    2.857    0.000    0.000    0.000    0.000 
#    0.000    0.000    0.000    0.000    0.000    0.000 
#
# Total GULP energy -156144.419801 kJ/mol
# GULP energy per Si atom -5576.586421 kJ/mol
# Density = 2.014888 g / cm^3
# Si number density = 20.194843 Si / 1000 Ang^3
#
#
#
# Elastic Constant Matrix: (Units=GPa)
#
#
# Indices 1 2 3 4 5 6 
#
# 1 43.1749 4.3073 -3.2288 0.0000 3.9797 0.0000
# 2 4.3073 155.8976 13.1661 0.0000 1.7985 0.0000
# 3 -3.2288 13.1661 35.6104 0.0000 4.9095 0.0000
# 4 0.0000 0.0000 0.0000 22.2094 0.0000 -12.3229
# 5 3.9797 1.7985 4.9095 0.0000 19.7676 0.0000
# 6 0.0000 0.0000 0.0000 -12.3229 0.0000 11.3206
#
#
#
# Elastic Compliance Matrix: (Units=1/GPa)
#
#
# Indices 1 2 3 4 5 6 
#
# 1 0.024006 -0.000875 0.003267 0.000000 -0.005565 0.000000
# 2 -0.000875 0.006653 -0.002568 0.000000 0.000209 0.000000
# 3 0.003267 -0.002568 0.030428 0.000000 -0.007981 0.000000
# 4 0.000000 0.000000 0.000000 0.113695 0.000000 0.123761
# 5 -0.005565 0.000209 -0.007981 0.000000 0.053671 0.000000
# 6 0.000000 0.000000 0.000000 0.123761 0.000000 0.223054
#
#
# Mechanical properties :
#
#
# Convention : Reuss Voigt Hill
#
# Bulk Modulus (GPa) = 16.46475 29.24136 22.85306
# Shear Modulus (GPa) = 10.59090 25.35541 17.97315
#
# Velocity S-wave (km/s) = 2.29254 3.54720 2.98650
# Velocity P-wave (km/s) = 3.89593 5.59356 4.82007
#
# Compressibility (1/GPa) = 0.06073582
#
# Stress axis : x y z
#
# Youngs Moduli (GPa) = 41.65590 150.30566 32.86482
#
# Poissons Ratio (x) = 0.13152 -0.10738
# Poissons Ratio (y) = 0.03645 0.08439
# Poissons Ratio (z) = -0.13610 0.38597
#
# Static dielectric constant tensor:
#      x y z
#    x 1.724610 0.000000 0.032610 
#    y 0.000000 1.775850 0.000000 
#    z 0.032610 0.000000 1.771440 
# 
# From -- ./inp_files/75866.got.cif
#   From: 2010.05.17/outbox.cif.g08.bks.cpg/sg12_38_cif.got.tgz:75866.got - 2010.06.03 13:09:07.
