data_PCOD9201486
_publ_section_title
;
Structure prediction by ZEFSAII (Michael W. Deem and Ramdas Pophale) SiO2 
 PCOD9201486
Probable space group: C 2/M
;
_chemical_formula_sum "Si O2"
_cell_formula_units_Z 64
_cell_length_a 8.877014
_cell_length_b 30.067216
_cell_length_c 17.762026
_cell_angle_alpha 90.000000
_cell_angle_beta 40.441691
_cell_angle_gamma 90.000000
_cell_volume 3075.240039
_symmetry_space_group_name_H-M "C 2/M"
_symmetry_group_IT_number 12
_symmetry_cell_setting 'monoclinic'
loop_
_space_group_symop_operation_xyz
x,y,z
-x,y,-z
-x,-y,-z
x,-y,z
1/2+x,1/2+y,z
1/2-x,1/2+y,-z
1/2-x,1/2-y,-z
1/2+x,1/2-y,z
loop_
_atom_site_type_symbol
_atom_site_label
_atom_site_fract_x
_atom_site_fract_y
_atom_site_fract_z
Si Si1 0.269412 0.949716 0.373611
Si Si2 0.317474 0.208361 0.667936
Si Si3 0.227295 0.378059 0.964570
Si Si4 0.781941 0.549893 0.530524
Si Si5 0.895659 0.370390 0.218830
Si Si6 0.468757 0.623789 0.277930
Si Si7 0.262942 0.799382 0.389296
Si Si8 0.442473 0.712341 0.934224
O O1 0.380476 0.937236 0.411281
O O2 0.319547 0.913976 0.292396
O O3 0.000000 0.948346 0.500000
O O4 0.333513 0.000000 0.328144
O O5 0.211986 0.162989 0.672973
O O6 0.583347 0.202178 0.593472
O O7 0.272746 0.249966 0.630330
O O8 0.175636 0.220685 0.798188
O O9 0.436123 0.399072 0.835801
O O10 0.322286 0.328428 0.937020
O O11 0.000000 0.384109 0.000000
O O12 0.129880 0.384770 0.085886
O O13 0.672592 0.500000 0.565781
O O14 0.627948 0.587319 0.627798
O O15 0.000000 0.545635 0.500000
O O16 0.697562 0.356996 0.233369
O O17 0.900124 0.330325 0.277089
O O18 0.000000 0.817988 0.500000
O O19 0.500000 0.704150 0.000000
O O20 0.250000 0.750000 0.000000
#
# Coordination Sequence:
#
# PCOD9201486 Si02
#       8
#     8   8   8   8   8   8   8   8
#     4  10  20  37  62  90 119 156 201 249 300 358
#     4  11  24  41  58  85 120 160 202 250 302 360
#     4   9  20  37  55  84 117 155 197 244 297 358
#     4  10  22  39  62  90 121 156 201 250 300 362
#     4  11  21  38  62  88 122 159 202 250 301 358
#     4  10  22  38  63  88 122 160 200 248 306 357
#     4  12  26  41  59  84 121 161 206 250 304 362
#     4  11  20  34  58  82 109 150 201 251 296 349
#
# _framework density 20.811382999999999
#
# number of rings (size 3 to 8) (size 9 to 14) (size 15 to 20)
#    0.000    1.500    1.250    4.125    1.750    2.500 
#    0.000    0.625    0.000    2.250    0.000    2.625 
#    0.000    0.000    0.000    0.000    0.000    0.000 
#
# Total GULP energy -178469.373958 kJ/mol
# GULP energy per Si atom -5577.167936 kJ/mol
# Density = 2.076402 g / cm^3
# Si number density = 20.811383 Si / 1000 Ang^3
#
#
#
# Elastic Constant Matrix: (Units=GPa)
#
#
# Indices 1 2 3 4 5 6 
#
# 1 80.8557 22.9932 12.9671 0.0000 5.9716 0.0000
# 2 22.9932 76.7625 40.7169 0.0000 10.4498 0.0000
# 3 12.9671 40.7169 83.2935 0.0000 14.4595 0.0000
# 4 0.0000 0.0000 0.0000 11.1689 0.0000 11.8957
# 5 5.9716 10.4498 14.4595 0.0000 25.8558 0.0000
# 6 0.0000 0.0000 0.0000 11.8957 0.0000 32.8448
#
#
#
# Elastic Compliance Matrix: (Units=1/GPa)
#
#
# Indices 1 2 3 4 5 6 
#
# 1 0.013580 -0.003882 0.000062 0.000000 -0.001602 0.000000
# 2 -0.003882 0.018850 -0.008244 0.000000 -0.002112 0.000000
# 3 0.000062 -0.008244 0.017111 0.000000 -0.006252 0.000000
# 4 0.000000 0.000000 0.000000 0.145760 0.000000 -0.052791
# 5 -0.001602 -0.002112 -0.006252 0.000000 0.043396 0.000000
# 6 0.000000 0.000000 0.000000 -0.052791 0.000000 0.049566
#
#
# Mechanical properties :
#
#
# Convention : Reuss Voigt Hill
#
# Bulk Modulus (GPa) = 39.35004 43.80734 41.57869
# Shear Modulus (GPa) = 15.58298 24.92287 20.25293
#
# Velocity S-wave (km/s) = 2.73934 3.46433 3.12294
# Velocity P-wave (km/s) = 5.38092 6.09077 5.74682
#
# Compressibility (1/GPa) = 0.02541294
#
# Stress axis : x y z
#
# Youngs Moduli (GPa) = 73.63675 53.04959 58.44115
#
# Poissons Ratio (x) = 0.20596 -0.00361
# Poissons Ratio (y) = 0.28589 0.48177
# Poissons Ratio (z) = -0.00455 0.43733
#
# Static dielectric constant tensor:
#      x y z
#    x 2.277190 0.000000 0.469160 
#    y 0.000000 1.762790 0.000000 
#    z 0.469160 0.000000 2.281050 
# 
# From -- ./inp_files/260286.got.cif
#   From: 2010.05.17/outbox.cif.g08.bks.cpg/sg12_131_cif.got.tgz:260286.got - 2010.06.03 13:09:07.
