data_PCOD9201168
_publ_section_title
;
Structure prediction by ZEFSAII (Michael W. Deem and Ramdas Pophale) SiO2 
 PCOD9201168
Probable space group: C 2/M
;
_chemical_formula_sum "Si O2"
_cell_formula_units_Z 48
_cell_length_a 15.580548
_cell_length_b 17.095084
_cell_length_c 9.254360
_cell_angle_alpha 90.000000
_cell_angle_beta 124.597000
_cell_angle_gamma 90.000000
_cell_volume 2029.027037
_symmetry_space_group_name_H-M "C 2/M"
_symmetry_group_IT_number 12
_symmetry_cell_setting 'monoclinic'
loop_
_space_group_symop_operation_xyz
x,y,z
-x,y,-z
-x,-y,-z
x,-y,z
1/2+x,1/2+y,z
1/2-x,1/2+y,-z
1/2-x,1/2-y,-z
1/2+x,1/2-y,z
loop_
_atom_site_type_symbol
_atom_site_label
_atom_site_fract_x
_atom_site_fract_y
_atom_site_fract_z
Si Si1 0.647614 0.593601 0.263748
Si Si2 0.216133 0.205026 0.817504
Si Si3 0.624580 0.912589 0.095904
Si Si4 0.451422 0.085962 0.276781
Si Si5 0.141029 0.661875 0.540756
Si Si6 0.583367 0.406626 0.874237
O O1 0.660294 0.500000 0.287110
O O2 0.749124 0.636979 0.418807
O O3 0.538691 0.614954 0.233537
O O4 0.633109 0.612948 0.079095
O O5 0.155805 0.261851 0.650691
O O6 0.140413 0.137489 0.801670
O O7 0.250000 0.250000 0.000000
O O8 0.308101 0.164139 0.811550
O O9 0.632485 0.912347 0.929083
O O10 0.656418 0.000000 0.179450
O O11 0.500000 0.906105 0.000000
O O12 0.539884 0.152465 0.343669
O O13 0.391617 0.097788 0.368635
O O14 0.500673 0.000000 0.312836
O O15 0.590390 0.500000 0.865678
#
# Coordination Sequence:
#
# PCOD9201168 Si02
#       6
#     8   8   8   8   8   8
#     4   9  16  29  50  77 108 145 191 237 282 332
#     4  12  21  33  53  85 120 152 187 237 292 344
#     4  10  22  41  64  86 112 154 202 241 283 347
#     4  10  20  37  61  87 120 154 193 241 291 349
#     4  11  20  32  54  89 117 147 185 233 302 336
#     4   9  18  31  49  74 108 151 194 235 276 333
#
# _framework density 23.656659000000001
#
# number of rings (size 3 to 8) (size 9 to 14) (size 15 to 20)
#    0.000    1.833    3.333    3.500    0.000    4.000 
#    0.000    0.833    3.667    0.000    0.000    4.667 
#    0.000    0.000    0.000    0.000    0.000    0.000 
#
# Total GULP energy -134034.428608 kJ/mol
# GULP energy per Si atom -5584.767859 kJ/mol
# Density = 2.360282 g / cm^3
# Si number density = 23.656659 Si / 1000 Ang^3
#
#
#
# Elastic Constant Matrix: (Units=GPa)
#
#
# Indices 1 2 3 4 5 6 
#
# 1 87.1537 34.2748 5.1930 0.0000 20.0387 0.0000
# 2 34.2748 87.7926 28.3756 0.0000 15.9694 0.0000
# 3 5.1930 28.3756 51.7328 0.0000 10.3037 0.0000
# 4 0.0000 0.0000 0.0000 25.1922 0.0000 17.0458
# 5 20.0387 15.9694 10.3037 0.0000 31.0311 0.0000
# 6 0.0000 0.0000 0.0000 17.0458 0.0000 12.8220
#
#
#
# Elastic Compliance Matrix: (Units=1/GPa)
#
#
# Indices 1 2 3 4 5 6 
#
# 1 0.015314 -0.005509 0.003094 0.000000 -0.008082 0.000000
# 2 -0.005509 0.016568 -0.008079 0.000000 -0.002286 0.000000
# 3 0.003094 -0.008079 0.024651 0.000000 -0.006025 0.000000
# 4 0.000000 0.000000 0.000000 0.395049 0.000000 -0.525183
# 5 -0.008082 -0.002286 -0.006025 0.000000 0.040622 0.000000
# 6 0.000000 0.000000 0.000000 -0.525183 0.000000 0.776176
#
#
# Mechanical properties :
#
#
# Convention : Reuss Voigt Hill
#
# Bulk Modulus (GPa) = 28.13308 40.26289 34.19799
# Shear Modulus (GPa) = 3.84255 24.39810 14.12033
#
# Velocity S-wave (km/s) = 1.27586 3.21494 2.44578
# Velocity P-wave (km/s) = 3.75347 5.55317 4.73953
#
# Compressibility (1/GPa) = 0.03554534
#
# Stress axis : x y z
#
# Youngs Moduli (GPa) = 65.29883 60.35586 40.56600
#
# Poissons Ratio (x) = 0.33248 -0.12551
# Poissons Ratio (y) = 0.35971 0.32775
# Poissons Ratio (z) = -0.20203 0.48764
#
# Static dielectric constant tensor:
#      x y z
#    x 1.930550 0.000000 0.006710 
#    y 0.000000 1.922550 0.000000 
#    z 0.006710 0.000000 2.005500 
# 
# From -- ./inp_files/143856.got.cif
#   From: 2010.05.17/outbox.cif.g08.bks.cpg/sg12_72_cif.got.tgz:143856.got - 2010.06.03 13:09:07.
