data_PCOD9201521
_publ_section_title
;
Structure prediction by ZEFSAII (Michael W. Deem and Ramdas Pophale) SiO2 
 PCOD9201521
Probable space group: C 2/M
;
_chemical_formula_sum "Si O2"
_cell_formula_units_Z 48
_cell_length_a 11.369748
_cell_length_b 24.464542
_cell_length_c 10.423749
_cell_angle_alpha 90.000000
_cell_angle_beta 119.910141
_cell_angle_gamma 90.000000
_cell_volume 2513.246222
_symmetry_space_group_name_H-M "C 2/M"
_symmetry_group_IT_number 12
_symmetry_cell_setting 'monoclinic'
loop_
_space_group_symop_operation_xyz
x,y,z
-x,y,-z
-x,-y,-z
x,-y,z
1/2+x,1/2+y,z
1/2-x,1/2+y,-z
1/2-x,1/2-y,-z
1/2+x,1/2-y,z
loop_
_atom_site_type_symbol
_atom_site_label
_atom_site_fract_x
_atom_site_fract_y
_atom_site_fract_z
Si Si1 0.874279 0.500000 0.533650
Si Si2 0.141082 0.267673 0.836079
Si Si3 0.238959 0.106669 0.358787
Si Si4 0.840508 0.277529 0.438708
Si Si5 0.048911 0.500000 0.883277
Si Si6 0.530622 0.339393 0.864077
Si Si7 0.689479 0.113466 0.899556
O O1 0.783340 0.553056 0.456917
O O2 0.000000 0.500000 0.500000
O O3 0.937788 0.500000 0.709395
O O4 0.212124 0.267375 0.735215
O O5 0.032997 0.219460 0.795392
O O6 0.100279 0.330451 0.842821
O O7 0.250000 0.250000 0.000000
O O8 0.326128 0.157949 0.455807
O O9 0.272698 0.100659 0.226902
O O10 0.081706 0.124306 0.268486
O O11 0.750000 0.250000 0.500000
O O12 0.000000 0.263877 0.500000
O O13 0.128065 0.557253 0.913388
O O14 0.000000 0.500000 0.000000
O O15 0.500000 0.332162 0.000000
O O16 0.677371 0.368623 0.947651
#
# Coordination Sequence:
#
# PCOD9201521 Si02
#       7
#     4   8   8   8   4   8   8
#     4  12  22  41  65  81 119 162 210 256 312 384
#     4   9  19  37  61  91 124 167 204 254 318 381
#     4  10  20  37  62  91 116 162 207 255 307 375
#     4  11  23  38  60  94 132 166 210 263 318 381
#     4  12  26  43  59  89 119 160 212 265 321 379
#     4   9  18  35  62  96 126 154 210 263 316 381
#     4   9  19  37  62  87 121 158 205 255 304 371
#
# _framework density 19.098806
#
# number of rings (size 3 to 8) (size 9 to 14) (size 15 to 20)
#    0.000    2.000    1.667    2.500    2.333    1.333 
#    6.000    2.500    0.000    1.000    0.000    0.000 
#    0.000    0.000    0.000    0.000    0.000    0.000 
#
# Total GULP energy -133710.868283 kJ/mol
# GULP energy per Si atom -5571.286178 kJ/mol
# Density = 1.905534 g / cm^3
# Si number density = 19.098806 Si / 1000 Ang^3
#
#
#
# Elastic Constant Matrix: (Units=GPa)
#
#
# Indices 1 2 3 4 5 6 
#
# 1 89.2033 85.3412 54.0741 0.0000 5.5405 0.0000
# 2 85.3412 198.5121 65.3560 0.0000 -2.9320 0.0000
# 3 54.0741 65.3560 91.1689 0.0000 0.0351 0.0000
# 4 0.0000 0.0000 0.0000 28.2098 0.0000 2.2065
# 5 5.5405 -2.9320 0.0351 0.0000 26.4305 0.0000
# 6 0.0000 0.0000 0.0000 2.2065 0.0000 39.1828
#
#
#
# Elastic Compliance Matrix: (Units=1/GPa)
#
#
# Indices 1 2 3 4 5 6 
#
# 1 0.024237 -0.007559 -0.008954 0.000000 -0.005907 0.000000
# 2 -0.007559 0.008965 -0.001945 0.000000 0.002582 0.000000
# 3 -0.008954 -0.001945 0.017673 0.000000 0.001638 0.000000
# 4 0.000000 0.000000 0.000000 0.035606 0.000000 -0.002005
# 5 -0.005907 0.002582 0.001638 0.000000 0.039358 0.000000
# 6 0.000000 0.000000 0.000000 -0.002005 0.000000 0.025634
#
#
# Mechanical properties :
#
#
# Convention : Reuss Voigt Hill
#
# Bulk Modulus (GPa) = 71.63554 87.60297 79.61926
# Shear Modulus (GPa) = 25.90111 30.37215 28.13663
#
# Velocity S-wave (km/s) = 3.68661 3.99214 3.84241
# Velocity P-wave (km/s) = 7.46396 8.19862 7.83990
#
# Compressibility (1/GPa) = 0.01395955
#
# Stress axis : x y z
#
# Youngs Moduli (GPa) = 41.25967 111.54011 56.58262
#
# Poissons Ratio (x) = 0.84309 0.50667
# Poissons Ratio (y) = 0.31187 0.11004
# Poissons Ratio (z) = 0.36946 0.21692
#
# Static dielectric constant tensor:
#      x y z
#    x 1.696360 0.000000 0.078430 
#    y 0.000000 1.399270 0.000000 
#    z 0.078430 0.000000 1.691670 
# 
# From -- ./inp_files/51474.got.cif
#   From: 2010.05.17/outbox.cif.g08.bks.cpg/sg12_26_cif.got.tgz:51474.got - 2010.06.03 13:09:07.
