data_PCOD9201510
_publ_section_title
;
Structure prediction by ZEFSAII (Michael W. Deem and Ramdas Pophale) SiO2 
 PCOD9201510
Probable space group: C 2/M
;
_chemical_formula_sum "Si O2"
_cell_formula_units_Z 58
_cell_length_a 22.979915
_cell_length_b 7.995726
_cell_length_c 20.307918
_cell_angle_alpha 90.000000
_cell_angle_beta 45.265283
_cell_angle_gamma 90.000000
_cell_volume 2650.685810
_symmetry_space_group_name_H-M "C 2/M"
_symmetry_group_IT_number 12
_symmetry_cell_setting 'monoclinic'
loop_
_space_group_symop_operation_xyz
x,y,z
-x,y,-z
-x,-y,-z
x,-y,z
1/2+x,1/2+y,z
1/2-x,1/2+y,-z
1/2-x,1/2-y,-z
1/2+x,1/2-y,z
loop_
_atom_site_type_symbol
_atom_site_label
_atom_site_fract_x
_atom_site_fract_y
_atom_site_fract_z
Si Si1 0.217368 0.693842 0.226063
Si Si2 0.313340 0.692942 0.394081
Si Si3 0.961219 0.304954 0.615481
Si Si4 0.965935 0.304130 0.900039
Si Si5 0.503320 0.303806 0.270487
Si Si6 0.646612 0.196043 0.781904
Si Si7 0.500000 0.500000 0.500000
Si Si8 0.288856 0.806395 0.037820
O O1 0.209724 0.500000 0.215471
O O2 0.132507 0.740427 0.329334
O O3 0.293225 0.721661 0.213888
O O4 0.230416 0.786401 0.146849
O O5 0.296370 0.500000 0.391627
O O6 0.250000 0.750000 0.500000
O O7 0.404807 0.705935 0.350100
O O8 0.317282 0.785849 0.320749
O O9 0.980228 0.500000 0.584322
O O10 0.963346 0.286681 0.692219
O O11 0.013695 0.152950 0.543988
O O12 0.967905 0.500000 0.917456
O O13 0.969457 0.283558 0.818404
O O14 0.053207 0.233848 0.855817
O O15 0.877290 0.228197 0.987737
O O16 0.527089 0.500000 0.249899
O O17 0.643244 0.000000 0.800909
O O18 0.306245 0.000000 0.013886
O O19 0.250000 0.750000 0.000000
#
# Coordination Sequence:
#
# PCOD9201510 Si02
#       8
#     8   8   8   8   8   8   2   8
#     4  11  25  43  63  91 129 168 211 261 327 390
#     4  10  21  37  59  89 122 158 208 261 317 379
#     4  11  25  44  66  93 127 168 214 268 324 387
#     4   9  20  38  60  91 126 165 214 267 320 384
#     4  10  20  37  62  90 122 164 209 262 320 382
#     4  10  21  39  63  87 122 169 213 262 326 384
#     4  12  26  44  68  90 128 162 226 254 324 392
#     4  11  23  39  63  94 129 166 215 267 320 384
#
# _framework density 21.881129999999999
#
# number of rings (size 3 to 8) (size 9 to 14) (size 15 to 20)
#    0.000    1.655    0.690    3.103    1.931    8.276 
#    0.000    2.759    0.000    0.000    0.000    0.000 
#    0.000    0.000    0.000    0.000    0.000    0.000 
#
# Total GULP energy -161633.980149 kJ/mol
# GULP energy per Si atom -5573.585522 kJ/mol
# Density = 2.183133 g / cm^3
# Si number density = 21.881130 Si / 1000 Ang^3
#
#
#
# Elastic Constant Matrix: (Units=GPa)
#
#
# Indices 1 2 3 4 5 6 
#
# 1 83.3458 13.2145 1.2072 -0.0006 12.6163 -0.0002
# 2 13.2145 60.1841 15.3382 0.0016 -11.5562 -0.0004
# 3 1.2072 15.3382 45.7790 -0.0014 -6.9690 0.0010
# 4 -0.0006 0.0016 -0.0014 13.1429 0.0008 6.6462
# 5 12.6163 -11.5562 -6.9690 0.0008 10.0632 0.0003
# 6 -0.0002 -0.0004 0.0010 6.6462 0.0003 31.3452
#
#
#
# Elastic Compliance Matrix: (Units=1/GPa)
#
#
# Indices 1 2 3 4 5 6 
#
# 1 0.019850 -0.011284 -0.002799 0.000005 -0.039782 0.000000
# 2 -0.011284 0.028344 -0.002337 -0.000008 0.045078 0.000001
# 3 -0.002799 -0.002337 0.025517 0.000003 0.018496 -0.000002
# 4 0.000005 -0.000008 0.000003 0.085225 -0.000019 -0.018070
# 5 -0.039782 0.045078 0.018496 -0.000019 0.213822 0.000001
# 6 0.000000 0.000001 -0.000002 -0.018070 0.000001 0.035734
#
#
# Mechanical properties :
#
#
# Convention : Reuss Voigt Hill
#
# Bulk Modulus (GPa) = 24.46688 27.64762 26.05725
# Shear Modulus (GPa) = 10.99012 21.54686 16.26849
#
# Velocity S-wave (km/s) = 2.24356 3.14143 2.72967
# Velocity P-wave (km/s) = 4.23290 5.08143 4.67645
#
# Compressibility (1/GPa) = 0.04087158
#
# Stress axis : x y z
#
# Youngs Moduli (GPa) = 50.37863 35.28040 39.19014
#
# Poissons Ratio (x) = 0.39809 0.10969
# Poissons Ratio (y) = 0.56846 0.09158
# Poissons Ratio (z) = 0.14101 0.08245
#
# Static dielectric constant tensor:
#      x y z
#    x 1.823230 0.000000 -0.069180 
#    y 0.000000 1.783090 0.000000 
#    z -0.069180 0.000000 1.897550 
# 
# From -- ./inp_files/324544.got.cif
#   From: 2010.05.17/outbox.cif.g08.bks.cpg/sg12_163_cif.got.tgz:324544.got - 2010.06.03 13:09:07.
