data_PCOD9201481
_publ_section_title
;
Structure prediction by ZEFSAII (Michael W. Deem and Ramdas Pophale) SiO2 
 PCOD9201481
Probable space group: C 2/M
;
_chemical_formula_sum "Si O2"
_cell_formula_units_Z 56
_cell_length_a 18.368374
_cell_length_b 13.882810
_cell_length_c 11.103409
_cell_angle_alpha 90.000000
_cell_angle_beta 68.131361
_cell_angle_gamma 90.000000
_cell_volume 2627.672604
_symmetry_space_group_name_H-M "C 2/M"
_symmetry_group_IT_number 12
_symmetry_cell_setting 'monoclinic'
loop_
_space_group_symop_operation_xyz
x,y,z
-x,y,-z
-x,-y,-z
x,-y,z
1/2+x,1/2+y,z
1/2-x,1/2+y,-z
1/2-x,1/2-y,-z
1/2+x,1/2-y,z
loop_
_atom_site_type_symbol
_atom_site_label
_atom_site_fract_x
_atom_site_fract_y
_atom_site_fract_z
Si Si1 0.984148 0.888617 0.195848
Si Si2 0.047965 0.613736 0.354180
Si Si3 0.151015 0.205407 0.073515
Si Si4 0.086587 0.111552 0.501280
Si Si5 0.196600 0.743913 0.297501
Si Si6 0.830663 0.886688 0.175923
Si Si7 0.442771 0.886319 0.921703
O O1 0.929633 0.880868 0.347253
O O2 0.922857 0.860884 0.130390
O O3 0.064453 0.833326 0.161648
O O4 0.005554 0.000000 0.165245
O O5 0.055195 0.500000 0.363117
O O6 0.132392 0.661299 0.312781
O O7 0.017523 0.629732 0.236006
O O8 0.000000 0.649524 0.500000
O O9 0.201598 0.207156 0.163139
O O10 0.129204 0.311186 0.034512
O O11 0.187208 0.135049 0.952185
O O12 0.154834 0.181170 0.412560
O O13 0.000000 0.132100 0.500000
O O14 0.104854 0.000000 0.459441
O O15 0.275793 0.687718 0.282065
O O16 0.820674 0.000000 0.212119
O O17 0.420452 0.000000 0.939438
O O18 0.500000 0.868465 0.000000
#
# Coordination Sequence:
#
# PCOD9201481 Si02
#       7
#     8   8   8   8   8   8   8
#     4  10  21  38  63  90 117 153 200 254 303 348
#     4   9  18  32  53  81 111 149 200 246 289 352
#     4  11  21  37  61  87 115 156 205 246 296 355
#     4  10  20  37  62  90 117 151 199 252 295 349
#     4  11  22  36  58  86 120 156 191 240 303 363
#     4  11  24  40  58  87 125 158 195 247 304 361
#     4   9  18  32  52  79 113 149 189 243 299 348
#
# _framework density 21.311634999999999
#
# number of rings (size 3 to 8) (size 9 to 14) (size 15 to 20)
#    0.000    1.857    1.429    3.000    2.000    2.857 
#    0.000    0.714    0.000    0.857    0.000    0.000 
#    0.000    0.000    0.000    0.000    0.000    0.000 
#
# Total GULP energy -156216.722573 kJ/mol
# GULP energy per Si atom -5579.168663 kJ/mol
# Density = 2.126313 g / cm^3
# Si number density = 21.311635 Si / 1000 Ang^3
#
#
#
# Elastic Constant Matrix: (Units=GPa)
#
#
# Indices 1 2 3 4 5 6 
#
# 1 67.9124 31.1954 21.6754 0.0000 -18.3082 0.0000
# 2 31.1954 105.3540 31.7866 0.0000 -20.3142 0.0000
# 3 21.6754 31.7866 62.5477 0.0000 -5.5065 0.0000
# 4 0.0000 0.0000 0.0000 18.6491 0.0000 -5.3690
# 5 -18.3082 -20.3142 -5.5065 0.0000 31.2069 0.0000
# 6 0.0000 0.0000 0.0000 -5.3690 0.0000 25.8811
#
#
#
# Elastic Compliance Matrix: (Units=1/GPa)
#
#
# Indices 1 2 3 4 5 6 
#
# 1 0.019934 -0.002725 -0.004723 0.000000 0.009087 0.000000
# 2 -0.002725 0.012997 -0.005136 0.000000 0.005955 0.000000
# 3 -0.004723 -0.005136 0.020007 0.000000 -0.002584 0.000000
# 4 0.000000 0.000000 0.000000 0.057028 0.000000 0.011830
# 5 0.009087 0.005955 -0.002584 0.000000 0.040796 0.000000
# 6 0.000000 0.000000 0.000000 0.011830 0.000000 0.041092
#
#
# Mechanical properties :
#
#
# Convention : Reuss Voigt Hill
#
# Bulk Modulus (GPa) = 36.01143 45.01433 40.51288
# Shear Modulus (GPa) = 22.09661 25.22454 23.66058
#
# Velocity S-wave (km/s) = 3.22348 3.44409 3.33561
# Velocity P-wave (km/s) = 5.54876 6.08140 5.82117
#
# Compressibility (1/GPa) = 0.02776896
#
# Stress axis : x y z
#
# Youngs Moduli (GPa) = 50.16578 76.94283 49.98198
#
# Poissons Ratio (x) = 0.20969 0.23606
# Poissons Ratio (y) = 0.13672 0.25672
# Poissons Ratio (z) = 0.23693 0.39519
#
# Static dielectric constant tensor:
#      x y z
#    x 1.796520 0.000000 0.056620 
#    y 0.000000 1.785960 0.000000 
#    z 0.056620 0.000000 1.875160 
# 
# From -- ./inp_files/156527.got.cif
#   From: 2010.05.17/outbox.cif.g08.bks.cpg/sg12_79_cif.got.tgz:156527.got - 2010.06.03 13:09:07.
