data_PCOD9201878
_publ_section_title
;
Structure prediction by ZEFSAII (Michael W. Deem and Ramdas Pophale) SiO2 
 PCOD9201878
Probable space group: C 2/M
;
_chemical_formula_sum "Si O2"
_cell_formula_units_Z 64
_cell_length_a 18.345617
_cell_length_b 13.503389
_cell_length_c 23.655344
_cell_angle_alpha 90.000000
_cell_angle_beta 150.750888
_cell_angle_gamma 90.000000
_cell_volume 2863.285758
_symmetry_space_group_name_H-M "C 2/M"
_symmetry_group_IT_number 12
_symmetry_cell_setting 'monoclinic'
loop_
_space_group_symop_operation_xyz
x,y,z
-x,y,-z
-x,-y,-z
x,-y,z
1/2+x,1/2+y,z
1/2-x,1/2+y,-z
1/2-x,1/2-y,-z
1/2+x,1/2-y,z
loop_
_atom_site_type_symbol
_atom_site_label
_atom_site_fract_x
_atom_site_fract_y
_atom_site_fract_z
Si Si1 0.771595 0.821651 0.103138
Si Si2 0.533264 0.178147 0.144323
Si Si3 0.199706 0.391176 0.598096
Si Si4 0.022799 0.111444 0.854762
Si Si5 0.694476 0.861046 0.466128
Si Si6 0.872283 0.197156 0.376501
Si Si7 0.924031 0.613991 0.195113
Si Si8 0.526772 0.394702 0.659593
O O1 0.834087 0.858946 0.084859
O O2 0.808766 0.703400 0.131371
O O3 0.872403 0.873876 0.217929
O O4 0.598374 0.852582 0.987224
O O5 0.515644 0.298126 0.130329
O O6 0.706830 0.153321 0.255978
O O7 0.488328 0.141339 0.176656
O O8 0.163847 0.500000 0.597777
O O9 0.379694 0.386328 0.716317
O O10 0.146597 0.385073 0.497714
O O11 0.153205 0.300950 0.607245
O O12 0.033285 0.000000 0.884617
O O13 0.750000 0.750000 0.500000
O O14 0.561712 0.880328 0.332493
O O15 0.853948 0.905742 0.557337
O O16 0.943676 0.195598 0.363006
O O17 0.000000 0.143386 0.500000
O O18 0.868395 0.500000 0.157849
O O19 0.574495 0.500000 0.665658
#
# Coordination Sequence:
#
# PCOD9201878 Si02
#       8
#     8   8   8   8   8   8   8   8
#     4  11  22  38  60  90 129 169 214 266 318 386
#     4  10  23  40  58  89 130 172 214 262 321 386
#     4  10  20  37  65  97 127 166 213 263 323 386
#     4   9  16  33  61  92 123 158 209 264 321 380
#     4  12  20  39  68 102 137 164 212 271 325 382
#     4  11  25  44  63  90 127 170 214 266 325 383
#     4  11  22  36  62  98 132 167 208 268 330 383
#     4  12  25  42  67  96 129 173 217 265 326 386
#
# _framework density 22.351944
#
# number of rings (size 3 to 8) (size 9 to 14) (size 15 to 20)
#    0.000    1.250    2.500    6.000    0.000    4.000 
#    0.000    1.250    0.000    0.000    0.000    4.375 
#    0.000    0.000    0.000    0.000    0.000    0.000 
#
# Total GULP energy -178462.704104 kJ/mol
# GULP energy per Si atom -5576.959503 kJ/mol
# Density = 2.230107 g / cm^3
# Si number density = 22.351944 Si / 1000 Ang^3
#
#
#
# Elastic Constant Matrix: (Units=GPa)
#
#
# Indices 1 2 3 4 5 6 
#
# 1 60.8720 21.0254 29.6077 -0.0002 3.3624 0.0000
# 2 21.0254 113.5834 11.7162 -0.0001 3.1268 0.0004
# 3 29.6077 11.7162 185.9006 0.0016 18.6953 0.0006
# 4 -0.0002 -0.0001 0.0016 -9.1689 0.0002 10.3366
# 5 3.3624 3.1268 18.6953 0.0002 31.7533 0.0001
# 6 0.0000 0.0004 0.0006 10.3366 0.0001 3.9306
#
#
#
# Elastic Compliance Matrix: (Units=1/GPa)
#
#
# Indices 1 2 3 4 5 6 
#
# 1 0.018902 -0.003209 -0.002805 0.000000 -0.000034 0.000001
# 2 -0.003209 0.009416 -0.000025 0.000000 -0.000573 0.000000
# 3 -0.002805 -0.000025 0.006162 0.000000 -0.003329 -0.000001
# 4 0.000000 0.000000 0.000000 -0.027509 0.000000 0.072343
# 5 -0.000034 -0.000573 -0.003329 0.000000 0.033513 0.000000
# 6 0.000001 0.000000 -0.000001 0.072343 0.000000 0.064170
#
#
# Mechanical properties :
#
#
# Convention : Reuss Voigt Hill
#
# Bulk Modulus (GPa) = 44.63439 53.89494 49.26467
# Shear Modulus (GPa) = 40.25760 25.17011 32.71386
#
# Velocity S-wave (km/s) = 4.24852 3.35935 3.82983
# Velocity P-wave (km/s) = 6.63918 6.26189 6.45330
#
# Compressibility (1/GPa) = 0.02240425
#
# Stress axis : x y z
#
# Youngs Moduli (GPa) = 52.90337 106.19766 162.27835
#
# Poissons Ratio (x) = 0.34076 0.45517
# Poissons Ratio (y) = 0.16975 0.00402
# Poissons Ratio (z) = 0.14839 0.00263
#
# Static dielectric constant tensor:
#      x y z
#    x 1.784820 0.000040 0.170900 
#    y 0.000040 2.257660 -0.000210 
#    z 0.170900 -0.000210 0.934800 
# 
# From -- ./inp_files/344099.got.cif
#   From: 2010.05.17/outbox.cif.g08.bks.cpg/sg12_173_cif.got.tgz:344099.got - 2010.06.03 13:09:07.
