data_PCOD9201950
_publ_section_title
;
Structure prediction by ZEFSAII (Michael W. Deem and Ramdas Pophale) SiO2 
 PCOD9201950
Probable space group: C 2/M
;
_chemical_formula_sum "Si O2"
_cell_formula_units_Z 48
_cell_length_a 9.177189
_cell_length_b 14.550297
_cell_length_c 18.442287
_cell_angle_alpha 90.000000
_cell_angle_beta 103.573365
_cell_angle_gamma 90.000000
_cell_volume 2393.833511
_symmetry_space_group_name_H-M "C 2/M"
_symmetry_group_IT_number 12
_symmetry_cell_setting 'monoclinic'
loop_
_space_group_symop_operation_xyz
x,y,z
-x,y,-z
-x,-y,-z
x,-y,z
1/2+x,1/2+y,z
1/2-x,1/2+y,-z
1/2-x,1/2-y,-z
1/2+x,1/2-y,z
loop_
_atom_site_type_symbol
_atom_site_label
_atom_site_fract_x
_atom_site_fract_y
_atom_site_fract_z
Si Si1 0.181922 0.607015 0.026309
Si Si2 0.888176 0.000000 0.417593
Si Si3 0.678588 0.000000 0.517926
Si Si4 0.364602 0.678020 0.317317
Si Si5 0.068949 0.255466 0.217029
Si Si6 0.665482 0.807205 0.551268
Si Si7 0.761044 0.703570 0.113611
O O1 0.217227 0.500000 0.048475
O O2 0.236815 0.689716 0.085231
O O3 0.251520 0.637277 0.956829
O O4 0.000000 0.614161 0.000000
O O5 0.897975 0.911190 0.368600
O O6 0.000000 0.000000 0.500000
O O7 0.728713 0.000000 0.440412
O O8 0.500000 0.000000 0.500000
O O9 0.735420 0.091957 0.562200
O O10 0.203743 0.677959 0.258109
O O11 0.495158 0.702065 0.275952
O O12 0.345608 0.759625 0.373174
O O13 0.143334 0.190315 0.164735
O O14 0.928348 0.306153 0.164206
O O15 0.500000 0.814972 0.500000
O O16 0.750000 0.750000 0.500000
#
# Coordination Sequence:
#
# PCOD9201950 Si02
#       7
#     8   4   4   8   8   8   8
#     4  10  20  37  72 101 127 167 225 254 307 365
#     4  12  26  44  64  96 124 158 219 283 334 373
#     4  10  24  38  62  88 116 150 203 273 316 375
#     4  11  24  42  64  89 122 172 208 259 330 397
#     4  10  23  42  62  85 134 173 210 245 328 386
#     4  11  21  38  63  87 114 152 206 267 315 375
#     4  10  20  43  64  97 130 173 205 274 298 371
#
# _framework density 20.05152
#
# number of rings (size 3 to 8) (size 9 to 14) (size 15 to 20)
#    0.000    1.500    3.333    1.500    4.667    0.000 
#    9.000    0.833    3.667    0.000    0.000    0.000 
#    0.000    0.000    0.000    0.000    0.000    0.000 
#
# Total GULP energy -133947.471515 kJ/mol
# GULP energy per Si atom -5581.144646 kJ/mol
# Density = 2.000588 g / cm^3
# Si number density = 20.051520 Si / 1000 Ang^3
#
#
#
# Elastic Constant Matrix: (Units=GPa)
#
#
# Indices 1 2 3 4 5 6 
#
# 1 112.9861 20.8831 41.3825 0.0000 -19.8115 0.0000
# 2 20.8831 136.0154 44.3382 0.0000 -10.4406 0.0000
# 3 41.3825 44.3382 116.5816 0.0000 -29.6113 0.0000
# 4 0.0000 0.0000 0.0000 17.1386 0.0000 2.6577
# 5 -19.8115 -10.4406 -29.6113 0.0000 52.2985 0.0000
# 6 0.0000 0.0000 0.0000 2.6577 0.0000 8.7957
#
#
#
# Elastic Compliance Matrix: (Units=1/GPa)
#
#
# Indices 1 2 3 4 5 6 
#
# 1 0.010403 -0.000464 -0.002965 0.000000 0.002169 0.000000
# 2 -0.000464 0.008414 -0.003099 0.000000 -0.000251 0.000000
# 3 -0.002965 -0.003099 0.012108 0.000000 0.005113 0.000000
# 4 0.000000 0.000000 0.000000 0.061216 0.000000 -0.018497
# 5 0.002169 -0.000251 0.005113 0.000000 0.022788 0.000000
# 6 0.000000 0.000000 0.000000 -0.018497 0.000000 0.119280
#
#
# Mechanical properties :
#
#
# Convention : Reuss Voigt Hill
#
# Bulk Modulus (GPa) = 55.96558 64.31008 60.13783
# Shear Modulus (GPa) = 19.74552 32.91186 26.32869
#
# Velocity S-wave (km/s) = 3.14146 4.05577 3.62754
# Velocity P-wave (km/s) = 6.41326 7.35353 6.89943
#
# Compressibility (1/GPa) = 0.01786813
#
# Stress axis : x y z
#
# Youngs Moduli (GPa) = 96.12790 118.84448 82.59250
#
# Poissons Ratio (x) = 0.05516 0.24490
# Poissons Ratio (y) = 0.04461 0.25596
# Poissons Ratio (z) = 0.28503 0.36831
#
# Static dielectric constant tensor:
#      x y z
#    x 1.747340 0.000000 0.020830 
#    y 0.000000 1.717260 0.000000 
#    z 0.020830 0.000000 1.723630 
# 
# From -- ./inp_files/255818.got.cif
#   From: 2010.05.17/outbox.cif.g08.bks.cpg/sg12_128_cif.got.tgz:255818.got - 2010.06.03 13:09:07.
