data_PCOD9201712
_publ_section_title
;
Structure prediction by ZEFSAII (Michael W. Deem and Ramdas Pophale) SiO2 
 PCOD9201712
Probable space group: C 2/M
;
_chemical_formula_sum "Si O2"
_cell_formula_units_Z 56
_cell_length_a 24.126216
_cell_length_b 14.221850
_cell_length_c 14.767294
_cell_angle_alpha 90.000000
_cell_angle_beta 30.011326
_cell_angle_gamma 90.000000
_cell_volume 2534.340086
_symmetry_space_group_name_H-M "C 2/M"
_symmetry_group_IT_number 12
_symmetry_cell_setting 'monoclinic'
loop_
_space_group_symop_operation_xyz
x,y,z
-x,y,-z
-x,-y,-z
x,-y,z
1/2+x,1/2+y,z
1/2-x,1/2+y,-z
1/2-x,1/2-y,-z
1/2+x,1/2-y,z
loop_
_atom_site_type_symbol
_atom_site_label
_atom_site_fract_x
_atom_site_fract_y
_atom_site_fract_z
Si Si1 0.956947 0.388509 0.338426
Si Si2 0.088123 0.615252 0.800183
Si Si3 0.134668 0.711143 0.196761
Si Si4 0.164005 0.110297 0.528650
Si Si5 0.214725 0.614848 0.265874
Si Si6 0.969342 0.114343 0.940237
Si Si7 0.497334 0.600805 0.396483
O O1 0.946766 0.500000 0.349687
O O2 0.949755 0.355721 0.245953
O O3 0.854470 0.357052 0.546640
O O4 0.072253 0.362724 0.221930
O O5 0.090247 0.500000 0.801210
O O6 0.213436 0.651190 0.637035
O O7 0.000000 0.645400 0.000000
O O8 0.154155 0.665249 0.267464
O O9 0.060519 0.803653 0.292539
O O10 0.250000 0.750000 0.000000
O O11 0.065347 0.144724 0.734023
O O12 0.119351 0.112360 0.489057
O O13 0.175985 0.000000 0.536808
O O14 0.209198 0.500000 0.263704
O O15 0.344101 0.643048 0.090525
O O16 0.967024 0.000000 0.941063
O O17 0.000000 0.140111 0.000000
O O18 0.500000 0.592147 0.500000
O O19 0.543478 0.500000 0.294131
#
# Coordination Sequence:
#
# PCOD9201712 Si02
#       7
#     8   8   8   8   8   8   8
#     4  10  21  39  64  93 126 165 206 252 312 376
#     4   9  18  34  58  89 124 163 207 252 302 367
#     4  12  25  39  59  88 124 163 205 255 309 369
#     4   9  17  32  55  83 115 151 194 246 301 356
#     4  10  20  37  63  94 128 165 206 256 315 376
#     4   9  16  28  52  87 122 155 193 239 296 363
#     4  10  22  40  61  83 111 153 204 254 302 353
#
# _framework density 22.096482000000002
#
# number of rings (size 3 to 8) (size 9 to 14) (size 15 to 20)
#    0.000    2.143    0.000    3.429    0.000    8.000 
#    0.000    3.571    0.000    5.143    0.000    0.000 
#    0.000    0.571    0.000    0.000    0.000    0.000 
#
# Total GULP energy -156362.724059 kJ/mol
# GULP energy per Si atom -5584.383002 kJ/mol
# Density = 2.204619 g / cm^3
# Si number density = 22.096482 Si / 1000 Ang^3
#
#
#
# Elastic Constant Matrix: (Units=GPa)
#
#
# Indices 1 2 3 4 5 6 
#
# 1 194.9926 10.4739 99.2436 0.0000 0.8443 0.0000
# 2 10.4739 58.2416 5.6090 0.0000 0.4700 0.0000
# 3 99.2436 5.6090 159.3560 0.0000 -2.2111 0.0000
# 4 0.0000 0.0000 0.0000 16.2447 0.0000 -11.7854
# 5 0.8443 0.4700 -2.2111 0.0000 35.9290 0.0000
# 6 0.0000 0.0000 0.0000 -11.7854 0.0000 48.1954
#
#
#
# Elastic Compliance Matrix: (Units=1/GPa)
#
#
# Indices 1 2 3 4 5 6 
#
# 1 0.007563 -0.000905 -0.004685 0.000000 -0.000454 0.000000
# 2 -0.000905 0.017339 -0.000049 0.000000 -0.000209 0.000000
# 3 -0.004685 -0.000049 0.009204 0.000000 0.000677 0.000000
# 4 0.000000 0.000000 0.000000 0.074835 0.000000 0.018300
# 5 -0.000454 -0.000209 0.000677 0.000000 0.027888 0.000000
# 6 0.000000 0.000000 0.000000 0.018300 0.000000 0.025224
#
#
# Mechanical properties :
#
#
# Convention : Reuss Voigt Hill
#
# Bulk Modulus (GPa) = 43.80673 71.47146 57.63910
# Shear Modulus (GPa) = 27.63335 39.89140 33.76237
#
# Velocity S-wave (km/s) = 3.54019 4.25352 3.91314
# Velocity P-wave (km/s) = 6.04804 7.51922 6.82340
#
# Compressibility (1/GPa) = 0.02282754
#
# Stress axis : x y z
#
# Youngs Moduli (GPa) = 132.21678 57.67307 108.64909
#
# Poissons Ratio (x) = 0.05221 0.50899
# Poissons Ratio (y) = 0.11970 0.00537
# Poissons Ratio (z) = 0.61940 0.00285
#
# Static dielectric constant tensor:
#      x y z
#    x 1.426460 0.000000 0.253820 
#    y 0.000000 1.939640 0.000000 
#    z 0.253820 0.000000 1.632870 
# 
# From -- ./inp_files/240895.got.cif
#   From: 2010.05.17/outbox.cif.g08.bks.cpg/sg12_121_cif.got.tgz:240895.got - 2010.06.03 13:09:07.
