data_PCOD9201702
_publ_section_title
;
Structure prediction by ZEFSAII (Michael W. Deem and Ramdas Pophale) SiO2 
 PCOD9201702
Probable space group: C 2/M
;
_chemical_formula_sum "Si O2"
_cell_formula_units_Z 40
_cell_length_a 14.411043
_cell_length_b 18.151126
_cell_length_c 10.146677
_cell_angle_alpha 90.000000
_cell_angle_beta 145.842536
_cell_angle_gamma 90.000000
_cell_volume 1490.214421
_symmetry_space_group_name_H-M "C 2/M"
_symmetry_group_IT_number 12
_symmetry_cell_setting 'monoclinic'
loop_
_space_group_symop_operation_xyz
x,y,z
-x,y,-z
-x,-y,-z
x,-y,z
1/2+x,1/2+y,z
1/2-x,1/2+y,-z
1/2-x,1/2-y,-z
1/2+x,1/2-y,z
loop_
_atom_site_type_symbol
_atom_site_label
_atom_site_fract_x
_atom_site_fract_y
_atom_site_fract_z
Si Si1 0.931485 0.581839 0.274329
Si Si2 0.354212 0.757300 0.918882
Si Si3 0.741780 0.584328 0.708747
Si Si4 0.577249 0.417900 0.802511
Si Si5 0.102283 0.278153 0.418508
O O1 0.924384 0.500000 0.205367
O O2 0.058552 0.635733 0.352703
O O3 0.000000 0.575023 0.500000
O O4 0.743201 0.611785 0.065861
O O5 0.348748 0.844519 0.873090
O O6 0.174746 0.733875 0.651059
O O7 0.500000 0.722063 0.000000
O O8 0.429739 0.746380 0.154874
O O9 0.800746 0.500000 0.747128
O O10 0.609104 0.609196 0.440662
O O11 0.644741 0.576701 0.732862
O O12 0.555538 0.500000 0.834327
O O13 0.250000 0.250000 0.500000
#
# Coordination Sequence:
#
# PCOD9201702 Si02
#       5
#     8   8   8   8   8
#     4  10  20  37  63  94 124 158 206 262 317 372
#     4  10  21  37  57  80 117 164 208 254 301 368
#     4   9  16  30  54  82 112 147 191 248 308 362
#     4   8  15  29  52  82 116 146 180 243 314 365
#     4  10  22  41  60  83 124 167 207 253 308 375
#
# _framework density 26.841777
#
# number of rings (size 3 to 8) (size 9 to 14) (size 15 to 20)
#    0.000    2.600    2.000    1.200    0.000    2.000 
#    3.600    5.000    0.000    5.400    0.000    0.000 
#    0.000    0.000    0.000    0.000    0.000    0.000 
#
# Total GULP energy -111335.825157 kJ/mol
# GULP energy per Si atom -5566.791258 kJ/mol
# Density = 2.678068 g / cm^3
# Si number density = 26.841777 Si / 1000 Ang^3
#
#
#
# Elastic Constant Matrix: (Units=GPa)
#
#
# Indices 1 2 3 4 5 6 
#
# 1 31.0685 9.0446 37.6659 0.0000 9.2312 0.0000
# 2 9.0446 125.7746 66.8097 0.0000 5.7235 0.0000
# 3 37.6659 66.8097 320.9067 0.0000 -20.2591 0.0000
# 4 0.0000 0.0000 0.0000 20.7819 0.0000 59.5198
# 5 9.2312 5.7235 -20.2591 0.0000 38.6172 0.0000
# 6 0.0000 0.0000 0.0000 59.5198 0.0000 -591.9396
#
#
#
# Elastic Compliance Matrix: (Units=1/GPa)
#
#
# Indices 1 2 3 4 5 6 
#
# 1 0.043468 0.000751 -0.006124 0.000000 -0.013715 0.000000
# 2 0.000751 0.009169 -0.002166 0.000000 -0.002675 0.000000
# 3 -0.006124 -0.002166 0.004549 0.000000 0.004172 0.000000
# 4 0.000000 0.000000 0.000000 0.037360 0.000000 0.003757
# 5 -0.013715 -0.002675 0.004172 0.000000 0.031759 0.000000
# 6 0.000000 0.000000 0.000000 0.003757 0.000000 -0.001312
#
#
# Mechanical properties :
#
#
# Convention : Reuss Voigt Hill
#
# Bulk Modulus (GPa) = 23.74808 78.31002 51.02905
# Shear Modulus (GPa) = 32.44497 -82.22614 -24.89058
#
# Velocity S-wave (km/s) = 3.48048 -5.54077 -3.04848
# Velocity P-wave (km/s) = 5.00183 3.41987 2.58097
#
# Compressibility (1/GPa) = 0.04210867
#
# Stress axis : x y z
#
# Youngs Moduli (GPa) = 23.00538 109.06392 219.81504
#
# Poissons Ratio (x) = -0.08195 1.34621
# Poissons Ratio (y) = -0.01729 0.47611
# Poissons Ratio (z) = 0.14089 0.23623
#
# Static dielectric constant tensor:
#      x y z
#    x 2.084220 0.000000 -0.023110 
#    y 0.000000 2.281290 0.000000 
#    z -0.023110 0.000000 2.173990 
# 
# From -- ./inp_files/47148.got.cif
#   From: 2010.05.17/outbox.cif.g08.bks.cpg/sg12_24_cif.got.tgz:47148.got - 2010.06.03 13:09:07.
