data_PCOD9201570
_publ_section_title
;
Structure prediction by ZEFSAII (Michael W. Deem and Ramdas Pophale) SiO2 
 PCOD9201570
Probable space group: C 2/M
;
_chemical_formula_sum "Si O2"
_cell_formula_units_Z 64
_cell_length_a 18.005769
_cell_length_b 15.991559
_cell_length_c 17.888628
_cell_angle_alpha 90.000000
_cell_angle_beta 142.552597
_cell_angle_gamma 90.000000
_cell_volume 3131.890559
_symmetry_space_group_name_H-M "C 2/M"
_symmetry_group_IT_number 12
_symmetry_cell_setting 'monoclinic'
loop_
_space_group_symop_operation_xyz
x,y,z
-x,y,-z
-x,-y,-z
x,-y,z
1/2+x,1/2+y,z
1/2-x,1/2+y,-z
1/2-x,1/2-y,-z
1/2+x,1/2-y,z
loop_
_atom_site_type_symbol
_atom_site_label
_atom_site_fract_x
_atom_site_fract_y
_atom_site_fract_z
Si Si1 0.175688 0.857288 0.686649
Si Si2 0.253768 0.180533 0.183144
Si Si3 0.795408 0.594927 0.525492
Si Si4 0.441903 0.910962 0.872095
Si Si5 0.958037 0.230772 0.101381
Si Si6 0.022898 0.701816 0.729205
Si Si7 0.678074 0.599443 0.275628
Si Si8 0.935328 0.142740 0.563466
O O1 0.215363 0.771657 0.758200
O O2 0.297102 0.908329 0.768214
O O3 0.122910 0.837459 0.562971
O O4 0.066380 0.898380 0.647697
O O5 0.371923 0.152491 0.230510
O O6 0.228192 0.121050 0.233186
O O7 0.140347 0.197035 0.036653
O O8 0.837277 0.500000 0.556860
O O9 0.901771 0.648302 0.649226
O O10 0.766650 0.620886 0.416576
O O11 0.668048 0.599605 0.469088
O O12 0.486443 0.821039 0.877828
O O13 0.474154 0.000000 0.858492
O O14 0.500000 0.914576 0.000000
O O15 0.915054 0.252291 0.150750
O O16 0.061696 0.160029 0.190761
O O17 0.970669 0.773537 0.634316
O O18 0.650880 0.500000 0.259782
#
# Coordination Sequence:
#
# PCOD9201570 Si02
#       8
#     8   8   8   8   8   8   8   8
#     4  10  20  37  62  93 124 162 209 257 321 381
#     4  11  23  41  62  95 127 168 216 268 319 391
#     4  11  24  42  64  94 130 169 217 275 332 391
#     4  11  22  38  62  93 129 165 204 256 319 387
#     4  12  22  42  68  91 131 171 218 269 324 389
#     4  11  24  39  65  92 126 167 214 266 334 383
#     4  11  24  42  68  97 130 176 224 272 329 391
#     4  10  21  38  63  89 123 164 205 261 320 386
#
# _framework density 20.434940000000001
#
# number of rings (size 3 to 8) (size 9 to 14) (size 15 to 20)
#    0.000    1.125    3.750    2.625    0.000    5.500 
#    0.000    2.500    0.000    2.250    0.000    0.000 
#    0.000    0.000    0.000    0.000    0.000    0.000 
#
# Total GULP energy -178500.503376 kJ/mol
# GULP energy per Si atom -5578.140731 kJ/mol
# Density = 2.038843 g / cm^3
# Si number density = 20.434940 Si / 1000 Ang^3
#
#
#
# Elastic Constant Matrix: (Units=GPa)
#
#
# Indices 1 2 3 4 5 6 
#
# 1 79.6676 -0.2726 18.8819 0.0000 -11.4459 0.0000
# 2 -0.2726 70.1548 15.5125 0.0000 -2.7377 0.0000
# 3 18.8819 15.5125 107.2215 0.0000 -19.2949 0.0000
# 4 0.0000 0.0000 0.0000 9.5243 0.0000 -3.1722
# 5 -11.4459 -2.7377 -19.2949 0.0000 26.2707 0.0000
# 6 0.0000 0.0000 0.0000 -3.1722 0.0000 2.5059
#
#
#
# Elastic Compliance Matrix: (Units=1/GPa)
#
#
# Indices 1 2 3 4 5 6 
#
# 1 0.013630 0.000599 -0.001621 0.000000 0.004810 0.000000
# 2 0.000599 0.014752 -0.002208 0.000000 0.000177 0.000000
# 3 -0.001621 -0.002208 0.011250 0.000000 0.007326 0.000000
# 4 0.000000 0.000000 0.000000 0.181534 0.000000 0.229802
# 5 0.004810 0.000177 0.007326 0.000000 0.045560 -0.000001
# 6 0.000000 0.000000 0.000000 0.229802 -0.000001 0.689962
#
#
# Mechanical properties :
#
#
# Convention : Reuss Voigt Hill
#
# Bulk Modulus (GPa) = 30.14703 36.14307 33.14505
# Shear Modulus (GPa) = 5.13240 22.52166 13.82703
#
# Velocity S-wave (km/s) = 1.58652 3.32341 2.60405
# Velocity P-wave (km/s) = 4.25920 5.69667 5.02955
#
# Compressibility (1/GPa) = 0.03317076
#
# Stress axis : x y z
#
# Youngs Moduli (GPa) = 73.37014 67.78914 88.89039
#
# Poissons Ratio (x) = -0.04062 0.14412
# Poissons Ratio (y) = -0.04396 0.19627
# Poissons Ratio (z) = 0.11896 0.14967
#
# Static dielectric constant tensor:
#      x y z
#    x 1.771920 0.000000 -0.003910 
#    y 0.000000 2.387910 0.000000 
#    z -0.003910 0.000000 1.693850 
# 
# From -- ./inp_files/278191.got.cif
#   From: 2010.05.17/outbox.cif.g08.bks.cpg/sg12_140_cif.got.tgz:278191.got - 2010.06.03 13:09:07.
