data_PCOD9201300
_publ_section_title
;
Structure prediction by ZEFSAII (Michael W. Deem and Ramdas Pophale) SiO2 
 PCOD9201300
Probable space group: C 2/M
;
_chemical_formula_sum "Si O2"
_cell_formula_units_Z 64
_cell_length_a 18.608857
_cell_length_b 14.703477
_cell_length_c 15.751753
_cell_angle_alpha 90.000000
_cell_angle_beta 132.291833
_cell_angle_gamma 90.000000
_cell_volume 3188.160086
_symmetry_space_group_name_H-M "C 2/M"
_symmetry_group_IT_number 12
_symmetry_cell_setting 'monoclinic'
loop_
_space_group_symop_operation_xyz
x,y,z
-x,y,-z
-x,-y,-z
x,-y,z
1/2+x,1/2+y,z
1/2-x,1/2+y,-z
1/2-x,1/2-y,-z
1/2+x,1/2-y,z
loop_
_atom_site_type_symbol
_atom_site_label
_atom_site_fract_x
_atom_site_fract_y
_atom_site_fract_z
Si Si1 0.720096 0.608511 0.309585
Si Si2 0.064904 0.389838 0.471506
Si Si3 0.855281 0.748713 0.045755
Si Si4 0.085322 0.398861 0.135509
Si Si5 0.513110 0.392116 0.234091
Si Si6 0.938616 0.108806 0.363981
Si Si7 0.758376 0.727761 0.791528
Si Si8 0.977905 0.398972 0.227714
O O1 0.718071 0.500000 0.290145
O O2 0.820661 0.630212 0.437777
O O3 0.620107 0.630363 0.280565
O O4 0.737613 0.670158 0.240692
O O5 0.059002 0.500000 0.469072
O O6 0.000000 0.356969 0.500000
O O7 0.022217 0.358697 0.348315
O O8 0.930115 0.831022 0.122775
O O9 0.896256 0.663989 0.128365
O O10 0.750000 0.750000 0.000000
O O11 0.829411 0.729469 0.928686
O O12 0.114567 0.500000 0.129191
O O13 0.178461 0.336072 0.218638
O O14 0.046169 0.404121 0.199935
O O15 0.000000 0.371387 0.000000
O O16 0.497076 0.500000 0.205355
O O17 0.501007 0.379074 0.326479
O O18 0.846150 0.177937 0.282693
O O19 0.000000 0.125022 0.500000
O O20 0.909568 0.000000 0.342521
O O21 0.942970 0.500000 0.220217
#
# Coordination Sequence:
#
# PCOD9201300 Si02
#       8
#     8   8   8   8   8   8   8   8
#     4  10  24  43  66  96 132 179 222 267 328 391
#     4   9  20  40  64  92 127 168 218 270 319 379
#     4  12  25  40  61  95 128 165 220 268 323 389
#     4  10  20  37  61  92 127 161 200 256 326 388
#     4  10  23  45  67  91 132 176 219 271 326 390
#     4  10  23  44  69  96 127 168 218 272 330 394
#     4  12  24  40  66  95 128 168 213 274 320 388
#     4  10  22  39  64  93 127 164 203 265 331 388
#
# _framework density 20.074273999999999
#
# number of rings (size 3 to 8) (size 9 to 14) (size 15 to 20)
#    0.000    1.625    2.500    1.125    1.750    4.000 
#    0.000    6.875    0.000    0.000    0.000    0.000 
#    0.000    0.000    0.000    0.000    0.000    0.000 
#
# Total GULP energy -178194.660157 kJ/mol
# GULP energy per Si atom -5568.583130 kJ/mol
# Density = 2.002858 g / cm^3
# Si number density = 20.074274 Si / 1000 Ang^3
#
#
#
# Elastic Constant Matrix: (Units=GPa)
#
#
# Indices 1 2 3 4 5 6 
#
# 1 114.9757 53.4117 62.7985 0.0000 10.2952 0.0000
# 2 53.4117 78.5694 55.5115 0.0000 8.4663 0.0000
# 3 62.7985 55.5115 162.6582 0.0000 -7.0787 0.0000
# 4 0.0000 0.0000 0.0000 29.5102 0.0000 9.4958
# 5 10.2952 8.4663 -7.0787 0.0000 44.0054 0.0000
# 6 0.0000 0.0000 0.0000 9.4958 0.0000 53.5491
#
#
#
# Elastic Compliance Matrix: (Units=1/GPa)
#
#
# Indices 1 2 3 4 5 6 
#
# 1 0.013824 -0.006980 -0.003059 0.000000 -0.002383 0.000000
# 2 -0.006980 0.021094 -0.004642 0.000000 -0.003172 0.000000
# 3 -0.003059 -0.004642 0.009046 0.000000 0.003064 0.000000
# 4 0.000000 0.000000 0.000000 0.035937 0.000000 -0.006373
# 5 -0.002383 -0.003172 0.003064 0.000000 0.024385 0.000000
# 6 0.000000 0.000000 0.000000 -0.006373 0.000000 0.019805
#
#
# Mechanical properties :
#
#
# Convention : Reuss Voigt Hill
#
# Bulk Modulus (GPa) = 68.47904 77.73853 73.10879
# Shear Modulus (GPa) = 31.58145 37.71171 34.64658
#
# Velocity S-wave (km/s) = 3.97070 4.33899 4.15893
# Velocity P-wave (km/s) = 7.43026 7.99450 7.71754
#
# Compressibility (1/GPa) = 0.01460301
#
# Stress axis : x y z
#
# Youngs Moduli (GPa) = 72.33814 47.40662 110.54017
#
# Poissons Ratio (x) = 0.33088 0.33813
# Poissons Ratio (y) = 0.50489 0.51316
# Poissons Ratio (z) = 0.22127 0.22008
#
# Static dielectric constant tensor:
#      x y z
#    x 1.670100 0.000000 0.009150 
#    y 0.000000 1.772880 0.000000 
#    z 0.009150 0.000000 1.773060 
# 
# From -- ./inp_files/225721.got.cif
#   From: 2010.05.17/outbox.cif.g08.bks.cpg/sg12_113_cif.got.tgz:225721.got - 2010.06.03 13:09:07.
