data_PCOD9201454
_publ_section_title
;
Structure prediction by ZEFSAII (Michael W. Deem and Ramdas Pophale) SiO2 
 PCOD9201454
Probable space group: C 2/M
;
_chemical_formula_sum "Si O2"
_cell_formula_units_Z 48
_cell_length_a 9.442142
_cell_length_b 18.728504
_cell_length_c 29.487762
_cell_angle_alpha 90.000000
_cell_angle_beta 149.926085
_cell_angle_gamma 90.000000
_cell_volume 2613.090183
_symmetry_space_group_name_H-M "C 2/M"
_symmetry_group_IT_number 12
_symmetry_cell_setting 'monoclinic'
loop_
_space_group_symop_operation_xyz
x,y,z
-x,y,-z
-x,-y,-z
x,-y,z
1/2+x,1/2+y,z
1/2-x,1/2+y,-z
1/2-x,1/2-y,-z
1/2+x,1/2-y,z
loop_
_atom_site_type_symbol
_atom_site_label
_atom_site_fract_x
_atom_site_fract_y
_atom_site_fract_z
Si Si1 0.222269 0.667360 0.190863
Si Si2 0.157523 0.917371 0.687218
Si Si3 0.695310 0.286851 0.437247
Si Si4 0.802818 0.915221 0.989459
Si Si5 0.691518 0.707450 0.248574
Si Si6 0.726553 0.583022 0.187661
O O1 0.338847 0.610417 0.259928
O O2 0.469801 0.697569 0.227704
O O3 0.099479 0.731613 0.187392
O O4 0.978999 0.630300 0.094265
O O5 0.476138 0.910653 0.756453
O O6 0.962711 0.862942 0.605333
O O7 0.073437 0.000000 0.661021
O O8 0.750000 0.250000 0.500000
O O9 0.488323 0.236087 0.350572
O O10 0.000000 0.297100 0.500000
O O11 0.736750 0.000000 0.971729
O O12 0.000000 0.903058 0.000000
O O13 0.981198 0.898205 0.083799
O O14 0.723071 0.634712 0.229466
O O15 0.691794 0.500000 0.190914
#
# Coordination Sequence:
#
# PCOD9201454 Si02
#       6
#     8   8   8   8   8   8
#     4  11  22  38  60  86 123 160 200 247 290 347
#     4  10  20  38  63  89 118 155 198 245 300 358
#     4  11  22  40  63  84 115 154 196 251 306 364
#     4  10  20  37  62  89 119 162 205 237 285 349
#     4  11  24  41  59  89 119 156 203 247 307 358
#     4  10  21  39  61  86 123 162 197 242 294 354
#
# _framework density 18.369056
#
# number of rings (size 3 to 8) (size 9 to 14) (size 15 to 20)
#    0.000    1.500    1.667    5.500    0.000    3.000 
#    0.000    2.500    0.000    3.000    0.000    0.000 
#    0.000    0.000    0.000    0.000    0.000    0.000 
#
# Total GULP energy -134083.855999 kJ/mol
# GULP energy per Si atom -5586.827333 kJ/mol
# Density = 1.832725 g / cm^3
# Si number density = 18.369056 Si / 1000 Ang^3
#
#
#
# Elastic Constant Matrix: (Units=GPa)
#
#
# Indices 1 2 3 4 5 6 
#
# 1 54.8599 42.9320 16.3551 0.0001 -10.4334 0.0002
# 2 42.9320 119.5946 65.4408 -0.0002 -15.9844 0.0001
# 3 16.3551 65.4408 108.5613 -0.0019 -1.6619 -0.0005
# 4 0.0001 -0.0002 -0.0019 31.5057 -0.0007 4.5362
# 5 -10.4334 -15.9844 -1.6619 -0.0007 22.0151 0.0000
# 6 0.0002 0.0001 -0.0005 4.5362 0.0000 27.8585
#
#
#
# Elastic Compliance Matrix: (Units=1/GPa)
#
#
# Indices 1 2 3 4 5 6 
#
# 1 0.026375 -0.009856 0.002052 0.000000 0.005499 0.000000
# 2 -0.009856 0.017981 -0.009237 0.000000 0.007687 0.000000
# 3 0.002052 -0.009237 0.014399 0.000001 -0.004647 0.000000
# 4 0.000000 0.000000 0.000001 0.032502 0.000001 -0.005292
# 5 0.005499 0.007687 -0.004647 0.000001 0.053260 0.000000
# 6 0.000000 0.000000 0.000000 -0.005292 0.000000 0.036757
#
#
# Mechanical properties :
#
#
# Convention : Reuss Voigt Hill
#
# Bulk Modulus (GPa) = 40.52839 59.16351 49.84595
# Shear Modulus (GPa) = 22.36319 26.82838 24.59578
#
# Velocity S-wave (km/s) = 3.49297 3.82582 3.66318
# Velocity P-wave (km/s) = 6.19508 7.19681 6.71465
#
# Compressibility (1/GPa) = 0.02467406
#
# Stress axis : x y z
#
# Youngs Moduli (GPa) = 37.91418 55.61323 69.44942
#
# Poissons Ratio (x) = 0.54813 -0.14250
# Poissons Ratio (y) = 0.37368 0.64148
# Poissons Ratio (z) = -0.07780 0.51368
#
# Static dielectric constant tensor:
#      x y z
#    x 1.600350 0.000000 -0.008020 
#    y 0.000000 1.633460 0.000000 
#    z -0.008020 0.000000 1.615740 
# 
# From -- ./inp_files/184798.got.cif
#   From: 2010.05.17/outbox.cif.g08.bks.cpg/sg12_93_cif.got.tgz:184798.got - 2010.06.03 13:09:07.
