data_PCOD9201416
_publ_section_title
;
Structure prediction by ZEFSAII (Michael W. Deem and Ramdas Pophale) SiO2 
 PCOD9201416
Probable space group: C 2/M
;
_chemical_formula_sum "Si O2"
_cell_formula_units_Z 32
_cell_length_a 14.598396
_cell_length_b 11.413199
_cell_length_c 11.676712
_cell_angle_alpha 90.000000
_cell_angle_beta 132.833622
_cell_angle_gamma 90.000000
_cell_volume 1426.701645
_symmetry_space_group_name_H-M "C 2/M"
_symmetry_group_IT_number 12
_symmetry_cell_setting 'monoclinic'
loop_
_space_group_symop_operation_xyz
x,y,z
-x,y,-z
-x,-y,-z
x,-y,z
1/2+x,1/2+y,z
1/2-x,1/2+y,-z
1/2-x,1/2-y,-z
1/2+x,1/2-y,z
loop_
_atom_site_type_symbol
_atom_site_label
_atom_site_fract_x
_atom_site_fract_y
_atom_site_fract_z
Si Si1 0.308369 0.371376 0.496613
Si Si2 0.564169 0.277619 0.773797
Si Si3 0.094310 0.324026 0.171889
Si Si4 0.791603 0.864868 0.881543
O O1 0.288801 0.500000 0.537621
O O2 0.250000 0.250000 0.500000
O O3 0.456655 0.349854 0.618106
O O4 0.227936 0.378319 0.312131
O O5 0.486098 0.182708 0.781376
O O6 0.665122 0.210173 0.784729
O O7 0.637581 0.348795 0.935859
O O8 0.127637 0.195397 0.149778
O O9 0.000000 0.376688 0.000000
O O10 0.769133 0.000000 0.840458
#
# Coordination Sequence:
#
# PCOD9201416 Si02
#       4
#     8   8   8   8
#     4  10  21  38  61  88 120 159 200 245 299 356
#     4   9  20  37  58  88 119 153 197 249 299 346
#     4   9  20  37  58  87 119 153 196 245 299 353
#     4  10  20  37  62  88 117 158 205 247 293 357
#
# _framework density 22.429355999999999
#
# number of rings (size 3 to 8) (size 9 to 14) (size 15 to 20)
#    0.000    2.500    0.000    0.750    0.000   14.000 
#    0.000   13.750    0.000    0.000    0.000    0.000 
#    0.000    0.000    0.000    0.000    0.000    0.000 
#
# Total GULP energy -89082.568000 kJ/mol
# GULP energy per Si atom -5567.660500 kJ/mol
# Density = 2.237831 g / cm^3
# Si number density = 22.429356 Si / 1000 Ang^3
#
#
#
# Elastic Constant Matrix: (Units=GPa)
#
#
# Indices 1 2 3 4 5 6 
#
# 1 89.3087 31.4854 10.3681 0.0000 23.7790 0.0000
# 2 31.4854 163.2295 25.1690 0.0000 10.3140 0.0000
# 3 10.3681 25.1690 148.3941 0.0000 47.1593 0.0000
# 4 0.0000 0.0000 0.0000 -2.2094 0.0000 -13.6184
# 5 23.7790 10.3140 47.1593 0.0000 32.1059 0.0000
# 6 0.0000 0.0000 0.0000 -13.6184 0.0000 -3.6276
#
#
#
# Elastic Compliance Matrix: (Units=1/GPa)
#
#
# Indices 1 2 3 4 5 6 
#
# 1 0.016809 -0.002856 0.005579 0.000000 -0.019727 0.000000
# 2 -0.002856 0.006789 -0.001746 0.000000 0.002499 0.000000
# 3 0.005579 -0.001746 0.014591 0.000000 -0.025004 0.000000
# 4 0.000000 0.000000 0.000000 0.020443 0.000000 -0.076747
# 5 -0.019727 0.002499 -0.025004 0.000000 0.081682 0.000000
# 6 0.000000 0.000000 0.000000 -0.076747 0.000000 0.012451
#
#
# Mechanical properties :
#
#
# Convention : Reuss Voigt Hill
#
# Bulk Modulus (GPa) = 24.91121 59.44193 42.17657
# Shear Modulus (GPa) = 30.45216 27.51445 28.98331
#
# Velocity S-wave (km/s) = 3.68869 3.50625 3.59862
# Velocity P-wave (km/s) = 5.41041 6.55371 6.00931
#
# Compressibility (1/GPa) = 0.04014257
#
# Stress axis : x y z
#
# Youngs Moduli (GPa) = 59.49311 147.30665 68.53353
#
# Poissons Ratio (x) = 0.42071 -0.38236
# Poissons Ratio (y) = 0.16991 0.11967
# Poissons Ratio (z) = -0.33192 0.25722
#
# Static dielectric constant tensor:
#      x y z
#    x 1.789230 0.000000 -0.001150 
#    y 0.000000 1.841550 0.000000 
#    z -0.001150 0.000000 1.934960 
# 
# From -- ./inp_files/139968.got.cif
#   From: 2010.05.17/outbox.cif.g08.bks.cpg/sg12_70_cif.got.tgz:139968.got - 2010.06.03 13:09:07.
