data_PCOD9201127
_publ_section_title
;
Structure prediction by ZEFSAII (Michael W. Deem and Ramdas Pophale) SiO2 
 PCOD9201127
Probable space group: C 2/M
;
_chemical_formula_sum "Si O2"
_cell_formula_units_Z 56
_cell_length_a 19.063959
_cell_length_b 8.908628
_cell_length_c 18.745401
_cell_angle_alpha 90.000000
_cell_angle_beta 68.474329
_cell_angle_gamma 90.000000
_cell_volume 2961.555382
_symmetry_space_group_name_H-M "C 2/M"
_symmetry_group_IT_number 12
_symmetry_cell_setting 'monoclinic'
loop_
_space_group_symop_operation_xyz
x,y,z
-x,y,-z
-x,-y,-z
x,-y,z
1/2+x,1/2+y,z
1/2-x,1/2+y,-z
1/2-x,1/2-y,-z
1/2+x,1/2-y,z
loop_
_atom_site_type_symbol
_atom_site_label
_atom_site_fract_x
_atom_site_fract_y
_atom_site_fract_z
Si Si1 0.863488 0.682724 0.655984
Si Si2 0.193485 0.323848 0.965495
Si Si3 0.277827 0.681435 0.199392
Si Si4 0.968860 0.680993 0.363758
Si Si5 0.676861 0.818350 0.489091
Si Si6 0.043219 0.828859 0.059002
Si Si7 0.573981 0.679115 0.770630
O O1 0.864915 0.500000 0.654717
O O2 0.803113 0.727133 0.738721
O O3 0.833190 0.728776 0.589542
O O4 0.948762 0.733407 0.640242
O O5 0.205787 0.500000 0.956047
O O6 0.204334 0.251035 0.883721
O O7 0.250000 0.250000 0.000000
O O8 0.110904 0.285708 0.025952
O O9 0.279718 0.500000 0.191853
O O10 0.343798 0.723581 0.230485
O O11 0.970989 0.500000 0.362173
O O12 0.899806 0.724900 0.440931
O O13 0.950475 0.739660 0.291977
O O14 0.750000 0.750000 0.500000
O O15 0.683222 0.000000 0.488424
O O16 0.985739 0.793056 0.143832
O O17 0.072054 0.000000 0.059432
O O18 0.000000 0.828924 0.000000
O O19 0.575771 0.500000 0.757129
#
# Coordination Sequence:
#
# PCOD9201127 Si02
#       7
#     8   8   8   8   8   8   8
#     4   9  19  36  60  85 114 153 195 236 285 344
#     4  12  26  41  60  86 119 156 199 248 299 354
#     4  10  20  39  61  83 113 155 200 240 289 352
#     4  10  21  36  57  88 119 149 192 244 287 338
#     4  10  20  37  61  86 116 152 193 237 286 343
#     4  10  20  40  64  86 116 155 199 245 295 350
#     4  10  21  37  60  86 118 155 191 237 293 352
#
# _framework density 18.908982999999999
#
# number of rings (size 3 to 8) (size 9 to 14) (size 15 to 20)
#    0.000    1.857    1.429    2.571    2.000    4.857 
#    0.000    1.429    0.000    1.714    0.000    0.000 
#    0.000    0.000    0.000    0.000    0.000    0.000 
#
# Total GULP energy -156384.221688 kJ/mol
# GULP energy per Si atom -5585.150775 kJ/mol
# Density = 1.886594 g / cm^3
# Si number density = 18.908983 Si / 1000 Ang^3
#
#
#
# Elastic Constant Matrix: (Units=GPa)
#
#
# Indices 1 2 3 4 5 6 
#
# 1 136.5711 32.6561 30.0876 0.0000 -6.1682 0.0000
# 2 32.6561 26.3433 21.3443 0.0000 -3.7188 0.0000
# 3 30.0876 21.3443 59.7944 0.0000 -11.1053 0.0000
# 4 0.0000 0.0000 0.0000 5.4903 0.0000 9.7660
# 5 -6.1682 -3.7188 -11.1053 0.0000 31.6046 0.0000
# 6 0.0000 0.0000 0.0000 9.7660 0.0000 29.7675
#
#
#
# Elastic Compliance Matrix: (Units=1/GPa)
#
#
# Indices 1 2 3 4 5 6 
#
# 1 0.010443 -0.012228 -0.000833 0.000000 0.000307 0.000000
# 2 -0.012228 0.067729 -0.018173 0.000001 -0.000803 0.000000
# 3 -0.000833 -0.018173 0.024823 0.000000 0.006421 0.000000
# 4 0.000000 0.000001 0.000000 0.437399 0.000000 -0.143501
# 5 0.000307 -0.000803 0.006421 0.000000 0.033863 0.000000
# 6 0.000000 0.000000 0.000000 -0.143501 0.000000 0.080673
#
#
# Mechanical properties :
#
#
# Convention : Reuss Voigt Hill
#
# Bulk Modulus (GPa) = 24.67442 43.43164 34.05303
# Shear Modulus (GPa) = 6.84081 22.61385 14.72733
#
# Velocity S-wave (km/s) = 1.90410 3.46198 2.79382
# Velocity P-wave (km/s) = 4.23220 6.24492 5.33435
#
# Compressibility (1/GPa) = 0.04052780
#
# Stress axis : x y z
#
# Youngs Moduli (GPa) = 95.75421 14.76462 40.28525
#
# Poissons Ratio (x) = 0.18054 0.03357
# Poissons Ratio (y) = 1.17085 0.73211
# Poissons Ratio (z) = 0.07978 0.26832
#
# Static dielectric constant tensor:
#      x y z
#    x 1.632430 0.000000 -0.012080 
#    y 0.000000 1.642340 0.000000 
#    z -0.012080 0.000000 1.626260 
# 
# From -- ./inp_files/275241.got.cif
#   From: 2010.05.17/outbox.cif.g08.bks.cpg/sg12_138_cif.got.tgz:275241.got - 2010.06.03 13:09:07.
