data_PCOD9201468
_publ_section_title
;
Structure prediction by ZEFSAII (Michael W. Deem and Ramdas Pophale) SiO2 
 PCOD9201468
Probable space group: C 2/M
;
_chemical_formula_sum "Si O2"
_cell_formula_units_Z 52
_cell_length_a 25.628763
_cell_length_b 9.032247
_cell_length_c 12.455482
_cell_angle_alpha 90.000000
_cell_angle_beta 121.428004
_cell_angle_gamma 90.000000
_cell_volume 2460.275387
_symmetry_space_group_name_H-M "C 2/M"
_symmetry_group_IT_number 12
_symmetry_cell_setting 'monoclinic'
loop_
_space_group_symop_operation_xyz
x,y,z
-x,y,-z
-x,-y,-z
x,-y,z
1/2+x,1/2+y,z
1/2-x,1/2+y,-z
1/2-x,1/2-y,-z
1/2+x,1/2-y,z
loop_
_atom_site_type_symbol
_atom_site_label
_atom_site_fract_x
_atom_site_fract_y
_atom_site_fract_z
Si Si1 0.315487 0.326431 0.569811
Si Si2 0.476398 0.333274 0.228077
Si Si3 0.077047 0.676977 0.190859
Si Si4 0.500000 0.272345 0.500000
Si Si5 0.631278 0.322831 0.612966
Si Si6 0.384596 0.823280 0.998498
Si Si7 0.752512 0.177334 0.118832
O O1 0.310983 0.500000 0.592380
O O2 0.250000 0.250000 0.500000
O O3 0.359633 0.240765 0.697323
O O4 0.345465 0.316192 0.483857
O O5 0.476717 0.500000 0.188055
O O6 0.525618 0.241188 0.213558
O O7 0.492870 0.336767 0.371412
O O8 0.411256 0.260562 0.130187
O O9 0.075737 0.500000 0.195228
O O10 0.075368 0.716888 0.063105
O O11 0.571143 0.221497 0.564774
O O12 0.615327 0.500000 0.616549
O O13 0.688188 0.279193 0.748994
O O14 0.389693 0.000000 0.020571
O O15 0.313616 0.788480 0.900297
O O16 0.755854 0.000000 0.111915
O O17 0.750000 0.250000 0.000000
#
# Coordination Sequence:
#
# PCOD9201468 Si02
#       7
#     8   8   8   4   8   8   8
#     4  11  22  39  64  94 129 170 219 270 325 389
#     4  12  24  40  66  97 128 169 219 270 325 392
#     4  11  23  42  65  92 130 173 217 268 332 392
#     4  12  23  40  65  96 133 170 215 270 333 396
#     4  10  20  37  62  89 123 168 211 256 317 389
#     4  10  23  43  64  89 128 174 216 266 330 396
#     4  10  21  39  62  89 122 164 214 262 319 385
#
# _framework density 21.135845
#
# number of rings (size 3 to 8) (size 9 to 14) (size 15 to 20)
#    0.000    1.231    1.538    5.077    0.000    7.385 
#    0.000    4.615    0.000    0.000    0.000    0.000 
#    0.000    0.000    0.000    0.000    0.000    0.000 
#
# Total GULP energy -145081.224349 kJ/mol
# GULP energy per Si atom -5580.047090 kJ/mol
# Density = 2.108774 g / cm^3
# Si number density = 21.135845 Si / 1000 Ang^3
#
#
#
# Elastic Constant Matrix: (Units=GPa)
#
#
# Indices 1 2 3 4 5 6 
#
# 1 114.7284 35.9360 39.3741 0.0000 11.7775 0.0000
# 2 35.9360 34.0913 29.7386 0.0000 -2.5944 0.0000
# 3 39.3741 29.7386 142.1356 0.0000 14.6321 0.0000
# 4 0.0000 0.0000 0.0000 19.6352 0.0000 1.3002
# 5 11.7775 -2.5944 14.6321 0.0000 43.4478 0.0000
# 6 0.0000 0.0000 0.0000 1.3002 0.0000 19.9775
#
#
#
# Elastic Compliance Matrix: (Units=1/GPa)
#
#
# Indices 1 2 3 4 5 6 
#
# 1 0.013903 -0.014740 -0.000299 0.000000 -0.004548 0.000000
# 2 -0.014740 0.052520 -0.007914 0.000000 0.009797 0.000000
# 3 -0.000299 -0.007914 0.009131 0.000000 -0.003467 0.000000
# 4 0.000000 0.000000 0.000000 0.051149 0.000000 -0.003329
# 5 -0.004548 0.009797 -0.003467 0.000000 0.026002 0.000000
# 6 0.000000 0.000000 0.000000 -0.003329 0.000000 0.050273
#
#
# Mechanical properties :
#
#
# Convention : Reuss Voigt Hill
#
# Bulk Modulus (GPa) = 33.72982 55.67253 44.70117
# Shear Modulus (GPa) = 19.32243 29.00587 24.16415
#
# Velocity S-wave (km/s) = 3.02686 3.70855 3.38491
# Velocity P-wave (km/s) = 5.31122 6.68845 6.03922
#
# Compressibility (1/GPa) = 0.02964736
#
# Stress axis : x y z
#
# Youngs Moduli (GPa) = 71.92768 19.04037 109.51685
#
# Poissons Ratio (x) = 0.28066 0.03275
# Poissons Ratio (y) = 1.06024 0.86669
# Poissons Ratio (z) = 0.02151 0.15068
#
# Static dielectric constant tensor:
#      x y z
#    x 1.778290 0.000000 0.009510 
#    y 0.000000 1.716520 0.000000 
#    z 0.009510 0.000000 1.739430 
# 
# From -- ./inp_files/181235.got.cif
#   From: 2010.05.17/outbox.cif.g08.bks.cpg/sg12_91_cif.got.tgz:181235.got - 2010.06.03 13:09:07.
