data_PCOD9201862
_publ_section_title
;
Structure prediction by ZEFSAII (Michael W. Deem and Ramdas Pophale) SiO2 
 PCOD9201862
Probable space group: C 2/M
;
_chemical_formula_sum "Si O2"
_cell_formula_units_Z 48
_cell_length_a 23.784598
_cell_length_b 15.529162
_cell_length_c 11.409626
_cell_angle_alpha 90.000000
_cell_angle_beta 30.867825
_cell_angle_gamma 90.000000
_cell_volume 2162.135079
_symmetry_space_group_name_H-M "C 2/M"
_symmetry_group_IT_number 12
_symmetry_cell_setting 'monoclinic'
loop_
_space_group_symop_operation_xyz
x,y,z
-x,y,-z
-x,-y,-z
x,-y,z
1/2+x,1/2+y,z
1/2-x,1/2+y,-z
1/2-x,1/2-y,-z
1/2+x,1/2-y,z
loop_
_atom_site_type_symbol
_atom_site_label
_atom_site_fract_x
_atom_site_fract_y
_atom_site_fract_z
Si Si1 0.932843 0.836571 0.507220
Si Si2 0.020778 0.103691 0.099766
Si Si3 0.022207 0.364896 0.588583
Si Si4 0.762481 0.600392 0.659951
Si Si5 0.794790 0.399064 0.121597
Si Si6 0.373623 0.105632 0.229392
O O1 0.967802 0.737754 0.434826
O O2 0.803256 0.847658 0.763582
O O3 0.000000 0.873666 0.500000
O O4 0.953642 0.872276 0.337817
O O5 0.011137 0.000000 0.112571
O O6 0.144763 0.135304 0.905801
O O7 0.000000 0.132173 0.000000
O O8 0.138772 0.396141 0.426263
O O9 0.000000 0.399242 0.500000
O O10 0.917236 0.389672 0.852817
O O11 0.740649 0.500000 0.672791
O O12 0.812026 0.639700 0.453263
O O13 0.764885 0.500000 0.170600
O O14 0.807522 0.370217 0.232793
O O15 0.376736 0.000000 0.227252
O O16 0.500000 0.133811 0.000000
#
# Coordination Sequence:
#
# PCOD9201862 Si02
#       6
#     8   8   8   8   8   8
#     4  11  27  45  65  92 136 178 215 261 332 399
#     4  10  22  43  68  96 131 169 215 271 327 384
#     4  11  26  42  62  91 135 173 211 269 336 381
#     4  10  20  37  65  94 125 167 216 268 322 389
#     4  11  23  42  70  97 125 168 225 275 316 385
#     4   9  16  33  60  93 127 157 201 267 331 374
#
# _framework density 22.200277
#
# number of rings (size 3 to 8) (size 9 to 14) (size 15 to 20)
#    0.000    1.667    1.667    2.000    4.667    6.667 
#    3.000    1.667    0.000    0.000    0.000    0.000 
#    0.000    0.000    0.000    0.000    0.000    0.000 
#
# Total GULP energy -133940.363742 kJ/mol
# GULP energy per Si atom -5580.848489 kJ/mol
# Density = 2.214975 g / cm^3
# Si number density = 22.200277 Si / 1000 Ang^3
#
#
#
# Elastic Constant Matrix: (Units=GPa)
#
#
# Indices 1 2 3 4 5 6 
#
# 1 104.0130 15.0614 26.2051 0.0000 -15.9328 0.0000
# 2 15.0614 33.7916 0.6303 0.0000 8.1833 0.0000
# 3 26.2051 0.6303 84.8650 0.0000 -20.5433 0.0000
# 4 0.0000 0.0000 0.0000 28.9317 0.0000 -17.0879
# 5 -15.9328 8.1833 -20.5433 0.0000 36.8396 0.0000
# 6 0.0000 0.0000 0.0000 -17.0879 0.0000 26.2621
#
#
#
# Elastic Compliance Matrix: (Units=1/GPa)
#
#
# Indices 1 2 3 4 5 6 
#
# 1 0.011978 -0.006585 -0.002360 0.000000 0.005327 0.000000
# 2 -0.006585 0.035259 -0.000941 0.000000 -0.011205 0.000000
# 3 -0.002360 -0.000941 0.014246 0.000000 0.007132 0.000000
# 4 0.000000 0.000000 0.000000 0.056138 0.000000 0.036527
# 5 0.005327 -0.011205 0.007132 0.000000 0.035915 0.000000
# 6 0.000000 0.000000 0.000000 0.036527 0.000000 0.061845
#
#
# Mechanical properties :
#
#
# Convention : Reuss Voigt Hill
#
# Bulk Modulus (GPa) = 23.97451 34.05148 29.01299
# Shear Modulus (GPa) = 20.07573 30.45820 25.26696
#
# Velocity S-wave (km/s) = 3.01042 3.70803 3.37729
# Velocity P-wave (km/s) = 4.78604 5.80554 5.32027
#
# Compressibility (1/GPa) = 0.04171097
#
# Stress axis : x y z
#
# Youngs Moduli (GPa) = 83.48382 28.36138 70.19645
#
# Poissons Ratio (x) = 0.18676 0.16569
# Poissons Ratio (y) = 0.54974 0.06605
# Poissons Ratio (z) = 0.19705 0.02668
#
# Static dielectric constant tensor:
#      x y z
#    x 1.839700 0.000000 -0.005440 
#    y 0.000000 1.814090 0.000000 
#    z -0.005440 0.000000 1.899430 
# 
# From -- ./inp_files/177307.got.cif
#   From: 2010.05.17/outbox.cif.g08.bks.cpg/sg12_89_cif.got.tgz:177307.got - 2010.06.03 13:09:07.
