data_PCOD9201764
_publ_section_title
;
Structure prediction by ZEFSAII (Michael W. Deem and Ramdas Pophale) SiO2 
 PCOD9201764
Probable space group: C 2/M
;
_chemical_formula_sum "Si O2"
_cell_formula_units_Z 40
_cell_length_a 8.265133
_cell_length_b 24.678997
_cell_length_c 9.506089
_cell_angle_alpha 90.000000
_cell_angle_beta 103.714119
_cell_angle_gamma 90.000000
_cell_volume 1883.726675
_symmetry_space_group_name_H-M "C 2/M"
_symmetry_group_IT_number 12
_symmetry_cell_setting 'monoclinic'
loop_
_space_group_symop_operation_xyz
x,y,z
-x,y,-z
-x,-y,-z
x,-y,z
1/2+x,1/2+y,z
1/2-x,1/2+y,-z
1/2-x,1/2-y,-z
1/2+x,1/2-y,z
loop_
_atom_site_type_symbol
_atom_site_label
_atom_site_fract_x
_atom_site_fract_y
_atom_site_fract_z
Si Si1 0.528877 0.774260 0.843323
Si Si2 0.661731 0.830862 0.434781
Si Si3 0.842786 0.177975 0.743042
Si Si4 0.456144 0.560537 0.827900
Si Si5 0.177164 0.940006 0.617735
O O1 0.382304 0.797965 0.713843
O O2 0.698490 0.797851 0.813634
O O3 0.510376 0.709372 0.820676
O O4 0.500000 0.787960 0.000000
O O5 0.500000 0.829146 0.500000
O O6 0.806187 0.811257 0.570374
O O7 0.704889 0.891791 0.401049
O O8 0.850799 0.113356 0.765093
O O9 0.384144 0.500000 0.783600
O O10 0.622914 0.563988 0.768765
O O11 0.500000 0.563568 0.000000
O O12 0.000000 0.934792 0.500000
O O13 0.243691 0.000000 0.602155
#
# Coordination Sequence:
#
# PCOD9201764 Si02
#       5
#     8   8   8   8   8
#     4  11  25  40  61  90 122 162 202 248 305 361
#     4  10  23  40  59  89 125 158 200 250 303 360
#     4  11  23  41  62  91 123 161 200 251 301 361
#     4  10  22  39  64  94 123 157 204 253 301 356
#     4  10  20  37  64  91 117 160 207 250 298 355
#
# _framework density 21.234503
#
# number of rings (size 3 to 8) (size 9 to 14) (size 15 to 20)
#    0.000    1.600    2.000    1.800    5.600    0.400 
#    0.000    3.000    0.000    1.200    0.000    0.000 
#    0.000    0.000    0.000    0.000    0.000    0.000 
#
# Total GULP energy -111720.445091 kJ/mol
# GULP energy per Si atom -5586.022255 kJ/mol
# Density = 2.118617 g / cm^3
# Si number density = 21.234503 Si / 1000 Ang^3
#
#
#
# Elastic Constant Matrix: (Units=GPa)
#
#
# Indices 1 2 3 4 5 6 
#
# 1 29.8704 32.3673 17.2911 0.0000 -5.1736 0.0000
# 2 32.3673 146.2273 40.5394 0.0000 1.9147 0.0000
# 3 17.2911 40.5394 161.5414 0.0000 -9.4469 0.0000
# 4 0.0000 0.0000 0.0000 21.6629 0.0000 -1.5388
# 5 -5.1736 1.9147 -9.4469 0.0000 19.6536 0.0000
# 6 0.0000 0.0000 0.0000 -1.5388 0.0000 38.4935
#
#
#
# Elastic Compliance Matrix: (Units=1/GPa)
#
#
# Indices 1 2 3 4 5 6 
#
# 1 0.047839 -0.010256 -0.001803 0.000000 0.012726 0.000000
# 2 -0.010256 0.009601 -0.001568 0.000000 -0.004389 0.000000
# 3 -0.001803 -0.001568 0.006954 0.000000 0.003021 0.000000
# 4 0.000000 0.000000 0.000000 0.046293 0.000000 0.001851
# 5 0.012726 -0.004389 0.003021 0.000000 0.056111 0.000000
# 6 0.000000 0.000000 0.000000 0.001851 0.000000 0.026052
#
#
# Mechanical properties :
#
#
# Convention : Reuss Voigt Hill
#
# Bulk Modulus (GPa) = 26.92539 57.55940 42.24239
# Shear Modulus (GPa) = 21.50691 32.45809 26.98250
#
# Velocity S-wave (km/s) = 3.18595 3.91391 3.56854
# Velocity P-wave (km/s) = 5.12262 6.89858 6.07584
#
# Compressibility (1/GPa) = 0.03713967
#
# Stress axis : x y z
#
# Youngs Moduli (GPa) = 20.90352 104.15501 143.81175
#
# Poissons Ratio (x) = 1.06821 0.25924
# Poissons Ratio (y) = 0.21439 0.22554
# Poissons Ratio (z) = 0.03768 0.16335
#
# Static dielectric constant tensor:
#      x y z
#    x 1.771080 0.000000 0.033770 
#    y 0.000000 1.801040 0.000000 
#    z 0.033770 0.000000 1.802050 
# 
# From -- ./inp_files/39223.got.cif
#   From: 2010.05.17/outbox.cif.g08.bks.cpg/sg12_20_cif.got.tgz:39223.got - 2010.06.03 13:09:07.
