data_PCOD9201008
_publ_section_title
;
Structure prediction by ZEFSAII (Michael W. Deem and Ramdas Pophale) SiO2 
 PCOD9201008
Probable space group: C 2/M
;
_chemical_formula_sum "Si O2"
_cell_formula_units_Z 56
_cell_length_a 28.688045
_cell_length_b 8.653134
_cell_length_c 17.262600
_cell_angle_alpha 90.000000
_cell_angle_beta 140.564229
_cell_angle_gamma 90.000000
_cell_volume 2722.073497
_symmetry_space_group_name_H-M "C 2/M"
_symmetry_group_IT_number 12
_symmetry_cell_setting 'monoclinic'
loop_
_space_group_symop_operation_xyz
x,y,z
-x,y,-z
-x,-y,-z
x,-y,z
1/2+x,1/2+y,z
1/2-x,1/2+y,-z
1/2-x,1/2-y,-z
1/2+x,1/2-y,z
loop_
_atom_site_type_symbol
_atom_site_label
_atom_site_fract_x
_atom_site_fract_y
_atom_site_fract_z
Si Si1 0.596863 0.681729 0.837592
Si Si2 0.283774 0.823308 0.743840
Si Si3 0.109476 0.317206 0.691398
Si Si4 0.606176 0.321317 0.521779
Si Si5 0.771663 0.316550 0.901656
Si Si6 0.045374 0.319125 0.288833
Si Si7 0.321832 0.681188 0.634671
O O1 0.609759 0.500000 0.852879
O O2 0.576139 0.739958 0.725076
O O3 0.530702 0.726652 0.809551
O O4 0.670080 0.767876 0.959540
O O5 0.195011 0.819124 0.631488
O O6 0.305766 0.787226 0.860160
O O7 0.312758 0.713611 0.714080
O O8 0.305375 0.000000 0.752985
O O9 0.096888 0.500000 0.674932
O O10 0.085088 0.242791 0.578933
O O11 0.196464 0.278452 0.809832
O O12 0.582483 0.500000 0.481429
O O13 0.579081 0.217612 0.416574
O O14 0.754355 0.500000 0.883970
O O15 0.031043 0.500000 0.261784
O O16 0.105735 0.261744 0.305646
O O17 0.325265 0.500000 0.621940
O O18 0.250000 0.750000 0.500000
#
# Coordination Sequence:
#
# PCOD9201008 Si02
#       7
#     8   8   8   8   8   8   8
#     4  12  25  42  61  85 120 160 202 248 301 356
#     4   9  19  36  61  90 121 153 194 246 299 348
#     4  11  22  38  62  91 121 157 204 248 295 351
#     4  10  20  37  60  89 123 156 196 246 302 353
#     4  10  21  40  64  90 121 157 201 249 298 350
#     4  12  25  41  61  87 121 159 200 245 301 362
#     4  12  23  37  61  91 123 157 198 243 294 353
#
# _framework density 20.572554
#
# number of rings (size 3 to 8) (size 9 to 14) (size 15 to 20)
#    0.000    1.143    1.429    7.286    0.000    3.429 
#    0.000    3.571    0.000    4.286    0.000    0.000 
#    0.000    0.000    0.000    0.000    0.000    0.000 
#
# Total GULP energy -156690.432574 kJ/mol
# GULP energy per Si atom -5596.086878 kJ/mol
# Density = 2.052573 g / cm^3
# Si number density = 20.572554 Si / 1000 Ang^3
#
#
#
# Elastic Constant Matrix: (Units=GPa)
#
#
# Indices 1 2 3 4 5 6 
#
# 1 89.6483 19.2044 2.8252 0.0000 -0.7067 0.0000
# 2 19.2044 77.8428 -7.4829 0.0000 -10.2616 0.0000
# 3 2.8252 -7.4829 28.8255 0.0000 -7.8174 0.0000
# 4 0.0000 0.0000 0.0000 25.5075 0.0000 -2.2186
# 5 -0.7067 -10.2616 -7.8174 0.0000 25.7224 0.0000
# 6 0.0000 0.0000 0.0000 -2.2186 0.0000 35.5506
#
#
#
# Elastic Compliance Matrix: (Units=1/GPa)
#
#
# Indices 1 2 3 4 5 6 
#
# 1 0.011957 -0.003435 -0.002557 0.000000 -0.001819 0.000000
# 2 -0.003435 0.015376 0.006502 0.000000 0.008016 0.000000
# 3 -0.002557 0.006502 0.040666 0.000000 0.014883 0.000000
# 4 0.000000 0.000000 0.000000 0.039418 0.000000 0.002460
# 5 -0.001819 0.008016 0.014883 0.000000 0.046547 0.000000
# 6 0.000000 0.000000 0.000000 0.002460 0.000000 0.028282
#
#
# Mechanical properties :
#
#
# Convention : Reuss Voigt Hill
#
# Bulk Modulus (GPa) = 14.48911 25.04556 19.76733
# Shear Modulus (GPa) = 24.48174 29.47408 26.97791
#
# Velocity S-wave (km/s) = 3.45341 3.78919 3.62519
# Velocity P-wave (km/s) = 4.79162 5.59863 5.21077
#
# Compressibility (1/GPa) = 0.06901737
#
# Stress axis : x y z
#
# Youngs Moduli (GPa) = 83.63382 65.03798 24.59048
#
# Poissons Ratio (x) = 0.22344 0.06288
# Poissons Ratio (y) = 0.28732 -0.15989
# Poissons Ratio (z) = 0.21386 -0.42287
#
# Static dielectric constant tensor:
#      x y z
#    x 1.744120 0.000000 0.010870 
#    y 0.000000 1.687640 0.000000 
#    z 0.010870 0.000000 1.732620 
# 
# From -- ./inp_files/292520.got.cif
#   From: 2010.05.17/outbox.cif.g08.bks.cpg/sg12_147_cif.got.tgz:292520.got - 2010.06.03 13:09:07.
