data_PCOD9201649
_publ_section_title
;
Structure prediction by ZEFSAII (Michael W. Deem and Ramdas Pophale) SiO2 
 PCOD9201649
Probable space group: C 2/M
;
_chemical_formula_sum "Si O2"
_cell_formula_units_Z 64
_cell_length_a 15.753475
_cell_length_b 14.496352
_cell_length_c 17.878103
_cell_angle_alpha 90.000000
_cell_angle_beta 133.123870
_cell_angle_gamma 90.000000
_cell_volume 2979.933259
_symmetry_space_group_name_H-M "C 2/M"
_symmetry_group_IT_number 12
_symmetry_cell_setting 'monoclinic'
loop_
_space_group_symop_operation_xyz
x,y,z
-x,y,-z
-x,-y,-z
x,-y,z
1/2+x,1/2+y,z
1/2-x,1/2+y,-z
1/2-x,1/2-y,-z
1/2+x,1/2-y,z
loop_
_atom_site_type_symbol
_atom_site_label
_atom_site_fract_x
_atom_site_fract_y
_atom_site_fract_z
Si Si1 0.773969 0.288690 0.175152
Si Si2 0.364459 0.101703 0.893997
Si Si3 0.709579 0.895768 0.480817
Si Si4 0.472777 0.606246 0.655253
Si Si5 0.881449 0.600477 0.728206
Si Si6 0.059982 0.766129 0.836147
Si Si7 0.058793 0.103896 0.115017
Si Si8 0.499449 0.774703 0.585659
O O1 0.708312 0.190616 0.129004
O O2 0.825013 0.292344 0.120131
O O3 0.682529 0.353811 0.163916
O O4 0.887014 0.298593 0.297000
O O5 0.348551 0.098699 0.794846
O O6 0.329284 0.000000 0.902541
O O7 0.500000 0.113847 0.000000
O O8 0.836019 0.883062 0.591873
O O9 0.716588 0.891360 0.394422
O O10 0.614204 0.822809 0.448108
O O11 0.670370 0.000000 0.476140
O O12 0.501346 0.500000 0.664826
O O13 0.544801 0.656575 0.762966
O O14 0.491550 0.664892 0.591993
O O15 0.939466 0.500000 0.748382
O O16 0.962729 0.687976 0.768825
O O17 0.021617 0.823860 0.886593
O O18 0.067738 0.000000 0.155257
O O19 0.000000 0.093408 0.000000
O O20 0.500000 0.801242 0.500000
#
# Coordination Sequence:
#
# PCOD9201649 Si02
#       8
#     8   8   8   8   8   8   8   8
#     4  11  24  41  67  97 128 178 215 277 327 403
#     4  10  22  41  65  93 124 161 213 274 333 393
#     4  10  21  39  61  87 121 166 217 264 321 392
#     4  10  22  39  61  88 121 171 218 263 322 390
#     4  10  20  37  63  91 123 161 207 266 324 381
#     4  11  23  42  68  95 132 175 219 272 330 398
#     4  11  26  47  69  98 136 177 225 279 336 401
#     4  11  25  38  59  93 130 165 209 266 325 391
#
# _framework density 21.476991000000002
#
# number of rings (size 3 to 8) (size 9 to 14) (size 15 to 20)
#    0.000    1.500    3.750    1.125    3.500    4.500 
#    0.000    0.000    0.000    0.000    0.000    0.000 
#    0.000    0.000    0.000    0.000    0.000    0.000 
#
# Total GULP energy -178162.388419 kJ/mol
# GULP energy per Si atom -5567.574638 kJ/mol
# Density = 2.142811 g / cm^3
# Si number density = 21.476991 Si / 1000 Ang^3
#
#
#
# Elastic Constant Matrix: (Units=GPa)
#
#
# Indices 1 2 3 4 5 6 
#
# 1 64.0731 4.3065 11.1748 0.0000 -9.0355 0.0000
# 2 4.3065 67.0232 -10.3537 0.0000 0.4551 0.0000
# 3 11.1748 -10.3537 35.1403 0.0000 -7.8549 0.0000
# 4 0.0000 0.0000 0.0000 23.5813 0.0000 6.2815
# 5 -9.0355 0.4551 -7.8549 0.0000 26.0548 0.0000
# 6 0.0000 0.0000 0.0000 6.2815 0.0000 15.3088
#
#
#
# Elastic Compliance Matrix: (Units=1/GPa)
#
#
# Indices 1 2 3 4 5 6 
#
# 1 0.017250 -0.001918 -0.005046 0.000000 0.004494 0.000000
# 2 -0.001918 0.015880 0.005445 0.000000 0.000699 0.000000
# 3 -0.005046 0.005445 0.033512 0.000000 0.008258 0.000000
# 4 0.000000 0.000000 0.000000 0.047610 0.000000 -0.019535
# 5 0.004494 0.000699 0.008258 0.000000 0.042417 0.000000
# 6 0.000000 0.000000 0.000000 -0.019535 0.000000 0.073338
#
#
# Mechanical properties :
#
#
# Convention : Reuss Voigt Hill
#
# Bulk Modulus (GPa) = 15.72246 19.61020 17.66633
# Shear Modulus (GPa) = 19.66592 23.72958 21.69775
#
# Velocity S-wave (km/s) = 3.02929 3.32759 3.18194
# Velocity P-wave (km/s) = 4.42402 4.89023 4.66296
#
# Compressibility (1/GPa) = 0.06360328
#
# Stress axis : x y z
#
# Youngs Moduli (GPa) = 57.97105 62.97271 29.83971
#
# Poissons Ratio (x) = 0.12081 0.15058
# Poissons Ratio (y) = 0.11121 -0.16248
# Poissons Ratio (z) = 0.29253 -0.34290
#
# Static dielectric constant tensor:
#      x y z
#    x 1.895040 0.000000 0.017620 
#    y 0.000000 1.845040 0.000000 
#    z 0.017620 0.000000 1.794390 
# 
# From -- ./inp_files/270716.got.cif
#   From: 2010.05.17/outbox.cif.g08.bks.cpg/sg12_136_cif.got.tgz:270716.got - 2010.06.03 13:09:07.
