data_PCOD9201231
_publ_section_title
;
Structure prediction by ZEFSAII (Michael W. Deem and Ramdas Pophale) SiO2 
 PCOD9201231
Probable space group: C 2/M
;
_chemical_formula_sum "Si O2"
_cell_formula_units_Z 40
_cell_length_a 11.075194
_cell_length_b 25.262724
_cell_length_c 14.604125
_cell_angle_alpha 90.000000
_cell_angle_beta 152.066444
_cell_angle_gamma 90.000000
_cell_volume 1914.114099
_symmetry_space_group_name_H-M "C 2/M"
_symmetry_group_IT_number 12
_symmetry_cell_setting 'monoclinic'
loop_
_space_group_symop_operation_xyz
x,y,z
-x,y,-z
-x,-y,-z
x,-y,z
1/2+x,1/2+y,z
1/2-x,1/2+y,-z
1/2-x,1/2-y,-z
1/2+x,1/2-y,z
loop_
_atom_site_type_symbol
_atom_site_label
_atom_site_fract_x
_atom_site_fract_y
_atom_site_fract_z
Si Si1 0.559522 0.320438 0.137523
Si Si2 0.248334 0.205160 0.772879
Si Si3 0.980629 0.648150 0.198931
Si Si4 0.723039 0.939162 0.073076
Si Si5 0.837951 0.140923 0.601229
O O1 0.716203 0.267038 0.223288
O O2 0.690893 0.349676 0.310072
O O3 0.500000 0.348300 0.000000
O O4 0.260675 0.311448 0.967432
O O5 0.288666 0.172694 0.706626
O O6 0.002684 0.189375 0.667732
O O7 0.500000 0.189190 0.000000
O O8 0.085057 0.637568 0.370282
O O9 0.876343 0.595636 0.078985
O O10 0.974887 0.909803 0.281690
O O11 0.774584 0.000000 0.083626
O O12 0.500000 0.937957 0.000000
#
# Coordination Sequence:
#
# PCOD9201231 Si02
#       5
#     8   8   8   8   8
#     4  10  24  39  55  80 119 160 201 238 279 337
#     4  11  19  37  57  78 118 158 191 231 284 343
#     4  11  21  38  59  84 117 155 192 239 286 344
#     4  10  20  37  61  89 121 150 182 236 301 355
#     4  11  22  39  58  87 119 154 194 241 290 341
#
# _framework density 20.897396000000001
#
# number of rings (size 3 to 8) (size 9 to 14) (size 15 to 20)
#    0.000    1.400    6.000    1.200    2.800    2.400 
#    7.200    2.000    0.000    9.600    0.000   11.200 
#    0.000    0.000    0.000    0.000    0.000    0.000 
#
# Total GULP energy -111686.792466 kJ/mol
# GULP energy per Si atom -5584.339623 kJ/mol
# Density = 2.084983 g / cm^3
# Si number density = 20.897396 Si / 1000 Ang^3
#
#
#
# Elastic Constant Matrix: (Units=GPa)
#
#
# Indices 1 2 3 4 5 6 
#
# 1 72.5641 20.9880 25.9716 0.0033 -20.2840 -0.0028
# 2 20.9880 109.4100 28.1809 0.0013 -3.9159 -0.0035
# 3 25.9716 28.1809 131.2645 0.0082 -26.4686 -0.0089
# 4 0.0033 0.0013 0.0082 0.0582 0.0031 0.1459
# 5 -20.2840 -3.9159 -26.4686 0.0031 49.3499 -0.0032
# 6 -0.0028 -0.0035 -0.0089 0.1459 -0.0032 11.2817
#
#
#
# Elastic Compliance Matrix: (Units=1/GPa)
#
#
# Indices 1 2 3 4 5 6 
#
# 1 0.016723 -0.002593 -0.001578 -0.001014 0.005821 0.000017
# 2 -0.002593 0.010084 -0.001912 0.000270 -0.001291 -0.000003
# 3 -0.001578 -0.001912 0.009172 -0.001447 0.004119 0.000026
# 4 -0.001014 0.000270 -0.001447 17.753303 -0.002307 -0.229673
# 5 0.005821 -0.001291 0.004119 -0.002307 0.024763 0.000041
# 6 0.000017 -0.000003 0.000026 -0.229673 0.000041 0.091610
#
#
# Mechanical properties :
#
#
# Convention : Reuss Voigt Hill
#
# Bulk Modulus (GPa) = 41.99653 51.50219 46.74936
# Shear Modulus (GPa) = 0.27893 28.01117 14.14505
#
# Velocity S-wave (km/s) = 0.36574 3.66514 2.60452
# Velocity P-wave (km/s) = 4.50761 6.52762 5.60929
#
# Compressibility (1/GPa) = 0.02381149
#
# Stress axis : x y z
#
# Youngs Moduli (GPa) = 59.79747 99.17022 109.03215
#
# Poissons Ratio (x) = 0.25716 0.17207
# Poissons Ratio (y) = 0.15506 0.20849
# Poissons Ratio (z) = 0.09437 0.18963
#
# Static dielectric constant tensor:
#      x y z
#    x 1.850010 0.000000 -0.007160 
#    y 0.000000 1.730670 0.000000 
#    z -0.007160 0.000000 1.778810 
# 
# From -- ./inp_files/208542.got.cif
#   From: 2010.05.17/outbox.cif.g08.bks.cpg/sg12_105_cif.got.tgz:208542.got - 2010.06.03 13:09:07.
