data_PCOD9201200
_publ_section_title
;
Structure prediction by ZEFSAII (Michael W. Deem and Ramdas Pophale) SiO2 
 PCOD9201200
Probable space group: C 2/M
;
_chemical_formula_sum "Si O2"
_cell_formula_units_Z 40
_cell_length_a 24.336519
_cell_length_b 8.222015
_cell_length_c 13.930342
_cell_angle_alpha 90.000000
_cell_angle_beta 143.404880
_cell_angle_gamma 90.000000
_cell_volume 1661.723578
_symmetry_space_group_name_H-M "C 2/M"
_symmetry_group_IT_number 12
_symmetry_cell_setting 'monoclinic'
loop_
_space_group_symop_operation_xyz
x,y,z
-x,y,-z
-x,-y,-z
x,-y,z
1/2+x,1/2+y,z
1/2-x,1/2+y,-z
1/2-x,1/2-y,-z
1/2+x,1/2-y,z
loop_
_atom_site_type_symbol
_atom_site_label
_atom_site_fract_x
_atom_site_fract_y
_atom_site_fract_z
Si Si1 0.449101 0.687946 0.831866
Si Si2 0.108918 0.697005 0.770491
Si Si3 0.575484 0.189089 0.405150
Si Si4 0.220142 0.682769 0.313741
Si Si5 0.222468 0.808101 0.114105
O O1 0.475430 0.500000 0.852202
O O2 0.467005 0.788015 0.760924
O O3 0.340596 0.701075 0.704964
O O4 0.500000 0.745483 0.000000
O O5 0.111254 0.500000 0.781903
O O6 0.172723 0.737646 0.769160
O O7 0.002434 0.745538 0.629178
O O8 0.161082 0.771324 0.935367
O O9 0.671428 0.282461 0.536197
O O10 0.595597 0.000000 0.451986
O O11 0.200909 0.500000 0.318103
O O12 0.190696 0.712163 0.162477
O O13 0.219538 0.000000 0.131664
#
# Coordination Sequence:
#
# PCOD9201200 Si02
#       5
#     8   8   8   8   8
#     4  11  24  42  64  89 116 149 191 238 289 346
#     4   9  20  38  61  88 118 155 195 237 288 344
#     4  11  23  40  61  86 119 155 193 238 289 345
#     4  12  25  40  59  85 119 156 195 239 290 345
#     4  10  20  37  61  88 119 154 195 241 287 340
#
# _framework density 24.071393
#
# number of rings (size 3 to 8) (size 9 to 14) (size 15 to 20)
#    0.000    1.400    0.000    5.400    0.000    8.000 
#    0.000    4.000    0.000    0.000    0.000    0.000 
#    0.000    0.000    0.000    0.000    0.000    0.000 
#
# Total GULP energy -111977.434491 kJ/mol
# GULP energy per Si atom -5598.871725 kJ/mol
# Density = 2.401661 g / cm^3
# Si number density = 24.071393 Si / 1000 Ang^3
#
#
#
# Elastic Constant Matrix: (Units=GPa)
#
#
# Indices 1 2 3 4 5 6 
#
# 1 104.4224 4.7975 5.5297 0.0000 21.4512 0.0000
# 2 4.7975 28.3680 -4.2702 0.0000 -0.0381 0.0000
# 3 5.5297 -4.2702 61.8168 0.0000 12.7390 0.0000
# 4 0.0000 0.0000 0.0000 26.1057 0.0000 -1.5990
# 5 21.4512 -0.0381 12.7390 0.0000 39.6731 0.0000
# 6 0.0000 0.0000 0.0000 -1.5990 0.0000 19.6999
#
#
#
# Elastic Compliance Matrix: (Units=1/GPa)
#
#
# Indices 1 2 3 4 5 6 
#
# 1 0.010870 -0.001828 0.000121 0.000000 -0.005918 0.000000
# 2 -0.001828 0.035953 0.002609 0.000000 0.000185 0.000000
# 3 0.000121 0.002609 0.017518 0.000000 -0.005688 0.000000
# 4 0.000000 0.000000 0.000000 0.038497 0.000000 0.003125
# 5 -0.005918 0.000185 -0.005688 0.000000 0.030232 0.000000
# 6 0.000000 0.000000 0.000000 0.003125 0.000000 0.051015
#
#
# Mechanical properties :
#
#
# Convention : Reuss Voigt Hill
#
# Bulk Modulus (GPa) = 15.11830 22.96901 19.04366
# Shear Modulus (GPa) = 24.47015 29.66576 27.06796
#
# Velocity S-wave (km/s) = 3.19182 3.51437 3.35697
# Velocity P-wave (km/s) = 4.45846 5.10201 4.79105
#
# Compressibility (1/GPa) = 0.06614500
#
# Stress axis : x y z
#
# Youngs Moduli (GPa) = 91.99839 27.81404 57.08275
#
# Poissons Ratio (x) = 0.05084 -0.00690
# Poissons Ratio (y) = 0.16817 -0.14893
# Poissons Ratio (z) = -0.01112 -0.07257
#
# Static dielectric constant tensor:
#      x y z
#    x 1.894320 0.000000 0.024560 
#    y 0.000000 1.817870 0.000000 
#    z 0.024560 0.000000 1.999100 
# 
# From -- ./inp_files/220576.got.cif
#   From: 2010.05.17/outbox.cif.g08.bks.cpg/sg12_111_cif.got.tgz:220576.got - 2010.06.03 13:09:07.
