data_PCOD9201545
_publ_section_title
;
Structure prediction by ZEFSAII (Michael W. Deem and Ramdas Pophale) SiO2 
 PCOD9201545
Probable space group: C 2/M
;
_chemical_formula_sum "Si O2"
_cell_formula_units_Z 48
_cell_length_a 11.138941
_cell_length_b 24.521616
_cell_length_c 9.060871
_cell_angle_alpha 90.000000
_cell_angle_beta 55.210087
_cell_angle_gamma 90.000000
_cell_volume 2032.535534
_symmetry_space_group_name_H-M "C 2/M"
_symmetry_group_IT_number 12
_symmetry_cell_setting 'monoclinic'
loop_
_space_group_symop_operation_xyz
x,y,z
-x,y,-z
-x,-y,-z
x,-y,z
1/2+x,1/2+y,z
1/2-x,1/2+y,-z
1/2-x,1/2-y,-z
1/2+x,1/2-y,z
loop_
_atom_site_type_symbol
_atom_site_label
_atom_site_fract_x
_atom_site_fract_y
_atom_site_fract_z
Si Si1 0.919859 0.366033 0.716880
Si Si2 0.805991 0.061935 0.283921
Si Si3 0.436368 0.776069 0.211394
Si Si4 0.665642 0.652569 0.320759
Si Si5 0.500713 0.658749 0.173516
Si Si6 0.641633 0.060475 0.707439
O O1 0.772583 0.399116 0.781069
O O2 0.000000 0.364729 0.500000
O O3 0.946753 0.305607 0.762577
O O4 0.998927 0.402769 0.786755
O O5 0.937188 0.099109 0.252974
O O6 0.698830 0.056596 0.498522
O O7 0.839924 0.000000 0.210514
O O8 0.283874 0.808544 0.314721
O O9 0.411036 0.713449 0.274616
O O10 0.500000 0.777936 0.000000
O O11 0.500000 0.656524 0.500000
O O12 0.649430 0.665525 0.159151
O O13 0.734338 0.592911 0.292768
O O14 0.500000 0.660328 0.000000
O O15 0.614731 0.000000 0.781882
#
# Coordination Sequence:
#
# PCOD9201545 Si02
#       6
#     8   8   8   8   8   8
#     4   9  19  37  63  96 121 163 212 266 304 365
#     4  10  20  37  62  91 125 163 209 259 314 372
#     4  10  25  43  65  90 128 174 207 252 320 383
#     4  11  23  42  63  96 123 161 214 262 312 368
#     4  11  26  41  61  90 128 168 207 256 321 381
#     4   9  18  37  62  90 124 163 209 257 313 370
#
# _framework density 23.615824
#
# number of rings (size 3 to 8) (size 9 to 14) (size 15 to 20)
#    0.000    2.000    1.667    0.500    4.667    6.000 
#    0.000    0.000    0.000    2.500    0.000    0.000 
#    0.000    0.000    0.000    0.000    0.000    0.000 
#
# Total GULP energy -133880.508166 kJ/mol
# GULP energy per Si atom -5578.354507 kJ/mol
# Density = 2.356207 g / cm^3
# Si number density = 23.615824 Si / 1000 Ang^3
#
#
#
# Elastic Constant Matrix: (Units=GPa)
#
#
# Indices 1 2 3 4 5 6 
#
# 1 106.3491 39.6987 19.6689 0.0000 12.7249 0.0000
# 2 39.6987 140.1334 30.5121 0.0000 2.7359 0.0000
# 3 19.6689 30.5121 54.4944 0.0000 11.4999 0.0000
# 4 0.0000 0.0000 0.0000 17.6459 0.0000 14.1071
# 5 12.7249 2.7359 11.4999 0.0000 34.4153 0.0000
# 6 0.0000 0.0000 0.0000 14.1071 0.0000 8.9756
#
#
#
# Elastic Compliance Matrix: (Units=1/GPa)
#
#
# Indices 1 2 3 4 5 6 
#
# 1 0.011140 -0.002696 -0.001815 0.000000 -0.003298 0.000000
# 2 -0.002696 0.008808 -0.004326 0.000000 0.001742 0.000000
# 3 -0.001815 -0.004326 0.022823 0.000000 -0.006611 0.000000
# 4 0.000000 0.000000 0.000000 -0.220921 0.000000 0.347227
# 5 -0.003298 0.001742 -0.006611 0.000000 0.032347 0.000000
# 6 0.000000 0.000000 0.000000 0.347227 0.000000 -0.434330
#
#
# Mechanical properties :
#
#
# Convention : Reuss Voigt Hill
#
# Bulk Modulus (GPa) = 39.84733 53.41515 46.63124
# Shear Modulus (GPa) = -9.02375 26.28052 8.62838
#
# Velocity S-wave (km/s) = -1.95687 3.33954 1.91352
# Velocity P-wave (km/s) = 3.43569 6.12678 4.96696
#
# Compressibility (1/GPa) = 0.02509579
#
# Stress axis : x y z
#
# Youngs Moduli (GPa) = 89.76848 113.53562 43.81533
#
# Poissons Ratio (x) = 0.30612 0.07953
# Poissons Ratio (y) = 0.24203 0.18955
# Poissons Ratio (z) = 0.16294 0.49117
#
# Static dielectric constant tensor:
#      x y z
#    x 1.885980 0.000000 -0.042380 
#    y 0.000000 1.904520 0.000000 
#    z -0.042380 0.000000 1.997710 
# 
# From -- ./inp_files/51314.got.cif
#   From: 2010.05.17/outbox.cif.g08.bks.cpg/sg12_26_cif.got.tgz:51314.got - 2010.06.03 13:09:07.
