data_PCOD9201342
_publ_section_title
;
Structure prediction by ZEFSAII (Michael W. Deem and Ramdas Pophale) SiO2 
 PCOD9201342
Probable space group: C 2/M
;
_chemical_formula_sum "Si O2"
_cell_formula_units_Z 24
_cell_length_a 11.937044
_cell_length_b 20.512358
_cell_length_c 11.273475
_cell_angle_alpha 90.000000
_cell_angle_beta 25.798748
_cell_angle_gamma 90.000000
_cell_volume 1201.352557
_symmetry_space_group_name_H-M "C 2/M"
_symmetry_group_IT_number 12
_symmetry_cell_setting 'monoclinic'
loop_
_space_group_symop_operation_xyz
x,y,z
-x,y,-z
-x,-y,-z
x,-y,z
1/2+x,1/2+y,z
1/2-x,1/2+y,-z
1/2-x,1/2-y,-z
1/2+x,1/2-y,z
loop_
_atom_site_type_symbol
_atom_site_label
_atom_site_fract_x
_atom_site_fract_y
_atom_site_fract_z
Si Si1 0.259308 0.687391 0.406321
Si Si2 0.202706 0.365674 0.016909
Si Si3 0.000000 0.270785 0.000000
Si Si4 0.264750 0.500000 0.819099
O O1 0.250000 0.750000 0.500000
O O2 0.283284 0.721929 0.256571
O O3 0.028675 0.640661 0.667245
O O4 0.533577 0.655312 0.173102
O O5 0.120755 0.316710 0.987169
O O6 0.255207 0.435572 0.908617
O O7 0.500000 0.500000 0.500000
O O8 0.000000 0.500000 0.000000
#
# Coordination Sequence:
#
# PCOD9201342 Si02
#       4
#     8   8   4   4
#     4  10  22  36  57  87 119 155 189 244 293 347
#     4  11  23  38  58  89 119 151 198 238 296 348
#     4  10  20  37  62  85 122 148 194 242 300 350
#     4  12  24  40  62  85 120 161 192 244 294 351
#
# _framework density 19.977482999999999
#
# number of rings (size 3 to 8) (size 9 to 14) (size 15 to 20)
#    0.000    1.333    1.667    6.000    4.667    6.667 
#    0.000    0.000    0.000    6.000    0.000    0.000 
#    0.000    0.000    0.000    0.000    0.000    0.000 
#
# Total GULP energy -66976.951687 kJ/mol
# GULP energy per Si atom -5581.412641 kJ/mol
# Density = 1.993201 g / cm^3
# Si number density = 19.977483 Si / 1000 Ang^3
#
#
#
# Elastic Constant Matrix: (Units=GPa)
#
#
# Indices 1 2 3 4 5 6 
#
# 1 42.1783 43.8631 37.2396 0.0065 6.3833 0.0102
# 2 43.8631 138.6282 72.2342 0.0630 15.3855 -0.0283
# 3 37.2396 72.2342 194.8135 0.1503 5.9247 -0.0526
# 4 0.0065 0.0630 0.1503 28.8637 -0.0564 11.2152
# 5 6.3833 15.3855 5.9247 -0.0564 46.4421 0.0144
# 6 0.0102 -0.0283 -0.0526 11.2152 0.0144 38.2057
#
#
#
# Elastic Compliance Matrix: (Units=1/GPa)
#
#
# Indices 1 2 3 4 5 6 
#
# 1 0.037150 -0.009816 -0.003419 0.000041 -0.001418 -0.000033
# 2 -0.009816 0.011846 -0.002447 -0.000021 -0.002263 0.000015
# 3 -0.003419 -0.002447 0.006681 -0.000035 0.000428 0.000018
# 4 0.000041 -0.000021 -0.000035 0.039107 0.000057 -0.011480
# 5 -0.001418 -0.002263 0.000428 0.000057 0.022422 -0.000026
# 6 -0.000033 0.000015 0.000018 -0.011480 -0.000026 0.029544
#
#
# Mechanical properties :
#
#
# Convention : Reuss Voigt Hill
#
# Bulk Modulus (GPa) = 41.12975 75.81043 58.47009
# Shear Modulus (GPa) = 26.85048 37.52117 32.18582
#
# Velocity S-wave (km/s) = 3.67009 4.33849 4.01821
# Velocity P-wave (km/s) = 6.21226 7.94525 7.13159
#
# Compressibility (1/GPa) = 0.02431330
#
# Stress axis : x y z
#
# Youngs Moduli (GPa) = 26.91805 84.42003 149.67941
#
# Poissons Ratio (x) = 0.82865 0.51172
# Poissons Ratio (y) = 0.26422 0.36626
# Poissons Ratio (z) = 0.09203 0.20657
#
# Static dielectric constant tensor:
#      x y z
#    x 1.698190 0.000050 0.024400 
#    y 0.000050 1.686860 -0.000020 
#    z 0.024400 -0.000020 1.768550 
# 
# From -- ./inp_files/5183.got.cif
#   From: 2010.05.17/outbox.cif.g08.bks.cpg/sg12_3_cif.got.tgz:5183.got - 2010.06.03 13:09:07.
