data_PCOD9201140
_publ_section_title
;
Structure prediction by ZEFSAII (Michael W. Deem and Ramdas Pophale) SiO2 
 PCOD9201140
Probable space group: C 2/M
;
_chemical_formula_sum "Si O2"
_cell_formula_units_Z 56
_cell_length_a 8.857895
_cell_length_b 26.219125
_cell_length_c 18.970491
_cell_angle_alpha 90.000000
_cell_angle_beta 137.680030
_cell_angle_gamma 90.000000
_cell_volume 2966.311313
_symmetry_space_group_name_H-M "C 2/M"
_symmetry_group_IT_number 12
_symmetry_cell_setting 'monoclinic'
loop_
_space_group_symop_operation_xyz
x,y,z
-x,y,-z
-x,-y,-z
x,-y,z
1/2+x,1/2+y,z
1/2-x,1/2+y,-z
1/2-x,1/2-y,-z
1/2+x,1/2-y,z
loop_
_atom_site_type_symbol
_atom_site_label
_atom_site_fract_x
_atom_site_fract_y
_atom_site_fract_z
Si Si1 0.326678 0.657093 0.003733
Si Si2 0.640369 0.800371 0.207523
Si Si3 0.386470 0.000000 0.383083
Si Si4 0.248419 0.500000 0.385111
Si Si5 0.479537 0.693665 0.779978
Si Si6 0.950763 0.441423 0.065620
Si Si7 0.248128 0.396186 0.617836
Si Si8 0.703839 0.593260 0.701601
O O1 0.239384 0.598935 0.979340
O O2 0.106401 0.689981 0.909181
O O3 0.500000 0.662874 0.000000
O O4 0.431198 0.674217 0.113840
O O5 0.639672 0.747592 0.248663
O O6 0.814008 0.799472 0.202721
O O7 0.705569 0.849408 0.277649
O O8 0.500000 0.000000 0.500000
O O9 0.572918 0.000000 0.387706
O O10 0.249517 0.052290 0.334788
O O11 0.500000 0.500000 0.500000
O O12 0.227188 0.551356 0.331576
O O13 0.320533 0.651709 0.689419
O O14 0.894748 0.500000 0.062991
O O15 0.174443 0.425116 0.184666
O O16 0.000000 0.436909 0.000000
O O17 0.437525 0.404311 0.623133
O O18 0.000000 0.389748 0.500000
#
# Coordination Sequence:
#
# PCOD9201140 Si02
#       8
#     8   8   4   4   8   8   8   8
#     4  11  22  37  58  88 122 155 199 248 294 358
#     4  10  22  39  63  85 123 157 203 242 300 363
#     4  10  22  38  58  84 113 151 197 248 295 348
#     4  12  22  36  61  86 116 155 199 248 298 348
#     4  11  22  40  61  89 117 164 199 248 301 354
#     4  10  20  37  61  86 120 163 198 239 301 367
#     4  10  21  40  62  86 120 156 202 246 295 355
#     4  10  21  40  61  87 119 161 201 247 298 356
#
# _framework density 18.878665999999999
#
# number of rings (size 3 to 8) (size 9 to 14) (size 15 to 20)
#    0.000    1.571    0.714    6.429    0.000    3.714 
#    1.286    3.571    0.000    0.000    0.000    0.000 
#    0.000    0.000    0.000    0.000    0.000    0.000 
#
# Total GULP energy -156430.006510 kJ/mol
# GULP energy per Si atom -5586.785947 kJ/mol
# Density = 1.883570 g / cm^3
# Si number density = 18.878666 Si / 1000 Ang^3
#
#
#
# Elastic Constant Matrix: (Units=GPa)
#
#
# Indices 1 2 3 4 5 6 
#
# 1 111.2733 73.3936 50.5887 0.0000 3.1127 0.0000
# 2 73.3936 174.8265 50.0635 0.0000 -0.3099 0.0000
# 3 50.5887 50.0635 69.5198 0.0000 8.3198 0.0000
# 4 0.0000 0.0000 0.0000 16.6326 0.0000 -1.6499
# 5 3.1127 -0.3099 8.3198 0.0000 20.9143 0.0000
# 6 0.0000 0.0000 0.0000 -1.6499 0.0000 25.8752
#
#
#
# Elastic Compliance Matrix: (Units=1/GPa)
#
#
# Indices 1 2 3 4 5 6 
#
# 1 0.015496 -0.004082 -0.008456 0.000000 0.000997 0.000000
# 2 -0.004082 0.008386 -0.003314 0.000000 0.002050 0.000000
# 3 -0.008456 -0.003314 0.023918 0.000000 -0.008305 0.000000
# 4 0.000000 0.000000 0.000000 0.060506 0.000000 0.003858
# 5 0.000997 0.002050 -0.008305 0.000000 0.051000 0.000000
# 6 0.000000 0.000000 0.000000 0.003858 0.000000 0.038893
#
#
# Mechanical properties :
#
#
# Convention : Reuss Voigt Hill
#
# Bulk Modulus (GPa) = 62.12629 78.19013 70.15821
# Shear Modulus (GPa) = 21.25234 24.78933 23.02083
#
# Velocity S-wave (km/s) = 3.35883 3.62759 3.49579
# Velocity P-wave (km/s) = 6.92979 7.68459 7.31693
#
# Compressibility (1/GPa) = 0.01609625
#
# Stress axis : x y z
#
# Youngs Moduli (GPa) = 64.53395 119.24169 41.80931
#
# Poissons Ratio (x) = 0.48675 0.35353
# Poissons Ratio (y) = 0.26343 0.13856
# Poissons Ratio (z) = 0.54568 0.39519
#
# Static dielectric constant tensor:
#      x y z
#    x 1.634970 0.000000 0.000420 
#    y 0.000000 1.689870 0.000000 
#    z 0.000420 0.000000 1.646210 
# 
# From -- ./inp_files/259906.got.cif
#   From: 2010.05.17/outbox.cif.g08.bks.cpg/sg12_130_cif.got.tgz:259906.got - 2010.06.03 13:09:07.
