data_PCOD9201762
_publ_section_title
;
Structure prediction by ZEFSAII (Michael W. Deem and Ramdas Pophale) SiO2 
 PCOD9201762
Probable space group: C 2/M
;
_chemical_formula_sum "Si O2"
_cell_formula_units_Z 44
_cell_length_a 7.830748
_cell_length_b 24.734583
_cell_length_c 12.101893
_cell_angle_alpha 90.000000
_cell_angle_beta 123.013659
_cell_angle_gamma 90.000000
_cell_volume 1965.555446
_symmetry_space_group_name_H-M "C 2/M"
_symmetry_group_IT_number 12
_symmetry_cell_setting 'monoclinic'
loop_
_space_group_symop_operation_xyz
x,y,z
-x,y,-z
-x,-y,-z
x,-y,z
1/2+x,1/2+y,z
1/2-x,1/2+y,-z
1/2-x,1/2-y,-z
1/2+x,1/2-y,z
loop_
_atom_site_type_symbol
_atom_site_label
_atom_site_fract_x
_atom_site_fract_y
_atom_site_fract_z
Si Si1 0.723311 0.000000 0.451714
Si Si2 0.500000 0.094881 0.500000
Si Si3 0.640487 0.306925 0.944479
Si Si4 0.152289 0.500000 0.809609
Si Si5 0.704120 0.686875 0.354946
Si Si6 0.500000 0.281964 0.500000
Si Si7 0.785176 0.423144 0.973841
Si Si8 0.014372 0.000000 0.257087
O O1 0.629970 0.055651 0.468416
O O2 0.593928 0.000000 0.290810
O O3 0.942802 0.000000 0.595272
O O4 0.344926 0.135048 0.382516
O O5 0.491848 0.307030 0.788158
O O6 0.500000 0.317177 0.000000
O O7 0.750000 0.250000 0.000000
O O8 0.780604 0.358969 0.980464
O O9 0.227446 0.449525 0.909291
O O10 0.269780 0.500000 0.733573
O O11 0.626079 0.685107 0.454151
O O12 0.841175 0.740416 0.387912
O O13 0.610433 0.448463 0.833570
O O14 0.000000 0.440257 0.000000
#
# Coordination Sequence:
#
# PCOD9201762 Si02
#       8
#     4   4   8   4   8   4   8   4
#     4  11  22  38  65 101 124 158 215 275 316 392
#     4  10  20  37  64  90 128 159 208 260 324 378
#     4  12  25  41  65  96 130 171 217 268 318 384
#     4  11  21  41  68  96 120 169 217 267 332 386
#     4  10  21  40  64  92 124 168 206 263 316 383
#     4   9  20  41  64  90 124 163 212 253 322 378
#     4  11  25  43  63  92 131 177 216 265 324 393
#     4  11  19  41  70  94 128 167 219 273 328 386
#
# _framework density 22.385529999999999
#
# number of rings (size 3 to 8) (size 9 to 14) (size 15 to 20)
#    0.000    1.273    1.818    6.000    2.545    0.000 
#    3.273    1.818    0.000    1.636    0.000    0.000 
#    0.000    0.000    0.000    0.000    0.000    0.000 
#
# Total GULP energy -122895.278895 kJ/mol
# GULP energy per Si atom -5586.149041 kJ/mol
# Density = 2.233458 g / cm^3
# Si number density = 22.385530 Si / 1000 Ang^3
#
#
#
# Elastic Constant Matrix: (Units=GPa)
#
#
# Indices 1 2 3 4 5 6 
#
# 1 57.5155 11.0820 2.6283 0.0000 12.9908 0.0000
# 2 11.0820 145.4345 52.4177 0.0000 17.3625 0.0000
# 3 2.6283 52.4177 127.8626 0.0000 19.5675 0.0000
# 4 0.0000 0.0000 0.0000 23.6248 0.0000 13.5177
# 5 12.9908 17.3625 19.5675 0.0000 35.7239 0.0000
# 6 0.0000 0.0000 0.0000 13.5177 0.0000 28.1331
#
#
#
# Elastic Compliance Matrix: (Units=1/GPa)
#
#
# Indices 1 2 3 4 5 6 
#
# 1 0.019128 -0.001011 0.001103 0.000000 -0.007068 0.000000
# 2 -0.001011 0.008299 -0.003078 0.000000 -0.001979 0.000000
# 3 0.001103 -0.003078 0.009706 0.000000 -0.004221 0.000000
# 4 0.000000 0.000000 0.000000 0.058378 0.000000 -0.028050
# 5 -0.007068 -0.001979 -0.004221 0.000000 0.033837 0.000000
# 6 0.000000 0.000000 0.000000 -0.028050 0.000000 0.049023
#
#
# Mechanical properties :
#
#
# Convention : Reuss Voigt Hill
#
# Bulk Modulus (GPa) = 32.09290 51.45206 41.77248
# Shear Modulus (GPa) = 25.67645 35.14200 30.40923
#
# Velocity S-wave (km/s) = 3.39043 3.96644 3.68969
# Velocity P-wave (km/s) = 5.44924 6.63410 6.07065
#
# Compressibility (1/GPa) = 0.03115954
#
# Stress axis : x y z
#
# Youngs Moduli (GPa) = 52.28057 120.49858 103.02621
#
# Poissons Ratio (x) = 0.12185 -0.11365
# Poissons Ratio (y) = 0.05287 0.31716
# Poissons Ratio (z) = -0.05767 0.37095
#
# Static dielectric constant tensor:
#      x y z
#    x 1.896600 0.000000 0.019130 
#    y 0.000000 1.719080 0.000000 
#    z 0.019130 0.000000 1.876370 
# 
# From -- ./inp_files/124528.got.cif
#   From: 2010.05.17/outbox.cif.g08.bks.cpg/sg12_63_cif.got.tgz:124528.got - 2010.06.03 13:09:07.
