data_PCOD9201445
_publ_section_title
;
Structure prediction by ZEFSAII (Michael W. Deem and Ramdas Pophale) SiO2 
 PCOD9201445
Probable space group: C 2/M
;
_chemical_formula_sum "Si O2"
_cell_formula_units_Z 40
_cell_length_a 8.765746
_cell_length_b 11.633500
_cell_length_c 17.487457
_cell_angle_alpha 90.000000
_cell_angle_beta 98.665350
_cell_angle_gamma 90.000000
_cell_volume 1762.950151
_symmetry_space_group_name_H-M "C 2/M"
_symmetry_group_IT_number 12
_symmetry_cell_setting 'monoclinic'
loop_
_space_group_symop_operation_xyz
x,y,z
-x,y,-z
-x,-y,-z
x,-y,z
1/2+x,1/2+y,z
1/2-x,1/2+y,-z
1/2-x,1/2-y,-z
1/2+x,1/2-y,z
loop_
_atom_site_type_symbol
_atom_site_label
_atom_site_fract_x
_atom_site_fract_y
_atom_site_fract_z
Si Si1 0.921375 0.634134 0.416364
Si Si2 0.028386 0.179243 0.088443
Si Si3 0.369090 0.745859 0.682471
Si Si4 0.820568 0.366363 0.049799
Si Si5 0.153894 0.872301 0.775805
O O1 0.890069 0.500000 0.423994
O O2 0.040757 0.655507 0.356367
O O3 0.000000 0.679090 0.500000
O O4 0.763758 0.696253 0.381548
O O5 0.203272 0.138056 0.112926
O O6 0.907500 0.137871 0.142101
O O7 0.990890 0.316612 0.081233
O O8 0.000000 0.130280 0.000000
O O9 0.500105 0.655115 0.715328
O O10 0.286067 0.790502 0.752782
O O11 0.824689 0.500000 0.023440
O O12 0.750000 0.250000 0.000000
O O13 0.209415 0.000000 0.767158
#
# Coordination Sequence:
#
# PCOD9201445 Si02
#       5
#     8   8   8   8   8
#     4  10  20  37  62  89 118 151 187 232 284 343
#     4  10  22  39  60  84 114 154 203 257 305 354
#     4  10  22  38  57  87 118 152 193 235 286 354
#     4  10  22  39  59  85 115 148 193 252 313 369
#     4  11  22  38  58  81 116 158 197 244 300 353
#
# _framework density 22.689240000000002
#
# number of rings (size 3 to 8) (size 9 to 14) (size 15 to 20)
#    0.000    1.800    0.000    3.600    0.000   10.800 
#    0.000    7.000    0.000    9.600    0.000    0.000 
#    0.000    0.000    0.000    0.000    0.000    0.000 
#
# Total GULP energy -111415.953928 kJ/mol
# GULP energy per Si atom -5570.797696 kJ/mol
# Density = 2.263760 g / cm^3
# Si number density = 22.689240 Si / 1000 Ang^3
#
#
#
# Elastic Constant Matrix: (Units=GPa)
#
#
# Indices 1 2 3 4 5 6 
#
# 1 73.4852 6.2730 -10.8733 0.0000 -11.1303 0.0000
# 2 6.2730 116.8982 -5.3763 0.0000 7.4981 0.0000
# 3 -10.8733 -5.3763 66.5480 0.0000 -1.9026 0.0000
# 4 0.0000 0.0000 0.0000 21.0460 0.0000 -4.2815
# 5 -11.1303 7.4981 -1.9026 0.0000 33.6798 0.0000
# 6 0.0000 0.0000 0.0000 -4.2815 0.0000 17.3494
#
#
#
# Elastic Compliance Matrix: (Units=1/GPa)
#
#
# Indices 1 2 3 4 5 6 
#
# 1 0.014865 -0.001022 0.002497 0.000000 0.005281 0.000000
# 2 -0.001022 0.008776 0.000477 0.000000 -0.002265 0.000000
# 3 0.002497 0.000477 0.015519 0.000000 0.001596 0.000000
# 4 0.000000 0.000000 0.000000 0.050026 0.000000 0.012346
# 5 0.005281 -0.002265 0.001596 0.000000 0.032031 0.000000
# 6 0.000000 0.000000 0.000000 0.012346 0.000000 0.060686
#
#
# Mechanical properties :
#
#
# Convention : Reuss Voigt Hill
#
# Bulk Modulus (GPa) = 23.22002 26.33090 24.77546
# Shear Modulus (GPa) = 25.99395 32.20891 29.10143
#
# Velocity S-wave (km/s) = 3.38842 3.77180 3.58524
# Velocity P-wave (km/s) = 5.05615 5.53162 5.29922
#
# Compressibility (1/GPa) = 0.04306629
#
# Stress axis : x y z
#
# Youngs Moduli (GPa) = 67.27325 113.94098 64.43735
#
# Poissons Ratio (x) = 0.11640 -0.16091
# Poissons Ratio (y) = 0.06872 -0.03076
# Poissons Ratio (z) = -0.16800 -0.05439
#
# Static dielectric constant tensor:
#      x y z
#    x 2.018680 0.000000 0.061650 
#    y 0.000000 1.859370 0.000000 
#    z 0.061650 0.000000 1.940210 
# 
# From -- ./inp_files/254684.got.cif
#   From: 2010.05.17/outbox.cif.g08.bks.cpg/sg12_128_cif.got.tgz:254684.got - 2010.06.03 13:09:07.
