data_PCOD9201906
_publ_section_title
;
Structure prediction by ZEFSAII (Michael W. Deem and Ramdas Pophale) SiO2 
 PCOD9201906
Probable space group: C 2/M
;
_chemical_formula_sum "Si O2"
_cell_formula_units_Z 56
_cell_length_a 8.867066
_cell_length_b 13.818239
_cell_length_c 25.375708
_cell_angle_alpha 90.000000
_cell_angle_beta 56.682497
_cell_angle_gamma 90.000000
_cell_volume 2598.183521
_symmetry_space_group_name_H-M "C 2/M"
_symmetry_group_IT_number 12
_symmetry_cell_setting 'monoclinic'
loop_
_space_group_symop_operation_xyz
x,y,z
-x,y,-z
-x,-y,-z
x,-y,z
1/2+x,1/2+y,z
1/2-x,1/2+y,-z
1/2-x,1/2-y,-z
1/2+x,1/2-y,z
loop_
_atom_site_type_symbol
_atom_site_label
_atom_site_fract_x
_atom_site_fract_y
_atom_site_fract_z
Si Si1 0.135278 0.608188 0.023991
Si Si2 0.340184 0.753140 0.812491
Si Si3 0.273733 0.202897 0.274638
Si Si4 0.452253 0.694270 0.901783
Si Si5 0.048968 0.885881 0.604277
Si Si6 0.681565 0.886968 0.346950
Si Si7 0.133763 0.381826 0.522542
O O1 0.119629 0.500000 0.048747
O O2 0.335001 0.628067 0.962585
O O3 0.086799 0.695036 0.072312
O O4 0.000000 0.616615 0.000000
O O5 0.514818 0.816152 0.763706
O O6 0.293849 0.685976 0.771432
O O7 0.385902 0.689252 0.854621
O O8 0.166278 0.816436 0.860544
O O9 0.251527 0.317812 0.288389
O O10 0.143588 0.156962 0.343084
O O11 0.183097 0.874390 0.628964
O O12 0.165297 0.848280 0.531789
O O13 0.022649 0.000000 0.601279
O O14 0.478586 0.856074 0.403826
O O15 0.679902 0.000000 0.334341
O O16 0.141258 0.500000 0.521613
O O17 0.000000 0.356641 0.500000
#
# Coordination Sequence:
#
# PCOD9201906 Si02
#       7
#     8   8   8   8   8   8   8
#     4  10  20  37  66  95 112 141 183 218 262 322
#     4  10  22  37  56  77 118 154 184 208 276 310
#     4  11  20  36  54  80 106 149 188 232 250 331
#     4  10  20  41  60  85 118 152 166 230 266 314
#     4   9  17  32  53  76 103 140 183 231 282 331
#     4   9  17  32  53  76 103 140 183 231 282 331
#     4   7  12  25  48  75 100 129 176 231 283 334
#
# _framework density 21.553519999999999
#
# number of rings (size 3 to 8) (size 9 to 14) (size 15 to 20)
#    0.000    2.571    2.857    1.714    0.000    0.571 
#    0.000   10.714    0.000    0.000    0.000    3.000 
#    0.000    0.000    0.000    0.000    0.000    0.000 
#
# Total GULP energy -156192.667829 kJ/mol
# GULP energy per Si atom -5578.309565 kJ/mol
# Density = 2.150446 g / cm^3
# Si number density = 21.553520 Si / 1000 Ang^3
#
#
#
# Elastic Constant Matrix: (Units=GPa)
#
#
# Indices 1 2 3 4 5 6 
#
# 1 58.2697 5.2918 34.6466 0.0000 -26.6562 0.0000
# 2 5.2918 55.0821 25.4372 0.0000 -0.1980 0.0000
# 3 34.6466 25.4372 131.6863 0.0000 -45.2266 0.0000
# 4 0.0000 0.0000 0.0000 9.7723 0.0000 -0.1658
# 5 -26.6562 -0.1980 -45.2266 0.0000 45.4803 0.0000
# 6 0.0000 0.0000 0.0000 -0.1658 0.0000 7.2705
#
#
#
# Elastic Compliance Matrix: (Units=1/GPa)
#
#
# Indices 1 2 3 4 5 6 
#
# 1 0.023971 -0.001409 -0.001840 0.000000 0.012214 0.000000
# 2 -0.001409 0.021032 -0.005990 0.000000 -0.006691 0.000000
# 3 -0.001840 -0.005990 0.013449 0.000000 0.012269 0.000000
# 4 0.000000 0.000000 0.000000 0.102370 0.000000 0.002335
# 5 0.012214 -0.006691 0.012269 0.000000 0.041318 0.000000
# 6 0.000000 0.000000 0.000000 0.002335 0.000000 0.137596
#
#
# Mechanical properties :
#
#
# Convention : Reuss Voigt Hill
#
# Bulk Modulus (GPa) = 25.01636 41.75436 33.38536
# Shear Modulus (GPa) = 13.45761 24.48213 18.96987
#
# Velocity S-wave (km/s) = 2.50147 3.37393 2.96991
# Velocity P-wave (km/s) = 4.46934 5.88153 5.22338
#
# Compressibility (1/GPa) = 0.03997385
#
# Stress axis : x y z
#
# Youngs Moduli (GPa) = 41.71733 47.54621 74.35691
#
# Poissons Ratio (x) = 0.06701 0.13680
# Poissons Ratio (y) = 0.05880 0.44538
# Poissons Ratio (z) = 0.07675 0.28479
#
# Static dielectric constant tensor:
#      x y z
#    x 1.803770 0.000000 -0.031500 
#    y 0.000000 1.770530 0.000000 
#    z -0.031500 0.000000 1.804270 
# 
# From -- ./inp_files/332674.got.cif
#   From: 2010.05.17/outbox.cif.g08.bks.cpg/sg12_167_cif.got.tgz:332674.got - 2010.06.03 13:09:07.
