data_PCOD9201420
_publ_section_title
;
Structure prediction by ZEFSAII (Michael W. Deem and Ramdas Pophale) SiO2 
 PCOD9201420
Probable space group: C 2/M
;
_chemical_formula_sum "Si O2"
_cell_formula_units_Z 64
_cell_length_a 28.143597
_cell_length_b 13.574659
_cell_length_c 12.310997
_cell_angle_alpha 90.000000
_cell_angle_beta 143.891721
_cell_angle_gamma 90.000000
_cell_volume 2771.710420
_symmetry_space_group_name_H-M "C 2/M"
_symmetry_group_IT_number 12
_symmetry_cell_setting 'monoclinic'
loop_
_space_group_symop_operation_xyz
x,y,z
-x,y,-z
-x,-y,-z
x,-y,z
1/2+x,1/2+y,z
1/2-x,1/2+y,-z
1/2-x,1/2-y,-z
1/2+x,1/2-y,z
loop_
_atom_site_type_symbol
_atom_site_label
_atom_site_fract_x
_atom_site_fract_y
_atom_site_fract_z
Si Si1 0.328691 0.298854 0.698344
Si Si2 0.009593 0.183506 0.639582
Si Si3 0.184289 0.118048 0.959236
Si Si4 0.632201 0.308857 0.460511
Si Si5 0.288163 0.886512 0.352736
Si Si6 0.426433 0.107768 0.947007
Si Si7 0.938416 0.610183 0.220295
Si Si8 0.751297 0.117504 0.149274
O O1 0.250000 0.250000 0.500000
O O2 0.374030 0.341566 0.675994
O O3 0.290684 0.372299 0.716070
O O4 0.377071 0.207650 0.838186
O O5 0.097983 0.152558 0.842146
O O6 0.011230 0.302048 0.636317
O O7 0.000000 0.142127 0.500000
O O8 0.940483 0.156475 0.597137
O O9 0.199436 0.154392 0.864701
O O10 0.183036 0.000000 0.953151
O O11 0.256675 0.142854 0.174702
O O12 0.643571 0.189972 0.483636
O O13 0.713300 0.343825 0.672297
O O14 0.314293 0.000000 0.402609
O O15 0.383338 0.000000 0.852634
O O16 0.500000 0.109481 0.000000
O O17 0.456584 0.108303 0.125819
O O18 0.950143 0.500000 0.286413
O O19 0.842796 0.635581 0.047243
O O20 0.759901 0.000000 0.169957
#
# Coordination Sequence:
#
# PCOD9201420 Si02
#       8
#     8   8   8   8   8   8   8   8
#     4  10  21  37  59  89 122 155 198 249 296 353
#     4  12  24  37  58  89 125 159 190 242 307 361
#     4  10  22  41  63  84 114 158 206 247 288 351
#     4  11  23  38  60  93 124 157 194 243 302 357
#     4  10  23  42  64  87 117 161 205 248 296 349
#     4  10  20  37  62  88 118 160 202 245 299 357
#     4  10  22  38  57  84 116 155 204 248 290 349
#     4  10  21  39  63  86 113 156 206 250 290 343
#
# _framework density 23.090434999999999
#
# number of rings (size 3 to 8) (size 9 to 14) (size 15 to 20)
#    0.000    1.625    1.250    3.750    1.750    5.000 
#    0.000    0.000    0.000    1.875    0.000    0.000 
#    0.000    0.000    0.000    0.000    0.000    0.000 
#
# Total GULP energy -178865.401088 kJ/mol
# GULP energy per Si atom -5589.543784 kJ/mol
# Density = 2.303788 g / cm^3
# Si number density = 23.090435 Si / 1000 Ang^3
#
#
#
# Elastic Constant Matrix: (Units=GPa)
#
#
# Indices 1 2 3 4 5 6 
#
# 1 131.1001 -0.1655 7.3893 0.0000 -6.3379 0.0000
# 2 -0.1655 30.2922 -0.4416 0.0000 -3.5523 0.0000
# 3 7.3893 -0.4416 13.7636 0.0000 -12.7377 0.0000
# 4 0.0000 0.0000 0.0000 24.5597 0.0000 -1.0602
# 5 -6.3379 -3.5523 -12.7377 0.0000 30.5104 0.0000
# 6 0.0000 0.0000 0.0000 -1.0602 0.0000 25.4106
#
#
#
# Elastic Compliance Matrix: (Units=1/GPa)
#
#
# Indices 1 2 3 4 5 6 
#
# 1 0.007867 -0.000047 -0.004429 0.000000 -0.000220 0.000000
# 2 -0.000047 0.033968 0.007767 0.000000 0.007188 0.000000
# 3 -0.004429 0.007767 0.122659 0.000000 0.051193 0.000000
# 4 0.000000 0.000000 0.000000 0.040791 0.000000 0.001702
# 5 -0.000220 0.007188 0.051193 0.000000 0.054939 0.000000
# 6 0.000000 0.000000 0.000000 0.001702 0.000000 0.039425
#
#
# Mechanical properties :
#
#
# Convention : Reuss Voigt Hill
#
# Bulk Modulus (GPa) = 5.84537 20.96893 13.40715
# Shear Modulus (GPa) = 14.28200 27.32107 20.80153
#
# Velocity S-wave (km/s) = 2.48971 3.44353 3.00471
# Velocity P-wave (km/s) = 3.28663 4.99114 4.22572
#
# Compressibility (1/GPa) = 0.17107547
#
# Stress axis : x y z
#
# Youngs Moduli (GPa) = 127.11848 29.43976 8.15267
#
# Poissons Ratio (x) = 0.00140 0.03611
# Poissons Ratio (y) = 0.00603 -0.06332
# Poissons Ratio (z) = 0.56300 -0.22867
#
# Static dielectric constant tensor:
#      x y z
#    x 1.930800 0.000000 -0.001730 
#    y 0.000000 1.893020 0.000000 
#    z -0.001730 0.000000 1.832800 
# 
# From -- ./inp_files/183813.got.cif
#   From: 2010.05.17/outbox.cif.g08.bks.cpg/sg12_92_cif.got.tgz:183813.got - 2010.06.03 13:09:07.
