data_PCOD9201929
_publ_section_title
;
Structure prediction by ZEFSAII (Michael W. Deem and Ramdas Pophale) SiO2 
 PCOD9201929
Probable space group: C 2/M
;
_chemical_formula_sum "Si O2"
_cell_formula_units_Z 48
_cell_length_a 17.560163
_cell_length_b 30.373744
_cell_length_c 9.456914
_cell_angle_alpha 90.000000
_cell_angle_beta 29.282469
_cell_angle_gamma 90.000000
_cell_volume 2467.106083
_symmetry_space_group_name_H-M "C 2/M"
_symmetry_group_IT_number 12
_symmetry_cell_setting 'monoclinic'
loop_
_space_group_symop_operation_xyz
x,y,z
-x,y,-z
-x,-y,-z
x,-y,z
1/2+x,1/2+y,z
1/2-x,1/2+y,-z
1/2-x,1/2-y,-z
1/2+x,1/2-y,z
loop_
_atom_site_type_symbol
_atom_site_label
_atom_site_fract_x
_atom_site_fract_y
_atom_site_fract_z
Si Si1 0.186106 0.500000 0.358892
Si Si2 0.302928 0.086620 0.159828
Si Si3 0.176376 0.410117 0.536908
Si Si4 0.307558 0.000000 0.978686
Si Si5 0.901123 0.166655 0.534244
Si Si6 0.625796 0.333483 0.920554
Si Si7 0.328392 0.237365 0.227077
O O1 0.228266 0.455171 0.374154
O O2 0.243336 0.500000 0.103323
O O3 0.996848 0.500000 0.664656
O O4 0.276790 0.087414 0.372692
O O5 0.200754 0.124923 0.257256
O O6 0.488574 0.093027 0.838793
O O7 0.260856 0.042065 0.146753
O O8 0.246818 0.367908 0.341478
O O9 0.776407 0.200162 0.672019
O O10 0.000000 0.187123 0.500000
O O11 0.029866 0.151871 0.211926
O O12 0.672841 0.282244 0.862757
O O13 0.500000 0.331034 0.000000
O O14 0.250000 0.250000 0.500000
O O15 0.500000 0.222602 0.000000
#
# Coordination Sequence:
#
# PCOD9201929 Si02
#       7
#     4   8   8   4   8   8   8
#     4   9  19  35  61  91 125 163 209 267 312 369
#     4  10  21  38  64  92 124 167 214 260 309 375
#     4  10  20  37  67  93 118 167 225 257 298 378
#     4   9  19  37  57  91 131 162 204 263 325 367
#     4  12  27  42  63  98 136 163 205 270 326 370
#     4  11  22  42  63  92 127 167 209 261 314 379
#     4  11  22  43  72  91 122 172 216 254 309 379
#
# _framework density 19.455992999999999
#
# number of rings (size 3 to 8) (size 9 to 14) (size 15 to 20)
#    0.000    1.500    5.000    0.500    7.000    2.667 
#    0.000    1.667    0.000    0.000    0.000    0.000 
#    0.000    0.000    0.000    0.000    0.000    0.000 
#
# Total GULP energy -133879.593825 kJ/mol
# GULP energy per Si atom -5578.316409 kJ/mol
# Density = 1.941171 g / cm^3
# Si number density = 19.455993 Si / 1000 Ang^3
#
#
#
# Elastic Constant Matrix: (Units=GPa)
#
#
# Indices 1 2 3 4 5 6 
#
# 1 82.4895 39.9974 38.6715 0.0000 -3.4858 0.0000
# 2 39.9974 134.3383 45.2244 0.0000 -8.6130 0.0000
# 3 38.6715 45.2244 82.8748 0.0000 3.1093 0.0000
# 4 0.0000 0.0000 0.0000 37.2481 0.0000 16.8372
# 5 -3.4858 -8.6130 3.1093 0.0000 15.0277 0.0000
# 6 0.0000 0.0000 0.0000 16.8372 0.0000 39.1321
#
#
#
# Elastic Compliance Matrix: (Units=1/GPa)
#
#
# Indices 1 2 3 4 5 6 
#
# 1 0.016536 -0.002497 -0.006494 0.000000 0.003748 0.000000
# 2 -0.002497 0.010130 -0.004595 0.000000 0.006177 0.000000
# 3 -0.006494 -0.004595 0.017898 0.000000 -0.007843 0.000000
# 4 0.000000 0.000000 0.000000 0.033329 0.000000 -0.014340
# 5 0.003748 0.006177 -0.007843 0.000000 0.072577 0.000000
# 6 0.000000 0.000000 0.000000 -0.014340 0.000000 0.031725
#
#
# Mechanical properties :
#
#
# Convention : Reuss Voigt Hill
#
# Bulk Modulus (GPa) = 57.49403 60.83214 59.16308
# Shear Modulus (GPa) = 23.23795 30.00219 26.62007
#
# Velocity S-wave (km/s) = 3.45974 3.93116 3.70296
# Velocity P-wave (km/s) = 6.75090 7.20692 6.98264
#
# Compressibility (1/GPa) = 0.01739311
#
# Stress axis : x y z
#
# Youngs Moduli (GPa) = 60.47250 98.71551 55.87098
#
# Poissons Ratio (x) = 0.24648 0.36285
# Poissons Ratio (y) = 0.15099 0.25671
# Poissons Ratio (z) = 0.39273 0.45356
#
# Static dielectric constant tensor:
#      x y z
#    x 1.663940 0.000000 0.040570 
#    y 0.000000 1.248050 0.000000 
#    z 0.040570 0.000000 1.473570 
# 
# From -- ./inp_files/80640.got.cif
#   From: 2010.05.17/outbox.cif.g08.bks.cpg/sg12_41_cif.got.tgz:80640.got - 2010.06.03 13:09:07.
