data_PCOD9201385
_publ_section_title
;
Structure prediction by ZEFSAII (Michael W. Deem and Ramdas Pophale) SiO2 
 PCOD9201385
Probable space group: C 2/M
;
_chemical_formula_sum "Si O2"
_cell_formula_units_Z 50
_cell_length_a 26.334220
_cell_length_b 7.733167
_cell_length_c 13.233060
_cell_angle_alpha 90.000000
_cell_angle_beta 115.513782
_cell_angle_gamma 90.000000
_cell_volume 2432.072603
_symmetry_space_group_name_H-M "C 2/M"
_symmetry_group_IT_number 12
_symmetry_cell_setting 'monoclinic'
loop_
_space_group_symop_operation_xyz
x,y,z
-x,y,-z
-x,-y,-z
x,-y,z
1/2+x,1/2+y,z
1/2-x,1/2+y,-z
1/2-x,1/2-y,-z
1/2+x,1/2-y,z
loop_
_atom_site_type_symbol
_atom_site_label
_atom_site_fract_x
_atom_site_fract_y
_atom_site_fract_z
Si Si1 0.064567 0.294412 0.231036
Si Si2 0.558779 0.805107 0.449559
Si Si3 0.434911 0.702437 0.135682
Si Si4 0.500000 0.500000 0.500000
Si Si5 0.360008 0.798431 0.884059
Si Si6 0.745663 0.292483 0.877960
Si Si7 0.879179 0.788570 0.295989
O O1 0.058656 0.500000 0.207160
O O2 0.086438 0.273176 0.364222
O O3 0.105877 0.221651 0.181166
O O4 0.001175 0.223608 0.174935
O O5 0.514581 0.652888 0.430261
O O6 0.599643 0.788280 0.580654
O O7 0.534963 0.000000 0.426240
O O8 0.420117 0.500000 0.120168
O O9 0.413951 0.767899 0.226841
O O10 0.400055 0.789184 0.016055
O O11 0.299796 0.721986 0.864583
O O12 0.349769 0.000000 0.850397
O O13 0.747183 0.500000 0.873007
O O14 0.685309 0.242510 0.781680
O O15 0.750000 0.250000 0.000000
O O16 0.886922 0.000000 0.314413
#
# Coordination Sequence:
#
# PCOD9201385 Si02
#       7
#     8   8   8   2   8   8   8
#     4  10  23  40  57  83 121 160 206 245 298 376
#     4  11  24  40  62  91 124 169 209 252 308 368
#     4  11  22  34  56  88 120 156 195 243 304 369
#     4  12  22  40  64  90 130 160 210 260 302 354
#     4  10  21  39  60  84 118 161 200 250 306 364
#     4  10  20  37  62  87 117 155 199 256 312 361
#     4  10  21  38  59  88 126 158 201 259 311 362
#
# _framework density 20.558596999999999
#
# number of rings (size 3 to 8) (size 9 to 14) (size 15 to 20)
#    0.000    1.600    2.400    2.160    3.360    5.760 
#    0.000    0.800    0.000    0.000    0.000    0.000 
#    0.000    0.000    0.000    0.000    0.000    0.000 
#
# Total GULP energy -139418.721528 kJ/mol
# GULP energy per Si atom -5576.748861 kJ/mol
# Density = 2.051181 g / cm^3
# Si number density = 20.558597 Si / 1000 Ang^3
#
#
#
# Elastic Constant Matrix: (Units=GPa)
#
#
# Indices 1 2 3 4 5 6 
#
# 1 171.9511 17.2546 73.3711 0.0000 -20.3521 0.0000
# 2 17.2546 73.4678 16.0802 0.0000 -2.5725 0.0000
# 3 73.3711 16.0802 113.5733 0.0000 -13.9336 0.0000
# 4 0.0000 0.0000 0.0000 316.6667 0.0000 18.1369
# 5 -20.3521 -2.5725 -13.9336 0.0000 29.0865 0.0000
# 6 0.0000 0.0000 0.0000 18.1369 0.0000 17.4131
#
#
#
# Elastic Compliance Matrix: (Units=1/GPa)
#
#
# Indices 1 2 3 4 5 6 
#
# 1 0.008387 -0.000780 -0.004883 0.000000 0.003460 0.000000
# 2 -0.000780 0.014122 -0.001497 0.000000 -0.000014 0.000000
# 3 -0.004883 -0.001497 0.012469 0.000000 0.002424 0.000000
# 4 0.000000 0.000000 0.000000 0.003358 0.000000 -0.003498
# 5 0.003460 -0.000014 0.002424 0.000000 0.037961 0.000000
# 6 0.000000 0.000000 0.000000 -0.003498 0.000000 0.061071
#
#
# Mechanical properties :
#
#
# Convention : Reuss Voigt Hill
#
# Bulk Modulus (GPa) = 48.41000 63.60045 56.00522
# Shear Modulus (GPa) = 31.53075 89.45236 60.49155
#
# Velocity S-wave (km/s) = 3.92050 6.60344 5.43027
# Velocity P-wave (km/s) = 6.64019 9.44160 8.16199
#
# Compressibility (1/GPa) = 0.02065689
#
# Stress axis : x y z
#
# Youngs Moduli (GPa) = 119.23033 70.81249 80.19875
#
# Poissons Ratio (x) = 0.05522 0.39164
# Poissons Ratio (y) = 0.09298 0.12009
# Poissons Ratio (z) = 0.58224 0.10603
#
# Static dielectric constant tensor:
#      x y z
#    x 1.791740 0.000000 0.018530 
#    y 0.000000 1.764360 0.000000 
#    z 0.018530 0.000000 1.755370 
# 
# From -- ./inp_files/179823.got.cif
#   From: 2010.05.17/outbox.cif.g08.bks.cpg/sg12_90_cif.got.tgz:179823.got - 2010.06.03 13:09:07.
