data_PCOD9201489
_publ_section_title
;
Structure prediction by ZEFSAII (Michael W. Deem and Ramdas Pophale) SiO2 
 PCOD9201489
Probable space group: C 2/M
;
_chemical_formula_sum "Si O2"
_cell_formula_units_Z 40
_cell_length_a 11.602717
_cell_length_b 18.557258
_cell_length_c 14.383112
_cell_angle_alpha 90.000000
_cell_angle_beta 32.606178
_cell_angle_gamma 90.000000
_cell_volume 1668.797423
_symmetry_space_group_name_H-M "C 2/M"
_symmetry_group_IT_number 12
_symmetry_cell_setting 'monoclinic'
loop_
_space_group_symop_operation_xyz
x,y,z
-x,y,-z
-x,-y,-z
x,-y,z
1/2+x,1/2+y,z
1/2-x,1/2+y,-z
1/2-x,1/2-y,-z
1/2+x,1/2-y,z
loop_
_atom_site_type_symbol
_atom_site_label
_atom_site_fract_x
_atom_site_fract_y
_atom_site_fract_z
Si Si1 0.297952 0.582786 0.875739
Si Si2 0.710045 0.083958 0.735668
Si Si3 0.203352 0.080648 0.925632
Si Si4 0.184979 0.263330 0.683175
Si Si5 0.590930 0.785069 0.292677
O O1 0.371594 0.500000 0.822415
O O2 0.332758 0.607463 0.747100
O O3 0.376248 0.611580 0.921055
O O4 0.041518 0.584282 0.067332
O O5 0.733836 0.150238 0.649613
O O6 0.761421 0.000000 0.677136
O O7 0.363201 0.133038 0.765512
O O8 0.293134 0.000000 0.879104
O O9 0.000000 0.074848 0.000000
O O10 0.214680 0.241390 0.771922
O O11 0.376604 0.224668 0.498253
O O12 0.971086 0.251247 0.766519
#
# Coordination Sequence:
#
# PCOD9201489 Si02
#       5
#     8   8   8   8   8
#     4   8  15  29  53  88 118 141 186 247 303 353
#     4   9  16  31  59  87 113 150 197 251 302 346
#     4  10  20  37  62  90 120 154 200 255 307 364
#     4  10  21  39  60  82 123 164 203 250 296 361
#     4  10  22  40  58  83 121 163 205 250 298 358
#
# _framework density 23.969356000000001
#
# number of rings (size 3 to 8) (size 9 to 14) (size 15 to 20)
#    0.000    2.600    2.000    1.200    0.000    1.600 
#    3.600    6.000    0.000    2.400    0.000    0.000 
#    0.000    0.000    0.000    0.000    0.000    0.000 
#
# Total GULP energy -111391.504867 kJ/mol
# GULP energy per Si atom -5569.575243 kJ/mol
# Density = 2.391480 g / cm^3
# Si number density = 23.969356 Si / 1000 Ang^3
#
#
#
# Elastic Constant Matrix: (Units=GPa)
#
#
# Indices 1 2 3 4 5 6 
#
# 1 230.5282 37.7309 8.9249 0.0094 20.6202 -0.0263
# 2 37.7309 131.8521 29.3627 -0.1085 25.2328 0.0019
# 3 8.9249 29.3627 28.0255 -0.1372 4.6644 0.0895
# 4 0.0094 -0.1085 -0.1372 23.2682 0.0369 26.9660
# 5 20.6202 25.2328 4.6644 0.0369 21.2722 0.0081
# 6 -0.0263 0.0019 0.0895 26.9660 0.0081 31.1371
#
#
#
# Elastic Compliance Matrix: (Units=1/GPa)
#
#
# Indices 1 2 3 4 5 6 
#
# 1 0.004791 -0.000557 -0.000275 0.001843 -0.003925 -0.001590
# 2 -0.000557 0.012423 -0.010816 0.006817 -0.011834 -0.005871
# 3 -0.000275 -0.010816 0.045803 -0.100147 0.003194 0.086599
# 4 0.001843 0.006817 -0.100147-11.450689 0.028178 9.917052
# 5 -0.003925 -0.011834 0.003194 0.028178 0.064112 -0.024432
# 6 -0.001590 -0.005871 0.086599 9.917052 -0.024432 -8.556704
#
#
# Mechanical properties :
#
#
# Convention : Reuss Voigt Hill
#
# Bulk Modulus (GPa) = 25.17588 60.27143 42.72365
# Shear Modulus (GPa) = -0.25197 36.09466 17.92135
#
# Velocity S-wave (km/s) = -0.32458 3.88476 2.73734
# Velocity P-wave (km/s) = 3.22268 6.73213 5.27766
#
# Compressibility (1/GPa) = 0.03972055
#
# Stress axis : x y z
#
# Youngs Moduli (GPa) = 208.74588 80.49792 21.83248
#
# Poissons Ratio (x) = 0.04483 0.00600
# Poissons Ratio (y) = 0.11626 0.23615
# Poissons Ratio (z) = 0.05733 0.87070
#
# Static dielectric constant tensor:
#      x y z
#    x 2.039900 -0.000010 0.011800 
#    y -0.000010 1.970780 0.000020 
#    z 0.011800 0.000020 1.872170 
# 
# From -- ./inp_files/205925.got.cif
#   From: 2010.05.17/outbox.cif.g08.bks.cpg/sg12_103_cif.got.tgz:205925.got - 2010.06.03 13:09:07.
