data_PCOD9201880
_publ_section_title
;
Structure prediction by ZEFSAII (Michael W. Deem and Ramdas Pophale) SiO2 
 PCOD9201880
Probable space group: C 2/M
;
_chemical_formula_sum "Si O2"
_cell_formula_units_Z 36
_cell_length_a 18.830229
_cell_length_b 11.608508
_cell_length_c 18.222626
_cell_angle_alpha 90.000000
_cell_angle_beta 157.136534
_cell_angle_gamma 90.000000
_cell_volume 1547.657221
_symmetry_space_group_name_H-M "C 2/M"
_symmetry_group_IT_number 12
_symmetry_cell_setting 'monoclinic'
loop_
_space_group_symop_operation_xyz
x,y,z
-x,y,-z
-x,-y,-z
x,-y,z
1/2+x,1/2+y,z
1/2-x,1/2+y,-z
1/2-x,1/2-y,-z
1/2+x,1/2-y,z
loop_
_atom_site_type_symbol
_atom_site_label
_atom_site_fract_x
_atom_site_fract_y
_atom_site_fract_z
Si Si1 0.500000 0.709138 0.000000
Si Si2 0.400046 0.370832 0.059707
Si Si3 0.166941 0.173199 0.616385
Si Si4 0.423223 0.871677 0.725718
Si Si5 0.973814 0.626049 0.615387
O O1 0.515674 0.635287 0.941675
O O2 0.323732 0.790309 0.822700
O O3 0.440787 0.500000 0.129981
O O4 0.466607 0.248377 0.156968
O O5 0.181639 0.363226 0.841287
O O6 0.272465 0.122728 0.646298
O O7 0.075357 0.284111 0.492252
O O8 0.000000 0.115450 0.500000
O O9 0.354992 0.863902 0.576699
O O10 0.518041 0.000000 0.819712
O O11 0.947952 0.500000 0.559298
#
# Coordination Sequence:
#
# PCOD9201880 Si02
#       5
#     4   8   8   8   8
#     4  10  21  38  61  98 131 162 209 264 327 374
#     4  10  20  37  65  97 129 167 214 264 320 378
#     4  11  22  40  65  93 131 168 213 265 320 375
#     4  10  23  42  63  93 133 172 213 261 319 384
#     4  10  21  39  65  96 130 168 213 266 322 379
#
# _framework density 23.260966
#
# number of rings (size 3 to 8) (size 9 to 14) (size 15 to 20)
#    0.000    1.778    2.222    1.667    0.000    5.333 
#    0.000   11.111    0.000    0.000    0.000    0.000 
#    0.000    0.000    0.000    0.000    0.000    0.000 
#
# Total GULP energy -100376.618518 kJ/mol
# GULP energy per Si atom -5576.478807 kJ/mol
# Density = 2.320802 g / cm^3
# Si number density = 23.260966 Si / 1000 Ang^3
#
#
#
# Elastic Constant Matrix: (Units=GPa)
#
#
# Indices 1 2 3 4 5 6 
#
# 1 70.4790 33.6266 10.8417 0.0001 6.4602 -0.0002
# 2 33.6266 223.9506 61.3744 -0.0022 -12.4072 -0.0005
# 3 10.8417 61.3744 95.4699 -0.0050 17.9691 -0.0008
# 4 0.0001 -0.0022 -0.0050 6.3620 -0.0016 1.7952
# 5 6.4602 -12.4072 17.9691 -0.0016 33.8113 -0.0002
# 6 -0.0002 -0.0005 -0.0008 1.7952 -0.0002 43.9668
#
#
#
# Elastic Compliance Matrix: (Units=1/GPa)
#
#
# Indices 1 2 3 4 5 6 
#
# 1 0.015842 -0.002883 0.000914 -0.000002 -0.004571 0.000000
# 2 -0.002883 0.006562 -0.004942 0.000000 0.005585 0.000000
# 3 0.000914 -0.004942 0.015470 0.000008 -0.010210 0.000000
# 4 -0.000002 0.000000 0.000008 0.159014 0.000003 -0.006493
# 5 -0.004571 0.005585 -0.010210 0.000003 0.037925 0.000000
# 6 0.000000 0.000000 0.000000 -0.006493 0.000000 0.023010
#
#
# Mechanical properties :
#
#
# Convention : Reuss Voigt Hill
#
# Bulk Modulus (GPa) = 41.57565 66.84277 54.20921
# Shear Modulus (GPa) = 17.87877 35.76515 26.82196
#
# Velocity S-wave (km/s) = 2.77540 3.92543 3.39940
# Velocity P-wave (km/s) = 5.30875 7.02451 6.22602
#
# Compressibility (1/GPa) = 0.02405254
#
# Stress axis : x y z
#
# Youngs Moduli (GPa) = 63.12240 152.39239 64.64283
#
# Poissons Ratio (x) = 0.43927 -0.05910
# Poissons Ratio (y) = 0.18195 0.31949
# Poissons Ratio (z) = -0.05771 0.75319
#
# Static dielectric constant tensor:
#      x y z
#    x 1.889560 0.000000 0.078560 
#    y 0.000000 1.898560 0.000000 
#    z 0.078560 0.000000 1.894190 
# 
# From -- ./inp_files/321428.got.cif
#   From: 2010.05.17/outbox.cif.g08.bks.cpg/sg12_161_cif.got.tgz:321428.got - 2010.06.03 13:09:07.
