data_PCOD9201216
_publ_section_title
;
Structure prediction by ZEFSAII (Michael W. Deem and Ramdas Pophale) SiO2 
 PCOD9201216
Probable space group: C 2/M
;
_chemical_formula_sum "Si O2"
_cell_formula_units_Z 58
_cell_length_a 18.195059
_cell_length_b 13.328750
_cell_length_c 28.286339
_cell_angle_alpha 90.000000
_cell_angle_beta 154.537444
_cell_angle_gamma 90.000000
_cell_volume 2949.228618
_symmetry_space_group_name_H-M "C 2/M"
_symmetry_group_IT_number 12
_symmetry_cell_setting 'monoclinic'
loop_
_space_group_symop_operation_xyz
x,y,z
-x,y,-z
-x,-y,-z
x,-y,z
1/2+x,1/2+y,z
1/2-x,1/2+y,-z
1/2-x,1/2-y,-z
1/2+x,1/2-y,z
loop_
_atom_site_type_symbol
_atom_site_label
_atom_site_fract_x
_atom_site_fract_y
_atom_site_fract_z
Si Si1 0.146680 0.618339 0.795273
Si Si2 0.625635 0.733131 0.999100
Si Si3 0.500000 0.000000 0.500000
Si Si4 0.716991 0.791401 0.404518
Si Si5 0.729328 0.740026 0.763570
Si Si6 0.389054 0.619310 0.108285
Si Si7 0.583141 0.616346 0.392768
Si Si8 0.727396 0.191153 0.656771
O O1 0.168081 0.500000 0.809432
O O2 0.292684 0.674721 0.909665
O O3 0.157997 0.661053 0.748700
O O4 0.961803 0.651310 0.707633
O O5 0.743922 0.827583 0.055045
O O6 0.429899 0.766095 0.890923
O O7 0.633620 0.658279 0.958641
O O8 0.621037 0.089282 0.592922
O O9 0.671149 0.687108 0.404741
O O10 0.827367 0.855675 0.505527
O O11 0.806835 0.762125 0.408047
O O12 0.613559 0.650479 0.716416
O O13 0.704755 0.753550 0.693482
O O14 0.382211 0.500000 0.106758
O O15 0.573087 0.659943 0.231293
O O16 0.603026 0.500000 0.393080
#
# Coordination Sequence:
#
# PCOD9201216 Si02
#       8
#     8   8   2   8   8   8   8   8
#     4  11  22  39  65  93 123 165 208 254 313 372
#     4  10  21  38  60  90 125 162 206 257 303 370
#     4  12  24  32  64  96 116 158 200 246 318 360
#     4  10  22  42  64  90 124 158 207 256 307 370
#     4  10  24  40  59  89 129 158 201 260 310 356
#     4  10  20  37  61  88 124 160 203 251 307 365
#     4  10  22  42  64  88 120 164 205 253 305 373
#     4  11  22  40  59  90 126 156 200 255 305 366
#
# _framework density 19.666160000000001
#
# number of rings (size 3 to 8) (size 9 to 14) (size 15 to 20)
#    0.000    1.655    2.069    2.069    1.931    2.207 
#    0.000    2.069    0.000    2.483    0.000    0.000 
#    0.000    0.000    0.000    0.000    0.000    0.000 
#
# Total GULP energy -161830.339676 kJ/mol
# GULP energy per Si atom -5580.356541 kJ/mol
# Density = 1.962140 g / cm^3
# Si number density = 19.666160 Si / 1000 Ang^3
#
#
#
# Elastic Constant Matrix: (Units=GPa)
#
#
# Indices 1 2 3 4 5 6 
#
# 1 58.9032 11.5512 10.2868 -0.0005 -9.2784 -0.0001
# 2 11.5512 66.0605 9.1022 0.0026 8.1908 0.0002
# 3 10.2868 9.1022 69.9790 0.0055 -0.9224 0.0017
# 4 -0.0005 0.0026 0.0055 19.3249 0.0008 -0.9103
# 5 -9.2784 8.1908 -0.9224 0.0008 32.6096 -0.0001
# 6 -0.0001 0.0002 0.0017 -0.9103 -0.0001 5.7540
#
#
#
# Elastic Compliance Matrix: (Units=1/GPa)
#
#
# Indices 1 2 3 4 5 6 
#
# 1 0.019113 -0.003820 -0.002229 0.000001 0.006335 0.000001
# 2 -0.003820 0.016698 -0.001681 -0.000002 -0.005329 0.000000
# 3 -0.002229 -0.001681 0.014839 -0.000004 0.000208 -0.000005
# 4 0.000001 -0.000002 -0.000004 0.052135 -0.000001 0.008248
# 5 0.006335 -0.005329 0.000208 -0.000001 0.033813 0.000001
# 6 0.000001 0.000000 -0.000005 0.008248 0.000001 0.175096
#
#
# Mechanical properties :
#
#
# Convention : Reuss Voigt Hill
#
# Bulk Modulus (GPa) = 28.41721 28.53591 28.47656
# Shear Modulus (GPa) = 14.75430 22.47119 18.61275
#
# Velocity S-wave (km/s) = 2.74202 3.38395 3.07976
# Velocity P-wave (km/s) = 4.95036 5.45984 5.21133
#
# Compressibility (1/GPa) = 0.03518994
#
# Stress axis : x y z
#
# Youngs Moduli (GPa) = 52.31931 59.88766 67.38987
#
# Poissons Ratio (x) = 0.22880 0.15023
# Poissons Ratio (y) = 0.19988 0.11325
# Poissons Ratio (z) = 0.11663 0.10064
#
# Static dielectric constant tensor:
#      x y z
#    x 1.703880 0.000000 -0.000720 
#    y 0.000000 1.625880 0.000000 
#    z -0.000720 0.000000 1.725110 
# 
# From -- ./inp_files/363789.got.cif
#   From: 2010.05.17/outbox.cif.g08.bks.cpg/sg12_182_cif.got.tgz:363789.got - 2010.06.03 13:09:07.
