data_PCOD9201042
_publ_section_title
;
Structure prediction by ZEFSAII (Michael W. Deem and Ramdas Pophale) SiO2 
 PCOD9201042
Probable space group: C 2/M
;
_chemical_formula_sum "Si O2"
_cell_formula_units_Z 34
_cell_length_a 21.081837
_cell_length_b 7.596886
_cell_length_c 10.271975
_cell_angle_alpha 90.000000
_cell_angle_beta 109.955648
_cell_angle_gamma 90.000000
_cell_volume 1546.343751
_symmetry_space_group_name_H-M "C 2/M"
_symmetry_group_IT_number 12
_symmetry_cell_setting 'monoclinic'
loop_
_space_group_symop_operation_xyz
x,y,z
-x,y,-z
-x,-y,-z
x,-y,z
1/2+x,1/2+y,z
1/2-x,1/2+y,-z
1/2-x,1/2-y,-z
1/2+x,1/2-y,z
loop_
_atom_site_type_symbol
_atom_site_label
_atom_site_fract_x
_atom_site_fract_y
_atom_site_fract_z
Si Si1 0.552362 0.802955 0.700804
Si Si2 0.180055 0.287582 0.295075
Si Si3 0.000000 0.000000 0.500000
Si Si4 0.164742 0.791972 0.581740
Si Si5 0.926029 0.286609 0.991180
O O1 0.502318 0.655392 0.613839
O O2 0.612371 0.803910 0.637496
O O3 0.522460 0.000000 0.690733
O O4 0.581975 0.750209 0.861886
O O5 0.180422 0.500000 0.294109
O O6 0.156001 0.232986 0.421555
O O7 0.258412 0.235690 0.335317
O O8 0.131854 0.222142 0.146606
O O9 0.153824 0.000000 0.602524
O O10 0.925623 0.500000 0.978952
O O11 0.000000 0.225143 0.000000
#
# Coordination Sequence:
#
# PCOD9201042 Si02
#       5
#     8   8   2   8   8
#     4  11  24  42  66  91 125 168 208 256 316 370
#     4   9  19  37  62  89 126 169 210 262 310 368
#     4  12  26  44  62  98 128 160 210 264 300 390
#     4  10  20  37  60  93 127 164 215 260 308 368
#     4   9  20  38  60  90 123 164 212 256 315 375
#
# _framework density 21.987351
#
# number of rings (size 3 to 8) (size 9 to 14) (size 15 to 20)
#    0.000    2.118    1.176    1.059    3.294    1.882 
#    2.118    0.588    0.000    0.000    0.000    0.000 
#    0.000    0.000    0.000    0.000    0.000    0.000 
#
# Total GULP energy -94771.347715 kJ/mol
# GULP energy per Si atom -5574.785160 kJ/mol
# Density = 2.193731 g / cm^3
# Si number density = 21.987351 Si / 1000 Ang^3
#
#
#
# Elastic Constant Matrix: (Units=GPa)
#
#
# Indices 1 2 3 4 5 6 
#
# 1 57.8253 20.4639 33.1918 0.0000 -8.1100 0.0000
# 2 20.4639 91.5137 40.6783 0.0000 8.1618 0.0000
# 3 33.1918 40.6783 180.8471 0.0000 17.7152 0.0000
# 4 0.0000 0.0000 0.0000 12.2860 0.0000 16.8186
# 5 -8.1100 8.1618 17.7152 0.0000 29.2339 0.0000
# 6 0.0000 0.0000 0.0000 16.8186 0.0000 -12.2874
#
#
#
# Elastic Compliance Matrix: (Units=1/GPa)
#
#
# Indices 1 2 3 4 5 6 
#
# 1 0.022529 -0.004059 -0.004194 0.000000 0.009925 0.000000
# 2 -0.004059 0.012967 -0.001815 0.000000 -0.003647 0.000000
# 3 -0.004194 -0.001815 0.007199 0.000000 -0.005019 0.000000
# 4 0.000000 0.000000 0.000000 0.028323 0.000000 0.038768
# 5 0.009925 -0.003647 -0.005019 0.000000 0.041020 0.000000
# 6 0.000000 0.000000 0.000000 0.038768 0.000000 -0.028320
#
#
# Mechanical properties :
#
#
# Convention : Reuss Voigt Hill
#
# Bulk Modulus (GPa) = 44.32565 57.65044 50.98805
# Shear Modulus (GPa) = 44.89413 21.56997 33.23205
#
# Velocity S-wave (km/s) = 4.52355 3.13552 3.89191
# Velocity P-wave (km/s) = 6.89106 6.27578 6.59060
#
# Compressibility (1/GPa) = 0.02256030
#
# Stress axis : x y z
#
# Youngs Moduli (GPa) = 44.38683 77.12067 138.90547
#
# Poissons Ratio (x) = 0.31301 0.58259
# Poissons Ratio (y) = 0.18015 0.25204
# Poissons Ratio (z) = 0.18617 0.13994
#
# Static dielectric constant tensor:
#      x y z
#    x 1.878540 0.000000 0.064470 
#    y 0.000000 1.912310 0.000000 
#    z 0.064470 0.000000 1.792460 
# 
# From -- ./inp_files/92427.got.cif
#   From: 2010.05.17/outbox.cif.g08.bks.cpg/sg12_47_cif.got.tgz:92427.got - 2010.06.03 13:09:07.
