data_PCOD9201126
_publ_section_title
;
Structure prediction by ZEFSAII (Michael W. Deem and Ramdas Pophale) SiO2 
 PCOD9201126
Probable space group: C 2/M
;
_chemical_formula_sum "Si O2"
_cell_formula_units_Z 56
_cell_length_a 19.388248
_cell_length_b 8.545335
_cell_length_c 28.047172
_cell_angle_alpha 90.000000
_cell_angle_beta 138.849542
_cell_angle_gamma 90.000000
_cell_volume 3057.793278
_symmetry_space_group_name_H-M "C 2/M"
_symmetry_group_IT_number 12
_symmetry_cell_setting 'monoclinic'
loop_
_space_group_symop_operation_xyz
x,y,z
-x,y,-z
-x,-y,-z
x,-y,z
1/2+x,1/2+y,z
1/2-x,1/2+y,-z
1/2-x,1/2-y,-z
1/2+x,1/2-y,z
loop_
_atom_site_type_symbol
_atom_site_label
_atom_site_fract_x
_atom_site_fract_y
_atom_site_fract_z
Si Si1 0.319630 0.312113 0.079267
Si Si2 0.466847 0.186890 0.429311
Si Si3 0.770608 0.809494 0.264911
Si Si4 0.946199 0.682635 0.800920
Si Si5 0.446615 0.323392 0.703374
Si Si6 0.303097 0.322278 0.174200
Si Si7 0.366757 0.312164 0.558420
O O1 0.314861 0.500000 0.079044
O O2 0.441374 0.265447 0.134540
O O3 0.276413 0.250632 0.108399
O O4 0.250000 0.250000 0.000000
O O5 0.500000 0.241586 0.500000
O O6 0.361690 0.253007 0.348677
O O7 0.562970 0.233698 0.445272
O O8 0.454672 0.000000 0.425081
O O9 0.654287 0.762840 0.221437
O O10 0.783717 0.753443 0.216719
O O11 0.777785 0.000000 0.268291
O O12 0.962030 0.500000 0.818790
O O13 0.915557 0.711420 0.729921
O O14 0.406581 0.500000 0.692159
O O15 0.571694 0.332358 0.765702
O O16 0.412123 0.272239 0.633727
O O17 0.259223 0.500000 0.152698
O O18 0.370826 0.500000 0.554699
O O19 0.250000 0.250000 0.500000
#
# Coordination Sequence:
#
# PCOD9201126 Si02
#       7
#     8   8   8   8   8   8   8
#     4  10  20  37  61  86 116 150 186 230 282 338
#     4  11  25  41  56  81 116 155 197 245 301 349
#     4  10  20  38  60  83 112 150 195 239 285 344
#     4  10  21  34  56  88 116 144 187 233 279 340
#     4   9  18  35  56  75 105 146 185 231 282 336
#     4   8  15  33  58  80 103 141 186 224 272 330
#     4  11  23  39  58  80 110 147 193 243 294 349
#
# _framework density 18.313859999999998
#
# number of rings (size 3 to 8) (size 9 to 14) (size 15 to 20)
#    0.000    2.143    1.429    2.571    2.000    3.429 
#    0.000    1.429    0.000    4.286    0.000    0.000 
#    0.000    0.000    0.000    0.000    0.000    0.000 
#
# Total GULP energy -155967.292667 kJ/mol
# GULP energy per Si atom -5570.260452 kJ/mol
# Density = 1.827218 g / cm^3
# Si number density = 18.313860 Si / 1000 Ang^3
#
#
#
# Elastic Constant Matrix: (Units=GPa)
#
#
# Indices 1 2 3 4 5 6 
#
# 1 129.9077 28.9569 70.9631 0.0000 -10.5884 0.0000
# 2 28.9569 19.4078 27.0978 0.0000 -5.1407 0.0000
# 3 70.9631 27.0978 126.9636 0.0000 -28.0638 0.0000
# 4 0.0000 0.0000 0.0000 28.4695 0.0000 -1.4883
# 5 -10.5884 -5.1407 -28.0638 0.0000 28.6897 0.0000
# 6 0.0000 0.0000 0.0000 -1.4883 0.0000 23.9120
#
#
#
# Elastic Compliance Matrix: (Units=1/GPa)
#
#
# Indices 1 2 3 4 5 6 
#
# 1 0.013255 -0.013281 -0.005127 0.000000 -0.002503 0.000000
# 2 -0.013281 0.086878 -0.011179 0.000000 -0.000269 0.000000
# 3 -0.005127 -0.011179 0.015651 0.000000 0.011414 0.000000
# 4 0.000000 0.000000 0.000000 0.035240 0.000000 0.002193
# 5 -0.002503 -0.000269 0.011414 0.000000 0.045049 0.000000
# 6 0.000000 0.000000 0.000000 0.002193 0.000000 0.041956
#
#
# Mechanical properties :
#
#
# Convention : Reuss Voigt Hill
#
# Bulk Modulus (GPa) = 17.66480 58.92387 38.29434
# Shear Modulus (GPa) = 15.81914 26.16500 20.99207
#
# Velocity S-wave (km/s) = 2.94220 3.78391 3.38929
# Velocity P-wave (km/s) = 4.60528 7.16484 6.02261
#
# Compressibility (1/GPa) = 0.05660974
#
# Stress axis : x y z
#
# Youngs Moduli (GPa) = 75.44374 11.51040 63.89413
#
# Poissons Ratio (x) = 0.15287 0.32760
# Poissons Ratio (y) = 1.00196 0.71427
# Poissons Ratio (z) = 0.38682 0.12867
#
# Static dielectric constant tensor:
#      x y z
#    x 1.629460 0.000000 -0.042680 
#    y 0.000000 1.646440 0.000000 
#    z -0.042680 0.000000 1.602070 
# 
# From -- ./inp_files/363209.got.cif
#   From: 2010.05.17/outbox.cif.g08.bks.cpg/sg12_182_cif.got.tgz:363209.got - 2010.06.03 13:09:07.
