data_PCOD9201716
_publ_section_title
;
Structure prediction by ZEFSAII (Michael W. Deem and Ramdas Pophale) SiO2 
 PCOD9201716
Probable space group: C 2/M
;
_chemical_formula_sum "Si O2"
_cell_formula_units_Z 56
_cell_length_a 20.005677
_cell_length_b 15.603041
_cell_length_c 12.699027
_cell_angle_alpha 90.000000
_cell_angle_beta 40.206298
_cell_angle_gamma 90.000000
_cell_volume 2558.922958
_symmetry_space_group_name_H-M "C 2/M"
_symmetry_group_IT_number 12
_symmetry_cell_setting 'monoclinic'
loop_
_space_group_symop_operation_xyz
x,y,z
-x,y,-z
-x,-y,-z
x,-y,z
1/2+x,1/2+y,z
1/2-x,1/2+y,-z
1/2-x,1/2-y,-z
1/2+x,1/2-y,z
loop_
_atom_site_type_symbol
_atom_site_label
_atom_site_fract_x
_atom_site_fract_y
_atom_site_fract_z
Si Si1 0.144443 0.751059 0.694539
Si Si2 0.447780 0.905981 0.449018
Si Si3 0.224525 0.095961 0.951050
Si Si4 0.752929 0.902312 0.826111
Si Si5 0.210963 0.726874 0.296414
Si Si6 0.985968 0.597436 0.857739
Si Si7 0.005826 0.906268 0.865891
O O1 0.250000 0.750000 0.500000
O O2 0.182950 0.773173 0.765837
O O3 0.073929 0.665870 0.780249
O O4 0.073327 0.828736 0.742177
O O5 0.500000 0.903730 0.500000
O O6 0.370909 0.826501 0.537512
O O7 0.523387 0.899609 0.258611
O O8 0.395663 0.000000 0.500581
O O9 0.279300 0.172642 0.822700
O O10 0.267821 0.000000 0.874572
O O11 0.226551 0.105695 0.073738
O O12 0.107673 0.096820 0.047938
O O13 0.812705 0.825898 0.696749
O O14 0.777152 0.000000 0.765021
O O15 0.629172 0.887923 0.960360
O O16 0.017258 0.500000 0.848091
O O17 0.051920 0.000000 0.786388
O O18 0.000000 0.900146 0.000000
#
# Coordination Sequence:
#
# PCOD9201716 Si02
#       7
#     8   8   8   8   8   8   8
#     4  12  25  40  57  88 127 163 204 246 298 365
#     4  10  21  38  62  92 122 155 201 256 309 361
#     4  10  20  37  63  95 121 148 195 255 314 359
#     4  10  23  41  63  92 125 158 201 252 304 367
#     4  12  22  37  62  91 121 162 201 252 303 356
#     4  10  22  41  62  86 122 163 203 251 306 357
#     4  10  21  38  63  90 117 153 198 252 307 356
#
# _framework density 21.884205999999999
#
# number of rings (size 3 to 8) (size 9 to 14) (size 15 to 20)
#    0.000    1.429    2.857    2.571    0.000    5.143 
#    0.000    1.429    0.000    0.429    0.000    0.000 
#    0.000    0.000    0.000    0.000    0.000    0.000 
#
# Total GULP energy -156458.000153 kJ/mol
# GULP energy per Si atom -5587.785720 kJ/mol
# Density = 2.183440 g / cm^3
# Si number density = 21.884206 Si / 1000 Ang^3
#
#
#
# Elastic Constant Matrix: (Units=GPa)
#
#
# Indices 1 2 3 4 5 6 
#
# 1 69.5012 28.0918 3.9148 0.0000 -7.3455 0.0000
# 2 28.0918 176.9232 54.2697 0.0000 -12.9319 0.0000
# 3 3.9148 54.2697 33.4814 0.0000 -5.4800 0.0000
# 4 0.0000 0.0000 0.0000 29.5623 0.0000 0.3352
# 5 -7.3455 -12.9319 -5.4800 0.0000 21.0694 0.0000
# 6 0.0000 0.0000 0.0000 0.3352 0.0000 28.8958
#
#
#
# Elastic Compliance Matrix: (Units=1/GPa)
#
#
# Indices 1 2 3 4 5 6 
#
# 1 0.016105 -0.003727 0.004912 0.000000 0.004605 0.000000
# 2 -0.003727 0.012208 -0.019153 0.000000 0.001212 0.000000
# 3 0.004912 -0.019153 0.061304 0.000000 0.005902 0.000000
# 4 0.000000 0.000000 0.000000 0.033831 0.000000 -0.000392
# 5 0.004605 0.001212 0.005902 0.000000 0.051346 0.000000
# 6 0.000000 0.000000 0.000000 -0.000392 0.000000 0.034612
#
#
# Mechanical properties :
#
#
# Convention : Reuss Voigt Hill
#
# Bulk Modulus (GPa) = 18.62893 50.27315 34.45104
# Shear Modulus (GPa) = 18.99441 28.81413 23.90427
#
# Velocity S-wave (km/s) = 2.94930 3.63252 3.30859
# Velocity P-wave (km/s) = 4.48651 6.37306 5.51111
#
# Compressibility (1/GPa) = 0.05367996
#
# Stress axis : x y z
#
# Youngs Moduli (GPa) = 62.09350 81.91608 16.31214
#
# Poissons Ratio (x) = 0.30533 -0.08013
# Poissons Ratio (y) = 0.23144 0.31243
# Poissons Ratio (z) = -0.30502 1.56895
#
# Static dielectric constant tensor:
#      x y z
#    x 1.807110 0.000000 0.017040 
#    y 0.000000 1.816010 0.000000 
#    z 0.017040 0.000000 1.796370 
# 
# From -- ./inp_files/233668.got.cif
#   From: 2010.05.17/outbox.cif.g08.bks.cpg/sg12_117_cif.got.tgz:233668.got - 2010.06.03 13:09:07.
