data_PCOD9201109
_publ_section_title
;
Structure prediction by ZEFSAII (Michael W. Deem and Ramdas Pophale) SiO2 
 PCOD9201109
Probable space group: C 2/M
;
_chemical_formula_sum "Si O2"
_cell_formula_units_Z 64
_cell_length_a 19.159656
_cell_length_b 12.637082
_cell_length_c 15.251240
_cell_angle_alpha 90.000000
_cell_angle_beta 57.581555
_cell_angle_gamma 90.000000
_cell_volume 3117.181295
_symmetry_space_group_name_H-M "C 2/M"
_symmetry_group_IT_number 12
_symmetry_cell_setting 'monoclinic'
loop_
_space_group_symop_operation_xyz
x,y,z
-x,y,-z
-x,-y,-z
x,-y,z
1/2+x,1/2+y,z
1/2-x,1/2+y,-z
1/2-x,1/2-y,-z
1/2+x,1/2-y,z
loop_
_atom_site_type_symbol
_atom_site_label
_atom_site_fract_x
_atom_site_fract_y
_atom_site_fract_z
Si Si1 0.827776 0.846162 0.526816
Si Si2 0.834660 0.616221 0.458774
Si Si3 0.354335 0.119634 0.933263
Si Si4 0.970906 0.701305 0.244834
Si Si5 0.929706 0.123407 0.122808
Si Si6 0.720681 0.703686 0.890541
Si Si7 0.687846 0.388460 0.269048
Si Si8 0.503986 0.323958 0.398477
O O1 0.843059 0.719136 0.514101
O O2 0.762032 0.878991 0.499475
O O3 0.791053 0.880563 0.643284
O O4 0.919132 0.888333 0.449569
O O5 0.856501 0.500000 0.478743
O O6 0.889811 0.638735 0.334275
O O7 0.450472 0.135496 0.842135
O O8 0.284634 0.132795 0.903603
O O9 0.346455 0.000000 0.973821
O O10 0.333136 0.219278 0.010069
O O11 0.945914 0.792235 0.190708
O O12 0.003115 0.749473 0.314929
O O13 0.933380 0.000000 0.149978
O O14 0.157729 0.145371 0.867199
O O15 0.000000 0.137070 0.000000
O O16 0.777008 0.786917 0.801199
O O17 0.717266 0.500000 0.211743
O O18 0.588983 0.385433 0.334388
O O19 0.500000 0.276420 0.500000
#
# Coordination Sequence:
#
# PCOD9201109 Si02
#       8
#     8   8   8   8   8   8   8   8
#     4   9  20  36  56  85 120 155 206 264 308 388
#     4  10  20  37  61  85 120 166 204 258 324 380
#     4  11  23  41  67  96 129 174 217 270 328 383
#     4  11  21  42  65  98 130 168 219 270 319 398
#     4  11  24  43  66  93 132 176 216 267 332 387
#     4  11  23  43  63  95 134 168 220 275 311 403
#     4  11  21  36  60  88 122 165 207 263 329 376
#     4   9  20  38  61  88 129 160 208 272 324 377
#
# _framework density 20.531369999999999
#
# number of rings (size 3 to 8) (size 9 to 14) (size 15 to 20)
#    0.000    1.625    2.500    2.250    0.000    3.250 
#    0.000   15.625    0.000    3.375    0.000    0.000 
#    0.000    0.000    0.000    0.000    0.000    0.000 
#
# Total GULP energy -178276.757497 kJ/mol
# GULP energy per Si atom -5571.148672 kJ/mol
# Density = 2.048464 g / cm^3
# Si number density = 20.531370 Si / 1000 Ang^3
#
#
#
# Elastic Constant Matrix: (Units=GPa)
#
#
# Indices 1 2 3 4 5 6 
#
# 1 103.6258 25.3898 16.7155 0.0000 -14.3423 0.0000
# 2 25.3898 124.5423 19.0810 0.0000 3.0951 0.0000
# 3 16.7155 19.0810 64.9542 0.0000 -8.3763 0.0000
# 4 0.0000 0.0000 0.0000 891.2214 0.0000 190.7657
# 5 -14.3423 3.0951 -8.3763 0.0000 26.9693 0.0000
# 6 0.0000 0.0000 0.0000 190.7657 0.0000 20.7800
#
#
#
# Elastic Compliance Matrix: (Units=1/GPa)
#
#
# Indices 1 2 3 4 5 6 
#
# 1 0.011229 -0.002202 -0.001500 0.000000 0.005758 0.000000
# 2 -0.002202 0.008925 -0.002436 0.000000 -0.002952 0.000000
# 3 -0.001500 -0.002436 0.017116 0.000000 0.004798 0.000000
# 4 0.000000 0.000000 0.000000 -0.001163 0.000000 0.010674
# 5 0.005758 -0.002952 0.004798 0.000000 0.041970 0.000000
# 6 0.000000 0.000000 0.000000 0.010674 0.000000 -0.049867
#
#
# Mechanical properties :
#
#
# Convention : Reuss Voigt Hill
#
# Bulk Modulus (GPa) = 40.01129 46.16610 43.08869
# Shear Modulus (GPa) = 102.42293 203.25655 152.83974
#
# Velocity S-wave (km/s) = 7.07067 9.96057 8.63734
# Velocity P-wave (km/s) = 9.28382 12.44260 10.97743
#
# Compressibility (1/GPa) = 0.02499295
#
# Stress axis : x y z
#
# Youngs Moduli (GPa) = 89.05776 112.04572 58.42587
#
# Poissons Ratio (x) = 0.24677 0.08764
# Poissons Ratio (y) = 0.19614 0.14231
# Poissons Ratio (z) = 0.13359 0.27291
#
# Static dielectric constant tensor:
#      x y z
#    x 1.742090 0.000000 -0.007770 
#    y 0.000000 1.756920 0.000000 
#    z -0.007770 0.000000 1.752630 
# 
# From -- ./inp_files/283287.got.cif
#   From: 2010.05.17/outbox.cif.g08.bks.cpg/sg12_142_cif.got.tgz:283287.got - 2010.06.03 13:09:07.
