data_PCOD9201338
_publ_section_title
;
Structure prediction by ZEFSAII (Michael W. Deem and Ramdas Pophale) SiO2 
 PCOD9201338
Probable space group: C 2/M
;
_chemical_formula_sum "Si O2"
_cell_formula_units_Z 56
_cell_length_a 8.225195
_cell_length_b 13.063754
_cell_length_c 24.469056
_cell_angle_alpha 90.000000
_cell_angle_beta 113.950036
_cell_angle_gamma 90.000000
_cell_volume 2402.868441
_symmetry_space_group_name_H-M "C 2/M"
_symmetry_group_IT_number 12
_symmetry_cell_setting 'monoclinic'
loop_
_space_group_symop_operation_xyz
x,y,z
-x,y,-z
-x,-y,-z
x,-y,z
1/2+x,1/2+y,z
1/2-x,1/2+y,-z
1/2-x,1/2-y,-z
1/2+x,1/2-y,z
loop_
_atom_site_type_symbol
_atom_site_label
_atom_site_fract_x
_atom_site_fract_y
_atom_site_fract_z
Si Si1 0.334155 0.813422 0.096710
Si Si2 0.691394 0.220507 0.184563
Si Si3 0.888736 0.377290 0.642486
Si Si4 0.812109 0.383584 0.398324
Si Si5 0.045053 0.190108 0.272992
Si Si6 0.713066 0.886649 0.022488
Si Si7 0.482490 0.375376 0.559438
O O1 0.535927 0.845101 0.136079
O O2 0.252909 0.796491 0.144931
O O3 0.249294 0.879982 0.037361
O O4 0.323453 0.699824 0.068350
O O5 0.620603 0.290084 0.223723
O O6 0.845970 0.154297 0.233795
O O7 0.911910 0.500000 0.654437
O O8 0.964840 0.301320 0.698558
O O9 0.676875 0.354866 0.612206
O O10 0.999398 0.350597 0.602030
O O11 0.846863 0.500000 0.418888
O O12 0.671939 0.375655 0.328814
O O13 0.693576 0.340580 0.432004
O O14 0.747755 0.000000 0.047960
O O15 0.500000 0.864731 0.000000
O O16 0.500000 0.337513 0.500000
O O17 0.471118 0.500000 0.556176
#
# Coordination Sequence:
#
# PCOD9201338 Si02
#       7
#     8   8   8   8   8   8   8
#     4  10  20  39  56  84 117 148 184 242 280 348
#     4  10  21  35  59  83 114 154 188 235 298 333
#     4  10  21  38  61  87 116 156 202 245 298 360
#     4  10  21  38  61  87 116 156 202 245 298 360
#     4  11  20  39  59  81 117 156 193 240 292 350
#     4  10  20  37  62  85 112 153 191 230 292 354
#     4   9  19  36  59  87 118 153 197 249 302 356
#
# _framework density 23.305478000000001
#
# number of rings (size 3 to 8) (size 9 to 14) (size 15 to 20)
#    0.000    2.000    2.857    0.857    0.000    0.571 
#    0.000   13.571    0.000    0.000    0.000    0.000 
#    0.000    0.000    0.000    0.000    0.000    0.000 
#
# Total GULP energy -156207.786075 kJ/mol
# GULP energy per Si atom -5578.849503 kJ/mol
# Density = 2.325243 g / cm^3
# Si number density = 23.305478 Si / 1000 Ang^3
#
#
#
# Elastic Constant Matrix: (Units=GPa)
#
#
# Indices 1 2 3 4 5 6 
#
# 1 76.6171 19.8201 10.9957 0.0000 -23.9613 0.0000
# 2 19.8201 85.6147 4.9117 0.0000 0.7578 0.0000
# 3 10.9957 4.9117 84.8741 0.0000 -23.7853 0.0000
# 4 0.0000 0.0000 0.0000 2.3827 0.0000 -6.3822
# 5 -23.9613 0.7578 -23.7853 0.0000 49.9540 0.0000
# 6 0.0000 0.0000 0.0000 -6.3822 0.0000 6.6239
#
#
#
# Elastic Compliance Matrix: (Units=1/GPa)
#
#
# Indices 1 2 3 4 5 6 
#
# 1 0.016576 -0.003931 0.000375 0.000000 0.008189 0.000000
# 2 -0.003931 0.012666 -0.000930 0.000000 -0.002521 0.000000
# 3 0.000375 -0.000930 0.013665 0.000000 0.006701 0.000000
# 4 0.000000 0.000000 0.000000 -0.265492 0.000000 -0.255804
# 5 0.008189 -0.002521 0.006701 0.000000 0.027175 0.000000
# 6 0.000000 0.000000 0.000000 -0.255804 0.000000 -0.095502
#
#
# Mechanical properties :
#
#
# Convention : Reuss Voigt Hill
#
# Bulk Modulus (GPa) = 29.46863 35.39563 32.43213
# Shear Modulus (GPa) = -18.47561 25.88402 3.70420
#
# Velocity S-wave (km/s) = -2.81865 3.33624 1.26209
# Velocity P-wave (km/s) = 1.44184 5.48282 4.00876
#
# Compressibility (1/GPa) = 0.03393439
#
# Stress axis : x y z
#
# Youngs Moduli (GPa) = 60.32732 78.95125 73.17869
#
# Poissons Ratio (x) = 0.31039 -0.02744
# Poissons Ratio (y) = 0.23717 0.06806
# Poissons Ratio (z) = -0.02262 0.07343
#
# Static dielectric constant tensor:
#      x y z
#    x 1.976160 0.000000 0.009560 
#    y 0.000000 1.849240 0.000000 
#    z 0.009560 0.000000 1.846800 
# 
# From -- ./inp_files/332684.got.cif
#   From: 2010.05.17/outbox.cif.g08.bks.cpg/sg12_167_cif.got.tgz:332684.got - 2010.06.03 13:09:07.
