data_PCOD9201442
_publ_section_title
;
Structure prediction by ZEFSAII (Michael W. Deem and Ramdas Pophale) SiO2 
 PCOD9201442
Probable space group: C 2/M
;
_chemical_formula_sum "Si O2"
_cell_formula_units_Z 50
_cell_length_a 18.711985
_cell_length_b 9.014655
_cell_length_c 27.178799
_cell_angle_alpha 90.000000
_cell_angle_beta 36.001225
_cell_angle_gamma 90.000000
_cell_volume 2694.825810
_symmetry_space_group_name_H-M "C 2/M"
_symmetry_group_IT_number 12
_symmetry_cell_setting 'monoclinic'
loop_
_space_group_symop_operation_xyz
x,y,z
-x,y,-z
-x,-y,-z
x,-y,z
1/2+x,1/2+y,z
1/2-x,1/2+y,-z
1/2-x,1/2-y,-z
1/2+x,1/2-y,z
loop_
_atom_site_type_symbol
_atom_site_label
_atom_site_fract_x
_atom_site_fract_y
_atom_site_fract_z
Si Si1 0.168089 0.823045 0.087602
Si Si2 0.320089 0.176406 0.386221
Si Si3 0.072909 0.176274 0.577683
Si Si4 0.702308 0.323186 0.271644
Si Si5 0.252653 0.164338 0.856696
Si Si6 0.615325 0.676551 0.752981
Si Si7 0.500000 0.500000 0.000000
O O1 0.202038 0.751697 0.120960
O O2 0.025950 0.795526 0.156109
O O3 0.186867 0.000000 0.078284
O O4 0.250000 0.750000 0.000000
O O5 0.180091 0.209098 0.479420
O O6 0.398790 0.234374 0.388377
O O7 0.357096 0.258378 0.316056
O O8 0.333073 0.000000 0.373193
O O9 0.937206 0.207013 0.635065
O O10 0.080601 0.000000 0.584803
O O11 0.719153 0.500000 0.260553
O O12 0.720415 0.253410 0.207765
O O13 0.796906 0.251309 0.256352
O O14 0.312774 0.000000 0.821272
O O15 0.109171 0.126608 0.940138
O O16 0.634050 0.500000 0.742819
#
# Coordination Sequence:
#
# PCOD9201442 Si02
#       7
#     8   8   8   8   8   8   2
#     4  11  25  42  63  88 118 155 198 244 295 347
#     4  10  20  37  62  89 117 153 200 240 288 352
#     4   9  20  38  60  87 121 156 190 243 296 347
#     4  11  23  39  61  88 120 156 199 241 294 349
#     4  10  22  41  63  86 119 156 189 239 292 351
#     4  11  25  41  58  84 122 158 193 246 298 344
#     4   8  24  40  66  84 124 154 192 238 304 344
#
# _framework density 18.554074
#
# number of rings (size 3 to 8) (size 9 to 14) (size 15 to 20)
#    0.480    1.280    0.000    3.360    2.240    8.960 
#    0.000    4.000    0.000    0.000    0.000    0.000 
#    0.000    0.000    0.000    0.000    0.000    0.000 
#
# Total GULP energy -139370.769971 kJ/mol
# GULP energy per Si atom -5574.830799 kJ/mol
# Density = 1.851184 g / cm^3
# Si number density = 18.554074 Si / 1000 Ang^3
#
#
#
# Elastic Constant Matrix: (Units=GPa)
#
#
# Indices 1 2 3 4 5 6 
#
# 1 88.0561 74.0288 81.7365 0.0000 -10.0092 -0.0002
# 2 74.0288 106.1614 86.2554 0.0000 -9.6197 -0.0002
# 3 81.7365 86.2554 116.7903 0.0000 -6.6423 0.0000
# 4 0.0000 0.0000 0.0000 31.6169 0.0000 -0.6344
# 5 -10.0092 -9.6197 -6.6423 0.0000 33.9780 0.0000
# 6 -0.0002 -0.0002 0.0000 -0.6344 0.0000 36.5185
#
#
#
# Elastic Compliance Matrix: (Units=1/GPa)
#
#
# Indices 1 2 3 4 5 6 
#
# 1 0.038448 -0.011876 -0.017883 0.000000 0.004468 0.000000
# 2 -0.011876 0.027594 -0.011956 0.000000 0.001977 0.000000
# 3 -0.017883 -0.011956 0.029746 0.000000 -0.002838 0.000000
# 4 0.000000 0.000000 0.000000 0.031640 0.000000 0.000550
# 5 0.004468 0.001977 -0.002838 0.000000 0.030752 0.000000
# 6 0.000000 0.000000 0.000000 0.000550 0.000000 0.027393
#
#
# Mechanical properties :
#
#
# Convention : Reuss Voigt Hill
#
# Bulk Modulus (GPa) = 80.91209 88.33879 84.62544
# Shear Modulus (GPa) = 18.30690 25.02182 21.66436
#
# Velocity S-wave (km/s) = 3.14455 3.67630 3.42077
# Velocity P-wave (km/s) = 7.54240 8.10772 7.83016
#
# Compressibility (1/GPa) = 0.01235909
#
# Stress axis : x y z
#
# Youngs Moduli (GPa) = 26.00926 36.23983 33.61775
#
# Poissons Ratio (x) = 0.43038 0.60118
# Poissons Ratio (y) = 0.30889 0.40192
# Poissons Ratio (z) = 0.46512 0.43327
#
# Static dielectric constant tensor:
#      x y z
#    x 1.606660 0.000000 -0.017450 
#    y 0.000000 1.621680 0.000000 
#    z -0.017450 0.000000 1.639000 
# 
# From -- ./inp_files/362695.got.cif
#   From: 2010.05.17/outbox.cif.g08.bks.cpg/sg12_182_cif.got.tgz:362695.got - 2010.06.03 13:09:07.
