data_PCOD9201911
_publ_section_title
;
Structure prediction by ZEFSAII (Michael W. Deem and Ramdas Pophale) SiO2 
 PCOD9201911
Probable space group: C 2/M
;
_chemical_formula_sum "Si O2"
_cell_formula_units_Z 64
_cell_length_a 28.920587
_cell_length_b 20.392299
_cell_length_c 14.936661
_cell_angle_alpha 90.000000
_cell_angle_beta 161.789149
_cell_angle_gamma 90.000000
_cell_volume 2752.944405
_symmetry_space_group_name_H-M "C 2/M"
_symmetry_group_IT_number 12
_symmetry_cell_setting 'monoclinic'
loop_
_space_group_symop_operation_xyz
x,y,z
-x,y,-z
-x,-y,-z
x,-y,z
1/2+x,1/2+y,z
1/2-x,1/2+y,-z
1/2-x,1/2-y,-z
1/2+x,1/2-y,z
loop_
_atom_site_type_symbol
_atom_site_label
_atom_site_fract_x
_atom_site_fract_y
_atom_site_fract_z
Si Si1 0.090134 0.810064 0.062622
Si Si2 0.249764 0.326547 0.410608
Si Si3 0.797275 0.420490 0.517465
Si Si4 0.653373 0.153967 0.741703
Si Si5 0.770000 0.929093 0.117764
Si Si6 0.406074 0.267035 0.131291
Si Si7 0.194575 0.166757 0.686401
Si Si8 0.454103 0.926427 0.625373
O O1 0.165900 0.742630 0.238720
O O2 0.159184 0.878954 0.222180
O O3 0.111630 0.804912 0.995295
O O4 0.913367 0.809673 0.749613
O O5 0.176374 0.379110 0.342674
O O6 0.280003 0.356478 0.367686
O O7 0.778012 0.500000 0.494983
O O8 0.920569 0.409475 0.667099
O O9 0.500000 0.182191 0.500000
O O10 0.791077 0.202543 0.988463
O O11 0.617662 0.120427 0.580971
O O12 0.706562 0.099245 0.909808
O O13 0.873229 0.882319 0.366088
O O14 0.833669 0.000000 0.221298
O O15 0.626621 0.933110 0.919379
O O16 0.348047 0.194997 0.005497
O O17 0.577653 0.273475 0.468437
O O18 0.388858 0.000000 0.493183
#
# Coordination Sequence:
#
# PCOD9201911 Si02
#       8
#     8   8   8   8   8   8   8   8
#     4  10  21  42  66  93 128 169 215 265 315 379
#     4  10  23  41  66  95 125 170 219 262 317 378
#     4  11  22  37  64  99 133 168 211 263 320 380
#     4  10  20  37  66  96 126 165 210 265 312 380
#     4  10  22  41  64  92 129 171 212 258 325 382
#     4  10  22  41  64  97 128 165 217 260 326 376
#     4  10  24  42  66  93 129 170 209 269 316 381
#     4   9  19  37  63  94 128 168 211 259 311 379
#
# _framework density 23.247836
#
# number of rings (size 3 to 8) (size 9 to 14) (size 15 to 20)
#    0.000    2.000    1.250    1.125    3.500    6.000 
#    0.000    5.625    0.000    5.250    0.000    0.000 
#    0.000    0.000    0.000    0.000    0.000    0.000 
#
# Total GULP energy -178704.740425 kJ/mol
# GULP energy per Si atom -5584.523138 kJ/mol
# Density = 2.319492 g / cm^3
# Si number density = 23.247836 Si / 1000 Ang^3
#
#
#
# Elastic Constant Matrix: (Units=GPa)
#
#
# Indices 1 2 3 4 5 6 
#
# 1 107.2507 51.0407 24.2705 0.0000 17.2730 0.0000
# 2 51.0407 102.3937 34.4239 0.0000 -12.1517 0.0000
# 3 24.2705 34.4239 83.9330 0.0000 -1.3891 0.0000
# 4 0.0000 0.0000 0.0000 17.5745 0.0000 -4.5243
# 5 17.2730 -12.1517 -1.3891 0.0000 21.1380 0.0000
# 6 0.0000 0.0000 0.0000 -4.5243 0.0000 23.1459
#
#
#
# Elastic Compliance Matrix: (Units=1/GPa)
#
#
# Indices 1 2 3 4 5 6 
#
# 1 0.018532 -0.011488 -0.001008 0.000000 -0.021814 0.000000
# 2 -0.011488 0.019328 -0.004270 0.000000 0.020218 0.000000
# 3 -0.001008 -0.004270 0.013946 0.000000 -0.000715 0.000000
# 4 0.000000 0.000000 0.000000 0.059916 0.000000 0.011711
# 5 -0.021814 0.020218 -0.000715 0.000000 0.076709 0.000000
# 6 0.000000 0.000000 0.000000 0.011711 0.000000 0.045493
#
#
# Mechanical properties :
#
#
# Convention : Reuss Voigt Hill
#
# Bulk Modulus (GPa) = 54.72780 57.00530 55.86655
# Shear Modulus (GPa) = 18.27833 24.62783 21.45308
#
# Velocity S-wave (km/s) = 2.80704 3.25831 3.04106
# Velocity P-wave (km/s) = 5.83935 6.22329 6.03438
#
# Compressibility (1/GPa) = 0.01827225
#
# Stress axis : x y z
#
# Youngs Moduli (GPa) = 53.95962 51.73940 71.70760
#
# Poissons Ratio (x) = 0.59437 0.07231
# Poissons Ratio (y) = 0.61987 0.30623
# Poissons Ratio (z) = 0.05441 0.22095
#
# Static dielectric constant tensor:
#      x y z
#    x 1.933290 0.000000 -0.019170 
#    y 0.000000 1.911190 0.000000 
#    z -0.019170 0.000000 1.889380 
# 
# From -- ./inp_files/251933.got.cif
#   From: 2010.05.17/outbox.cif.g08.bks.cpg/sg12_126_cif.got.tgz:251933.got - 2010.06.03 13:09:07.
