data_PCOD9201199
_publ_section_title
;
Structure prediction by ZEFSAII (Michael W. Deem and Ramdas Pophale) SiO2 
 PCOD9201199
Probable space group: C 2/M
;
_chemical_formula_sum "Si O2"
_cell_formula_units_Z 56
_cell_length_a 19.697727
_cell_length_b 14.507486
_cell_length_c 15.487618
_cell_angle_alpha 90.000000
_cell_angle_beta 148.490990
_cell_angle_gamma 90.000000
_cell_volume 2313.073490
_symmetry_space_group_name_H-M "C 2/M"
_symmetry_group_IT_number 12
_symmetry_cell_setting 'monoclinic'
loop_
_space_group_symop_operation_xyz
x,y,z
-x,y,-z
-x,-y,-z
x,-y,z
1/2+x,1/2+y,z
1/2-x,1/2+y,-z
1/2-x,1/2-y,-z
1/2+x,1/2-y,z
loop_
_atom_site_type_symbol
_atom_site_label
_atom_site_fract_x
_atom_site_fract_y
_atom_site_fract_z
Si Si1 0.620801 0.356280 0.580557
Si Si2 0.118104 0.887105 0.904222
Si Si3 0.212607 0.387164 0.077919
Si Si4 0.640362 0.610209 0.119596
Si Si5 0.331770 0.396509 0.559497
Si Si6 0.918316 0.354253 0.492692
Si Si7 0.552592 0.107083 0.285168
O O1 0.500000 0.400329 0.500000
O O2 0.734608 0.351785 0.773953
O O3 0.659590 0.403543 0.534415
O O4 0.573242 0.255775 0.500178
O O5 0.196503 0.858106 0.904169
O O6 0.968239 0.855446 0.737393
O O7 0.117460 0.000000 0.899708
O O8 0.172270 0.858477 0.056204
O O9 0.215054 0.500000 0.083747
O O10 0.067413 0.355372 0.898637
O O11 0.625735 0.500000 0.098296
O O12 0.764895 0.626420 0.314899
O O13 0.500000 0.646441 0.000000
O O14 0.328072 0.500000 0.594724
O O15 0.194738 0.349560 0.430070
O O16 0.976088 0.390444 0.644277
O O17 0.000000 0.390390 0.500000
O O18 0.565486 0.000000 0.271809
#
# Coordination Sequence:
#
# PCOD9201199 Si02
#       7
#     8   8   8   8   8   8   8
#     4  11  23  40  58  88 123 161 205 242 294 360
#     4   9  17  31  57  88 110 146 196 244 298 339
#     4  10  20  37  62  89 118 152 202 256 295 348
#     4  10  20  37  61  88 119 153 200 255 296 347
#     4  10  20  37  63  88 117 155 198 252 301 349
#     4  11  24  41  58  87 124 165 199 237 299 365
#     4  10  22  40  62  90 118 150 198 253 307 358
#
# _framework density 24.210211999999999
#
# number of rings (size 3 to 8) (size 9 to 14) (size 15 to 20)
#    0.000    1.857    1.429    2.571    0.000    6.286 
#    5.143    4.286    0.000    0.000    0.000    0.000 
#    0.000    0.000    0.000    0.000    0.000    0.000 
#
# Total GULP energy -156613.120010 kJ/mol
# GULP energy per Si atom -5593.325715 kJ/mol
# Density = 2.415511 g / cm^3
# Si number density = 24.210212 Si / 1000 Ang^3
#
#
#
# Elastic Constant Matrix: (Units=GPa)
#
#
# Indices 1 2 3 4 5 6 
#
# 1 45.6343 -2.7073 -11.3429 0.0000 0.0204 0.0000
# 2 -2.7073 58.3453 -3.2847 0.0000 5.4739 0.0000
# 3 -11.3429 -3.2847 121.6634 0.0000 -4.3233 0.0000
# 4 0.0000 0.0000 0.0000 31.4634 0.0000 -0.8984
# 5 0.0204 5.4739 -4.3233 0.0000 43.9704 0.0000
# 6 0.0000 0.0000 0.0000 -0.8984 0.0000 8.7735
#
#
#
# Elastic Compliance Matrix: (Units=1/GPa)
#
#
# Indices 1 2 3 4 5 6 
#
# 1 0.022512 0.001159 0.002132 0.000000 0.000055 0.000000
# 2 0.001159 0.017420 0.000503 0.000000 -0.002120 0.000000
# 3 0.002132 0.000503 0.008459 0.000000 0.000768 0.000000
# 4 0.000000 0.000000 0.000000 0.031876 0.000000 0.003264
# 5 0.000055 -0.002120 0.000768 0.000000 0.023082 0.000000
# 6 0.000000 0.000000 0.000000 0.003264 0.000000 0.114313
#
#
# Mechanical properties :
#
#
# Convention : Reuss Voigt Hill
#
# Bulk Modulus (GPa) = 17.86329 21.21927 19.54128
# Shear Modulus (GPa) = 21.85947 33.03999 27.44973
#
# Velocity S-wave (km/s) = 3.00809 3.69821 3.37086
# Velocity P-wave (km/s) = 4.41127 5.19801 4.82071
#
# Compressibility (1/GPa) = 0.05598072
#
# Stress axis : x y z
#
# Youngs Moduli (GPa) = 44.42063 57.40421 118.21657
#
# Poissons Ratio (x) = -0.06656 -0.25205
# Poissons Ratio (y) = -0.05150 -0.05947
# Poissons Ratio (z) = -0.09471 -0.02888
#
# Static dielectric constant tensor:
#      x y z
#    x 1.925510 0.000000 0.033780 
#    y 0.000000 1.973310 0.000000 
#    z 0.033780 0.000000 1.896690 
# 
# From -- ./inp_files/234702.got.cif
#   From: 2010.05.17/outbox.cif.g08.bks.cpg/sg12_118_cif.got.tgz:234702.got - 2010.06.03 13:09:07.
