data_PCOD9201480
_publ_section_title
;
Structure prediction by ZEFSAII (Michael W. Deem and Ramdas Pophale) SiO2 
 PCOD9201480
Probable space group: C 2/M
;
_chemical_formula_sum "Si O2"
_cell_formula_units_Z 64
_cell_length_a 26.412996
_cell_length_b 13.915243
_cell_length_c 13.399378
_cell_angle_alpha 90.000000
_cell_angle_beta 140.342176
_cell_angle_gamma 90.000000
_cell_volume 3143.046247
_symmetry_space_group_name_H-M "C 2/M"
_symmetry_group_IT_number 12
_symmetry_cell_setting 'monoclinic'
loop_
_space_group_symop_operation_xyz
x,y,z
-x,y,-z
-x,-y,-z
x,-y,z
1/2+x,1/2+y,z
1/2-x,1/2+y,-z
1/2-x,1/2-y,-z
1/2+x,1/2-y,z
loop_
_atom_site_type_symbol
_atom_site_label
_atom_site_fract_x
_atom_site_fract_y
_atom_site_fract_z
Si Si1 0.214339 0.811723 0.147664
Si Si2 0.879893 0.890071 0.173516
Si Si3 0.217372 0.108185 0.774342
Si Si4 0.630069 0.889206 0.510801
Si Si5 0.352740 0.390277 0.553697
Si Si6 0.576976 0.247819 0.057533
Si Si7 0.180724 0.387330 0.356695
Si Si8 0.994474 0.751286 0.732974
O O1 0.222997 0.697924 0.137149
O O2 0.297409 0.845704 0.317439
O O3 0.143863 0.822640 0.121958
O O4 0.189408 0.869204 0.011793
O O5 0.843871 0.877028 0.228321
O O6 0.948036 0.816094 0.246597
O O7 0.908020 0.000000 0.206493
O O8 0.171523 0.109980 0.599704
O O9 0.251969 0.000000 0.837615
O O10 0.652837 0.881688 0.428084
O O11 0.550699 0.827729 0.399823
O O12 0.619308 0.000000 0.519878
O O13 0.370231 0.500000 0.610654
O O14 0.272558 0.355711 0.486442
O O15 0.427067 0.321251 0.676679
O O16 0.623346 0.171875 0.196900
O O17 0.500000 0.284793 0.000000
O O18 0.541868 0.208476 0.899317
O O19 0.180119 0.500000 0.325266
#
# Coordination Sequence:
#
# PCOD9201480 Si02
#       8
#     8   8   8   8   8   8   8   8
#     4  11  22  40  63  88 124 161 199 247 294 361
#     4  10  23  41  63  91 121 155 198 250 306 358
#     4  10  20  38  66  94 116 151 205 252 298 349
#     4  11  23  39  61  87 119 165 204 240 297 361
#     4  10  20  37  62  90 117 150 198 252 295 350
#     4  11  22  34  55  85 119 160 192 239 298 346
#     4  10  21  37  58  85 117 156 204 245 286 352
#     4  11  22  37  58  85 123 159 190 249 301 357
#
# _framework density 20.362411000000002
#
# number of rings (size 3 to 8) (size 9 to 14) (size 15 to 20)
#    0.000    1.500    3.750    1.125    1.750    2.250 
#    0.000    3.750    0.000    4.500    0.000    0.000 
#    0.000    0.000    0.000    0.000    0.000    0.000 
#
# Total GULP energy -178791.010546 kJ/mol
# GULP energy per Si atom -5587.219080 kJ/mol
# Density = 2.031607 g / cm^3
# Si number density = 20.362411 Si / 1000 Ang^3
#
#
#
# Elastic Constant Matrix: (Units=GPa)
#
#
# Indices 1 2 3 4 5 6 
#
# 1 72.4603 34.2204 21.1264 0.0000 1.0204 0.0000
# 2 34.2204 87.2032 16.1938 0.0000 9.3431 0.0000
# 3 21.1264 16.1938 53.2983 0.0000 16.8446 0.0000
# 4 0.0000 0.0000 0.0000 23.5783 0.0000 2.4225
# 5 1.0204 9.3431 16.8446 0.0000 24.6873 0.0000
# 6 0.0000 0.0000 0.0000 2.4225 0.0000 19.2049
#
#
#
# Elastic Compliance Matrix: (Units=1/GPa)
#
#
# Indices 1 2 3 4 5 6 
#
# 1 0.019204 -0.006853 -0.007775 0.000000 0.007105 0.000000
# 2 -0.006853 0.014737 -0.000112 0.000000 -0.005218 0.000000
# 3 -0.007775 -0.000112 0.027747 0.000000 -0.018568 0.000000
# 4 0.000000 0.000000 0.000000 0.042969 0.000000 -0.005420
# 5 0.007105 -0.005218 -0.018568 0.000000 0.054857 0.000000
# 6 0.000000 0.000000 0.000000 -0.005420 0.000000 0.052754
#
#
# Mechanical properties :
#
#
# Convention : Reuss Voigt Hill
#
# Bulk Modulus (GPa) = 31.05013 39.56032 35.30522
# Shear Modulus (GPa) = 19.80321 22.92219 21.36270
#
# Velocity S-wave (km/s) = 3.12194 3.35880 3.24253
# Velocity P-wave (km/s) = 5.31763 5.87472 5.60310
#
# Compressibility (1/GPa) = 0.03220598
#
# Stress axis : x y z
#
# Youngs Moduli (GPa) = 52.07186 67.85761 36.04023
#
# Poissons Ratio (x) = 0.46506 0.28023
# Poissons Ratio (y) = 0.35687 0.00404
# Poissons Ratio (z) = 0.40488 0.00760
#
# Static dielectric constant tensor:
#      x y z
#    x 1.725190 0.000000 0.009910 
#    y 0.000000 1.741380 0.000000 
#    z 0.009910 0.000000 1.710260 
# 
# From -- ./inp_files/183802.got.cif
#   From: 2010.05.17/outbox.cif.g08.bks.cpg/sg12_92_cif.got.tgz:183802.got - 2010.06.03 13:09:07.
