data_PCOD9201188
_publ_section_title
;
Structure prediction by ZEFSAII (Michael W. Deem and Ramdas Pophale) SiO2 
 PCOD9201188
Probable space group: C 2/M
;
_chemical_formula_sum "Si O2"
_cell_formula_units_Z 50
_cell_length_a 27.942902
_cell_length_b 11.971754
_cell_length_c 8.638859
_cell_angle_alpha 90.000000
_cell_angle_beta 68.497572
_cell_angle_gamma 90.000000
_cell_volume 2688.786566
_symmetry_space_group_name_H-M "C 2/M"
_symmetry_group_IT_number 12
_symmetry_cell_setting 'monoclinic'
loop_
_space_group_symop_operation_xyz
x,y,z
-x,y,-z
-x,-y,-z
x,-y,z
1/2+x,1/2+y,z
1/2-x,1/2+y,-z
1/2-x,1/2-y,-z
1/2+x,1/2-y,z
loop_
_atom_site_type_symbol
_atom_site_label
_atom_site_fract_x
_atom_site_fract_y
_atom_site_fract_z
Si Si1 0.691214 0.123102 0.115959
Si Si2 0.245037 0.291960 0.751767
Si Si3 0.521624 0.624874 0.146871
Si Si4 0.924608 0.306590 0.727607
Si Si5 0.184812 0.127340 0.606889
Si Si6 0.500000 0.000000 0.500000
Si Si7 0.416824 0.373040 0.464028
O O1 0.714781 0.213157 0.205132
O O2 0.630540 0.140420 0.172865
O O3 0.702182 0.000000 0.165100
O O4 0.717572 0.137747 0.917674
O O5 0.203796 0.213993 0.712730
O O6 0.276115 0.359194 0.584491
O O7 0.545545 0.500000 0.132390
O O8 0.556619 0.728344 0.153931
O O9 0.472453 0.627957 0.318466
O O10 0.500000 0.635574 0.000000
O O11 0.965057 0.400987 0.628082
O O12 0.916825 0.218878 0.596388
O O13 0.127912 0.150208 0.607825
O O14 0.186165 0.000000 0.662522
O O15 0.407552 0.500000 0.533802
#
# Coordination Sequence:
#
# PCOD9201188 Si02
#       7
#     8   8   8   8   8   2   8
#     4  11  23  39  59  86 119 160 199 242 293 350
#     4  10  22  39  59  84 120 156 194 244 289 350
#     4  10  22  39  62  90 120 147 188 250 307 354
#     4  12  22  40  62  87 120 159 205 240 293 359
#     4  10  20  37  61  88 117 149 193 241 295 351
#     4  12  24  40  64  84 120 168 202 254 276 360
#     4  10  20  37  62  89 116 152 194 248 297 353
#
# _framework density 18.595749999999999
#
# number of rings (size 3 to 8) (size 9 to 14) (size 15 to 20)
#    0.000    1.440    4.000    1.440    2.240    1.280 
#    0.000    2.000    5.280    0.000    0.000    0.000 
#    0.000    0.000    0.000    0.000    0.000    0.000 
#
# Total GULP energy -139324.855171 kJ/mol
# GULP energy per Si atom -5572.994207 kJ/mol
# Density = 1.855343 g / cm^3
# Si number density = 18.595750 Si / 1000 Ang^3
#
#
#
# Elastic Constant Matrix: (Units=GPa)
#
#
# Indices 1 2 3 4 5 6 
#
# 1 43.1730 28.4509 1.5102 0.0000 6.0349 0.0000
# 2 28.4509 96.0232 5.6146 0.0000 3.0807 0.0000
# 3 1.5102 5.6146 26.2540 0.0000 -1.2465 0.0000
# 4 0.0000 0.0000 0.0000 -5.9922 0.0000 -10.5517
# 5 6.0349 3.0807 -1.2465 0.0000 23.9492 0.0000
# 6 0.0000 0.0000 0.0000 -10.5517 0.0000 -6.7756
#
#
#
# Elastic Compliance Matrix: (Units=1/GPa)
#
#
# Indices 1 2 3 4 5 6 
#
# 1 0.029725 -0.008592 -0.000176 0.000000 -0.006394 0.000000
# 2 -0.008592 0.013082 -0.002286 0.000000 0.000363 0.000000
# 3 -0.000176 -0.002286 0.038700 0.000000 0.002353 0.000000
# 4 0.000000 0.000000 0.000000 0.095785 0.000000 -0.149167
# 5 -0.006394 0.000363 0.002353 0.000000 0.043442 0.000000
# 6 0.000000 0.000000 0.000000 -0.149167 0.000000 0.084710
#
#
# Mechanical properties :
#
#
# Convention : Reuss Voigt Hill
#
# Bulk Modulus (GPa) = 16.83539 26.28907 21.56223
# Shear Modulus (GPa) = 14.39466 10.89457 12.64461
#
# Velocity S-wave (km/s) = 2.78525 2.42309 2.61046
# Velocity P-wave (km/s) = 4.40642 4.69002 4.55043
#
# Compressibility (1/GPa) = 0.05939868
#
# Stress axis : x y z
#
# Youngs Moduli (GPa) = 33.64223 76.44189 25.83965
#
# Poissons Ratio (x) = 0.65677 0.00455
# Poissons Ratio (y) = 0.28904 0.05907
# Poissons Ratio (z) = 0.00592 0.17476
#
# Static dielectric constant tensor:
#      x y z
#    x 1.635930 0.000000 -0.003490 
#    y 0.000000 1.632430 0.000000 
#    z -0.003490 0.000000 1.623140 
# 
# From -- ./inp_files/102506.got.cif
#   From: 2010.05.17/outbox.cif.g08.bks.cpg/sg12_52_cif.got.tgz:102506.got - 2010.06.03 13:09:07.
