data_PCOD9201638
_publ_section_title
;
Structure prediction by ZEFSAII (Michael W. Deem and Ramdas Pophale) SiO2 
 PCOD9201638
Probable space group: C 2/M
;
_chemical_formula_sum "Si O2"
_cell_formula_units_Z 56
_cell_length_a 24.546318
_cell_length_b 8.760925
_cell_length_c 17.983463
_cell_angle_alpha 90.000000
_cell_angle_beta 140.147162
_cell_angle_gamma 90.000000
_cell_volume 2478.245369
_symmetry_space_group_name_H-M "C 2/M"
_symmetry_group_IT_number 12
_symmetry_cell_setting 'monoclinic'
loop_
_space_group_symop_operation_xyz
x,y,z
-x,y,-z
-x,-y,-z
x,-y,z
1/2+x,1/2+y,z
1/2-x,1/2+y,-z
1/2-x,1/2-y,-z
1/2+x,1/2-y,z
loop_
_atom_site_type_symbol
_atom_site_label
_atom_site_fract_x
_atom_site_fract_y
_atom_site_fract_z
Si Si1 0.837207 0.823788 0.560753
Si Si2 0.857646 0.823635 0.969843
Si Si3 0.512753 0.175979 0.193369
Si Si4 0.795968 0.821574 0.121736
Si Si5 0.305639 0.831695 0.385946
Si Si6 0.421026 0.823633 0.365624
Si Si7 0.896270 0.172367 0.841622
O O1 0.750000 0.750000 0.500000
O O2 0.917847 0.735691 0.676815
O O3 0.837872 0.799522 0.473356
O O4 0.840056 0.000000 0.585545
O O5 0.778517 0.712281 0.896354
O O6 0.901091 0.806471 0.934784
O O7 0.830022 0.000000 0.947777
O O8 0.928525 0.778305 0.104002
O O9 0.559039 0.204251 0.162632
O O10 0.490995 0.000000 0.181203
O O11 0.882050 0.753338 0.250176
O O12 0.808401 0.000000 0.121930
O O13 0.750000 0.750000 0.000000
O O14 0.344669 0.823596 0.345467
O O15 0.204279 0.824732 0.278749
O O16 0.329749 0.000000 0.442004
O O17 0.500000 0.763343 0.500000
O O18 0.442822 0.000000 0.369711
O O19 0.927089 0.000000 0.854752
#
# Coordination Sequence:
#
# PCOD9201638 Si02
#       7
#     8   8   8   8   8   8   8
#     4  12  24  39  59  86 122 168 215 266 319 377
#     4  11  23  43  67  93 127 167 214 265 324 387
#     4  12  25  39  59  92 131 171 216 264 316 382
#     4  12  26  45  71 100 136 177 223 277 337 400
#     4  10  20  38  64  93 125 164 207 259 322 386
#     4  10  22  44  73 102 133 171 218 274 337 404
#     4  10  20  37  63  90 124 167 209 257 317 378
#
# _framework density 22.596633000000001
#
# number of rings (size 3 to 8) (size 9 to 14) (size 15 to 20)
#    0.000    1.000    2.857    4.714    0.000    4.857 
#    0.000    4.286    0.000    0.000    0.000    0.000 
#    0.000    0.000    0.000    0.000    0.000    0.000 
#
# Total GULP energy -156493.786005 kJ/mol
# GULP energy per Si atom -5589.063786 kJ/mol
# Density = 2.254520 g / cm^3
# Si number density = 22.596633 Si / 1000 Ang^3
#
#
#
# Elastic Constant Matrix: (Units=GPa)
#
#
# Indices 1 2 3 4 5 6 
#
# 1 19.8761 4.2884 7.2634 0.0000 -5.8315 0.0000
# 2 4.2884 87.7122 40.7944 0.0000 -15.8557 0.0000
# 3 7.2634 40.7944 166.2713 0.0000 -13.6354 0.0000
# 4 0.0000 0.0000 0.0000 36.1608 0.0000 -2.5341
# 5 -5.8315 -15.8557 -13.6354 0.0000 32.1200 0.0000
# 6 0.0000 0.0000 0.0000 -2.5341 0.0000 24.5090
#
#
#
# Elastic Compliance Matrix: (Units=1/GPa)
#
#
# Indices 1 2 3 4 5 6 
#
# 1 0.053555 -0.000290 -0.001536 0.000000 0.008928 0.000000
# 2 -0.000290 0.013765 -0.002913 0.000000 0.005506 0.000000
# 3 -0.001536 -0.002913 0.006895 0.000000 0.001210 0.000000
# 4 0.000000 0.000000 0.000000 0.027856 0.000000 0.002880
# 5 0.008928 0.005506 0.001210 0.000000 0.035986 0.000000
# 6 0.000000 0.000000 0.000000 0.002880 0.000000 0.041099
#
#
# Mechanical properties :
#
#
# Convention : Reuss Voigt Hill
#
# Bulk Modulus (GPa) = 15.44712 42.06133 28.75423
# Shear Modulus (GPa) = 23.78524 33.32552 28.55538
#
# Velocity S-wave (km/s) = 3.24790 3.84448 3.55871
# Velocity P-wave (km/s) = 4.57340 6.19363 5.44413
#
# Compressibility (1/GPa) = 0.06473698
#
# Stress axis : x y z
#
# Youngs Moduli (GPa) = 18.67235 72.64674 145.02534
#
# Poissons Ratio (x) = 0.02107 0.22279
# Poissons Ratio (y) = 0.00542 0.42247
# Poissons Ratio (z) = 0.02868 0.21163
#
# Static dielectric constant tensor:
#      x y z
#    x 1.877190 0.000000 -0.024320 
#    y 0.000000 1.813560 0.000000 
#    z -0.024320 0.000000 1.902000 
# 
# From -- ./inp_files/329723.got.cif
#   From: 2010.05.17/outbox.cif.g08.bks.cpg/sg12_165_cif.got.tgz:329723.got - 2010.06.03 13:09:07.
