data_PCOD9201070
_publ_section_title
;
Structure prediction by ZEFSAII (Michael W. Deem and Ramdas Pophale) SiO2 
 PCOD9201070
Probable space group: C 2/M
;
_chemical_formula_sum "Si O2"
_cell_formula_units_Z 64
_cell_length_a 20.553968
_cell_length_b 8.915493
_cell_length_c 19.450707
_cell_angle_alpha 90.000000
_cell_angle_beta 90.099165
_cell_angle_gamma 90.000000
_cell_volume 3564.312558
_symmetry_space_group_name_H-M "C 2/M"
_symmetry_group_IT_number 12
_symmetry_cell_setting 'monoclinic'
loop_
_space_group_symop_operation_xyz
x,y,z
-x,y,-z
-x,-y,-z
x,-y,z
1/2+x,1/2+y,z
1/2-x,1/2+y,-z
1/2-x,1/2-y,-z
1/2+x,1/2-y,z
loop_
_atom_site_type_symbol
_atom_site_label
_atom_site_fract_x
_atom_site_fract_y
_atom_site_fract_z
Si Si1 0.758089 0.320626 0.351525
Si Si2 0.307967 0.679690 0.790555
Si Si3 0.949941 0.678576 0.792894
Si Si4 0.984828 0.822043 0.655804
Si Si5 0.549908 0.319252 0.060649
Si Si6 0.700698 0.679327 0.053748
Si Si7 0.863865 0.321841 0.577647
Si Si8 0.105429 0.678561 0.582059
O O1 0.750034 0.500000 0.361673
O O2 0.739843 0.287055 0.272461
O O3 0.706391 0.236394 0.399241
O O4 0.831310 0.283129 0.372681
O O5 0.321697 0.500000 0.789852
O O6 0.375786 0.765513 0.780851
O O7 0.282676 0.717198 0.866781
O O8 0.953059 0.500000 0.791715
O O9 0.991176 0.747702 0.730837
O O10 0.968534 0.742188 0.867607
O O11 0.918166 0.762109 0.622331
O O12 0.043469 0.769208 0.607572
O O13 0.982374 0.000000 0.662172
O O14 0.549153 0.500000 0.070152
O O15 0.624787 0.276519 0.043708
O O16 0.500000 0.280999 0.000000
O O17 0.703895 0.500000 0.046823
O O18 0.750000 0.750000 0.000000
O O19 0.868891 0.500000 0.589615
O O20 0.877519 0.293118 0.497437
O O21 0.092057 0.500000 0.589076
#
# Coordination Sequence:
#
# PCOD9201070 Si02
#       8
#     8   8   8   8   8   8   8   8
#     4  10  20  37  61  84 113 151 189 231 283 345
#     4   9  18  35  58  82 110 149 192 228 271 333
#     4  11  21  35  59  87 114 146 189 240 284 333
#     4  12  24  39  59  82 112 152 197 239 285 343
#     4   9  19  38  61  83 114 151 188 229 275 333
#     4   9  18  33  54  81 112 146 181 223 271 320
#     4  11  22  37  60  86 114 147 189 239 287 342
#     4  10  23  40  56  83 120 151 183 236 298 342
#
# _framework density 17.955777000000001
#
# number of rings (size 3 to 8) (size 9 to 14) (size 15 to 20)
#    0.000    1.875    1.250    4.125    0.000    5.250 
#    2.250    0.000    0.000    0.000    0.000    0.000 
#    0.000    0.000    0.000    0.000    0.000    0.000 
#
# Total GULP energy -178717.419369 kJ/mol
# GULP energy per Si atom -5584.919355 kJ/mol
# Density = 1.791491 g / cm^3
# Si number density = 17.955777 Si / 1000 Ang^3
#
#
#
# Elastic Constant Matrix: (Units=GPa)
#
#
# Indices 1 2 3 4 5 6 
#
# 1 19.5558 11.0251 4.4346 0.0000 0.7280 0.0000
# 2 11.0251 42.4087 29.1340 0.0000 1.6931 0.0000
# 3 4.4346 29.1340 80.6746 0.0000 4.3891 0.0000
# 4 0.0000 0.0000 0.0000 29.3311 0.0000 -7.2977
# 5 0.7280 1.6931 4.3891 0.0000 31.8841 0.0000
# 6 0.0000 0.0000 0.0000 -7.2977 0.0000 28.6205
#
#
#
# Elastic Compliance Matrix: (Units=1/GPa)
#
#
# Indices 1 2 3 4 5 6 
#
# 1 0.060531 -0.017885 0.003179 0.000000 -0.000870 0.000000
# 2 -0.017885 0.036645 -0.012259 0.000000 0.000150 0.000000
# 3 0.003179 -0.012259 0.016742 0.000000 -0.001726 0.000000
# 4 0.000000 0.000000 0.000000 0.036403 0.000000 0.009282
# 5 -0.000870 0.000150 -0.001726 0.000000 0.031613 0.000000
# 6 0.000000 0.000000 0.000000 0.009282 0.000000 0.037307
#
#
# Mechanical properties :
#
#
# Convention : Reuss Voigt Hill
#
# Bulk Modulus (GPa) = 16.67020 25.75850 21.21435
# Shear Modulus (GPa) = 17.05515 24.50349 20.77932
#
# Velocity S-wave (km/s) = 3.08529 3.69813 3.40553
# Velocity P-wave (km/s) = 4.69001 5.71066 5.22532
#
# Compressibility (1/GPa) = 0.05998728
#
# Stress axis : x y z
#
# Youngs Moduli (GPa) = 16.52054 27.28863 59.73133
#
# Poissons Ratio (x) = 0.48807 -0.18989
# Poissons Ratio (y) = 0.29548 0.73223
# Poissons Ratio (z) = -0.05252 0.33452
#
# Static dielectric constant tensor:
#      x y z
#    x 1.589050 0.000000 0.008550 
#    y 0.000000 1.600040 0.000000 
#    z 0.008550 0.000000 1.618910 
# 
# From -- ./inp_files/314012.got.cif
#   From: 2010.05.17/outbox.cif.g08.bks.cpg/sg12_158_cif.got.tgz:314012.got - 2010.06.03 13:09:07.
