data_PCOD9201873
_publ_section_title
;
Structure prediction by ZEFSAII (Michael W. Deem and Ramdas Pophale) SiO2 
 PCOD9201873
Probable space group: C 2/M
;
_chemical_formula_sum "Si O2"
_cell_formula_units_Z 64
_cell_length_a 12.641862
_cell_length_b 26.501886
_cell_length_c 15.412467
_cell_angle_alpha 90.000000
_cell_angle_beta 141.578772
_cell_angle_gamma 90.000000
_cell_volume 3208.912381
_symmetry_space_group_name_H-M "C 2/M"
_symmetry_group_IT_number 12
_symmetry_cell_setting 'monoclinic'
loop_
_space_group_symop_operation_xyz
x,y,z
-x,y,-z
-x,-y,-z
x,-y,z
1/2+x,1/2+y,z
1/2-x,1/2+y,-z
1/2-x,1/2-y,-z
1/2+x,1/2-y,z
loop_
_atom_site_type_symbol
_atom_site_label
_atom_site_fract_x
_atom_site_fract_y
_atom_site_fract_z
Si Si1 0.599775 0.440563 0.980382
Si Si2 0.824131 0.655199 0.546648
Si Si3 0.699151 0.297625 0.642415
Si Si4 0.251894 0.192971 0.031720
Si Si5 0.671936 0.190865 0.714347
Si Si6 0.548056 0.872966 0.128451
Si Si7 0.920683 0.865069 0.760202
Si Si8 0.004544 0.559538 0.253319
O O1 0.578098 0.500000 0.964612
O O2 0.510578 0.417962 0.838147
O O3 0.500000 0.419674 0.000000
O O4 0.800494 0.431094 0.120789
O O5 0.786778 0.690055 0.606181
O O6 0.654830 0.645340 0.382684
O O7 0.968626 0.683587 0.584159
O O8 0.904424 0.601085 0.626866
O O9 0.500000 0.305036 0.500000
O O10 0.725132 0.242557 0.700581
O O11 0.782594 0.339151 0.758745
O O12 0.275433 0.190957 0.150637
O O13 0.401035 0.161296 0.079948
O O14 0.250000 0.250000 0.000000
O O15 0.070701 0.171769 0.886033
O O16 0.763189 0.145348 0.723298
O O17 0.566178 0.923060 0.197735
O O18 0.500000 0.884246 0.000000
O O19 0.033861 0.500000 0.290588
#
# Coordination Sequence:
#
# PCOD9201873 Si02
#       8
#     8   8   8   8   8   8   8   8
#     4  10  20  37  65  96 126 163 213 268 324 380
#     4  11  25  43  61  95 131 172 215 266 320 385
#     4  11  25  41  64  89 126 175 216 260 316 380
#     4  12  24  40  63  92 126 166 211 263 314 377
#     4  12  24  43  62  89 130 173 215 257 320 383
#     4  11  23  43  63  94 128 163 215 268 318 383
#     4  12  24  38  64  93 129 166 213 262 314 379
#     4  10  21  43  68  92 128 171 211 267 327 381
#
# _framework density 19.944451000000001
#
# number of rings (size 3 to 8) (size 9 to 14) (size 15 to 20)
#    0.000    0.875    3.750    4.500    3.500    1.750 
#    0.000    0.000    0.000    9.750    0.000    0.000 
#    0.000    0.000    0.000    0.000    0.000    0.000 
#
# Total GULP energy -178810.504363 kJ/mol
# GULP energy per Si atom -5587.828261 kJ/mol
# Density = 1.989906 g / cm^3
# Si number density = 19.944451 Si / 1000 Ang^3
#
#
#
# Elastic Constant Matrix: (Units=GPa)
#
#
# Indices 1 2 3 4 5 6 
#
# 1 50.4563 29.7175 17.9590 0.0000 -2.1188 0.0000
# 2 29.7175 92.8596 23.1591 0.0000 -1.3187 0.0000
# 3 17.9590 23.1591 125.4648 0.0000 -7.5237 0.0000
# 4 0.0000 0.0000 0.0000 30.5749 0.0000 0.6565
# 5 -2.1188 -1.3187 -7.5237 0.0000 38.6847 0.0000
# 6 0.0000 0.0000 0.0000 0.6565 0.0000 22.3515
#
#
#
# Elastic Compliance Matrix: (Units=1/GPa)
#
#
# Indices 1 2 3 4 5 6 
#
# 1 0.025008 -0.007454 -0.002162 0.000000 0.000695 0.000000
# 2 -0.007454 0.013511 -0.001441 0.000000 -0.000228 0.000000
# 3 -0.002162 -0.001441 0.008636 0.000000 0.001512 0.000000
# 4 0.000000 0.000000 0.000000 0.032727 0.000000 -0.000961
# 5 0.000695 -0.000228 0.001512 0.000000 0.026174 0.000000
# 6 0.000000 0.000000 0.000000 -0.000961 0.000000 0.044768
#
#
# Mechanical properties :
#
#
# Convention : Reuss Voigt Hill
#
# Bulk Modulus (GPa) = 39.93355 45.60577 42.76966
# Shear Modulus (GPa) = 27.58080 31.51855 29.54967
#
# Velocity S-wave (km/s) = 3.72274 3.97963 3.85333
# Velocity P-wave (km/s) = 6.20840 6.63571 6.42561
#
# Compressibility (1/GPa) = 0.02504160
#
# Stress axis : x y z
#
# Youngs Moduli (GPa) = 39.98686 74.01639 115.78877
#
# Poissons Ratio (x) = 0.55173 0.25034
# Poissons Ratio (y) = 0.29807 0.16680
# Poissons Ratio (z) = 0.08645 0.10662
#
# Static dielectric constant tensor:
#      x y z
#    x 1.694650 0.000000 0.017690 
#    y 0.000000 1.453510 0.000000 
#    z 0.017690 0.000000 1.710840 
# 
# From -- ./inp_files/209426.got.cif
#   From: 2010.05.17/outbox.cif.g08.bks.cpg/sg12_105_cif.got.tgz:209426.got - 2010.06.03 13:09:07.
