data_PCOD9201379
_publ_section_title
;
Structure prediction by ZEFSAII (Michael W. Deem and Ramdas Pophale) SiO2 
 PCOD9201379
Probable space group: C 2/M
;
_chemical_formula_sum "Si O2"
_cell_formula_units_Z 36
_cell_length_a 16.868067
_cell_length_b 20.752007
_cell_length_c 13.119425
_cell_angle_alpha 90.000000
_cell_angle_beta 22.531216
_cell_angle_gamma 90.000000
_cell_volume 1759.748806
_symmetry_space_group_name_H-M "C 2/M"
_symmetry_group_IT_number 12
_symmetry_cell_setting 'monoclinic'
loop_
_space_group_symop_operation_xyz
x,y,z
-x,y,-z
-x,-y,-z
x,-y,z
1/2+x,1/2+y,z
1/2-x,1/2+y,-z
1/2-x,1/2-y,-z
1/2+x,1/2-y,z
loop_
_atom_site_type_symbol
_atom_site_label
_atom_site_fract_x
_atom_site_fract_y
_atom_site_fract_z
Si Si1 0.678271 0.000000 0.699790
Si Si2 0.461017 0.111252 0.850948
Si Si3 0.000000 0.299983 0.000000
Si Si4 0.765925 0.295641 0.578694
Si Si5 0.149442 0.000000 0.158599
Si Si6 0.500000 0.391435 0.000000
Si Si7 0.742554 0.000000 0.206573
O O1 0.641843 0.061576 0.670484
O O2 0.500000 0.000000 0.000000
O O3 0.907498 0.000000 0.473342
O O4 0.443048 0.155927 0.971620
O O5 0.532131 0.159520 0.675840
O O6 0.269892 0.064012 0.054408
O O7 0.797378 0.254935 0.258469
O O8 0.750000 0.250000 0.500000
O O9 0.583436 0.347416 0.809624
O O10 0.172067 0.000000 0.009386
O O11 0.322637 0.437439 0.169982
O O12 0.500000 0.000000 0.500000
#
# Coordination Sequence:
#
# PCOD9201379 Si02
#       7
#     4   8   4   8   4   4   4
#     4  11  22  39  61  89 118 154 195 248 305 356
#     4  10  20  38  60  90 120 154 199 248 300 354
#     4   9  18  36  60  88 116 169 200 240 294 351
#     4   9  18  34  63  85 115 162 201 242 291 347
#     4  11  24  36  63  93 123 155 195 250 306 357
#     4  10  20  37  62  87 116 158 194 240 304 348
#     4  11  22  37  61  94 122 152 194 245 303 359
#
# _framework density 20.457464999999999
#
# number of rings (size 3 to 8) (size 9 to 14) (size 15 to 20)
#    0.000    2.000    1.111    2.667    0.000    5.333 
#    0.000    0.000    0.000   94.667    0.000    0.000 
#    0.000    0.000    0.000    0.000    0.000    0.000 
#
# Total GULP energy -100265.680969 kJ/mol
# GULP energy per Si atom -5570.315609 kJ/mol
# Density = 2.041090 g / cm^3
# Si number density = 20.457465 Si / 1000 Ang^3
#
#
#
# Elastic Constant Matrix: (Units=GPa)
#
#
# Indices 1 2 3 4 5 6 
#
# 1 51.4272 44.7849 40.2188 -0.0084 2.4344 -0.0105
# 2 44.7849 156.5855 67.6503 -0.0290 2.8782 -0.0142
# 3 40.2188 67.6503 133.8932 -0.0291 -8.8703 0.0097
# 4 -0.0084 -0.0290 -0.0291 -1.6558 -0.0104 -0.9717
# 5 2.4344 2.8782 -8.8703 -0.0104 36.4071 0.0009
# 6 -0.0105 -0.0142 0.0097 -0.9717 0.0009 -1.2906
#
#
#
# Elastic Compliance Matrix: (Units=1/GPa)
#
#
# Indices 1 2 3 4 5 6 
#
# 1 0.029338 -0.005683 -0.006141 0.000373 -0.003009 -0.000504
# 2 -0.005683 0.009373 -0.003103 -0.000047 -0.001117 -0.000045
# 3 -0.006141 -0.003103 0.011103 -0.000412 0.003361 0.000479
# 4 0.000373 -0.000047 -0.000412 -1.081933 -0.000450 0.814528
# 5 -0.003009 -0.001117 0.003361 -0.000450 0.028575 0.000420
# 6 -0.000504 -0.000045 0.000479 0.814528 0.000420 -1.388021
#
#
# Mechanical properties :
#
#
# Convention : Reuss Voigt Hill
#
# Bulk Modulus (GPa) = 50.09428 71.91268 61.00348
# Shear Modulus (GPa) = -2.12309 19.30893 8.59292
#
# Velocity S-wave (km/s) = -1.01983 3.07556 2.05171
# Velocity P-wave (km/s) = 4.81180 6.91670 5.95794
#
# Compressibility (1/GPa) = 0.01996236
#
# Stress axis : x y z
#
# Youngs Moduli (GPa) = 34.08501 106.69477 90.06361
#
# Poissons Ratio (x) = 0.60632 0.55305
# Poissons Ratio (y) = 0.19370 0.27942
# Poissons Ratio (z) = 0.20930 0.33102
#
# Static dielectric constant tensor:
#      x y z
#    x 1.724060 -0.000010 0.042840 
#    y -0.000010 1.737430 0.000020 
#    z 0.042840 0.000020 1.752880 
# 
# From -- ./inp_files/227370.got.cif
#   From: 2010.05.17/outbox.cif.g08.bks.cpg/sg12_114_cif.got.tgz:227370.got - 2010.06.03 13:09:07.
