data_PCOD9201162
_publ_section_title
;
Structure prediction by ZEFSAII (Michael W. Deem and Ramdas Pophale) SiO2 
 PCOD9201162
Probable space group: C 2/M
;
_chemical_formula_sum "Si O2"
_cell_formula_units_Z 48
_cell_length_a 28.907457
_cell_length_b 8.798889
_cell_length_c 17.725898
_cell_angle_alpha 90.000000
_cell_angle_beta 35.620994
_cell_angle_gamma 90.000000
_cell_volume 2625.928500
_symmetry_space_group_name_H-M "C 2/M"
_symmetry_group_IT_number 12
_symmetry_cell_setting 'monoclinic'
loop_
_space_group_symop_operation_xyz
x,y,z
-x,y,-z
-x,-y,-z
x,-y,z
1/2+x,1/2+y,z
1/2-x,1/2+y,-z
1/2-x,1/2-y,-z
1/2+x,1/2-y,z
loop_
_atom_site_type_symbol
_atom_site_label
_atom_site_fract_x
_atom_site_fract_y
_atom_site_fract_z
Si Si1 0.044791 0.183840 0.864434
Si Si2 0.337541 0.681741 0.875381
Si Si3 0.905502 0.678156 0.633437
Si Si4 0.281748 0.818873 0.380380
Si Si5 0.131834 0.817819 0.475480
Si Si6 0.485616 0.315142 0.778428
O O1 0.133650 0.246387 0.748935
O O2 0.003310 0.233879 0.840805
O O3 0.047358 0.000000 0.859411
O O4 0.000000 0.230956 0.000000
O O5 0.332405 0.500000 0.886545
O O6 0.373074 0.730518 0.747742
O O7 0.401793 0.733818 0.853448
O O8 0.250000 0.750000 0.000000
O O9 0.888717 0.500000 0.666888
O O10 0.870298 0.736652 0.601704
O O11 0.000000 0.698749 0.500000
O O12 0.250000 0.750000 0.500000
O O13 0.214437 0.786993 0.407700
O O14 0.289331 0.000000 0.377395
O O15 0.058279 0.768987 0.626881
O O16 0.124007 0.000000 0.475292
O O17 0.485710 0.500000 0.778617
#
# Coordination Sequence:
#
# PCOD9201162 Si02
#       6
#     8   8   8   8   8   8
#     4  10  21  39  62  88 121 160 201 243 293 354
#     4  11  23  40  62  86 121 163 203 246 299 355
#     4  11  23  38  59  90 121 148 197 254 299 350
#     4  11  22  37  60  89 121 153 196 247 294 349
#     4  10  20  37  61  87 119 158 201 242 293 358
#     4   9  18  36  60  85 116 159 200 237 293 361
#
# _framework density 18.279247000000002
#
# number of rings (size 3 to 8) (size 9 to 14) (size 15 to 20)
#    0.000    1.667    3.333    1.500    0.000    3.667 
#    0.000    3.333    0.000    0.000    0.000    0.000 
#    0.000    0.000    0.000    0.000    0.000    0.000 
#
# Total GULP energy -134035.021329 kJ/mol
# GULP energy per Si atom -5584.792555 kJ/mol
# Density = 1.823764 g / cm^3
# Si number density = 18.279247 Si / 1000 Ang^3
#
#
#
# Elastic Constant Matrix: (Units=GPa)
#
#
# Indices 1 2 3 4 5 6 
#
# 1 143.6018 47.9013 80.0935 -0.0061 -6.8056 0.0040
# 2 47.9013 29.9693 37.6724 -0.0111 -4.3507 0.0096
# 3 80.0935 37.6724 123.9847 -0.0044 -10.7391 0.0031
# 4 -0.0061 -0.0111 -0.0044 26.9016 0.0065 -6.6213
# 5 -6.8056 -4.3507 -10.7391 0.0065 29.3342 -0.0042
# 6 0.0040 0.0096 0.0031 -6.6213 -0.0042 26.5092
#
#
#
# Elastic Compliance Matrix: (Units=1/GPa)
#
#
# Indices 1 2 3 4 5 6 
#
# 1 0.016181 -0.020637 -0.004257 -0.000004 -0.000865 0.000004
# 2 -0.020637 0.080430 -0.010832 0.000021 0.003176 -0.000019
# 3 -0.004257 -0.010832 0.014337 -0.000003 0.002654 0.000003
# 4 -0.000004 0.000021 -0.000003 0.039607 -0.000006 0.009893
# 5 -0.000865 0.003176 0.002654 -0.000006 0.035332 0.000003
# 6 0.000004 -0.000019 0.000003 0.009893 0.000003 0.040194
#
#
# Mechanical properties :
#
#
# Convention : Reuss Voigt Hill
#
# Bulk Modulus (GPa) = 25.31951 69.87670 47.59810
# Shear Modulus (GPa) = 16.09276 25.34157 20.71716
#
# Velocity S-wave (km/s) = 2.97035 3.72742 3.37021
# Velocity P-wave (km/s) = 5.06414 7.53891 6.42187
#
# Compressibility (1/GPa) = 0.03949524
#
# Stress axis : x y z
#
# Youngs Moduli (GPa) = 61.80029 12.43319 69.75000
#
# Poissons Ratio (x) = 0.25658 0.29695
# Poissons Ratio (y) = 1.27538 0.75552
# Poissons Ratio (z) = 0.26311 0.13468
#
# Static dielectric constant tensor:
#      x y z
#    x 1.583950 0.000000 0.023600 
#    y 0.000000 1.618530 0.000000 
#    z 0.023600 0.000000 1.579250 
# 
# From -- ./inp_files/244695.got.cif
#   From: 2010.05.17/outbox.cif.g08.bks.cpg/sg12_123_cif.got.tgz:244695.got - 2010.06.03 13:09:07.
