data_PCOD9201942
_publ_section_title
;
Structure prediction by ZEFSAII (Michael W. Deem and Ramdas Pophale) SiO2 
 PCOD9201942
Probable space group: C 2/M
;
_chemical_formula_sum "Si O2"
_cell_formula_units_Z 64
_cell_length_a 29.807563
_cell_length_b 14.675022
_cell_length_c 20.830328
_cell_angle_alpha 90.000000
_cell_angle_beta 160.195484
_cell_angle_gamma 90.000000
_cell_volume 3087.167719
_symmetry_space_group_name_H-M "C 2/M"
_symmetry_group_IT_number 12
_symmetry_cell_setting 'monoclinic'
loop_
_space_group_symop_operation_xyz
x,y,z
-x,y,-z
-x,-y,-z
x,-y,z
1/2+x,1/2+y,z
1/2-x,1/2+y,-z
1/2-x,1/2-y,-z
1/2+x,1/2-y,z
loop_
_atom_site_type_symbol
_atom_site_label
_atom_site_fract_x
_atom_site_fract_y
_atom_site_fract_z
Si Si1 0.620416 0.222222 0.711629
Si Si2 0.001808 0.678663 0.318670
Si Si3 0.338914 0.603960 0.930135
Si Si4 0.876994 0.690715 0.736156
Si Si5 0.716955 0.099390 0.062690
Si Si6 0.650202 0.101586 0.123724
Si Si7 0.076915 0.181015 0.320771
Si Si8 0.205958 0.792477 0.258179
O O1 0.500000 0.235672 0.500000
O O2 0.567156 0.178525 0.705249
O O3 0.731294 0.162227 0.825049
O O4 0.685181 0.317858 0.818676
O O5 0.917584 0.615779 0.157988
O O6 0.010281 0.777391 0.294850
O O7 0.156337 0.659720 0.537927
O O8 0.296191 0.500000 0.866563
O O9 0.353071 0.650724 0.879710
O O10 0.477444 0.611788 0.153985
O O11 0.910089 0.733795 0.711668
O O12 0.728383 0.650803 0.534930
O O13 0.871420 0.773144 0.780317
O O14 0.993205 0.623699 0.914000
O O15 0.772063 0.000000 0.120891
O O16 0.687879 0.102731 0.099433
O O17 0.721521 0.188269 0.252218
O O18 0.678418 0.000000 0.187158
#
# Coordination Sequence:
#
# PCOD9201942 Si02
#       8
#     8   8   8   8   8   8   8   8
#     4  12  23  44  69  91 128 169 207 262 327 376
#     4  11  21  41  68  88 128 167 206 259 314 376
#     4  12  25  43  63  91 132 170 217 264 314 382
#     4  10  20  37  68  87 125 167 207 255 320 380
#     4  11  23  40  67  97 128 164 210 261 316 381
#     4  11  21  39  66  96 128 166 211 260 318 381
#     4  10  21  40  62  92 120 168 209 256 319 369
#     4  11  22  40  63  93 129 168 205 262 316 367
#
# _framework density 20.730975999999998
#
# number of rings (size 3 to 8) (size 9 to 14) (size 15 to 20)
#    0.000    1.000    6.250    0.750    0.000    3.000 
#    0.000    3.750    0.000    0.000    0.000    0.000 
#    0.000    0.000    0.000    0.000    0.000    0.000 
#
# Total GULP energy -178710.507614 kJ/mol
# GULP energy per Si atom -5584.703363 kJ/mol
# Density = 2.068379 g / cm^3
# Si number density = 20.730976 Si / 1000 Ang^3
#
#
#
# Elastic Constant Matrix: (Units=GPa)
#
#
# Indices 1 2 3 4 5 6 
#
# 1 70.7926 -8.1565 5.9022 0.0000 -6.5670 0.0000
# 2 -8.1565 68.1366 5.6067 0.0000 3.3929 0.0000
# 3 5.9022 5.6067 64.8258 0.0000 -8.1981 0.0000
# 4 0.0000 0.0000 0.0000 1.0416 0.0000 -4.6033
# 5 -6.5670 3.3929 -8.1981 0.0000 31.7608 0.0000
# 6 0.0000 0.0000 0.0000 -4.6033 0.0000 1.7161
#
#
#
# Elastic Compliance Matrix: (Units=1/GPa)
#
#
# Indices 1 2 3 4 5 6 
#
# 1 0.014657 0.001723 -0.001161 0.000000 0.002547 0.000000
# 2 0.001723 0.015105 -0.001677 0.000000 -0.001690 0.000000
# 3 -0.001161 -0.001677 0.016198 0.000000 0.004120 0.000000
# 4 0.000000 0.000000 0.000000 -0.088443 0.000000 -0.237246
# 5 0.002547 -0.001690 0.004120 0.000000 0.033256 0.000000
# 6 0.000000 0.000000 0.000000 -0.237246 0.000000 -0.053681
#
#
# Mechanical properties :
#
#
# Convention : Reuss Voigt Hill
#
# Bulk Modulus (GPa) = 22.86773 23.38440 23.12606
# Shear Modulus (GPa) = -108.45669 20.26386 -44.09641
#
# Velocity S-wave (km/s) = -7.24084 3.12984 -4.61703
# Velocity P-wave (km/s) = 7.67149 4.93615 4.15248
#
# Compressibility (1/GPa) = 0.04372974
#
# Stress axis : x y z
#
# Youngs Moduli (GPa) = 68.22488 66.20383 61.73683
#
# Poissons Ratio (x) = -0.11409 0.07171
# Poissons Ratio (y) = -0.11758 0.10354
# Poissons Ratio (z) = 0.07924 0.11103
#
# Static dielectric constant tensor:
#      x y z
#    x 1.748530 0.000000 -0.014190 
#    y 0.000000 1.728270 0.000000 
#    z -0.014190 0.000000 1.764170 
# 
# From -- ./inp_files/330398.got.cif
#   From: 2010.05.17/outbox.cif.g08.bks.cpg/sg12_166_cif.got.tgz:330398.got - 2010.06.03 13:09:07.
