data_PCOD9201105
_publ_section_title
;
Structure prediction by ZEFSAII (Michael W. Deem and Ramdas Pophale) SiO2 
 PCOD9201105
Probable space group: C 2/M
;
_chemical_formula_sum "Si O2"
_cell_formula_units_Z 56
_cell_length_a 19.555936
_cell_length_b 9.968877
_cell_length_c 26.463804
_cell_angle_alpha 90.000000
_cell_angle_beta 149.453678
_cell_angle_gamma 90.000000
_cell_volume 2622.053294
_symmetry_space_group_name_H-M "C 2/M"
_symmetry_group_IT_number 12
_symmetry_cell_setting 'monoclinic'
loop_
_space_group_symop_operation_xyz
x,y,z
-x,y,-z
-x,-y,-z
x,-y,z
1/2+x,1/2+y,z
1/2-x,1/2+y,-z
1/2-x,1/2-y,-z
1/2+x,1/2-y,z
loop_
_atom_site_type_symbol
_atom_site_label
_atom_site_fract_x
_atom_site_fract_y
_atom_site_fract_z
Si Si1 0.447131 0.338875 0.615272
Si Si2 0.628752 0.655874 0.322293
Si Si3 0.864865 0.160464 0.447423
Si Si4 0.753913 0.344861 0.806697
Si Si5 0.873521 0.277920 0.117673
Si Si6 0.972577 0.643824 0.874697
Si Si7 0.148775 0.153376 0.048189
O O1 0.444698 0.500000 0.618252
O O2 0.379224 0.291637 0.624331
O O3 0.396099 0.310997 0.526570
O O4 0.602408 0.296895 0.713348
O O5 0.670322 0.500000 0.348094
O O6 0.734266 0.744698 0.357305
O O7 0.474234 0.664677 0.203265
O O8 0.000000 0.188105 0.500000
O O9 0.836223 0.000000 0.423184
O O10 0.759316 0.500000 0.828058
O O11 0.840605 0.246528 0.896220
O O12 0.817170 0.344925 0.790958
O O13 0.978886 0.360496 0.151516
O O14 0.794904 0.342011 0.114152
O O15 0.750000 0.250000 0.000000
O O16 0.017720 0.500000 0.926745
O O17 0.046818 0.770753 0.946060
O O18 0.112947 0.000000 0.034337
#
# Coordination Sequence:
#
# PCOD9201105 Si02
#       7
#     8   8   8   8   8   8   8
#     4   9  19  39  65  93 125 166 212 259 313 377
#     4  11  23  42  69  94 128 173 215 262 321 385
#     4  10  23  42  69 101 134 166 209 268 323 377
#     4  10  20  37  61  85 117 161 213 259 308 377
#     4  10  23  40  61  90 125 166 216 263 315 375
#     4  10  22  37  59  85 116 164 217 264 311 373
#     4  11  22  37  57  85 124 163 205 264 322 378
#
# _framework density 21.357308
#
# number of rings (size 3 to 8) (size 9 to 14) (size 15 to 20)
#    0.000    1.857    1.429    1.714    2.000    8.286 
#    0.000    0.714    0.000    0.000    0.000    0.000 
#    0.000    0.000    0.000    0.000    0.000    0.000 
#
# Total GULP energy -155915.904057 kJ/mol
# GULP energy per Si atom -5568.425145 kJ/mol
# Density = 2.130870 g / cm^3
# Si number density = 21.357308 Si / 1000 Ang^3
#
#
#
# Elastic Constant Matrix: (Units=GPa)
#
#
# Indices 1 2 3 4 5 6 
#
# 1 162.2475 37.0194 32.6736 0.0000 34.0922 0.0000
# 2 37.0194 103.5281 32.8662 0.0000 12.9829 0.0000
# 3 32.6736 32.8662 66.9739 0.0001 15.7518 0.0000
# 4 0.0000 0.0000 0.0001 23.7291 0.0000 3.2823
# 5 34.0922 12.9829 15.7518 0.0000 40.1223 0.0000
# 6 0.0000 0.0000 0.0000 3.2823 0.0000 23.8884
#
#
#
# Elastic Compliance Matrix: (Units=1/GPa)
#
#
# Indices 1 2 3 4 5 6 
#
# 1 0.008081 -0.001602 -0.001832 0.000000 -0.005628 0.000000
# 2 -0.001602 0.011859 -0.004909 0.000000 -0.000549 0.000000
# 3 -0.001832 -0.004909 0.019274 0.000000 -0.004421 0.000000
# 4 0.000000 0.000000 0.000000 0.042959 0.000000 -0.005903
# 5 -0.005628 -0.000549 -0.004421 0.000000 0.031620 0.000000
# 6 0.000000 0.000000 0.000000 -0.005903 0.000000 0.042672
#
#
# Mechanical properties :
#
#
# Convention : Reuss Voigt Hill
#
# Bulk Modulus (GPa) = 44.39058 59.76310 52.07684
# Shear Modulus (GPa) = 27.67621 32.89399 30.28510
#
# Velocity S-wave (km/s) = 3.60372 3.92876 3.76975
# Velocity P-wave (km/s) = 6.17621 6.97306 6.58669
#
# Compressibility (1/GPa) = 0.02252730
#
# Stress axis : x y z
#
# Youngs Moduli (GPa) = 123.75345 84.32183 51.88333
#
# Poissons Ratio (x) = 0.13508 0.09506
# Poissons Ratio (y) = 0.19825 0.25470
# Poissons Ratio (z) = 0.22675 0.41394
#
# Static dielectric constant tensor:
#      x y z
#    x 1.819560 0.000000 -0.021950 
#    y 0.000000 1.808110 0.000000 
#    z -0.021950 0.000000 1.845660 
# 
# From -- ./inp_files/380766.got.cif
#   From: 2010.05.17/outbox.cif.g08.bks.cpg/sg12_191_cif.got.tgz:380766.got - 2010.06.03 13:09:07.
