data_PCOD9201633
_publ_section_title
;
Structure prediction by ZEFSAII (Michael W. Deem and Ramdas Pophale) SiO2 
 PCOD9201633
Probable space group: C 2/M
;
_chemical_formula_sum "Si O2"
_cell_formula_units_Z 32
_cell_length_a 13.478355
_cell_length_b 14.160192
_cell_length_c 8.423930
_cell_angle_alpha 90.000000
_cell_angle_beta 46.303993
_cell_angle_gamma 90.000000
_cell_volume 1162.433896
_symmetry_space_group_name_H-M "C 2/M"
_symmetry_group_IT_number 12
_symmetry_cell_setting 'monoclinic'
loop_
_space_group_symop_operation_xyz
x,y,z
-x,y,-z
-x,-y,-z
x,-y,z
1/2+x,1/2+y,z
1/2-x,1/2+y,-z
1/2-x,1/2-y,-z
1/2+x,1/2-y,z
loop_
_atom_site_type_symbol
_atom_site_label
_atom_site_fract_x
_atom_site_fract_y
_atom_site_fract_z
Si Si1 0.188365 0.320382 0.725730
Si Si2 0.423142 0.151324 0.816935
Si Si3 0.697020 0.601277 0.828541
Si Si4 0.497138 0.360821 0.329249
O O1 0.076256 0.357850 0.722256
O O2 0.164427 0.156181 0.503774
O O3 0.163443 0.365464 0.926408
O O4 0.176785 0.207937 0.781671
O O5 0.428634 0.258725 0.748687
O O6 0.342717 0.102351 0.762937
O O7 0.694196 0.500000 0.742266
O O8 0.575093 0.595829 0.094593
O O9 0.500000 0.404405 0.500000
#
# Coordination Sequence:
#
# PCOD9201633 Si02
#       4
#     8   8   8   8
#     4  10  20  39  63  88 121 175 214 242 300 398
#     4  10  20  37  63  90 120 172 213 247 300 394
#     4  11  23  40  63  98 130 155 204 278 320 343
#     4  11  18  37  65  88 120 172 218 240 304 395
#
# _framework density 27.528445999999999
#
# number of rings (size 3 to 8) (size 9 to 14) (size 15 to 20)
#    0.000    1.500    5.000    2.250    0.000    0.500 
#    0.000   16.250    0.000    0.000    0.000    0.000 
#    0.000    0.000    0.000    0.000    0.000    0.000 
#
# Total GULP energy -89344.221409 kJ/mol
# GULP energy per Si atom -5584.013838 kJ/mol
# Density = 2.746579 g / cm^3
# Si number density = 27.528446 Si / 1000 Ang^3
#
#
#
# Elastic Constant Matrix: (Units=GPa)
#
#
# Indices 1 2 3 4 5 6 
#
# 1 177.4529 29.2212 53.2202 0.0000 -21.1647 0.0000
# 2 29.2212 107.0268 -13.3436 0.0000 -16.1802 0.0000
# 3 53.2202 -13.3436 79.0059 0.0000 -11.4553 0.0000
# 4 0.0000 0.0000 0.0000 3.8142 0.0000 12.9032
# 5 -21.1647 -16.1802 -11.4553 0.0000 58.9352 0.0000
# 6 0.0000 0.0000 0.0000 12.9032 0.0000 19.2889
#
#
#
# Elastic Compliance Matrix: (Units=1/GPa)
#
#
# Indices 1 2 3 4 5 6 
#
# 1 0.007886 -0.002704 -0.005624 0.000000 0.000997 0.000000
# 2 -0.002704 0.011024 0.004097 0.000000 0.002852 0.000000
# 3 -0.005624 0.004097 0.017501 0.000000 0.002507 0.000000
# 4 0.000000 0.000000 0.000000 -0.207584 0.000000 0.138862
# 5 0.000997 0.002852 0.002507 0.000000 0.018596 0.000000
# 6 0.000000 0.000000 0.000000 0.138862 0.000000 -0.041048
#
#
# Mechanical properties :
#
#
# Convention : Reuss Voigt Hill
#
# Bulk Modulus (GPa) = 35.78094 55.74234 45.76164
# Shear Modulus (GPa) = -28.43405 36.03352 3.79973
#
# Velocity S-wave (km/s) = -3.21736 3.62187 1.17613
# Velocity P-wave (km/s) = 0.88082 6.14684 4.30161
#
# Compressibility (1/GPa) = 0.02794784
#
# Stress axis : x y z
#
# Youngs Moduli (GPa) = 126.80334 90.71520 57.13834
#
# Poissons Ratio (x) = 0.24527 0.32137
# Poissons Ratio (y) = 0.34284 -0.23407
# Poissons Ratio (z) = 0.71320 -0.37162
#
# Static dielectric constant tensor:
#      x y z
#    x 2.264810 0.000000 0.081930 
#    y 0.000000 2.109670 0.000000 
#    z 0.081930 0.000000 2.190300 
# 
# From -- ./inp_files/57701.got.cif
#   From: 2010.05.17/outbox.cif.g08.bks.cpg/sg12_29_cif.got.tgz:57701.got - 2010.06.03 13:09:07.
