data_PCOD9201291
_publ_section_title
;
Structure prediction by ZEFSAII (Michael W. Deem and Ramdas Pophale) SiO2 
 PCOD9201291
Probable space group: C 2/M
;
_chemical_formula_sum "Si O2"
_cell_formula_units_Z 48
_cell_length_a 19.500451
_cell_length_b 16.871866
_cell_length_c 16.119588
_cell_angle_alpha 90.000000
_cell_angle_beta 157.795803
_cell_angle_gamma 90.000000
_cell_volume 2004.234318
_symmetry_space_group_name_H-M "C 2/M"
_symmetry_group_IT_number 12
_symmetry_cell_setting 'monoclinic'
loop_
_space_group_symop_operation_xyz
x,y,z
-x,y,-z
-x,-y,-z
x,-y,z
1/2+x,1/2+y,z
1/2-x,1/2+y,-z
1/2-x,1/2-y,-z
1/2+x,1/2-y,z
loop_
_atom_site_type_symbol
_atom_site_label
_atom_site_fract_x
_atom_site_fract_y
_atom_site_fract_z
Si Si1 0.944931 0.091677 0.661417
Si Si2 0.211979 0.759976 0.220883
Si Si3 0.217989 0.587855 0.243381
Si Si4 0.801470 0.676757 0.501183
Si Si5 0.694693 0.916095 0.761530
Si Si6 0.668144 0.910583 0.928348
O O1 0.792236 0.098122 0.420080
O O2 0.861739 0.117616 0.656103
O O3 0.993444 0.000000 0.723887
O O4 0.132681 0.127790 0.836074
O O5 0.275754 0.671417 0.266279
O O6 0.302764 0.793849 0.407615
O O7 0.224920 0.831355 0.171034
O O8 0.000000 0.749701 0.000000
O O9 0.282419 0.500000 0.286016
O O10 0.000000 0.584142 0.000000
O O11 0.750000 0.750000 0.500000
O O12 0.990617 0.640974 0.745952
O O13 0.500000 0.916896 0.500000
O O14 0.665218 0.918574 0.825926
O O15 0.787851 0.000000 0.840796
O O16 0.649517 0.000000 0.944572
#
# Coordination Sequence:
#
# PCOD9201291 Si02
#       6
#     8   8   8   8   8   8
#     4  10  21  39  64  94 126 167 218 269 325 390
#     4  11  22  38  62  92 125 169 219 267 321 387
#     4   9  19  39  65  88 121 169 219 273 325 376
#     4  12  23  38  60  97 131 170 211 262 328 395
#     4  10  20  37  61  91 127 169 209 255 320 391
#     4  10  22  41  66  95 130 170 214 265 326 395
#
# _framework density 23.949296
#
# number of rings (size 3 to 8) (size 9 to 14) (size 15 to 20)
#    0.000    1.667    3.333    1.500    0.000    1.667 
#    0.000    0.000    0.000    0.500    0.000    0.000 
#    0.000    0.000    0.000    0.000    0.000    0.000 
#
# Total GULP energy -133890.217917 kJ/mol
# GULP energy per Si atom -5578.759080 kJ/mol
# Density = 2.389479 g / cm^3
# Si number density = 23.949296 Si / 1000 Ang^3
#
#
#
# Elastic Constant Matrix: (Units=GPa)
#
#
# Indices 1 2 3 4 5 6 
#
# 1 54.2060 32.6901 17.9574 -0.0007 1.3233 -0.0008
# 2 32.6901 182.5005 12.6854 -0.0010 27.1780 -0.0007
# 3 17.9574 12.6854 146.3431 -0.0017 4.3158 -0.0025
# 4 -0.0007 -0.0010 -0.0017 111.3969 -0.0012 6.7159
# 5 1.3233 27.1780 4.3158 -0.0012 38.5358 -0.0014
# 6 -0.0008 -0.0007 -0.0025 6.7159 -0.0014 9.5466
#
#
#
# Elastic Compliance Matrix: (Units=1/GPa)
#
#
# Indices 1 2 3 4 5 6 
#
# 1 0.021627 -0.004065 -0.002372 0.000000 0.002390 0.000001
# 2 -0.004065 0.006910 0.000040 0.000000 -0.004739 0.000000
# 3 -0.002372 0.000040 0.007143 0.000000 -0.000746 0.000002
# 4 0.000000 0.000000 0.000000 0.009374 0.000000 -0.006595
# 5 0.002390 -0.004739 -0.000746 0.000000 0.029293 0.000004
# 6 0.000001 0.000000 0.000002 -0.006595 0.000004 0.109389
#
#
# Mechanical properties :
#
#
# Convention : Reuss Voigt Hill
#
# Bulk Modulus (GPa) = 43.69532 56.63504 50.16518
# Shear Modulus (GPa) = 24.49057 53.21030 38.85043
#
# Velocity S-wave (km/s) = 3.20128 4.71870 4.03202
# Velocity P-wave (km/s) = 5.65233 7.30667 6.53208
#
# Compressibility (1/GPa) = 0.02288575
#
# Stress axis : x y z
#
# Youngs Moduli (GPa) = 46.23847 144.70761 139.99930
#
# Poissons Ratio (x) = 0.58823 0.33207
# Poissons Ratio (y) = 0.18796 -0.00553
# Poissons Ratio (z) = 0.10967 -0.00572
#
# Static dielectric constant tensor:
#      x y z
#    x 1.868410 0.000000 -0.021710 
#    y 0.000000 1.960410 0.000000 
#    z -0.021710 0.000000 1.928100 
# 
# From -- ./inp_files/285454.got.cif
#   From: 2010.05.17/outbox.cif.g08.bks.cpg/sg12_143_cif.got.tgz:285454.got - 2010.06.03 13:09:07.
