data_PCOD9201694
_publ_section_title
;
Structure prediction by ZEFSAII (Michael W. Deem and Ramdas Pophale) SiO2 
 PCOD9201694
Probable space group: C 2/M
;
_chemical_formula_sum "Si O2"
_cell_formula_units_Z 48
_cell_length_a 25.811527
_cell_length_b 9.451534
_cell_length_c 13.072507
_cell_angle_alpha 90.000000
_cell_angle_beta 48.210124
_cell_angle_gamma 90.000000
_cell_volume 2377.809994
_symmetry_space_group_name_H-M "C 2/M"
_symmetry_group_IT_number 12
_symmetry_cell_setting 'monoclinic'
loop_
_space_group_symop_operation_xyz
x,y,z
-x,y,-z
-x,-y,-z
x,-y,z
1/2+x,1/2+y,z
1/2-x,1/2+y,-z
1/2-x,1/2-y,-z
1/2+x,1/2-y,z
loop_
_atom_site_type_symbol
_atom_site_label
_atom_site_fract_x
_atom_site_fract_y
_atom_site_fract_z
Si Si1 0.433520 0.160433 0.859350
Si Si2 0.321221 0.344666 0.663400
Si Si3 0.521805 0.338104 0.588887
Si Si4 0.082579 0.168192 0.914248
Si Si5 0.305628 0.845197 0.873101
Si Si6 0.295241 0.832565 0.355165
O O1 0.492100 0.237790 0.715359
O O2 0.370722 0.149735 0.862265
O O3 0.452468 0.000000 0.866879
O O4 0.410121 0.254494 0.986031
O O5 0.316708 0.500000 0.720541
O O6 0.395086 0.340823 0.509934
O O7 0.324760 0.223560 0.741361
O O8 0.255248 0.330423 0.677437
O O9 0.500000 0.298147 0.500000
O O10 0.495652 0.500000 0.637073
O O11 0.133704 0.250235 0.768115
O O12 0.099443 0.000000 0.894392
O O13 0.000000 0.180691 0.000000
O O14 0.276731 0.000000 0.894241
O O15 0.250000 0.750000 0.000000
O O16 0.250000 0.750000 0.500000
O O17 0.307069 0.000000 0.364911
#
# Coordination Sequence:
#
# PCOD9201694 Si02
#       6
#     8   8   8   8   8   8
#     4  11  24  40  61  93 130 164 206 263 322 382
#     4  10  22  40  62  90 126 164 209 259 309 374
#     4  10  20  37  63  93 126 169 211 252 310 378
#     4  11  26  47  70  95 126 168 221 274 325 386
#     4  11  23  37  58  88 123 161 203 253 313 379
#     4  11  25  45  69  98 133 170 215 270 326 386
#
# _framework density 20.186641999999999
#
# number of rings (size 3 to 8) (size 9 to 14) (size 15 to 20)
#    0.000    1.333    1.667    3.000    2.333    9.667 
#    0.000    0.000    0.000    0.000    0.000    0.000 
#    0.000    0.000    0.000    0.000    0.000    0.000 
#
# Total GULP energy -134026.486731 kJ/mol
# GULP energy per Si atom -5584.436947 kJ/mol
# Density = 2.014070 g / cm^3
# Si number density = 20.186642 Si / 1000 Ang^3
#
#
#
# Elastic Constant Matrix: (Units=GPa)
#
#
# Indices 1 2 3 4 5 6 
#
# 1 36.5422 33.5688 15.2229 0.0000 -3.2859 0.0000
# 2 33.5688 189.3229 93.2296 0.0000 8.1018 0.0000
# 3 15.2229 93.2296 132.5643 0.0000 -1.9638 0.0000
# 4 0.0000 0.0000 0.0000 35.9322 0.0000 -4.1666
# 5 -3.2859 8.1018 -1.9638 0.0000 32.1596 0.0000
# 6 0.0000 0.0000 0.0000 -4.1666 0.0000 19.6896
#
#
#
# Elastic Compliance Matrix: (Units=1/GPa)
#
#
# Indices 1 2 3 4 5 6 
#
# 1 0.033520 -0.006586 0.000859 0.000000 0.005137 0.000000
# 2 -0.006586 0.009561 -0.006019 0.000000 -0.003449 0.000000
# 3 0.000859 -0.006019 0.011712 0.000000 0.002319 0.000000
# 4 0.000000 0.000000 0.000000 0.028530 0.000000 0.006037
# 5 0.005137 -0.003449 0.002319 0.000000 0.032630 0.000000
# 6 0.000000 0.000000 0.000000 0.006037 0.000000 0.052066
#
#
# Mechanical properties :
#
#
# Convention : Reuss Voigt Hill
#
# Bulk Modulus (GPa) = 31.94807 71.38578 51.66692
# Shear Modulus (GPa) = 24.75899 31.98348 28.37124
#
# Velocity S-wave (km/s) = 3.50595 3.98476 3.75299
# Velocity P-wave (km/s) = 5.67887 7.52401 6.66559
#
# Compressibility (1/GPa) = 0.03130080
#
# Stress axis : x y z
#
# Youngs Moduli (GPa) = 29.83293 104.58705 85.37970
#
# Poissons Ratio (x) = 0.68882 -0.07332
# Poissons Ratio (y) = 0.19648 0.51391
# Poissons Ratio (z) = -0.02562 0.62952
#
# Static dielectric constant tensor:
#      x y z
#    x 1.694690 0.000000 -0.013800 
#    y 0.000000 1.736470 0.000000 
#    z -0.013800 0.000000 1.723110 
# 
# From -- ./inp_files/244637.got.cif
#   From: 2010.05.17/outbox.cif.g08.bks.cpg/sg12_123_cif.got.tgz:244637.got - 2010.06.03 13:09:07.
