data_PCOD9201817
_publ_section_title
;
Structure prediction by ZEFSAII (Michael W. Deem and Ramdas Pophale) SiO2 
 PCOD9201817
Probable space group: C 2/M
;
_chemical_formula_sum "Si O2"
_cell_formula_units_Z 40
_cell_length_a 22.687910
_cell_length_b 7.654930
_cell_length_c 16.722773
_cell_angle_alpha 90.000000
_cell_angle_beta 135.757321
_cell_angle_gamma 90.000000
_cell_volume 2026.338821
_symmetry_space_group_name_H-M "C 2/M"
_symmetry_group_IT_number 12
_symmetry_cell_setting 'monoclinic'
loop_
_space_group_symop_operation_xyz
x,y,z
-x,y,-z
-x,-y,-z
x,-y,z
1/2+x,1/2+y,z
1/2-x,1/2+y,-z
1/2-x,1/2-y,-z
1/2+x,1/2-y,z
loop_
_atom_site_type_symbol
_atom_site_label
_atom_site_fract_x
_atom_site_fract_y
_atom_site_fract_z
Si Si1 0.339368 0.206710 0.547762
Si Si2 0.724913 0.202591 0.685880
Si Si3 0.068369 0.211350 0.632525
Si Si4 0.464958 0.000000 0.097159
Si Si5 0.636515 0.000000 0.166070
Si Si6 0.019780 0.198190 0.764982
O O1 0.250000 0.250000 0.500000
O O2 0.329680 0.254587 0.445384
O O3 0.417783 0.300236 0.664525
O O4 0.355106 0.000000 0.568935
O O5 0.660763 0.224650 0.696916
O O6 0.803967 0.331009 0.767116
O O7 0.749829 0.000000 0.700966
O O8 0.000000 0.273384 0.500000
O O9 0.044892 0.260861 0.700141
O O10 0.068256 0.000000 0.629697
O O11 0.561267 0.000000 0.157582
O O12 0.451115 0.169219 0.138850
O O13 0.405942 0.000000 0.962337
O O14 0.050140 0.000000 0.806274
#
# Coordination Sequence:
#
# PCOD9201817 Si02
#       6
#     8   8   8   4   4   8
#     4  11  22  34  56  94 133 165 204 259 320 383
#     4  11  24  39  64  97 129 169 213 263 319 384
#     4  10  20  37  64  95 134 175 205 253 323 393
#     4  11  26  48  69  90 124 178 217 272 318 383
#     4  11  26  48  69  88 128 172 225 266 320 381
#     4  11  23  39  64  97 129 166 212 262 320 384
#
# _framework density 19.740036
#
# number of rings (size 3 to 8) (size 9 to 14) (size 15 to 20)
#    0.000    1.200    4.000    1.800    4.200    3.600 
#    0.000    3.000    0.000    0.000    0.000    0.000 
#    0.000    0.000    0.000    0.000    0.000    0.000 
#
# Total GULP energy -111842.578463 kJ/mol
# GULP energy per Si atom -5592.128923 kJ/mol
# Density = 1.969511 g / cm^3
# Si number density = 19.740036 Si / 1000 Ang^3
#
#
#
# Elastic Constant Matrix: (Units=GPa)
#
#
# Indices 1 2 3 4 5 6 
#
# 1 50.1303 6.2854 -2.1217 0.0000 -19.5683 0.0000
# 2 6.2854 89.1514 37.8387 0.0000 -12.1426 0.0000
# 3 -2.1217 37.8387 65.4097 0.0000 -19.2838 0.0000
# 4 0.0000 0.0000 0.0000 25.8909 0.0000 -4.4579
# 5 -19.5683 -12.1426 -19.2838 0.0000 33.0888 0.0000
# 6 0.0000 0.0000 0.0000 -4.4579 0.0000 19.5340
#
#
#
# Elastic Compliance Matrix: (Units=1/GPa)
#
#
# Indices 1 2 3 4 5 6 
#
# 1 0.028989 -0.002926 0.008900 0.000000 0.021257 0.000000
# 2 -0.002926 0.015170 -0.009345 0.000000 -0.001610 0.000000
# 3 0.008900 -0.009345 0.025989 0.000000 0.016980 0.000000
# 4 0.000000 0.000000 0.000000 0.040203 0.000000 0.009175
# 5 0.021257 -0.001610 0.016980 0.000000 0.052098 0.000000
# 6 0.000000 0.000000 0.000000 0.009175 0.000000 0.053287
#
#
# Mechanical properties :
#
#
# Convention : Reuss Voigt Hill
#
# Bulk Modulus (GPa) = 15.77151 32.07735 23.92443
# Shear Modulus (GPa) = 20.52424 26.54866 23.53645
#
# Velocity S-wave (km/s) = 3.22798 3.67129 3.45675
# Velocity P-wave (km/s) = 4.67975 5.85289 5.29888
#
# Compressibility (1/GPa) = 0.06340547
#
# Stress axis : x y z
#
# Youngs Moduli (GPa) = 34.49572 65.91788 38.47774
#
# Poissons Ratio (x) = 0.19287 -0.34244
# Poissons Ratio (y) = 0.10093 0.35959
# Poissons Ratio (z) = -0.30700 0.61603
#
# Static dielectric constant tensor:
#      x y z
#    x 1.713720 0.000000 -0.018170 
#    y 0.000000 1.772180 0.000000 
#    z -0.018170 0.000000 1.661350 
# 
# From -- ./inp_files/230630.got.cif
#   From: 2010.05.17/outbox.cif.g08.bks.cpg/sg12_116_cif.got.tgz:230630.got - 2010.06.03 13:09:07.
