data_PCOD9201036
_publ_section_title
;
Structure prediction by ZEFSAII (Michael W. Deem and Ramdas Pophale) SiO2 
 PCOD9201036
Probable space group: C 2/M
;
_chemical_formula_sum "Si O2"
_cell_formula_units_Z 58
_cell_length_a 10.916000
_cell_length_b 13.559527
_cell_length_c 16.360246
_cell_angle_alpha 90.000000
_cell_angle_beta 101.140864
_cell_angle_gamma 90.000000
_cell_volume 2375.940524
_symmetry_space_group_name_H-M "C 2/M"
_symmetry_group_IT_number 12
_symmetry_cell_setting 'monoclinic'
loop_
_space_group_symop_operation_xyz
x,y,z
-x,y,-z
-x,-y,-z
x,-y,z
1/2+x,1/2+y,z
1/2-x,1/2+y,-z
1/2-x,1/2-y,-z
1/2+x,1/2-y,z
loop_
_atom_site_type_symbol
_atom_site_label
_atom_site_fract_x
_atom_site_fract_y
_atom_site_fract_z
Si Si1 0.441353 0.390649 0.190285
Si Si2 0.135202 0.387146 0.275284
Si Si3 0.848892 0.111830 0.434666
Si Si4 0.186269 0.668167 0.096880
Si Si5 0.556930 0.753838 0.660273
Si Si6 0.623555 0.391130 0.071688
Si Si7 0.500000 0.000000 0.000000
Si Si8 0.853194 0.615738 0.453061
O O1 0.426045 0.500000 0.224467
O O2 0.326822 0.372357 0.114123
O O3 0.430364 0.305866 0.254915
O O4 0.569242 0.388856 0.157019
O O5 0.094433 0.500000 0.256746
O O6 0.263882 0.388042 0.341337
O O7 0.145170 0.338482 0.187579
O O8 0.044022 0.333517 0.326074
O O9 0.965766 0.174637 0.415161
O O10 0.751309 0.141976 0.493122
O O11 0.880962 0.000000 0.455946
O O12 0.185017 0.783228 0.069628
O O13 0.100054 0.589263 0.039439
O O14 0.664540 0.818604 0.630275
O O15 0.687673 0.500000 0.069778
O O16 0.500000 0.392924 0.000000
O O17 0.840557 0.500000 0.434304
O O18 0.000000 0.629277 0.500000
#
# Coordination Sequence:
#
# PCOD9201036 Si02
#       8
#     8   8   8   8   8   8   2   8
#     4  11  23  40  66  92 125 167 215 260 321 390
#     4  11  21  37  62  91 127 161 213 264 314 373
#     4  10  21  38  62  89 123 166 208 258 311 385
#     4  12  22  42  66  98 125 165 215 269 320 376
#     4  12  21  34  62  95 119 165 208 262 306 388
#     4  10  23  43  63  90 127 169 206 255 324 392
#     4  12  24  40  70 100 134 154 218 286 314 368
#     4  10  20  37  60  92 125 162 210 264 322 369
#
# _framework density 24.411384999999999
#
# number of rings (size 3 to 8) (size 9 to 14) (size 15 to 20)
#    0.000    1.103    6.207    1.241    0.000    0.552 
#    0.000    1.379    0.000    4.966    0.000    0.000 
#    0.000    0.000    0.000    0.000    0.000    0.000 
#
# Total GULP energy -161650.423153 kJ/mol
# GULP energy per Si atom -5574.152523 kJ/mol
# Density = 2.435582 g / cm^3
# Si number density = 24.411385 Si / 1000 Ang^3
#
#
#
# Elastic Constant Matrix: (Units=GPa)
#
#
# Indices 1 2 3 4 5 6 
#
# 1 48.0927 24.9693 32.2205 0.0000 -24.7909 0.0000
# 2 24.9693 206.8528 40.6961 0.0000 -9.4255 0.0000
# 3 32.2205 40.6961 85.6085 0.0000 -23.3884 0.0000
# 4 0.0000 0.0000 0.0000 51.7984 0.0000 -6.8395
# 5 -24.7909 -9.4255 -23.3884 0.0000 45.7517 0.0000
# 6 0.0000 0.0000 0.0000 -6.8395 0.0000 23.8630
#
#
#
# Elastic Compliance Matrix: (Units=1/GPa)
#
#
# Indices 1 2 3 4 5 6 
#
# 1 0.034600 -0.001909 -0.008253 0.000000 0.014136 0.000000
# 2 -0.001909 0.005441 -0.002144 0.000000 -0.001009 0.000000
# 3 -0.008253 -0.002144 0.016812 0.000000 0.003681 0.000000
# 4 0.000000 0.000000 0.000000 0.020065 0.000000 0.005751
# 5 0.014136 -0.001009 0.003681 0.000000 0.031191 0.000000
# 6 0.000000 0.000000 0.000000 0.005751 0.000000 0.043554
#
#
# Mechanical properties :
#
#
# Convention : Reuss Voigt Hill
#
# Bulk Modulus (GPa) = 31.01562 59.59176 45.30369
# Shear Modulus (GPa) = 26.73496 40.46048 33.59772
#
# Velocity S-wave (km/s) = 3.31295 4.07559 3.71389
# Velocity P-wave (km/s) = 5.23136 6.82727 6.08189
#
# Compressibility (1/GPa) = 0.03224182
#
# Stress axis : x y z
#
# Youngs Moduli (GPa) = 28.90133 183.80637 59.48169
#
# Poissons Ratio (x) = 0.35085 0.49091
# Poissons Ratio (y) = 0.05517 0.12751
# Poissons Ratio (z) = 0.23853 0.39401
#
# Static dielectric constant tensor:
#      x y z
#    x 1.982070 0.000000 0.013770 
#    y 0.000000 2.014250 0.000000 
#    z 0.013770 0.000000 2.001100 
# 
# From -- ./inp_files/268759.got.cif
#   From: 2010.05.17/outbox.cif.g08.bks.cpg/sg12_135_cif.got.tgz:268759.got - 2010.06.03 13:09:07.
