data_PCOD9201220
_publ_section_title
;
Structure prediction by ZEFSAII (Michael W. Deem and Ramdas Pophale) SiO2 
 PCOD9201220
Probable space group: C 2/M
;
_chemical_formula_sum "Si O2"
_cell_formula_units_Z 30
_cell_length_a 5.509859
_cell_length_b 22.479254
_cell_length_c 10.101879
_cell_angle_alpha 90.000000
_cell_angle_beta 110.861990
_cell_angle_gamma 90.000000
_cell_volume 1169.166584
_symmetry_space_group_name_H-M "C 2/M"
_symmetry_group_IT_number 12
_symmetry_cell_setting 'monoclinic'
loop_
_space_group_symop_operation_xyz
x,y,z
-x,y,-z
-x,-y,-z
x,-y,z
1/2+x,1/2+y,z
1/2-x,1/2+y,-z
1/2-x,1/2-y,-z
1/2+x,1/2-y,z
loop_
_atom_site_type_symbol
_atom_site_label
_atom_site_fract_x
_atom_site_fract_y
_atom_site_fract_z
Si Si1 0.800430 0.268619 0.212621
Si Si2 0.500000 0.000000 0.500000
Si Si3 0.766459 0.114251 0.665698
Si Si4 0.795127 0.071195 0.080313
Si Si5 0.000000 0.808796 0.500000
O O1 0.496041 0.255731 0.142592
O O2 0.836139 0.338088 0.249105
O O3 0.876851 0.231791 0.361731
O O4 0.618848 0.052711 0.619971
O O5 0.793780 0.148848 0.532301
O O6 0.062742 0.099576 0.766354
O O7 0.781756 0.000000 0.097183
O O8 0.500000 0.092137 0.000000
O O9 0.000000 0.081424 0.000000
#
# Coordination Sequence:
#
# PCOD9201220 Si02
#       5
#     8   2   8   8   4
#     4  10  20  37  61  88 126 172 204 245 320 396
#     4  12  22  34  56 104 130 158 196 284 332 382
#     4  11  22  39  63  99 135 164 219 268 328 392
#     4  10  23  45  66  87 125 180 225 259 312 381
#     4  10  21  39  62  93 131 178 198 264 332 404
#
# _framework density 25.659302
#
# number of rings (size 3 to 8) (size 9 to 14) (size 15 to 20)
#    0.000    1.600    1.333    5.600    0.000    6.933 
#    4.800    0.000    0.000   19.200    0.000    0.000 
#    0.000    0.000    0.000    0.000    0.000    0.000 
#
# Total GULP energy -83742.777562 kJ/mol
# GULP energy per Si atom -5582.851837 kJ/mol
# Density = 2.560090 g / cm^3
# Si number density = 25.659302 Si / 1000 Ang^3
#
#
#
# Elastic Constant Matrix: (Units=GPa)
#
#
# Indices 1 2 3 4 5 6 
#
# 1 162.6768 56.7079 46.2868 0.0000 16.9943 0.0000
# 2 56.7079 207.5628 40.2161 0.0000 0.8881 0.0000
# 3 46.2868 40.2161 98.2828 0.0000 11.8425 0.0000
# 4 0.0000 0.0000 0.0000 1.2605 0.0000 9.9033
# 5 16.9943 0.8881 11.8425 0.0000 43.4952 0.0000
# 6 0.0000 0.0000 0.0000 9.9033 0.0000 25.3029
#
#
#
# Elastic Compliance Matrix: (Units=1/GPa)
#
#
# Indices 1 2 3 4 5 6 
#
# 1 0.007700 -0.001568 -0.002715 0.000000 -0.002237 0.000000
# 2 -0.001568 0.005562 -0.001652 0.000000 0.000949 0.000000
# 3 -0.002715 -0.001652 0.012404 0.000000 -0.002283 0.000000
# 4 0.000000 0.000000 0.000000 -0.382322 0.000000 0.149637
# 5 -0.002237 0.000949 -0.002283 0.000000 0.024467 0.000000
# 6 0.000000 0.000000 0.000000 0.149637 0.000000 -0.019045
#
#
# Mechanical properties :
#
#
# Convention : Reuss Voigt Hill
#
# Bulk Modulus (GPa) = 72.48194 83.88266 78.18230
# Shear Modulus (GPa) = -14.93587 35.69917 10.38165
#
# Velocity S-wave (km/s) = -2.41526 3.73403 2.01364
# Velocity P-wave (km/s) = 4.53113 7.16607 5.99515
#
# Compressibility (1/GPa) = 0.01379654
#
# Stress axis : x y z
#
# Youngs Moduli (GPa) = 129.86935 179.78451 80.61648
#
# Poissons Ratio (x) = 0.28191 0.21889
# Poissons Ratio (y) = 0.20364 0.13316
# Poissons Ratio (z) = 0.35262 0.29697
#
# Static dielectric constant tensor:
#      x y z
#    x 2.156920 0.000000 0.050010 
#    y 0.000000 1.933180 0.000000 
#    z 0.050010 0.000000 2.070160 
# 
# From -- ./inp_files/114894.got.cif
#   From: 2010.05.17/outbox.cif.g08.bks.cpg/sg12_58_cif.got.tgz:114894.got - 2010.06.03 13:09:07.
