data_PCOD9201974
_publ_section_title
;
Structure prediction by ZEFSAII (Michael W. Deem and Ramdas Pophale) SiO2 
 PCOD9201974
Probable space group: C 2/M
;
_chemical_formula_sum "Si O2"
_cell_formula_units_Z 46
_cell_length_a 25.551158
_cell_length_b 12.333237
_cell_length_c 19.372995
_cell_angle_alpha 90.000000
_cell_angle_beta 20.187511
_cell_angle_gamma 90.000000
_cell_volume 2106.790570
_symmetry_space_group_name_H-M "C 2/M"
_symmetry_group_IT_number 12
_symmetry_cell_setting 'monoclinic'
loop_
_space_group_symop_operation_xyz
x,y,z
-x,y,-z
-x,-y,-z
x,-y,z
1/2+x,1/2+y,z
1/2-x,1/2+y,-z
1/2-x,1/2-y,-z
1/2+x,1/2-y,z
loop_
_atom_site_type_symbol
_atom_site_label
_atom_site_fract_x
_atom_site_fract_y
_atom_site_fract_z
Si Si1 0.808908 0.880642 0.283170
Si Si2 0.551386 0.307266 0.075755
Si Si3 0.185530 0.500000 0.028404
Si Si4 0.500000 0.000000 0.000000
Si Si5 0.583836 0.500000 0.143290
Si Si6 0.751574 0.820907 0.737247
Si Si7 0.015632 0.000000 0.581977
Si Si8 0.910711 0.386363 0.314921
O O1 0.746379 0.778363 0.319215
O O2 0.714698 0.884044 0.471710
O O3 0.982017 0.864709 0.094264
O O4 0.785137 0.000000 0.280635
O O5 0.565858 0.394408 0.118249
O O6 0.426329 0.217299 0.249730
O O7 0.700943 0.240266 0.869999
O O8 0.252828 0.500000 0.021440
O O9 0.334162 0.500000 0.796279
O O10 0.073296 0.400878 0.151646
O O11 0.381599 0.095417 0.118609
O O12 0.472459 0.500000 0.348047
O O13 0.902354 0.893195 0.548063
O O14 0.892621 0.500000 0.295474
#
# Coordination Sequence:
#
# PCOD9201974 Si02
#       8
#     8   8   4   2   4   8   4   8
#     4  11  22  40  61  94 133 171 205 252 338 408
#     4  12  22  37  63 100 130 161 213 269 326 380
#     4   8  21  47  67  87 120 175 223 271 317 372
#     4  10  20  38  54  88 126 176 204 242 318 404
#     4  10  23  41  65  93 127 168 223 272 309 379
#     4  11  23  38  64  94 131 177 201 264 330 398
#     4   9  22  44  67  89 126 175 226 259 321 387
#     4   9  22  40  65  91 119 166 215 271 309 381
#
# _framework density 21.834157999999999
#
# number of rings (size 3 to 8) (size 9 to 14) (size 15 to 20)
#    1.043    0.696    2.609    1.565    3.652    1.391 
#    0.000    1.739    0.000    1.043    0.000    0.000 
#    0.000    0.000    0.000    0.000    0.000    0.000 
#
# Total GULP energy -128091.136603 kJ/mol
# GULP energy per Si atom -5569.179852 kJ/mol
# Density = 2.178446 g / cm^3
# Si number density = 21.834158 Si / 1000 Ang^3
#
#
#
# Elastic Constant Matrix: (Units=GPa)
#
#
# Indices 1 2 3 4 5 6 
#
# 1 54.4626 32.1036 14.3281 -0.0006 5.5768 -0.0004
# 2 32.1036 181.9557 40.5062 -0.0011 16.9278 -0.0008
# 3 14.3281 40.5062 95.2726 -0.0018 -1.9628 -0.0014
# 4 -0.0006 -0.0011 -0.0018 125.9599 0.0006 86.7773
# 5 5.5768 16.9278 -1.9628 0.0006 34.9011 0.0005
# 6 -0.0004 -0.0008 -0.0014 86.7773 0.0005 93.9650
#
#
#
# Elastic Compliance Matrix: (Units=1/GPa)
#
#
# Indices 1 2 3 4 5 6 
#
# 1 0.020870 -0.003086 -0.001867 0.000000 -0.001943 0.000000
# 2 -0.003086 0.006880 -0.002522 0.000000 -0.002985 0.000000
# 3 -0.001867 -0.002522 0.011894 0.000000 0.002191 0.000000
# 4 0.000000 0.000000 0.000000 0.021824 0.000000 -0.020155
# 5 -0.001943 -0.002985 0.002191 0.000000 0.030534 0.000000
# 6 0.000000 0.000000 0.000000 -0.020155 0.000000 0.029255
#
#
# Mechanical properties :
#
#
# Convention : Reuss Voigt Hill
#
# Bulk Modulus (GPa) = 40.49506 56.17409 48.33457
# Shear Modulus (GPa) = 34.61652 67.28207 50.94930
#
# Velocity S-wave (km/s) = 3.98607 5.55715 4.83584
# Velocity P-wave (km/s) = 6.30649 8.18287 7.30518
#
# Compressibility (1/GPa) = 0.02469437
#
# Stress axis : x y z
#
# Youngs Moduli (GPa) = 47.91487 145.35782 84.07278
#
# Poissons Ratio (x) = 0.44857 0.15694
# Poissons Ratio (y) = 0.14786 0.21206
# Poissons Ratio (z) = 0.08944 0.36664
#
# Static dielectric constant tensor:
#      x y z
#    x 1.815500 0.000000 0.077230 
#    y 0.000000 1.813420 0.000000 
#    z 0.077230 0.000000 1.876770 
# 
# From -- ./inp_files/330047.got.cif
#   From: 2010.05.17/outbox.cif.g08.bks.cpg/sg12_166_cif.got.tgz:330047.got - 2010.06.03 13:09:07.
