data_PCOD9201502
_publ_section_title
;
Structure prediction by ZEFSAII (Michael W. Deem and Ramdas Pophale) SiO2 
 PCOD9201502
Probable space group: C 2/M
;
_chemical_formula_sum "Si O2"
_cell_formula_units_Z 44
_cell_length_a 10.920539
_cell_length_b 27.416161
_cell_length_c 13.473514
_cell_angle_alpha 90.000000
_cell_angle_beta 146.878921
_cell_angle_gamma 90.000000
_cell_volume 2204.196596
_symmetry_space_group_name_H-M "C 2/M"
_symmetry_group_IT_number 12
_symmetry_cell_setting 'monoclinic'
loop_
_space_group_symop_operation_xyz
x,y,z
-x,y,-z
-x,-y,-z
x,-y,z
1/2+x,1/2+y,z
1/2-x,1/2+y,-z
1/2-x,1/2-y,-z
1/2+x,1/2-y,z
loop_
_atom_site_type_symbol
_atom_site_label
_atom_site_fract_x
_atom_site_fract_y
_atom_site_fract_z
Si Si1 0.575488 0.734463 0.795291
Si Si2 0.500000 0.864748 0.000000
Si Si3 0.239865 0.210984 0.697264
Si Si4 0.808493 0.946666 0.952059
Si Si5 0.552608 0.381972 0.779284
Si Si6 0.384213 0.942840 0.526990
O O1 0.349767 0.760758 0.679575
O O2 0.679618 0.743168 0.755521
O O3 0.534672 0.676299 0.767192
O O4 0.750000 0.750000 0.000000
O O5 0.580122 0.828852 0.143168
O O6 0.723849 0.894238 0.130764
O O7 0.000000 0.189853 0.500000
O O8 0.572616 0.938568 0.738695
O O9 0.801911 0.000000 0.999384
O O10 0.883174 0.902681 0.070501
O O11 0.000000 0.950342 0.000000
O O12 0.326469 0.408721 0.594892
O O13 0.500000 0.930125 0.500000
O O14 0.317056 0.000000 0.473846
#
# Coordination Sequence:
#
# PCOD9201502 Si02
#       6
#     8   4   8   8   8   8
#     4  11  22  43  62  89 130 165 213 264 314 368
#     4  10  24  44  59  84 126 170 209 252 306 366
#     4  11  22  42  64  86 120 175 210 264 320 367
#     4  10  20  37  62  90 122 156 190 249 321 371
#     4  11  22  38  63  88 122 162 209 249 303 376
#     4  10  20  38  61  92 127 152 193 255 318 375
#
# _framework density 19.961922000000001
#
# number of rings (size 3 to 8) (size 9 to 14) (size 15 to 20)
#    0.000    1.455    5.455    1.091    0.000    5.091 
#    3.273    1.818    0.000    2.182    0.000    0.000 
#    0.000    0.000    0.000    0.000    0.000    0.000 
#
# Total GULP energy -122682.812646 kJ/mol
# GULP energy per Si atom -5576.491484 kJ/mol
# Density = 1.991649 g / cm^3
# Si number density = 19.961922 Si / 1000 Ang^3
#
#
#
# Elastic Constant Matrix: (Units=GPa)
#
#
# Indices 1 2 3 4 5 6 
#
# 1 82.2559 17.4092 9.2717 0.0000 18.6454 0.0000
# 2 17.4092 45.7631 23.5384 0.0000 20.8720 0.0000
# 3 9.2717 23.5384 118.2197 0.0000 30.4976 0.0000
# 4 0.0000 0.0000 0.0000 44.1437 0.0000 18.2182
# 5 18.6454 20.8720 30.4976 0.0000 44.2397 0.0000
# 6 0.0000 0.0000 0.0000 18.2182 0.0000 22.5563
#
#
#
# Elastic Compliance Matrix: (Units=1/GPa)
#
#
# Indices 1 2 3 4 5 6 
#
# 1 0.013893 -0.003547 0.000846 0.000000 -0.004765 0.000000
# 2 -0.003547 0.029433 -0.002901 0.000000 -0.010391 0.000000
# 3 0.000846 -0.002901 0.010593 0.000000 -0.006290 0.000000
# 4 0.000000 0.000000 0.000000 0.033980 0.000000 -0.027445
# 5 -0.004765 -0.010391 -0.006290 0.000000 0.033851 0.000000
# 6 0.000000 0.000000 0.000000 -0.027445 0.000000 0.066500
#
#
# Mechanical properties :
#
#
# Convention : Reuss Voigt Hill
#
# Bulk Modulus (GPa) = 23.41199 38.51970 30.96584
# Shear Modulus (GPa) = 23.39824 35.25590 29.32707
#
# Velocity S-wave (km/s) = 3.42737 4.20713 3.83711
# Velocity P-wave (km/s) = 5.23606 6.55274 5.93105
#
# Compressibility (1/GPa) = 0.04271316
#
# Stress axis : x y z
#
# Youngs Moduli (GPa) = 71.98069 33.97596 94.40335
#
# Poissons Ratio (x) = 0.12051 -0.07985
# Poissons Ratio (y) = 0.25531 0.27391
# Poissons Ratio (z) = -0.06089 0.09858
#
# Static dielectric constant tensor:
#      x y z
#    x 1.752420 0.000000 0.002930 
#    y 0.000000 1.741570 0.000000 
#    z 0.002930 0.000000 1.731390 
# 
# From -- ./inp_files/209220.got.cif
#   From: 2010.05.17/outbox.cif.g08.bks.cpg/sg12_105_cif.got.tgz:209220.got - 2010.06.03 13:09:07.
