data_PCOD9201253
_publ_section_title
;
Structure prediction by ZEFSAII (Michael W. Deem and Ramdas Pophale) SiO2 
 PCOD9201253
Probable space group: C 2/M
;
_chemical_formula_sum "Si O2"
_cell_formula_units_Z 56
_cell_length_a 12.696858
_cell_length_b 18.409987
_cell_length_c 14.544911
_cell_angle_alpha 90.000000
_cell_angle_beta 127.227478
_cell_angle_gamma 90.000000
_cell_volume 2707.102710
_symmetry_space_group_name_H-M "C 2/M"
_symmetry_group_IT_number 12
_symmetry_cell_setting 'monoclinic'
loop_
_space_group_symop_operation_xyz
x,y,z
-x,y,-z
-x,-y,-z
x,-y,z
1/2+x,1/2+y,z
1/2-x,1/2+y,-z
1/2-x,1/2-y,-z
1/2+x,1/2-y,z
loop_
_atom_site_type_symbol
_atom_site_label
_atom_site_fract_x
_atom_site_fract_y
_atom_site_fract_z
Si Si1 0.759628 0.668422 0.706606
Si Si2 0.251287 0.582720 0.478355
Si Si3 0.432515 0.083025 0.311285
Si Si4 0.751802 0.834574 0.659624
Si Si5 0.475579 0.582845 0.878789
Si Si6 0.313876 0.661387 0.125168
Si Si7 0.424351 0.819458 0.132692
O O1 0.715355 0.612553 0.604669
O O2 0.726582 0.749492 0.654178
O O3 0.696495 0.651669 0.771556
O O4 0.919849 0.669344 0.801744
O O5 0.296227 0.500000 0.518017
O O6 0.293726 0.637236 0.581491
O O7 0.091097 0.583384 0.396635
O O8 0.373829 0.121412 0.369545
O O9 0.387810 0.127413 0.197753
O O10 0.387065 0.000000 0.282700
O O11 0.866201 0.859843 0.789486
O O12 0.432557 0.500000 0.838119
O O13 0.604750 0.601037 0.887233
O O14 0.500000 0.590773 0.000000
O O15 0.388212 0.737847 0.144969
O O16 0.167944 0.665808 0.003593
#
# Coordination Sequence:
#
# PCOD9201253 Si02
#       7
#     8   8   8   8   8   8   8
#     4  11  23  39  62  93 121 161 207 256 305 369
#     4  10  23  41  61  87 123 165 209 259 308 363
#     4  10  20  37  61  90 120 155 204 258 309 358
#     4  12  21  38  64  90 123 161 205 258 311 368
#     4  11  25  41  62  94 128 162 205 254 306 369
#     4  11  22  38  62  88 125 164 198 247 304 367
#     4  10  21  37  60  88 124 158 201 246 302 368
#
# _framework density 20.686322000000001
#
# number of rings (size 3 to 8) (size 9 to 14) (size 15 to 20)
#    0.000    1.286    2.857    3.429    2.000    3.429 
#    0.000    0.714    0.000    6.000    0.000    0.000 
#    0.000    0.000    0.000    0.000    0.000    0.000 
#
# Total GULP energy -156559.308082 kJ/mol
# GULP energy per Si atom -5591.403860 kJ/mol
# Density = 2.063924 g / cm^3
# Si number density = 20.686322 Si / 1000 Ang^3
#
#
#
# Elastic Constant Matrix: (Units=GPa)
#
#
# Indices 1 2 3 4 5 6 
#
# 1 70.3379 20.0205 19.7275 0.0000 -33.4567 0.0000
# 2 20.0205 67.2984 19.8800 0.0000 -9.1162 0.0000
# 3 19.7275 19.8800 60.8246 0.0000 -31.6323 0.0000
# 4 0.0000 0.0000 0.0000 -5.6897 0.0000 -3.5760
# 5 -33.4567 -9.1162 -31.6323 0.0000 37.1864 0.0000
# 6 0.0000 0.0000 0.0000 -3.5760 0.0000 14.5472
#
#
#
# Elastic Compliance Matrix: (Units=1/GPa)
#
#
# Indices 1 2 3 4 5 6 
#
# 1 0.029143 -0.007170 0.010066 0.000000 0.033026 0.000000
# 2 -0.007170 0.018231 -0.008363 0.000000 -0.009096 0.000000
# 3 0.010066 -0.008363 0.035066 0.000000 0.036835 0.000000
# 4 0.000000 0.000000 0.000000 -0.152235 0.000000 -0.037423
# 5 0.033026 -0.009096 0.036835 0.000000 0.085708 0.000000
# 6 0.000000 0.000000 0.000000 -0.037423 0.000000 0.059542
#
#
# Mechanical properties :
#
#
# Convention : Reuss Voigt Hill
#
# Bulk Modulus (GPa) = 13.98483 35.30188 24.64336
# Shear Modulus (GPa) = 45.36204 18.46430 31.91317
#
# Velocity S-wave (km/s) = 4.68787 2.99086 3.93201
# Velocity P-wave (km/s) = 6.00638 5.38789 5.70552
#
# Compressibility (1/GPa) = 0.07150603
#
# Stress axis : x y z
#
# Youngs Moduli (GPa) = 34.31306 54.85282 28.51798
#
# Poissons Ratio (x) = 0.39329 -0.28708
# Poissons Ratio (y) = 0.24602 0.23851
# Poissons Ratio (z) = -0.34541 0.45876
#
# Static dielectric constant tensor:
#      x y z
#    x 1.754600 0.000000 0.026800 
#    y 0.000000 1.709800 0.000000 
#    z 0.026800 0.000000 1.740050 
# 
# From -- ./inp_files/206739.got.cif
#   From: 2010.05.17/outbox.cif.g08.bks.cpg/sg12_104_cif.got.tgz:206739.got - 2010.06.03 13:09:07.
