data_PCOD9201826
_publ_section_title
;
Structure prediction by ZEFSAII (Michael W. Deem and Ramdas Pophale) SiO2 
 PCOD9201826
Probable space group: C 2/M
;
_chemical_formula_sum "Si O2"
_cell_formula_units_Z 64
_cell_length_a 14.240223
_cell_length_b 18.482686
_cell_length_c 17.778120
_cell_angle_alpha 90.000000
_cell_angle_beta 138.912125
_cell_angle_gamma 90.000000
_cell_volume 3075.216379
_symmetry_space_group_name_H-M "C 2/M"
_symmetry_group_IT_number 12
_symmetry_cell_setting 'monoclinic'
loop_
_space_group_symop_operation_xyz
x,y,z
-x,y,-z
-x,-y,-z
x,-y,z
1/2+x,1/2+y,z
1/2-x,1/2+y,-z
1/2-x,1/2-y,-z
1/2+x,1/2-y,z
loop_
_atom_site_type_symbol
_atom_site_label
_atom_site_fract_x
_atom_site_fract_y
_atom_site_fract_z
Si Si1 0.663537 0.225127 0.372935
Si Si2 0.923850 0.583550 0.745194
Si Si3 0.074971 0.819398 0.725526
Si Si4 0.155718 0.583807 0.129017
Si Si5 0.129077 0.718548 0.628639
Si Si6 0.242901 0.086295 0.049816
Si Si7 0.258942 0.416671 0.781384
Si Si8 0.998408 0.916579 0.797348
O O1 0.750000 0.250000 0.500000
O O2 0.657472 0.139192 0.357538
O O3 0.498800 0.251519 0.277454
O O4 0.740036 0.259966 0.346379
O O5 0.919536 0.500000 0.717128
O O6 0.858715 0.587100 0.789585
O O7 0.090784 0.605863 0.853442
O O8 0.230134 0.856414 0.827851
O O9 0.077874 0.789924 0.642542
O O10 0.973209 0.879788 0.701705
O O11 0.194692 0.500000 0.132422
O O12 0.000000 0.597072 0.000000
O O13 0.161879 0.652088 0.703652
O O14 0.000000 0.693097 0.500000
O O15 0.187020 0.096217 0.101105
O O16 0.240768 0.000000 0.035476
O O17 0.135945 0.117727 0.923227
O O18 0.200022 0.500000 0.745560
O O19 0.375871 0.413756 0.786098
O O20 0.023872 0.000000 0.797080
#
# Coordination Sequence:
#
# PCOD9201826 Si02
#       8
#     8   8   8   8   8   8   8   8
#     4  12  25  45  67  92 129 175 218 278 348 391
#     4  10  21  41  66  94 128 168 221 265 314 399
#     4  12  23  41  68  91 131 173 218 270 326 405
#     4  10  21  40  68 101 137 176 217 267 329 399
#     4  12  25  44  65  90 127 173 217 272 348 390
#     4   9  18  35  63  96 131 170 208 255 315 376
#     4  10  21  40  65  95 128 166 219 268 312 389
#     4  10  20  37  64  97 130 170 212 259 320 383
#
# _framework density 20.811544999999999
#
# number of rings (size 3 to 8) (size 9 to 14) (size 15 to 20)
#    0.000    1.375    3.750    2.250    0.000    3.750 
#    0.000   10.000    0.000    3.375    0.000    0.000 
#    0.000    0.000    0.000    0.000    0.000    0.000 
#
# Total GULP energy -178218.144776 kJ/mol
# GULP energy per Si atom -5569.317024 kJ/mol
# Density = 2.076418 g / cm^3
# Si number density = 20.811545 Si / 1000 Ang^3
#
#
#
# Elastic Constant Matrix: (Units=GPa)
#
#
# Indices 1 2 3 4 5 6 
#
# 1 117.6521 27.4588 3.2045 0.0000 -5.0328 0.0000
# 2 27.4588 98.4039 46.0750 0.0000 -5.0280 0.0000
# 3 3.2045 46.0750 47.7746 0.0001 -6.2056 0.0000
# 4 0.0000 0.0000 0.0001 27.4898 0.0000 -1.0867
# 5 -5.0328 -5.0280 -6.2056 0.0000 28.6380 0.0000
# 6 0.0000 0.0000 0.0000 -1.0867 0.0000 25.4572
#
#
#
# Elastic Compliance Matrix: (Units=1/GPa)
#
#
# Indices 1 2 3 4 5 6 
#
# 1 0.009477 -0.004310 0.003744 0.000000 0.001720 0.000000
# 2 -0.004310 0.020501 -0.019667 0.000000 -0.001420 0.000000
# 3 0.003744 -0.019667 0.040422 0.000000 0.005964 0.000000
# 4 0.000000 0.000000 0.000000 0.036439 0.000000 0.001555
# 5 0.001720 -0.001420 0.005964 0.000000 0.036264 0.000000
# 6 0.000000 0.000000 0.000000 0.001555 0.000000 0.039348
#
#
# Mechanical properties :
#
#
# Convention : Reuss Voigt Hill
#
# Bulk Modulus (GPa) = 33.40519 46.36749 39.88634
# Shear Modulus (GPa) = 21.46906 28.78984 25.12945
#
# Velocity S-wave (km/s) = 3.21533 3.72339 3.47865
# Velocity P-wave (km/s) = 5.46540 6.38850 5.94489
#
# Compressibility (1/GPa) = 0.02993547
#
# Stress axis : x y z
#
# Youngs Moduli (GPa) = 105.51773 48.77900 24.73890
#
# Poissons Ratio (x) = 0.21022 -0.09263
# Poissons Ratio (y) = 0.45475 0.48653
# Poissons Ratio (z) = -0.39507 0.95932
#
# Static dielectric constant tensor:
#      x y z
#    x 1.796610 0.000000 0.022160 
#    y 0.000000 1.756790 0.000000 
#    z 0.022160 0.000000 1.745530 
# 
# From -- ./inp_files/271760.got.cif
#   From: 2010.05.17/outbox.cif.g08.bks.cpg/sg12_136_cif.got.tgz:271760.got - 2010.06.03 13:09:07.
