data_PCOD9201133
_publ_section_title
;
Structure prediction by ZEFSAII (Michael W. Deem and Ramdas Pophale) SiO2 
 PCOD9201133
Probable space group: C 2/M
;
_chemical_formula_sum "Si O2"
_cell_formula_units_Z 48
_cell_length_a 23.725823
_cell_length_b 19.211910
_cell_length_c 14.468949
_cell_angle_alpha 90.000000
_cell_angle_beta 157.632244
_cell_angle_gamma 90.000000
_cell_volume 2509.808343
_symmetry_space_group_name_H-M "C 2/M"
_symmetry_group_IT_number 12
_symmetry_cell_setting 'monoclinic'
loop_
_space_group_symop_operation_xyz
x,y,z
-x,y,-z
-x,-y,-z
x,-y,z
1/2+x,1/2+y,z
1/2-x,1/2+y,-z
1/2-x,1/2-y,-z
1/2+x,1/2-y,z
loop_
_atom_site_type_symbol
_atom_site_label
_atom_site_fract_x
_atom_site_fract_y
_atom_site_fract_z
Si Si1 0.101759 0.658956 0.238789
Si Si2 0.835900 0.836478 0.212008
Si Si3 0.171075 0.193872 0.015036
Si Si4 0.620477 0.074988 0.601857
Si Si5 0.417944 0.320753 0.782575
Si Si6 0.929041 0.421927 0.126738
O O1 0.270438 0.638704 0.524190
O O2 0.121971 0.741236 0.249742
O O3 0.999779 0.636479 0.169271
O O4 0.000000 0.631031 0.000000
O O5 0.750258 0.768415 0.121886
O O6 0.000000 0.838626 0.500000
O O7 0.847405 0.831888 0.118425
O O8 0.735110 0.900697 0.091098
O O9 0.278370 0.141042 0.230647
O O10 0.024776 0.190814 0.856123
O O11 0.500000 0.076474 0.500000
O O12 0.530912 0.078056 0.371700
O O13 0.700678 0.000000 0.728621
O O14 0.500000 0.349997 0.000000
O O15 0.932799 0.500000 0.091823
#
# Coordination Sequence:
#
# PCOD9201133 Si02
#       6
#     8   8   8   8   8   8
#     4  10  22  39  61  89 120 164 207 249 305 372
#     4  11  25  36  59  95 124 162 203 251 315 366
#     4  11  22  38  62  92 126 154 199 264 306 369
#     4  10  20  37  61  86 117 158 199 242 303 366
#     4  10  21  37  63  92 122 156 204 259 309 360
#     4  11  23  42  63  87 126 167 208 251 304 373
#
# _framework density 19.124966000000001
#
# number of rings (size 3 to 8) (size 9 to 14) (size 15 to 20)
#    0.000    1.500    3.333    1.500    4.667    2.000 
#    0.000    0.833    0.000    3.000    0.000    0.000 
#    0.000    0.000    0.000    0.000    0.000    0.000 
#
# Total GULP energy -133687.655112 kJ/mol
# GULP energy per Si atom -5570.318963 kJ/mol
# Density = 1.908144 g / cm^3
# Si number density = 19.124966 Si / 1000 Ang^3
#
#
#
# Elastic Constant Matrix: (Units=GPa)
#
#
# Indices 1 2 3 4 5 6 
#
# 1 79.5299 6.9635 49.8727 0.0000 -7.6744 0.0000
# 2 6.9635 16.4027 8.9874 0.0000 2.4737 0.0000
# 3 49.8727 8.9874 132.7194 0.0000 0.4747 0.0000
# 4 0.0000 0.0000 0.0000 -24.0408 0.0000 40.9504
# 5 -7.6744 2.4737 0.4747 0.0000 17.8955 0.0000
# 6 0.0000 0.0000 0.0000 40.9504 0.0000 -12.9028
#
#
#
# Elastic Compliance Matrix: (Units=1/GPa)
#
#
# Indices 1 2 3 4 5 6 
#
# 1 0.017876 -0.005385 -0.006384 0.000000 0.008580 0.000000
# 2 -0.005385 0.066301 -0.002425 0.000000 -0.011410 0.000000
# 3 -0.006384 -0.002425 0.010107 0.000000 -0.002670 0.000000
# 4 0.000000 0.000000 0.000000 0.009441 0.000000 0.029962
# 5 0.008580 -0.011410 -0.002670 0.000000 0.061207 0.000000
# 6 0.000000 0.000000 0.000000 0.029962 0.000000 0.017590
#
#
# Mechanical properties :
#
#
# Convention : Reuss Voigt Hill
#
# Bulk Modulus (GPa) = 15.17524 40.03324 27.60424
# Shear Modulus (GPa) = 21.47056 7.04559 14.25808
#
# Velocity S-wave (km/s) = 3.35423 1.92145 2.73339
# Velocity P-wave (km/s) = 4.79094 5.08926 4.94235
#
# Compressibility (1/GPa) = 0.06589681
#
# Stress axis : x y z
#
# Youngs Moduli (GPa) = 55.93964 15.08263 98.93882
#
# Poissons Ratio (x) = 0.08122 0.63158
# Poissons Ratio (y) = 0.30125 0.23996
# Poissons Ratio (z) = 0.35709 0.03658
#
# Static dielectric constant tensor:
#      x y z
#    x 1.788540 0.000000 -0.004850 
#    y 0.000000 1.680260 0.000000 
#    z -0.004850 0.000000 1.668000 
# 
# From -- ./inp_files/131024.got.cif
#   From: 2010.05.17/outbox.cif.g08.bks.cpg/sg12_66_cif.got.tgz:131024.got - 2010.06.03 13:09:07.
