data_PCOD9201805
_publ_section_title
;
Structure prediction by ZEFSAII (Michael W. Deem and Ramdas Pophale) SiO2 
 PCOD9201805
Probable space group: C 2/M
;
_chemical_formula_sum "Si O2"
_cell_formula_units_Z 56
_cell_length_a 14.005552
_cell_length_b 21.353737
_cell_length_c 9.117773
_cell_angle_alpha 90.000000
_cell_angle_beta 65.728142
_cell_angle_gamma 90.000000
_cell_volume 2485.820312
_symmetry_space_group_name_H-M "C 2/M"
_symmetry_group_IT_number 12
_symmetry_cell_setting 'monoclinic'
loop_
_space_group_symop_operation_xyz
x,y,z
-x,y,-z
-x,-y,-z
x,-y,z
1/2+x,1/2+y,z
1/2-x,1/2+y,-z
1/2-x,1/2-y,-z
1/2+x,1/2-y,z
loop_
_atom_site_type_symbol
_atom_site_label
_atom_site_fract_x
_atom_site_fract_y
_atom_site_fract_z
Si Si1 0.805089 0.074392 0.870831
Si Si2 0.036042 0.928844 0.808635
Si Si3 0.501535 0.222697 0.164166
Si Si4 0.165500 0.810285 0.645758
Si Si5 0.683476 0.869943 0.671885
Si Si6 0.289194 0.828352 0.837470
Si Si7 0.875981 0.434322 0.576884
O O1 0.930684 0.077883 0.779949
O O2 0.745415 0.098967 0.765399
O O3 0.781161 0.000000 0.916376
O O4 0.772705 0.125321 0.014859
O O5 0.122624 0.879891 0.706954
O O6 0.074122 0.000000 0.773613
O O7 0.000000 0.918728 0.000000
O O8 0.438035 0.268943 0.311263
O O9 0.427057 0.161071 0.210952
O O10 0.620314 0.210225 0.137743
O O11 0.500000 0.248782 0.000000
O O12 0.245724 0.818432 0.460761
O O13 0.218664 0.789653 0.767102
O O14 0.659672 0.921801 0.565171
O O15 0.347185 0.875739 0.692120
O O16 0.832692 0.500000 0.662038
O O17 0.000000 0.437296 0.500000
#
# Coordination Sequence:
#
# PCOD9201805 Si02
#       7
#     8   8   8   8   8   8   8
#     4  11  23  41  68 101 136 174 217 276 339 392
#     4  10  21  41  68  99 131 167 224 279 327 396
#     4  12  25  44  68  96 133 176 227 279 330 394
#     4  11  26  43  71  95 132 178 226 270 341 394
#     4  11  24  44  62 102 138 173 219 282 331 398
#     4  11  23  42  67  96 132 174 229 275 325 403
#     4  10  20  37  64  94 131 178 219 262 327 398
#
# _framework density 22.527774999999998
#
# number of rings (size 3 to 8) (size 9 to 14) (size 15 to 20)
#    0.000    1.143    4.286    1.714    0.000    5.143 
#    0.000    5.000    0.000    0.000    0.000    0.000 
#    0.000    0.000    0.000    0.000    0.000    0.000 
#
# Total GULP energy -156541.146848 kJ/mol
# GULP energy per Si atom -5590.755245 kJ/mol
# Density = 2.247650 g / cm^3
# Si number density = 22.527775 Si / 1000 Ang^3
#
#
#
# Elastic Constant Matrix: (Units=GPa)
#
#
# Indices 1 2 3 4 5 6 
#
# 1 120.4857 21.8257 22.2170 0.0000 3.4923 0.0000
# 2 21.8257 53.2574 6.1252 0.0000 -1.4870 0.0000
# 3 22.2170 6.1252 58.2217 0.0000 1.9230 0.0000
# 4 0.0000 0.0000 0.0000 22.2243 0.0000 2.0512
# 5 3.4923 -1.4870 1.9230 0.0000 39.6713 0.0000
# 6 0.0000 0.0000 0.0000 2.0512 0.0000 38.1663
#
#
#
# Elastic Compliance Matrix: (Units=1/GPa)
#
#
# Indices 1 2 3 4 5 6 
#
# 1 0.009569 -0.003571 -0.003249 0.000000 -0.000819 0.000000
# 2 -0.003571 0.020365 -0.000817 0.000000 0.001117 0.000000
# 3 -0.003249 -0.000817 0.018523 0.000000 -0.000642 0.000000
# 4 0.000000 0.000000 0.000000 0.045220 0.000000 -0.002430
# 5 -0.000819 0.001117 -0.000642 0.000000 0.025352 0.000000
# 6 0.000000 0.000000 0.000000 -0.002430 0.000000 0.026332
#
#
# Mechanical properties :
#
#
# Convention : Reuss Voigt Hill
#
# Bulk Modulus (GPa) = 30.13488 36.92229 33.52859
# Shear Modulus (GPa) = 29.12124 32.13217 30.62670
#
# Velocity S-wave (km/s) = 3.59929 3.78078 3.69115
# Velocity P-wave (km/s) = 5.53886 5.95687 5.75167
#
# Compressibility (1/GPa) = 0.03318414
#
# Stress axis : x y z
#
# Youngs Moduli (GPa) = 104.49957 49.10317 53.98799
#
# Poissons Ratio (x) = 0.17534 0.17540
# Poissons Ratio (y) = 0.37316 0.04410
# Poissons Ratio (z) = 0.33951 0.04011
#
# Static dielectric constant tensor:
#      x y z
#    x 1.846640 0.000000 0.011960 
#    y 0.000000 1.870610 0.000000 
#    z 0.011960 0.000000 1.820870 
# 
# From -- ./inp_files/65787.got.cif
#   From: 2010.05.17/outbox.cif.g08.bks.cpg/sg12_33_cif.got.tgz:65787.got - 2010.06.03 13:09:07.
