data_PCOD9201166
_publ_section_title
;
Structure prediction by ZEFSAII (Michael W. Deem and Ramdas Pophale) SiO2 
 PCOD9201166
Probable space group: C 2/M
;
_chemical_formula_sum "Si O2"
_cell_formula_units_Z 56
_cell_length_a 29.642652
_cell_length_b 8.991669
_cell_length_c 11.029865
_cell_angle_alpha 90.000000
_cell_angle_beta 111.175490
_cell_angle_gamma 90.000000
_cell_volume 2741.361756
_symmetry_space_group_name_H-M "C 2/M"
_symmetry_group_IT_number 12
_symmetry_cell_setting 'monoclinic'
loop_
_space_group_symop_operation_xyz
x,y,z
-x,y,-z
-x,-y,-z
x,-y,z
1/2+x,1/2+y,z
1/2-x,1/2+y,-z
1/2-x,1/2-y,-z
1/2+x,1/2-y,z
loop_
_atom_site_type_symbol
_atom_site_label
_atom_site_fract_x
_atom_site_fract_y
_atom_site_fract_z
Si Si1 0.273221 0.679105 0.401483
Si Si2 0.120560 0.824431 0.568554
Si Si3 0.542571 0.667314 0.140065
Si Si4 0.472568 0.173780 0.636438
Si Si5 0.918647 0.324060 0.252337
Si Si6 0.882044 0.828448 0.985240
Si Si7 0.266777 0.677411 0.887973
O O1 0.265783 0.500000 0.393904
O O2 0.250000 0.750000 0.500000
O O3 0.330850 0.709386 0.457368
O O4 0.254522 0.747011 0.255052
O O5 0.072616 0.759245 0.462263
O O6 0.121133 0.752839 0.702281
O O7 0.116781 0.000000 0.576935
O O8 0.542860 0.500000 0.196346
O O9 0.531840 0.793477 0.225611
O O10 0.500000 0.666946 0.000000
O O11 0.593333 0.690448 0.121458
O O12 0.527005 0.223742 0.656771
O O13 0.468459 0.000000 0.603403
O O14 0.916154 0.500000 0.263519
O O15 0.908485 0.276879 0.105888
O O16 0.892209 0.000000 0.031136
O O17 0.824876 0.805864 0.933584
O O18 0.255543 0.500000 0.878021
O O19 0.250000 0.750000 0.000000
#
# Coordination Sequence:
#
# PCOD9201166 Si02
#       7
#     8   8   8   8   8   8   8
#     4  11  26  47  69  96 129 168 217 273 330 390
#     4  11  25  43  65  89 120 163 211 255 305 372
#     4  10  20  37  61  87 119 162 206 249 300 365
#     4  11  24  39  59  91 128 162 202 254 309 366
#     4  11  23  39  61  93 130 163 202 253 310 368
#     4  10  22  39  62  91 124 162 206 253 305 368
#     4  11  24  43  68  98 132 169 216 272 325 384
#
# _framework density 20.427802
#
# number of rings (size 3 to 8) (size 9 to 14) (size 15 to 20)
#    0.000    1.286    1.429    3.429    2.000   11.143 
#    0.000    0.000    0.000    0.000    0.000    0.000 
#    0.000    0.000    0.000    0.000    0.000    0.000 
#
# Total GULP energy -156464.458311 kJ/mol
# GULP energy per Si atom -5588.016368 kJ/mol
# Density = 2.038131 g / cm^3
# Si number density = 20.427802 Si / 1000 Ang^3
#
#
#
# Elastic Constant Matrix: (Units=GPa)
#
#
# Indices 1 2 3 4 5 6 
#
# 1 152.0403 72.9216 38.4587 0.0000 -11.9694 0.0000
# 2 72.9216 78.4356 46.2556 0.0000 -2.5602 0.0000
# 3 38.4587 46.2556 83.8237 0.0000 -7.9532 0.0000
# 4 0.0000 0.0000 0.0000 35.3967 0.0000 0.5459
# 5 -11.9694 -2.5602 -7.9532 0.0000 27.3689 0.0000
# 6 0.0000 0.0000 0.0000 0.5459 0.0000 19.3218
#
#
#
# Elastic Compliance Matrix: (Units=1/GPa)
#
#
# Indices 1 2 3 4 5 6 
#
# 1 0.012495 -0.012373 0.001546 0.000000 0.004756 0.000000
# 2 -0.012373 0.031197 -0.012109 0.000000 -0.006012 0.000000
# 3 0.001546 -0.012109 0.018365 0.000000 0.004880 0.000000
# 4 0.000000 0.000000 0.000000 0.028264 0.000000 -0.000799
# 5 0.004756 -0.006012 0.004880 0.000000 0.039474 0.000000
# 6 0.000000 0.000000 0.000000 -0.000799 0.000000 0.051778
#
#
# Mechanical properties :
#
#
# Convention : Reuss Voigt Hill
#
# Bulk Modulus (GPa) = 61.78112 69.95237 65.86675
# Shear Modulus (GPa) = 21.47402 26.86171 24.16786
#
# Velocity S-wave (km/s) = 3.24576 3.63017 3.44333
# Velocity P-wave (km/s) = 6.66003 7.20339 6.93703
#
# Compressibility (1/GPa) = 0.01618618
#
# Stress axis : x y z
#
# Youngs Moduli (GPa) = 80.03235 32.05397 54.45058
#
# Poissons Ratio (x) = 0.39661 -0.08420
# Poissons Ratio (y) = 0.99026 0.65933
# Poissons Ratio (z) = -0.12376 0.38814
#
# Static dielectric constant tensor:
#      x y z
#    x 1.730790 0.000000 -0.019750 
#    y 0.000000 1.699430 0.000000 
#    z -0.019750 0.000000 1.762620 
# 
# From -- ./inp_files/187142.got.cif
#   From: 2010.05.17/outbox.cif.g08.bks.cpg/sg12_94_cif.got.tgz:187142.got - 2010.06.03 13:09:07.
