data_PCOD9201525
_publ_section_title
;
Structure prediction by ZEFSAII (Michael W. Deem and Ramdas Pophale) SiO2 
 PCOD9201525
Probable space group: C 2/M
;
_chemical_formula_sum "Si O2"
_cell_formula_units_Z 56
_cell_length_a 31.941938
_cell_length_b 8.671825
_cell_length_c 12.017716
_cell_angle_alpha 90.000000
_cell_angle_beta 58.076922
_cell_angle_gamma 90.000000
_cell_volume 2825.387238
_symmetry_space_group_name_H-M "C 2/M"
_symmetry_group_IT_number 12
_symmetry_cell_setting 'monoclinic'
loop_
_space_group_symop_operation_xyz
x,y,z
-x,y,-z
-x,-y,-z
x,-y,z
1/2+x,1/2+y,z
1/2-x,1/2+y,-z
1/2-x,1/2-y,-z
1/2+x,1/2-y,z
loop_
_atom_site_type_symbol
_atom_site_label
_atom_site_fract_x
_atom_site_fract_y
_atom_site_fract_z
Si Si1 0.284383 0.319442 0.546813
Si Si2 0.070477 0.685542 0.141421
Si Si3 0.393903 0.814873 0.387780
Si Si4 0.825324 0.683579 0.913120
Si Si5 0.519168 0.684316 0.594871
Si Si6 0.057036 0.687111 0.912743
Si Si7 0.755419 0.680472 0.812085
O O1 0.290578 0.500000 0.520292
O O2 0.250000 0.250000 0.500000
O O3 0.338003 0.241106 0.475156
O O4 0.258068 0.284387 0.700439
O O5 0.062854 0.500000 0.154724
O O6 0.117924 0.724206 0.148816
O O7 0.021974 0.763763 0.258260
O O8 0.080392 0.729546 0.998891
O O9 0.429188 0.754086 0.436321
O O10 0.416357 0.759985 0.237046
O O11 0.395039 0.000000 0.388147
O O12 0.819845 0.500000 0.944162
O O13 0.803430 0.709480 0.821607
O O14 0.791058 0.776575 0.046271
O O15 0.500000 0.736371 0.500000
O O16 0.523302 0.500000 0.587165
O O17 0.057098 0.500000 0.907100
O O18 0.000000 0.736637 0.000000
O O19 0.754421 0.500000 0.783405
#
# Coordination Sequence:
#
# PCOD9201525 Si02
#       7
#     8   8   8   8   8   8   8
#     4  12  27  46  66  92 127 167 213 264 318 377
#     4  10  20  37  62  91 120 160 209 254 309 374
#     4  11  23  42  68  94 123 165 209 258 319 381
#     4   9  20  37  62  93 123 162 209 261 316 374
#     4  11  25  42  59  89 130 170 213 261 314 370
#     4   9  17  34  60  90 120 151 194 246 302 364
#     4  10  21  40  62  91 125 162 211 260 316 380
#
# _framework density 19.820291000000001
#
# number of rings (size 3 to 8) (size 9 to 14) (size 15 to 20)
#    0.000    1.714    1.429    2.571    4.000    2.286 
#    0.000    2.143    0.000    0.000    0.000    0.000 
#    0.000    0.000    0.000    0.000    0.000    0.000 
#
# Total GULP energy -156454.351501 kJ/mol
# GULP energy per Si atom -5587.655411 kJ/mol
# Density = 1.977518 g / cm^3
# Si number density = 19.820291 Si / 1000 Ang^3
#
#
#
# Elastic Constant Matrix: (Units=GPa)
#
#
# Indices 1 2 3 4 5 6 
#
# 1 132.4059 43.8468 21.5206 0.0000 2.6895 0.0000
# 2 43.8468 52.5122 18.2856 0.0000 7.0462 0.0000
# 3 21.5206 18.2856 49.5836 0.0000 17.6975 0.0000
# 4 0.0000 0.0000 0.0000 28.8038 0.0000 -3.5337
# 5 2.6895 7.0462 17.6975 0.0000 24.4625 0.0000
# 6 0.0000 0.0000 0.0000 -3.5337 0.0000 24.1535
#
#
#
# Elastic Compliance Matrix: (Units=1/GPa)
#
#
# Indices 1 2 3 4 5 6 
#
# 1 0.010720 -0.008447 -0.002677 0.000000 0.003191 0.000000
# 2 -0.008447 0.028512 -0.005728 0.000000 -0.003140 0.000000
# 3 -0.002677 -0.005728 0.030667 0.000000 -0.020242 0.000000
# 4 0.000000 0.000000 0.000000 0.035352 0.000000 0.005172
# 5 0.003191 -0.003140 -0.020242 0.000000 0.056077 0.000000
# 6 0.000000 0.000000 0.000000 0.005172 0.000000 0.042158
#
#
# Mechanical properties :
#
#
# Convention : Reuss Voigt Hill
#
# Bulk Modulus (GPa) = 27.62719 44.64532 36.13625
# Shear Modulus (GPa) = 20.05981 25.54056 22.80019
#
# Velocity S-wave (km/s) = 3.18478 3.59361 3.39535
# Velocity P-wave (km/s) = 5.24336 6.30814 5.80024
#
# Compressibility (1/GPa) = 0.03619623
#
# Stress axis : x y z
#
# Youngs Moduli (GPa) = 93.28281 35.07253 32.60869
#
# Poissons Ratio (x) = 0.29627 0.08728
# Poissons Ratio (y) = 0.78798 0.18677
# Poissons Ratio (z) = 0.24967 0.20088
#
# Static dielectric constant tensor:
#      x y z
#    x 1.692730 0.000000 0.021030 
#    y 0.000000 1.672990 0.000000 
#    z 0.021030 0.000000 1.682870 
# 
# From -- ./inp_files/187157.got.cif
#   From: 2010.05.17/outbox.cif.g08.bks.cpg/sg12_94_cif.got.tgz:187157.got - 2010.06.03 13:09:07.
