data_PCOD9201185
_publ_section_title
;
Structure prediction by ZEFSAII (Michael W. Deem and Ramdas Pophale) SiO2 
 PCOD9201185
Probable space group: C 2/M
;
_chemical_formula_sum "Si O2"
_cell_formula_units_Z 56
_cell_length_a 23.819094
_cell_length_b 10.681415
_cell_length_c 12.663859
_cell_angle_alpha 90.000000
_cell_angle_beta 118.603786
_cell_angle_gamma 90.000000
_cell_volume 2828.723776
_symmetry_space_group_name_H-M "C 2/M"
_symmetry_group_IT_number 12
_symmetry_cell_setting 'monoclinic'
loop_
_space_group_symop_operation_xyz
x,y,z
-x,y,-z
-x,-y,-z
x,-y,z
1/2+x,1/2+y,z
1/2-x,1/2+y,-z
1/2-x,1/2-y,-z
1/2+x,1/2-y,z
loop_
_atom_site_type_symbol
_atom_site_label
_atom_site_fract_x
_atom_site_fract_y
_atom_site_fract_z
Si Si1 0.200088 0.860026 0.429638
Si Si2 0.824148 0.260369 0.806927
Si Si3 0.151441 0.854489 0.942832
Si Si4 0.411543 0.645257 0.495688
Si Si5 0.545050 0.862758 0.143407
Si Si6 0.311022 0.650782 0.243723
Si Si7 0.496959 0.647083 0.252928
O O1 0.250000 0.750000 0.500000
O O2 0.179519 0.842037 0.289485
O O3 0.139404 0.848366 0.452994
O O4 0.226894 0.000000 0.469847
O O5 0.881208 0.351489 0.824068
O O6 0.753997 0.319409 0.754125
O O7 0.841283 0.210544 0.938487
O O8 0.190532 0.802286 0.877928
O O9 0.078339 0.848647 0.836062
O O10 0.168592 0.000000 0.973933
O O11 0.421462 0.500000 0.475973
O O12 0.372234 0.702508 0.363087
O O13 0.478173 0.685819 0.608084
O O14 0.528249 0.745271 0.201164
O O15 0.533794 0.000000 0.182789
O O16 0.500000 0.854590 0.000000
O O17 0.317074 0.500000 0.243946
O O18 0.516118 0.500000 0.254321
#
# Coordination Sequence:
#
# PCOD9201185 Si02
#       7
#     8   8   8   8   8   8   8
#     4  11  22  36  57  86 120 153 191 241 295 353
#     4  12  21  36  59  84 118 156 193 239 295 349
#     4  10  22  37  56  84 115 153 199 241 285 341
#     4   9  18  34  56  85 115 147 187 237 291 341
#     4  11  23  37  55  86 120 154 193 237 294 356
#     4  10  21  37  56  83 118 153 196 243 284 341
#     4  10  20  37  61  88 116 152 192 240 297 345
#
# _framework density 19.796913
#
# number of rings (size 3 to 8) (size 9 to 14) (size 15 to 20)
#    0.000    1.571    4.286    1.286    0.000    2.000 
#    0.000    2.857    0.000    0.857    0.000    1.000 
#    0.000    0.000    0.000    0.000    0.000    0.000 
#
# Total GULP energy -156148.329564 kJ/mol
# GULP energy per Si atom -5576.726056 kJ/mol
# Density = 1.975185 g / cm^3
# Si number density = 19.796913 Si / 1000 Ang^3
#
#
#
# Elastic Constant Matrix: (Units=GPa)
#
#
# Indices 1 2 3 4 5 6 
#
# 1 50.3804 15.3335 8.8019 0.0000 -1.2729 0.0000
# 2 15.3335 73.0347 22.5122 0.0000 -2.0839 0.0000
# 3 8.8019 22.5122 116.2291 0.0000 1.0161 0.0000
# 4 0.0000 0.0000 0.0000 9.3466 0.0000 0.0460
# 5 -1.2729 -2.0839 1.0161 0.0000 37.1582 0.0000
# 6 0.0000 0.0000 0.0000 0.0460 0.0000 20.3783
#
#
#
# Elastic Compliance Matrix: (Units=1/GPa)
#
#
# Indices 1 2 3 4 5 6 
#
# 1 0.021282 -0.004206 -0.000801 0.000000 0.000515 0.000000
# 2 -0.004206 0.015423 -0.002676 0.000000 0.000794 0.000000
# 3 -0.000801 -0.002676 0.009186 0.000000 -0.000429 0.000000
# 4 0.000000 0.000000 0.000000 0.106992 0.000000 -0.000242
# 5 0.000515 0.000794 -0.000429 0.000000 0.026986 0.000000
# 6 0.000000 0.000000 0.000000 -0.000242 0.000000 0.049072
#
#
# Mechanical properties :
#
#
# Convention : Reuss Voigt Hill
#
# Bulk Modulus (GPa) = 32.76074 36.99326 34.87700
# Shear Modulus (GPa) = 19.64763 26.24305 22.94534
#
# Velocity S-wave (km/s) = 3.15375 3.64485 3.40816
# Velocity P-wave (km/s) = 5.46314 6.03657 5.75700
#
# Compressibility (1/GPa) = 0.03052434
#
# Stress axis : x y z
#
# Youngs Moduli (GPa) = 46.98745 64.83973 108.85696
#
# Poissons Ratio (x) = 0.27275 0.08724
# Poissons Ratio (y) = 0.19765 0.29126
# Poissons Ratio (z) = 0.03766 0.17348
#
# Static dielectric constant tensor:
#      x y z
#    x 1.718560 0.000000 0.004710 
#    y 0.000000 1.668080 0.000000 
#    z 0.004710 0.000000 1.744340 
# 
# From -- ./inp_files/174471.got.cif
#   From: 2010.05.17/outbox.cif.g08.bks.cpg/sg12_88_cif.got.tgz:174471.got - 2010.06.03 13:09:07.
