data_PCOD9201033
_publ_section_title
;
Structure prediction by ZEFSAII (Michael W. Deem and Ramdas Pophale) SiO2 
 PCOD9201033
Probable space group: C 2/M
;
_chemical_formula_sum "Si O2"
_cell_formula_units_Z 52
_cell_length_a 13.056834
_cell_length_b 16.280337
_cell_length_c 20.617876
_cell_angle_alpha 90.000000
_cell_angle_beta 141.839272
_cell_angle_gamma 90.000000
_cell_volume 2707.958640
_symmetry_space_group_name_H-M "C 2/M"
_symmetry_group_IT_number 12
_symmetry_cell_setting 'monoclinic'
loop_
_space_group_symop_operation_xyz
x,y,z
-x,y,-z
-x,-y,-z
x,-y,z
1/2+x,1/2+y,z
1/2-x,1/2+y,-z
1/2-x,1/2-y,-z
1/2+x,1/2-y,z
loop_
_atom_site_type_symbol
_atom_site_label
_atom_site_fract_x
_atom_site_fract_y
_atom_site_fract_z
Si Si1 0.075516 0.726303 0.881320
Si Si2 0.727194 0.407055 0.460170
Si Si3 0.000000 0.367156 0.500000
Si Si4 0.907526 0.405869 0.884913
Si Si5 0.074501 0.799413 0.739004
Si Si6 0.728504 0.245040 0.694704
Si Si7 0.300666 0.405572 0.404740
O O1 0.087343 0.744452 0.810032
O O2 0.021759 0.640860 0.888848
O O3 0.908258 0.779735 0.811899
O O4 0.250000 0.750000 0.000000
O O5 0.658494 0.500000 0.429201
O O6 0.901465 0.410543 0.509050
O O7 0.591639 0.351512 0.355631
O O8 0.745966 0.380773 0.544820
O O9 0.854443 0.312009 0.398696
O O10 0.878507 0.500000 0.851691
O O11 0.733724 0.359641 0.811313
O O12 0.000000 0.403716 0.000000
O O13 0.097298 0.745045 0.686899
O O14 0.749418 0.334937 0.671166
O O15 0.500000 0.406989 0.500000
O O16 0.242983 0.500000 0.363837
#
# Coordination Sequence:
#
# PCOD9201033 Si02
#       7
#     8   8   4   8   8   8   8
#     4  11  23  40  60  91 125 164 204 256 320 377
#     4  11  23  38  59  85 125 165 203 254 314 384
#     4  12  23  38  55  88 122 160 214 240 309 382
#     4  10  21  38  63  93 120 152 208 271 317 366
#     4  11  21  38  62  90 120 162 202 258 317 375
#     4  11  23  35  62  90 120 156 199 259 300 378
#     4  10  20  37  60  92 124 152 193 254 323 376
#
# _framework density 19.202656999999999
#
# number of rings (size 3 to 8) (size 9 to 14) (size 15 to 20)
#    0.000    1.231    5.385    0.692    2.154    3.692 
#    0.000    0.000    0.000    0.000    0.000    4.308 
#    0.000    0.000    0.000    0.000    0.000    0.000 
#
# Total GULP energy -144797.581301 kJ/mol
# GULP energy per Si atom -5569.137742 kJ/mol
# Density = 1.915895 g / cm^3
# Si number density = 19.202657 Si / 1000 Ang^3
#
#
#
# Elastic Constant Matrix: (Units=GPa)
#
#
# Indices 1 2 3 4 5 6 
#
# 1 155.7606 48.0412 29.4824 0.0000 -10.1406 0.0000
# 2 48.0412 68.9036 23.1314 0.0000 -8.5236 0.0000
# 3 29.4824 23.1314 80.1809 0.0001 1.4378 0.0000
# 4 0.0000 0.0000 0.0001 24.6227 0.0000 3.9624
# 5 -10.1406 -8.5236 1.4378 0.0000 42.6865 0.0000
# 6 0.0000 0.0000 0.0000 3.9624 0.0000 22.3579
#
#
#
# Elastic Compliance Matrix: (Units=1/GPa)
#
#
# Indices 1 2 3 4 5 6 
#
# 1 0.008389 -0.005184 -0.001607 0.000000 0.001012 0.000000
# 2 -0.005184 0.019772 -0.003849 0.000000 0.002846 0.000000
# 3 -0.001607 -0.003849 0.014202 0.000000 -0.001629 0.000000
# 4 0.000000 0.000000 0.000000 0.041805 0.000000 -0.007409
# 5 0.001012 0.002846 -0.001629 0.000000 0.024290 0.000000
# 6 0.000000 0.000000 0.000000 -0.007409 0.000000 0.046040
#
#
# Mechanical properties :
#
#
# Convention : Reuss Voigt Hill
#
# Bulk Modulus (GPa) = 47.43236 56.23948 51.83592
# Shear Modulus (GPa) = 27.35126 31.54609 29.44868
#
# Velocity S-wave (km/s) = 3.77815 4.05754 3.92033
# Velocity P-wave (km/s) = 6.61718 7.16257 6.89527
#
# Compressibility (1/GPa) = 0.02108266
#
# Stress axis : x y z
#
# Youngs Moduli (GPa) = 119.20040 50.57698 70.41127
#
# Poissons Ratio (x) = 0.26221 0.11316
# Poissons Ratio (y) = 0.61799 0.27099
# Poissons Ratio (z) = 0.19158 0.19466
#
# Static dielectric constant tensor:
#      x y z
#    x 1.617840 0.000000 0.217780 
#    y 0.000000 1.691860 0.000000 
#    z 0.217780 0.000000 1.111570 
# 
# From -- ./inp_files/306269.got.cif
#   From: 2010.05.17/outbox.cif.g08.bks.cpg/sg12_154_cif.got.tgz:306269.got - 2010.06.03 13:09:07.
