data_PCOD9201009
_publ_section_title
;
Structure prediction by ZEFSAII (Michael W. Deem and Ramdas Pophale) SiO2 
 PCOD9201009
Probable space group: C 2/M
;
_chemical_formula_sum "Si O2"
_cell_formula_units_Z 40
_cell_length_a 24.221009
_cell_length_b 8.503690
_cell_length_c 9.885658
_cell_angle_alpha 90.000000
_cell_angle_beta 104.755479
_cell_angle_gamma 90.000000
_cell_volume 1968.980440
_symmetry_space_group_name_H-M "C 2/M"
_symmetry_group_IT_number 12
_symmetry_cell_setting 'monoclinic'
loop_
_space_group_symop_operation_xyz
x,y,z
-x,y,-z
-x,-y,-z
x,-y,z
1/2+x,1/2+y,z
1/2-x,1/2+y,-z
1/2-x,1/2-y,-z
1/2+x,1/2-y,z
loop_
_atom_site_type_symbol
_atom_site_label
_atom_site_fract_x
_atom_site_fract_y
_atom_site_fract_z
Si Si1 0.858587 0.690163 0.718735
Si Si2 0.014756 0.810056 0.159932
Si Si3 0.672722 0.185627 0.595614
Si Si4 0.944725 0.813510 0.370180
Si Si5 0.764772 0.313481 0.861311
O O1 0.859461 0.500000 0.718253
O O2 0.923139 0.749810 0.759115
O O3 0.827095 0.740691 0.560518
O O4 0.823539 0.745230 0.828517
O O5 0.966125 0.762462 0.235799
O O6 0.016663 0.000000 0.164034
O O7 0.000000 0.756954 0.000000
O O8 0.608836 0.218435 0.608953
O O9 0.715978 0.271369 0.722580
O O10 0.684971 0.000000 0.606754
O O11 0.000000 0.795772 0.500000
O O12 0.929964 0.000000 0.359373
O O13 0.769075 0.500000 0.875842
O O14 0.750000 0.250000 0.000000
#
# Coordination Sequence:
#
# PCOD9201009 Si02
#       5
#     8   8   8   8   8
#     4  10  23  42  63  89 121 159 204 250 301 359
#     4  10  22  38  59  89 123 161 202 244 297 358
#     4  11  23  40  64  92 122 160 203 249 302 359
#     4  10  20  37  60  89 123 159 201 246 296 356
#     4  11  25  44  64  90 122 158 202 252 306 361
#
# _framework density 20.315083000000001
#
# number of rings (size 3 to 8) (size 9 to 14) (size 15 to 20)
#    0.000    1.600    2.000    1.800    2.800    4.000 
#    0.000    0.000    0.000    0.000    0.000    0.000 
#    0.000    0.000    0.000    0.000    0.000    0.000 
#
# Total GULP energy -111781.702854 kJ/mol
# GULP energy per Si atom -5589.085143 kJ/mol
# Density = 2.026885 g / cm^3
# Si number density = 20.315083 Si / 1000 Ang^3
#
#
#
# Elastic Constant Matrix: (Units=GPa)
#
#
# Indices 1 2 3 4 5 6 
#
# 1 58.6532 1.1877 11.5319 0.0000 -21.6022 0.0000
# 2 1.1877 12.5614 11.5350 0.0000 -9.8382 0.0000
# 3 11.5319 11.5350 118.3229 0.0000 -27.7671 0.0000
# 4 0.0000 0.0000 0.0000 25.2096 0.0000 5.2286
# 5 -21.6022 -9.8382 -27.7671 0.0000 40.4656 0.0000
# 6 0.0000 0.0000 0.0000 5.2286 0.0000 28.6607
#
#
#
# Elastic Compliance Matrix: (Units=1/GPa)
#
#
# Indices 1 2 3 4 5 6 
#
# 1 0.021989 0.008641 0.000313 0.000000 0.014054 0.000000
# 2 0.008641 0.104010 -0.004726 0.000000 0.026657 0.000000
# 3 0.000313 -0.004726 0.010312 0.000000 0.006094 0.000000
# 4 0.000000 0.000000 0.000000 0.041227 0.000000 -0.007521
# 5 0.014054 0.026657 0.006094 0.000000 0.042877 0.000000
# 6 0.000000 0.000000 0.000000 -0.007521 0.000000 0.036263
#
#
# Mechanical properties :
#
#
# Convention : Reuss Voigt Hill
#
# Bulk Modulus (GPa) = 6.90770 26.44964 16.67867
# Shear Modulus (GPa) = 16.86461 29.88604 23.37532
#
# Velocity S-wave (km/s) = 2.88436 3.83969 3.39579
# Velocity P-wave (km/s) = 3.80794 5.71888 4.85829
#
# Compressibility (1/GPa) = 0.14476598
#
# Stress axis : x y z
#
# Youngs Moduli (GPa) = 45.47706 9.61446 96.97692
#
# Poissons Ratio (x) = -0.08308 -0.03032
# Poissons Ratio (y) = -0.39297 0.45833
# Poissons Ratio (z) = -0.01422 0.04544
#
# Static dielectric constant tensor:
#      x y z
#    x 1.701540 0.000000 -0.030000 
#    y 0.000000 1.698950 0.000000 
#    z -0.030000 0.000000 1.731270 
# 
# From -- ./inp_files/92802.got.cif
#   From: 2010.05.17/outbox.cif.g08.bks.cpg/sg12_47_cif.got.tgz:92802.got - 2010.06.03 13:09:07.
