data_PCOD9201568
_publ_section_title
;
Structure prediction by ZEFSAII (Michael W. Deem and Ramdas Pophale) SiO2 
 PCOD9201568
Probable space group: C 2/M
;
_chemical_formula_sum "Si O2"
_cell_formula_units_Z 64
_cell_length_a 21.661877
_cell_length_b 14.260885
_cell_length_c 18.316337
_cell_angle_alpha 90.000000
_cell_angle_beta 147.477477
_cell_angle_gamma 90.000000
_cell_volume 3042.044589
_symmetry_space_group_name_H-M "C 2/M"
_symmetry_group_IT_number 12
_symmetry_cell_setting 'monoclinic'
loop_
_space_group_symop_operation_xyz
x,y,z
-x,y,-z
-x,-y,-z
x,-y,z
1/2+x,1/2+y,z
1/2-x,1/2+y,-z
1/2-x,1/2-y,-z
1/2+x,1/2-y,z
loop_
_atom_site_type_symbol
_atom_site_label
_atom_site_fract_x
_atom_site_fract_y
_atom_site_fract_z
Si Si1 0.124338 0.194175 0.100115
Si Si2 0.851947 0.108080 0.032067
Si Si3 0.621056 0.109361 0.888833
Si Si4 0.157337 0.603984 0.096957
Si Si5 0.041684 0.260448 0.369413
Si Si6 0.569981 0.396008 0.645001
Si Si7 0.284034 0.108863 0.379347
Si Si8 0.114199 0.105354 0.347499
O O1 0.149397 0.171660 0.040838
O O2 0.121404 0.306097 0.106934
O O3 0.222903 0.149304 0.247203
O O4 0.000000 0.155032 0.000000
O O5 0.749374 0.129960 0.986015
O O6 0.834918 0.000000 0.991528
O O7 0.978919 0.112507 0.192814
O O8 0.531765 0.178607 0.761107
O O9 0.595873 0.000000 0.845337
O O10 0.619335 0.116087 0.974640
O O11 0.121590 0.500000 0.086142
O O12 0.295301 0.605782 0.235071
O O13 0.107415 0.330585 0.488379
O O14 0.132444 0.191137 0.420420
O O15 0.962875 0.188963 0.335829
O O16 0.500000 0.388130 0.500000
O O17 0.544112 0.500000 0.651393
O O18 0.190491 0.115631 0.351393
O O19 0.313559 0.000000 0.399225
O O20 0.137319 0.000000 0.399268
#
# Coordination Sequence:
#
# PCOD9201568 Si02
#       8
#     8   8   8   8   8   8   8   8
#     4  12  23  38  64  90 117 160 208 249 300 358
#     4  10  20  37  62  93 121 152 202 256 301 354
#     4  10  22  38  61  91 124 161 198 247 309 361
#     4  10  22  41  62  90 126 159 200 253 303 357
#     4  12  22  37  61  87 122 158 203 243 303 364
#     4  10  21  38  61  89 121 157 199 251 306 358
#     4  11  25  42  58  84 122 161 200 248 302 356
#     4  10  21  38  60  86 116 153 203 255 294 346
#
# _framework density 21.038481999999998
#
# number of rings (size 3 to 8) (size 9 to 14) (size 15 to 20)
#    0.000    1.375    1.250    4.500    0.000    4.250 
#    0.000    0.625    0.000    3.750    0.000    0.000 
#    0.000    0.000    0.000    0.000    0.000    0.000 
#
# Total GULP energy -178939.536652 kJ/mol
# GULP energy per Si atom -5591.860520 kJ/mol
# Density = 2.099060 g / cm^3
# Si number density = 21.038482 Si / 1000 Ang^3
#
#
#
# Elastic Constant Matrix: (Units=GPa)
#
#
# Indices 1 2 3 4 5 6 
#
# 1 21.6631 11.1524 -10.8579 0.0000 8.6440 0.0000
# 2 11.1524 148.6815 41.4944 0.0000 -1.6487 0.0000
# 3 -10.8579 41.4944 90.3557 0.0000 1.2714 0.0000
# 4 0.0000 0.0000 0.0000 32.2317 0.0000 -5.5587
# 5 8.6440 -1.6487 1.2714 0.0000 17.9685 0.0000
# 6 0.0000 0.0000 0.0000 -5.5587 0.0000 32.5312
#
#
#
# Elastic Compliance Matrix: (Units=1/GPa)
#
#
# Indices 1 2 3 4 5 6 
#
# 1 0.072720 -0.009688 0.013706 0.000000 -0.036842 0.000000
# 2 -0.009688 0.009022 -0.005390 0.000000 0.005870 0.000000
# 3 0.013706 -0.005390 0.015305 0.000000 -0.008171 0.000000
# 4 0.000000 0.000000 0.000000 0.031967 0.000000 0.005462
# 5 -0.036842 0.005870 -0.008171 0.000000 0.074493 0.000000
# 6 0.000000 0.000000 0.000000 0.005462 0.000000 0.031673
#
#
# Mechanical properties :
#
#
# Convention : Reuss Voigt Hill
#
# Bulk Modulus (GPa) = 10.60423 38.25310 24.42867
# Shear Modulus (GPa) = 18.56271 31.14038 24.85154
#
# Velocity S-wave (km/s) = 2.97361 3.85146 3.44065
# Velocity P-wave (km/s) = 4.10380 6.16444 5.23648
#
# Compressibility (1/GPa) = 0.09430200
#
# Stress axis : x y z
#
# Youngs Moduli (GPa) = 13.75146 110.84245 65.33960
#
# Poissons Ratio (x) = 1.07387 -0.89556
# Poissons Ratio (y) = 0.13323 0.35218
# Poissons Ratio (z) = -0.18848 0.59743
#
# Static dielectric constant tensor:
#      x y z
#    x 1.767620 0.000000 -0.007360 
#    y 0.000000 1.786120 0.000000 
#    z -0.007360 0.000000 1.710180 
# 
# From -- ./inp_files/290136.got.cif
#   From: 2010.05.17/outbox.cif.g08.bks.cpg/sg12_146_cif.got.tgz:290136.got - 2010.06.03 13:09:07.
