data_PCOD9201013
_publ_section_title
;
Structure prediction by ZEFSAII (Michael W. Deem and Ramdas Pophale) SiO2 
 PCOD9201013
Probable space group: C 2/M
;
_chemical_formula_sum "Si O2"
_cell_formula_units_Z 50
_cell_length_a 18.782458
_cell_length_b 7.668869
_cell_length_c 17.630939
_cell_angle_alpha 90.000000
_cell_angle_beta 117.639593
_cell_angle_gamma 90.000000
_cell_volume 2249.757263
_symmetry_space_group_name_H-M "C 2/M"
_symmetry_group_IT_number 12
_symmetry_cell_setting 'monoclinic'
loop_
_space_group_symop_operation_xyz
x,y,z
-x,y,-z
-x,-y,-z
x,-y,z
1/2+x,1/2+y,z
1/2-x,1/2+y,-z
1/2-x,1/2-y,-z
1/2+x,1/2-y,z
loop_
_atom_site_type_symbol
_atom_site_label
_atom_site_fract_x
_atom_site_fract_y
_atom_site_fract_z
Si Si1 0.243821 0.209882 0.085601
Si Si2 0.610006 0.202487 0.583021
Si Si3 0.273361 0.206005 0.597478
Si Si4 0.419927 0.713296 0.915590
Si Si5 0.000000 0.000000 0.500000
Si Si6 0.559212 0.294602 0.246666
Si Si7 0.898300 0.703701 0.251946
O O1 0.161043 0.273020 0.082445
O O2 0.322419 0.277335 0.168731
O O3 0.243723 0.000000 0.092014
O O4 0.250000 0.250000 0.000000
O O5 0.705136 0.210048 0.616365
O O6 0.564849 0.342804 0.508799
O O7 0.592209 0.275932 0.658747
O O8 0.585673 0.000000 0.561167
O O9 0.250000 0.250000 0.500000
O O10 0.362062 0.265441 0.664088
O O11 0.270151 0.000000 0.606364
O O12 0.418340 0.500000 0.914911
O O13 0.424542 0.771201 0.830584
O O14 0.500000 0.766640 0.000000
O O15 0.543766 0.500000 0.233326
O O16 0.479662 0.217347 0.244921
O O17 0.880999 0.500000 0.256995
#
# Coordination Sequence:
#
# PCOD9201013 Si02
#       7
#     8   8   8   8   2   8   8
#     4  10  20  37  60  89 125 165 211 262 325 391
#     4  11  25  46  69  97 134 176 219 274 333 394
#     4  12  26  45  67  95 131 171 221 272 332 399
#     4   9  18  35  60  90 124 163 209 261 323 394
#     4  12  26  44  72 102 132 168 228 276 332 398
#     4  11  23  39  65  94 124 167 216 269 329 391
#     4  10  23  41  62  89 129 172 215 266 329 391
#
# _framework density 22.224620000000002
#
# number of rings (size 3 to 8) (size 9 to 14) (size 15 to 20)
#    0.000    1.440    0.800    4.080    3.360    4.480 
#    0.000    1.600    0.000    4.320    0.000    0.000 
#    0.000    0.000    0.000    0.000    0.000    0.000 
#
# Total GULP energy -139561.075273 kJ/mol
# GULP energy per Si atom -5582.443011 kJ/mol
# Density = 2.217404 g / cm^3
# Si number density = 22.224620 Si / 1000 Ang^3
#
#
#
# Elastic Constant Matrix: (Units=GPa)
#
#
# Indices 1 2 3 4 5 6 
#
# 1 171.9567 -13.8647 67.5327 0.0000 5.9441 0.0000
# 2 -13.8647 82.5560 -14.3675 0.0000 -0.2278 0.0000
# 3 67.5327 -14.3675 130.1668 0.0000 3.5073 0.0000
# 4 0.0000 0.0000 0.0000 11.6693 0.0000 -2.9807
# 5 5.9441 -0.2278 3.5073 0.0000 46.1955 0.0000
# 6 0.0000 0.0000 0.0000 -2.9807 0.0000 24.4444
#
#
#
# Elastic Compliance Matrix: (Units=1/GPa)
#
#
# Indices 1 2 3 4 5 6 
#
# 1 0.007351 0.000583 -0.003732 0.000000 -0.000660 0.000000
# 2 0.000583 0.012397 0.001068 0.000000 -0.000095 0.000000
# 3 -0.003732 0.001068 0.009743 0.000000 -0.000254 0.000000
# 4 0.000000 0.000000 0.000000 0.088450 0.000000 0.010785
# 5 -0.000660 -0.000095 -0.000254 0.000000 0.021751 0.000000
# 6 0.000000 0.000000 0.000000 0.010785 0.000000 0.042224
#
#
# Mechanical properties :
#
#
# Convention : Reuss Voigt Hill
#
# Bulk Modulus (GPa) = 39.47806 51.47562 45.47684
# Shear Modulus (GPa) = 25.70444 39.48711 32.59577
#
# Velocity S-wave (km/s) = 3.40453 4.21970 3.83384
# Velocity P-wave (km/s) = 5.76682 6.85222 6.33282
#
# Compressibility (1/GPa) = 0.02533053
#
# Stress axis : x y z
#
# Youngs Moduli (GPa) = 136.04080 80.66729 102.63575
#
# Poissons Ratio (x) = -0.04705 0.38299
# Poissons Ratio (y) = -0.07935 -0.10964
# Poissons Ratio (z) = 0.50764 -0.08617
#
# Static dielectric constant tensor:
#      x y z
#    x 1.803570 0.000000 0.015650 
#    y 0.000000 1.845320 0.000000 
#    z 0.015650 0.000000 1.876730 
# 
# From -- ./inp_files/275793.got.cif
#   From: 2010.05.17/outbox.cif.g08.bks.cpg/sg12_138_cif.got.tgz:275793.got - 2010.06.03 13:09:07.
