data_PCOD9201643
_publ_section_title
;
Structure prediction by ZEFSAII (Michael W. Deem and Ramdas Pophale) SiO2 
 PCOD9201643
Probable space group: C 2/M
;
_chemical_formula_sum "Si O2"
_cell_formula_units_Z 56
_cell_length_a 21.065902
_cell_length_b 19.067633
_cell_length_c 22.113569
_cell_angle_alpha 90.000000
_cell_angle_beta 160.927291
_cell_angle_gamma 90.000000
_cell_volume 2902.517811
_symmetry_space_group_name_H-M "C 2/M"
_symmetry_group_IT_number 12
_symmetry_cell_setting 'monoclinic'
loop_
_space_group_symop_operation_xyz
x,y,z
-x,y,-z
-x,-y,-z
x,-y,z
1/2+x,1/2+y,z
1/2-x,1/2+y,-z
1/2-x,1/2-y,-z
1/2+x,1/2-y,z
loop_
_atom_site_type_symbol
_atom_site_label
_atom_site_fract_x
_atom_site_fract_y
_atom_site_fract_z
Si Si1 0.277804 0.322448 0.648187
Si Si2 0.257568 0.164221 0.673415
Si Si3 0.697949 0.336515 0.759439
Si Si4 0.765617 0.419673 0.279547
Si Si5 0.318006 0.823673 0.214483
Si Si6 0.878207 0.416872 0.033151
Si Si7 0.329227 0.673299 0.052974
O O1 0.303124 0.244984 0.698993
O O2 0.313412 0.378464 0.733487
O O3 0.436883 0.329253 0.739010
O O4 0.053452 0.329227 0.426531
O O5 0.277667 0.154260 0.763541
O O6 0.404239 0.114073 0.770674
O O7 0.033972 0.152771 0.454383
O O8 0.730794 0.256241 0.810381
O O9 0.786879 0.388217 0.888507
O O10 0.700586 0.500000 0.217589
O O11 0.735530 0.375871 0.191189
O O12 0.000000 0.419967 0.500000
O O13 0.240186 0.839070 0.078045
O O14 0.876390 0.500000 0.034253
O O15 0.758389 0.382145 0.979648
O O16 0.250000 0.750000 0.000000
#
# Coordination Sequence:
#
# PCOD9201643 Si02
#       7
#     8   8   8   8   8   8   8
#     4  10  20  37  63  91 119 154 197 242 288 347
#     4  10  20  38  66  93 115 149 197 244 295 355
#     4  10  20  38  66  93 115 149 197 244 295 355
#     4   9  18  35  61  95 128 152 184 242 306 351
#     4  10  20  37  63  91 119 154 197 242 288 347
#     4  12  27  43  57  84 124 157 194 251 300 337
#     4  12  24  39  59  86 114 160 207 239 280 348
#
# _framework density 19.293593999999999
#
# number of rings (size 3 to 8) (size 9 to 14) (size 15 to 20)
#    0.000    1.571    4.286    0.429    0.000    5.143 
#    0.000    2.143    0.000    0.000    0.000    0.000 
#    0.000    0.000    0.000    0.000    0.000    0.000 
#
# Total GULP energy -156546.318380 kJ/mol
# GULP energy per Si atom -5590.939942 kJ/mol
# Density = 1.924968 g / cm^3
# Si number density = 19.293594 Si / 1000 Ang^3
#
#
#
# Elastic Constant Matrix: (Units=GPa)
#
#
# Indices 1 2 3 4 5 6 
#
# 1 75.2875 34.8911 14.5615 0.0458 26.8140 0.0171
# 2 34.8911 140.1358 21.6968 0.0885 16.7069 0.0409
# 3 14.5615 21.6968 48.5786 0.0772 7.3795 0.0309
# 4 0.0458 0.0885 0.0772 18.5594 0.0179 -1.4788
# 5 26.8140 16.7069 7.3795 0.0179 37.7280 -0.0011
# 6 0.0171 0.0409 0.0309 -1.4788 -0.0011 27.4477
#
#
#
# Elastic Compliance Matrix: (Units=1/GPa)
#
#
# Indices 1 2 3 4 5 6 
#
# 1 0.019456 -0.003003 -0.002672 -0.000011 -0.011975 -0.000006
# 2 -0.003003 0.008430 -0.002702 -0.000021 -0.001070 -0.000009
# 3 -0.002672 -0.002702 0.022800 -0.000076 -0.001364 -0.000024
# 4 -0.000011 -0.000021 -0.000076 0.054114 0.000007 0.002916
# 5 -0.011975 -0.001070 -0.001364 0.000007 0.035757 0.000012
# 6 -0.000006 -0.000009 -0.000024 0.002916 0.000012 0.036590
#
#
# Mechanical properties :
#
#
# Convention : Reuss Voigt Hill
#
# Bulk Modulus (GPa) = 29.47029 45.14453 37.30741
# Shear Modulus (GPa) = 24.36517 29.60384 26.98451
#
# Velocity S-wave (km/s) = 3.55753 3.92137 3.74388
# Velocity P-wave (km/s) = 5.67297 6.62966 6.16988
#
# Compressibility (1/GPa) = 0.03393248
#
# Stress axis : x y z
#
# Youngs Moduli (GPa) = 51.39849 118.63035 43.85905
#
# Poissons Ratio (x) = 0.35622 0.11717
# Poissons Ratio (y) = 0.15434 0.11852
# Poissons Ratio (z) = 0.13732 0.32057
#
# Static dielectric constant tensor:
#      x y z
#    x 1.648390 0.000000 0.026340 
#    y 0.000000 1.628700 -0.000020 
#    z 0.026340 -0.000020 1.723280 
# 
# From -- ./inp_files/322754.got.cif
#   From: 2010.05.17/outbox.cif.g08.bks.cpg/sg12_162_cif.got.tgz:322754.got - 2010.06.03 13:09:07.
