data_PCOD9201971
_publ_section_title
;
Structure prediction by ZEFSAII (Michael W. Deem and Ramdas Pophale) SiO2 
 PCOD9201971
Probable space group: C 2/M
;
_chemical_formula_sum "Si O2"
_cell_formula_units_Z 44
_cell_length_a 17.624704
_cell_length_b 12.876009
_cell_length_c 13.398470
_cell_angle_alpha 90.000000
_cell_angle_beta 52.955595
_cell_angle_gamma 90.000000
_cell_volume 2426.906748
_symmetry_space_group_name_H-M "C 2/M"
_symmetry_group_IT_number 12
_symmetry_cell_setting 'monoclinic'
loop_
_space_group_symop_operation_xyz
x,y,z
-x,y,-z
-x,-y,-z
x,-y,z
1/2+x,1/2+y,z
1/2-x,1/2+y,-z
1/2-x,1/2-y,-z
1/2+x,1/2-y,z
loop_
_atom_site_type_symbol
_atom_site_label
_atom_site_fract_x
_atom_site_fract_y
_atom_site_fract_z
Si Si1 0.000000 0.726914 0.500000
Si Si2 0.517731 0.123469 0.869517
Si Si3 0.173041 0.225136 0.649378
Si Si4 0.852053 0.725817 0.875887
Si Si5 0.501934 0.379698 0.310474
Si Si6 0.312989 0.877347 0.692479
O O1 0.003412 0.804249 0.404292
O O2 0.090483 0.653502 0.441215
O O3 0.606330 0.181276 0.744591
O O4 0.422229 0.153995 0.885223
O O5 0.533347 0.000000 0.854224
O O6 0.500000 0.153956 0.000000
O O7 0.250000 0.250000 0.500000
O O8 0.229275 0.178299 0.698571
O O9 0.096954 0.142932 0.666832
O O10 0.909791 0.834124 0.821391
O O11 0.831616 0.670678 0.786516
O O12 0.750000 0.750000 0.000000
O O13 0.512178 0.500000 0.326811
O O14 0.298705 0.000000 0.708349
#
# Coordination Sequence:
#
# PCOD9201971 Si02
#       6
#     4   8   8   8   8   8
#     4  10  20  38  54  84 118 150 194 244 288 354
#     4  10  22  41  64  90 122 163 208 254 309 368
#     4  11  22  40  58  89 125 160 206 252 305 363
#     4  10  22  40  61  88 122 154 202 253 301 362
#     4  10  21  37  58  83 117 156 195 241 298 356
#     4  11  22  37  60  86 117 157 198 246 303 359
#
# _framework density 18.130074
#
# number of rings (size 3 to 8) (size 9 to 14) (size 15 to 20)
#    0.000    1.636    1.818    2.727    0.000    2.909 
#    0.000    2.727    0.000    6.000    0.000    0.000 
#    0.000    0.000    0.000    0.000    0.000    0.000 
#
# Total GULP energy -122675.867294 kJ/mol
# GULP energy per Si atom -5576.175786 kJ/mol
# Density = 1.808881 g / cm^3
# Si number density = 18.130074 Si / 1000 Ang^3
#
#
#
# Elastic Constant Matrix: (Units=GPa)
#
#
# Indices 1 2 3 4 5 6 
#
# 1 149.3002 43.8684 44.9944 0.0000 -5.7600 0.0000
# 2 43.8684 93.4703 48.0035 0.0000 -3.9233 0.0000
# 3 44.9944 48.0035 112.3504 0.0000 -18.0873 0.0000
# 4 0.0000 0.0000 0.0000 15.9976 0.0000 7.6530
# 5 -5.7600 -3.9233 -18.0873 0.0000 37.4257 0.0000
# 6 0.0000 0.0000 0.0000 7.6530 0.0000 12.5114
#
#
#
# Elastic Compliance Matrix: (Units=1/GPa)
#
#
# Indices 1 2 3 4 5 6 
#
# 1 0.008133 -0.002745 -0.002092 0.000000 -0.000047 0.000000
# 2 -0.002745 0.014712 -0.005429 0.000000 -0.001504 0.000000
# 3 -0.002092 -0.005429 0.012920 0.000000 0.005353 0.000000
# 4 0.000000 0.000000 0.000000 0.088367 0.000000 -0.054052
# 5 -0.000047 -0.001504 0.005353 0.000000 0.029142 0.000000
# 6 0.000000 0.000000 0.000000 -0.054052 0.000000 0.112990
#
#
# Mechanical properties :
#
#
# Convention : Reuss Voigt Hill
#
# Bulk Modulus (GPa) = 65.64379 69.87263 67.75821
# Shear Modulus (GPa) = 17.13084 27.73726 22.43405
#
# Velocity S-wave (km/s) = 3.07723 3.91564 3.52148
# Velocity P-wave (km/s) = 6.99368 7.68546 7.34772
#
# Compressibility (1/GPa) = 0.01523373
#
# Stress axis : x y z
#
# Youngs Moduli (GPa) = 122.95560 67.97352 77.40060
#
# Poissons Ratio (x) = 0.18656 0.16192
# Poissons Ratio (y) = 0.33747 0.42018
# Poissons Ratio (z) = 0.25722 0.36901
#
# Static dielectric constant tensor:
#      x y z
#    x 1.609600 0.000000 0.005950 
#    y 0.000000 1.582030 0.000000 
#    z 0.005950 0.000000 1.593220 
# 
# From -- ./inp_files/222975.got.cif
#   From: 2010.05.17/outbox.cif.g08.bks.cpg/sg12_112_cif.got.tgz:222975.got - 2010.06.03 13:09:07.
