data_PCOD9201478
_publ_section_title
;
Structure prediction by ZEFSAII (Michael W. Deem and Ramdas Pophale) SiO2 
 PCOD9201478
Probable space group: C 2/M
;
_chemical_formula_sum "Si O2"
_cell_formula_units_Z 50
_cell_length_a 14.527908
_cell_length_b 9.501298
_cell_length_c 23.966996
_cell_angle_alpha 90.000000
_cell_angle_beta 42.154877
_cell_angle_gamma 90.000000
_cell_volume 2220.295522
_symmetry_space_group_name_H-M "C 2/M"
_symmetry_group_IT_number 12
_symmetry_cell_setting 'monoclinic'
loop_
_space_group_symop_operation_xyz
x,y,z
-x,y,-z
-x,-y,-z
x,-y,z
1/2+x,1/2+y,z
1/2-x,1/2+y,-z
1/2-x,1/2-y,-z
1/2+x,1/2-y,z
loop_
_atom_site_type_symbol
_atom_site_label
_atom_site_fract_x
_atom_site_fract_y
_atom_site_fract_z
Si Si1 0.550325 0.834694 0.058583
Si Si2 0.147373 0.340307 0.623165
Si Si3 0.781459 0.833836 0.181673
Si Si4 0.944536 0.771233 0.447771
Si Si5 0.804528 0.335707 0.896216
Si Si6 0.500000 0.000000 0.500000
Si Si7 0.753649 0.841010 0.691738
O O1 0.421380 0.741878 0.099272
O O2 0.571375 0.820013 0.116242
O O3 0.534965 0.000000 0.052533
O O4 0.687010 0.769852 0.970241
O O5 0.093760 0.500000 0.648874
O O6 0.065720 0.251340 0.614462
O O7 0.303346 0.342446 0.529510
O O8 0.166030 0.289064 0.678185
O O9 0.674664 0.812229 0.178857
O O10 0.749588 0.761535 0.254389
O O11 0.800671 0.000000 0.180447
O O12 0.954072 0.622854 0.475506
O O13 0.086874 0.845979 0.397516
O O14 0.758482 0.500000 0.922858
O O15 0.710001 0.000000 0.726171
#
# Coordination Sequence:
#
# PCOD9201478 Si02
#       7
#     8   8   8   8   8   2   8
#     4  10  20  37  62  90 117 148 189 240 286 339
#     4  10  21  38  60  84 112 149 189 235 293 344
#     4  11  24  39  59  83 117 158 195 235 285 343
#     4  11  22  37  61  88 114 147 190 242 287 340
#     4   9  20  39  61  86 117 153 191 233 287 343
#     4  12  20  36  62  92 114 144 188 256 270 354
#     4  11  24  41  57  81 118 156 192 237 286 344
#
# _framework density 22.519525000000002
#
# number of rings (size 3 to 8) (size 9 to 14) (size 15 to 20)
#    0.000    1.600    2.400    1.920    1.120    6.400 
#    0.000    4.800    0.000    0.000    0.000    0.000 
#    0.000    0.000    0.000    0.000    0.000    0.000 
#
# Total GULP energy -139465.237988 kJ/mol
# GULP energy per Si atom -5578.609520 kJ/mol
# Density = 2.246827 g / cm^3
# Si number density = 22.519525 Si / 1000 Ang^3
#
#
#
# Elastic Constant Matrix: (Units=GPa)
#
#
# Indices 1 2 3 4 5 6 
#
# 1 135.4516 34.2388 30.4700 0.0000 39.6513 0.0000
# 2 34.2388 102.7771 23.0171 0.0000 19.1013 0.0000
# 3 30.4700 23.0171 61.1287 0.0000 25.3414 0.0000
# 4 0.0000 0.0000 0.0000 3.8302 0.0000 11.7804
# 5 39.6513 19.1013 25.3414 0.0000 54.6228 0.0000
# 6 0.0000 0.0000 0.0000 11.7804 0.0000 20.3393
#
#
#
# Elastic Compliance Matrix: (Units=1/GPa)
#
#
# Indices 1 2 3 4 5 6 
#
# 1 0.009940 -0.001826 -0.001907 0.000000 -0.005692 0.000000
# 2 -0.001826 0.011201 -0.002765 0.000000 -0.001308 0.000000
# 3 -0.001907 -0.002765 0.021513 0.000000 -0.007630 0.000000
# 4 0.000000 0.000000 0.000000 -0.334119 0.000000 0.193519
# 5 -0.005692 -0.001308 -0.007630 0.000000 0.026436 0.000000
# 6 0.000000 0.000000 0.000000 0.193519 0.000000 -0.062919
#
#
# Mechanical properties :
#
#
# Convention : Reuss Voigt Hill
#
# Bulk Modulus (GPa) = 33.71855 52.75660 43.23758
# Shear Modulus (GPa) = -16.38989 29.86723 6.73867
#
# Velocity S-wave (km/s) = -2.70072 3.64577 1.73172
# Velocity P-wave (km/s) = 2.29790 6.41873 4.82081
#
# Compressibility (1/GPa) = 0.02965726
#
# Stress axis : x y z
#
# Youngs Moduli (GPa) = 100.60818 89.28160 46.48248
#
# Poissons Ratio (x) = 0.16305 0.08865
# Poissons Ratio (y) = 0.18374 0.12851
# Poissons Ratio (z) = 0.19188 0.24683
#
# Static dielectric constant tensor:
#      x y z
#    x 1.840940 0.000000 0.009790 
#    y 0.000000 1.763780 0.000000 
#    z 0.009790 0.000000 1.907740 
# 
# From -- ./inp_files/337778.got.cif
#   From: 2010.05.17/outbox.cif.g08.bks.cpg/sg12_169_cif.got.tgz:337778.got - 2010.06.03 13:09:07.
