data_PCOD9201244
_publ_section_title
;
Structure prediction by ZEFSAII (Michael W. Deem and Ramdas Pophale) SiO2 
 PCOD9201244
Probable space group: C 2/M
;
_chemical_formula_sum "Si O2"
_cell_formula_units_Z 48
_cell_length_a 11.691083
_cell_length_b 24.042623
_cell_length_c 9.156762
_cell_angle_alpha 90.000000
_cell_angle_beta 108.545864
_cell_angle_gamma 90.000000
_cell_volume 2440.161810
_symmetry_space_group_name_H-M "C 2/M"
_symmetry_group_IT_number 12
_symmetry_cell_setting 'monoclinic'
loop_
_space_group_symop_operation_xyz
x,y,z
-x,y,-z
-x,-y,-z
x,-y,z
1/2+x,1/2+y,z
1/2-x,1/2+y,-z
1/2-x,1/2-y,-z
1/2+x,1/2-y,z
loop_
_atom_site_type_symbol
_atom_site_label
_atom_site_fract_x
_atom_site_fract_y
_atom_site_fract_z
Si Si1 0.458413 0.500000 0.818906
Si Si2 0.194820 0.316696 0.126923
Si Si3 0.868584 0.000000 0.364884
Si Si4 0.062537 0.586215 0.886714
Si Si5 0.867010 0.805749 0.936963
Si Si6 0.243685 0.092142 0.266966
Si Si7 0.188260 0.399740 0.374627
O O1 0.581986 0.500000 0.778522
O O2 0.372715 0.553192 0.755759
O O3 0.500000 0.500000 0.000000
O O4 0.132039 0.257237 0.120899
O O5 0.222503 0.345679 0.292058
O O6 0.117561 0.359104 0.992794
O O7 0.312167 0.305015 0.077039
O O8 0.782986 0.947497 0.363893
O O9 0.000000 0.000000 0.500000
O O10 0.171485 0.566585 0.826787
O O11 0.949833 0.592062 0.731822
O O12 0.000000 0.556363 0.000000
O O13 0.791928 0.847143 0.805904
O O14 0.000000 0.829218 0.000000
O O15 0.305952 0.100356 0.448643
#
# Coordination Sequence:
#
# PCOD9201244 Si02
#       7
#     4   8   4   8   8   8   8
#     4  12  28  43  62  89 129 164 211 264 300 382
#     4   9  21  39  61  90 124 164 206 264 307 370
#     4  12  26  45  62  89 131 166 203 254 322 366
#     4   9  20  39  63  88 118 156 207 248 314 368
#     4  10  20  37  61  89 124 164 214 255 312 367
#     4  11  23  39  62  93 122 164 207 262 311 371
#     4  11  22  40  64  86 127 164 203 258 318 367
#
# _framework density 19.670826999999999
#
# number of rings (size 3 to 8) (size 9 to 14) (size 15 to 20)
#    0.000    1.667    1.667    2.500    9.333    1.333 
#    0.000    5.833    0.000    0.000    0.000    0.000 
#    0.000    0.000    0.000    0.000    0.000    0.000 
#
# Total GULP energy -133688.819463 kJ/mol
# GULP energy per Si atom -5570.367478 kJ/mol
# Density = 1.962606 g / cm^3
# Si number density = 19.670827 Si / 1000 Ang^3
#
#
#
# Elastic Constant Matrix: (Units=GPa)
#
#
# Indices 1 2 3 4 5 6 
#
# 1 89.4409 13.6737 19.9423 0.0000 -18.4462 0.0000
# 2 13.6737 100.4246 25.5725 0.0000 -5.5323 0.0000
# 3 19.9423 25.5725 129.6756 0.0000 -11.0650 0.0000
# 4 0.0000 0.0000 0.0000 16.1276 0.0000 4.7215
# 5 -18.4462 -5.5323 -11.0650 0.0000 37.1810 0.0000
# 6 0.0000 0.0000 0.0000 4.7215 0.0000 47.6401
#
#
#
# Elastic Compliance Matrix: (Units=1/GPa)
#
#
# Indices 1 2 3 4 5 6 
#
# 1 0.012832 -0.001106 -0.001258 0.000000 0.005827 0.000000
# 2 -0.001106 0.010614 -0.001883 0.000000 0.000470 0.000000
# 3 -0.001258 -0.001883 0.008413 0.000000 0.001599 0.000000
# 4 0.000000 0.000000 0.000000 0.063858 0.000000 -0.006329
# 5 0.005827 0.000470 0.001599 0.000000 0.030332 0.000000
# 6 0.000000 0.000000 0.000000 -0.006329 0.000000 0.021618
#
#
# Mechanical properties :
#
#
# Convention : Reuss Voigt Hill
#
# Bulk Modulus (GPa) = 42.79926 48.65758 45.72842
# Shear Modulus (GPa) = 30.49729 37.54656 34.02192
#
# Velocity S-wave (km/s) = 3.94176 4.37366 4.16331
# Velocity P-wave (km/s) = 6.52086 7.09188 6.81236
#
# Compressibility (1/GPa) = 0.02336489
#
# Stress axis : x y z
#
# Youngs Moduli (GPa) = 77.93059 94.21827 118.86643
#
# Poissons Ratio (x) = 0.10419 0.14954
# Poissons Ratio (y) = 0.08618 0.22381
# Poissons Ratio (z) = 0.09804 0.17740
#
# Static dielectric constant tensor:
#      x y z
#    x 1.733910 0.000000 -0.033440 
#    y 0.000000 1.725150 0.000000 
#    z -0.033440 0.000000 1.693880 
# 
# From -- ./inp_files/51490.got.cif
#   From: 2010.05.17/outbox.cif.g08.bks.cpg/sg12_26_cif.got.tgz:51490.got - 2010.06.03 13:09:07.
