data_PCOD9201003
_publ_section_title
;
Structure prediction by ZEFSAII (Michael W. Deem and Ramdas Pophale) SiO2 
 PCOD9201003
Probable space group: C 2/M
;
_chemical_formula_sum "Si O2"
_cell_formula_units_Z 58
_cell_length_a 19.899906
_cell_length_b 12.618314
_cell_length_c 27.135064
_cell_angle_alpha 90.000000
_cell_angle_beta 27.197993
_cell_angle_gamma 90.000000
_cell_volume 3114.317278
_symmetry_space_group_name_H-M "C 2/M"
_symmetry_group_IT_number 12
_symmetry_cell_setting 'monoclinic'
loop_
_space_group_symop_operation_xyz
x,y,z
-x,y,-z
-x,-y,-z
x,-y,z
1/2+x,1/2+y,z
1/2-x,1/2+y,-z
1/2-x,1/2-y,-z
1/2+x,1/2-y,z
loop_
_atom_site_type_symbol
_atom_site_label
_atom_site_fract_x
_atom_site_fract_y
_atom_site_fract_z
Si Si1 0.329373 0.378371 0.896933
Si Si2 0.091657 0.294393 0.333712
Si Si3 0.000000 0.000000 0.500000
Si Si4 0.714525 0.304649 0.354796
Si Si5 0.909539 0.877677 0.109399
Si Si6 0.790443 0.619783 0.560650
Si Si7 0.026841 0.277068 0.117377
Si Si8 0.995789 0.121821 0.317516
O O1 0.359274 0.500000 0.891756
O O2 0.412009 0.296947 0.878737
O O3 0.390388 0.364596 0.801967
O O4 0.157387 0.352461 0.014210
O O5 0.139043 0.244984 0.355256
O O6 0.237457 0.348654 0.216646
O O7 0.035481 0.201636 0.334697
O O8 0.953877 0.371144 0.432207
O O9 0.122734 0.905990 0.430789
O O10 0.721584 0.210767 0.390392
O O11 0.880695 0.334481 0.231616
O O12 0.977829 0.800150 0.105338
O O13 0.921563 0.000000 0.117386
O O14 0.000000 0.865104 0.000000
O O15 0.765649 0.500000 0.596497
O O16 0.665414 0.638299 0.601020
O O17 0.004794 0.000000 0.329092
#
# Coordination Sequence:
#
# PCOD9201003 Si02
#       8
#     8   8   2   8   8   8   8   8
#     4  10  20  37  60  89 120 156 201 252 306 363
#     4  11  22  38  59  90 118 158 199 253 307 365
#     4  12  24  44  58  88 130 168 208 250 320 354
#     4  11  24  39  63  88 123 165 205 256 301 373
#     4  10  21  37  58  83 117 157 197 247 303 359
#     4  11  22  41  64  93 119 158 210 260 308 366
#     4  10  21  37  60  87 116 157 203 252 299 366
#     4  10  22  38  62  86 123 160 198 250 312 372
#
# _framework density 18.623664000000002
#
# number of rings (size 3 to 8) (size 9 to 14) (size 15 to 20)
#    0.000    1.517    2.759    2.069    1.931    3.310 
#    0.000    0.000    1.517    4.966    0.000    0.000 
#    0.000    0.000    0.000    0.000    0.000    0.000 
#
# Total GULP energy -161692.311723 kJ/mol
# GULP energy per Si atom -5575.596956 kJ/mol
# Density = 1.858128 g / cm^3
# Si number density = 18.623664 Si / 1000 Ang^3
#
#
#
# Elastic Constant Matrix: (Units=GPa)
#
#
# Indices 1 2 3 4 5 6 
#
# 1 35.3152 5.2728 -8.0233 -0.0013 -5.9638 0.0002
# 2 5.2728 51.4589 -11.8861 -0.0016 2.3958 -0.0004
# 3 -8.0233 -11.8861 78.2416 -0.0027 -17.2423 -0.0003
# 4 -0.0013 -0.0016 -0.0027 27.4624 -0.0001 -10.6649
# 5 -5.9638 2.3958 -17.2423 -0.0001 21.2612 -0.0001
# 6 0.0002 -0.0004 -0.0003 -10.6649 -0.0001 25.1516
#
#
#
# Elastic Compliance Matrix: (Units=1/GPa)
#
#
# Indices 1 2 3 4 5 6 
#
# 1 0.032516 -0.002590 0.006107 0.000002 0.014365 0.000001
# 2 -0.002590 0.020347 0.002630 0.000002 -0.000886 0.000001
# 3 0.006107 0.002630 0.017191 0.000003 0.015358 0.000001
# 4 0.000002 0.000002 0.000003 0.043592 0.000003 0.018484
# 5 0.014365 -0.000886 0.015358 0.000003 0.063618 0.000001
# 6 0.000001 0.000001 0.000001 0.018484 0.000001 0.047597
#
#
# Mechanical properties :
#
#
# Convention : Reuss Voigt Hill
#
# Bulk Modulus (GPa) = 12.14360 15.08249 13.61305
# Shear Modulus (GPa) = 20.83184 26.75186 23.79185
#
# Velocity S-wave (km/s) = 3.34813 3.79416 3.57810
# Velocity P-wave (km/s) = 4.63479 5.22593 4.93921
#
# Compressibility (1/GPa) = 0.08234788
#
# Stress axis : x y z
#
# Youngs Moduli (GPa) = 30.75380 49.14686 58.16924
#
# Poissons Ratio (x) = 0.12730 -0.35521
# Poissons Ratio (y) = 0.07966 -0.15299
# Poissons Ratio (z) = -0.18780 -0.12926
#
# Static dielectric constant tensor:
#      x y z
#    x 1.610890 0.000000 0.002370 
#    y 0.000000 1.606520 0.000000 
#    z 0.002370 0.000000 1.671810 
# 
# From -- ./inp_files/363764.got.cif
#   From: 2010.05.17/outbox.cif.g08.bks.cpg/sg12_182_cif.got.tgz:363764.got - 2010.06.03 13:09:07.
