data_PCOD9201595
_publ_section_title
;
Structure prediction by ZEFSAII (Michael W. Deem and Ramdas Pophale) SiO2 
 PCOD9201595
Probable space group: C 2/M
;
_chemical_formula_sum "Si O2"
_cell_formula_units_Z 64
_cell_length_a 13.680645
_cell_length_b 28.333499
_cell_length_c 8.357992
_cell_angle_alpha 90.000000
_cell_angle_beta 57.400274
_cell_angle_gamma 90.000000
_cell_volume 2729.326133
_symmetry_space_group_name_H-M "C 2/M"
_symmetry_group_IT_number 12
_symmetry_cell_setting 'monoclinic'
loop_
_space_group_symop_operation_xyz
x,y,z
-x,y,-z
-x,-y,-z
x,-y,z
1/2+x,1/2+y,z
1/2-x,1/2+y,-z
1/2-x,1/2-y,-z
1/2+x,1/2-y,z
loop_
_atom_site_type_symbol
_atom_site_label
_atom_site_fract_x
_atom_site_fract_y
_atom_site_fract_z
Si Si1 0.853037 0.845610 0.508268
Si Si2 0.368684 0.552728 0.546315
Si Si3 0.627889 0.051886 0.311980
Si Si4 0.771622 0.649310 0.837052
Si Si5 0.326325 0.205686 0.485643
Si Si6 0.580676 0.313546 0.189558
Si Si7 0.062568 0.290511 0.117919
Si Si8 0.124085 0.553251 0.932160
O O1 0.876054 0.899458 0.441460
O O2 0.720861 0.834797 0.589659
O O3 0.881431 0.829015 0.664168
O O4 0.941962 0.816721 0.317961
O O5 0.500000 0.550597 0.500000
O O6 0.347665 0.500000 0.499534
O O7 0.255902 0.565475 0.758799
O O8 0.500000 0.056647 0.500000
O O9 0.695957 0.100483 0.277248
O O10 0.673260 0.000000 0.324632
O O11 0.623548 0.050865 0.123549
O O12 0.794715 0.690481 0.690288
O O13 0.852238 0.666008 0.916246
O O14 0.641914 0.650311 0.016364
O O15 0.250000 0.250000 0.500000
O O16 0.461244 0.209168 0.339558
O O17 0.616880 0.261471 0.098962
O O18 0.000000 0.292292 0.000000
O O19 0.113162 0.500000 0.872387
O O20 0.000000 0.577805 0.000000
#
# Coordination Sequence:
#
# PCOD9201595 Si02
#       8
#     8   8   8   8   8   8   8   8
#     4  11  23  41  67  93 130 178 219 279 333 404
#     4  10  20  37  63 100 135 175 228 282 342 403
#     4  10  22  41  63  93 135 179 220 269 337 404
#     4  12  26  42  66  99 133 174 224 276 337 405
#     4  12  24  42  66  92 127 166 219 271 332 401
#     4  11  23  42  65  93 130 171 221 270 335 403
#     4  12  25  43  67  96 130 170 213 277 335 406
#     4   9  19  36  63  94 128 169 223 283 336 395
#
# _framework density 23.449013000000001
#
# number of rings (size 3 to 8) (size 9 to 14) (size 15 to 20)
#    0.000    1.125    2.500    4.500    1.750    2.500 
#    0.000    1.875    0.000    0.000    0.000    1.750 
#    0.000    0.000    0.000    0.000    0.000    0.000 
#
# Total GULP energy -178446.910764 kJ/mol
# GULP energy per Si atom -5576.465961 kJ/mol
# Density = 2.339564 g / cm^3
# Si number density = 23.449013 Si / 1000 Ang^3
#
#
#
# Elastic Constant Matrix: (Units=GPa)
#
#
# Indices 1 2 3 4 5 6 
#
# 1 78.5556 21.7084 28.6867 0.0000 -7.8804 0.0000
# 2 21.7084 133.1198 6.0147 0.0000 -5.7621 0.0000
# 3 28.6867 6.0147 124.4076 0.0000 -27.2073 0.0000
# 4 0.0000 0.0000 0.0000 25.2431 0.0000 -3.6392
# 5 -7.8804 -5.7621 -27.2073 0.0000 44.4297 0.0000
# 6 0.0000 0.0000 0.0000 -3.6392 0.0000 16.9797
#
#
#
# Elastic Compliance Matrix: (Units=1/GPa)
#
#
# Indices 1 2 3 4 5 6 
#
# 1 0.014533 -0.002212 -0.003167 0.000000 0.000351 0.000000
# 2 -0.002212 0.007894 0.000308 0.000000 0.000820 0.000000
# 3 -0.003167 0.000308 0.009975 0.000000 0.005587 0.000000
# 4 0.000000 0.000000 0.000000 0.040878 0.000000 0.008761
# 5 0.000351 0.000820 0.005587 0.000000 0.026097 0.000000
# 6 0.000000 0.000000 0.000000 0.008761 0.000000 0.060772
#
#
# Mechanical properties :
#
#
# Convention : Reuss Voigt Hill
#
# Bulk Modulus (GPa) = 44.92397 49.87805 47.40101
# Shear Modulus (GPa) = 28.13542 35.97538 32.05540
#
# Velocity S-wave (km/s) = 3.46765 3.92113 3.70134
# Velocity P-wave (km/s) = 5.93570 6.46664 6.20685
#
# Compressibility (1/GPa) = 0.02225983
#
# Stress axis : x y z
#
# Youngs Moduli (GPa) = 68.80939 126.67394 100.24707
#
# Poissons Ratio (x) = 0.28016 0.31752
# Poissons Ratio (y) = 0.15218 -0.03084
# Poissons Ratio (z) = 0.21794 -0.03897
#
# Static dielectric constant tensor:
#      x y z
#    x 1.903330 0.000000 -0.006850 
#    y 0.000000 2.022410 0.000000 
#    z -0.006850 0.000000 1.748580 
# 
# From -- ./inp_files/68596.got.cif
#   From: 2010.05.17/outbox.cif.g08.bks.cpg/sg12_35_cif.got.tgz:68596.got - 2010.06.03 13:09:07.
