data_PCOD9201227
_publ_section_title
;
Structure prediction by ZEFSAII (Michael W. Deem and Ramdas Pophale) SiO2 
 PCOD9201227
Probable space group: C 2/M
;
_chemical_formula_sum "Si O2"
_cell_formula_units_Z 56
_cell_length_a 23.460745
_cell_length_b 9.898598
_cell_length_c 14.971468
_cell_angle_alpha 90.000000
_cell_angle_beta 53.623691
_cell_angle_gamma 90.000000
_cell_volume 2799.308674
_symmetry_space_group_name_H-M "C 2/M"
_symmetry_group_IT_number 12
_symmetry_cell_setting 'monoclinic'
loop_
_space_group_symop_operation_xyz
x,y,z
-x,y,-z
-x,-y,-z
x,-y,z
1/2+x,1/2+y,z
1/2-x,1/2+y,-z
1/2-x,1/2-y,-z
1/2+x,1/2-y,z
loop_
_atom_site_type_symbol
_atom_site_label
_atom_site_fract_x
_atom_site_fract_y
_atom_site_fract_z
Si Si1 0.124604 0.849122 0.922811
Si Si2 0.885488 0.847438 0.732594
Si Si3 0.015938 0.843454 0.183815
Si Si4 0.393565 0.840852 0.362804
Si Si5 0.863392 0.155550 0.557473
Si Si6 0.803508 0.343658 0.281256
Si Si7 0.231945 0.651402 0.096948
O O1 0.143952 0.747273 0.826233
O O2 0.198065 0.856456 0.908843
O O3 0.107801 0.000000 0.904075
O O4 0.065352 0.814019 0.051833
O O5 0.940109 0.838010 0.763584
O O6 0.907618 0.838040 0.608517
O O7 0.831404 0.725506 0.794798
O O8 0.853021 0.000000 0.771151
O O9 0.955117 0.733986 0.250767
O O10 0.991587 0.000000 0.198223
O O11 0.386720 0.761168 0.461652
O O12 0.323613 0.826802 0.366514
O O13 0.407309 0.000000 0.362653
O O14 0.779954 0.182121 0.655660
O O15 0.868373 0.000000 0.519454
O O16 0.816002 0.500000 0.245856
O O17 0.213073 0.500000 0.085471
O O18 0.250000 0.750000 0.000000
#
# Coordination Sequence:
#
# PCOD9201227 Si02
#       7
#     8   8   8   8   8   8   8
#     4  10  21  36  59  90 120 153 195 240 290 348
#     4  10  20  37  61  89 119 151 195 241 291 354
#     4  10  22  41  60  84 121 161 197 233 284 357
#     4  11  25  42  59  84 118 157 201 248 292 344
#     4  10  21  39  65  90 113 151 195 244 302 351
#     4  10  22  40  63  89 117 151 195 246 301 350
#     4  11  20  32  54  87 123 156 191 237 295 349
#
# _framework density 20.004940000000001
#
# number of rings (size 3 to 8) (size 9 to 14) (size 15 to 20)
#    0.000    1.714    2.857    1.286    0.000    5.143 
#    0.000    5.714    0.000    0.000    0.000    0.000 
#    0.000    0.000    0.000    0.000    0.000    0.000 
#
# Total GULP energy -156228.035793 kJ/mol
# GULP energy per Si atom -5579.572707 kJ/mol
# Density = 1.995941 g / cm^3
# Si number density = 20.004940 Si / 1000 Ang^3
#
#
#
# Elastic Constant Matrix: (Units=GPa)
#
#
# Indices 1 2 3 4 5 6 
#
# 1 16.1072 21.6194 19.4980 0.0000 -3.8959 0.0000
# 2 21.6194 123.5212 61.1761 0.0000 -0.9380 0.0000
# 3 19.4980 61.1761 76.0057 0.0000 6.9261 0.0000
# 4 0.0000 0.0000 0.0000 40.7635 0.0000 3.1374
# 5 -3.8959 -0.9380 6.9261 0.0000 19.7849 0.0000
# 6 0.0000 0.0000 0.0000 3.1374 0.0000 23.3061
#
#
#
# Elastic Compliance Matrix: (Units=1/GPa)
#
#
# Indices 1 2 3 4 5 6 
#
# 1 0.108654 -0.006026 -0.025769 0.000000 0.030131 0.000000
# 2 -0.006026 0.014210 -0.010169 0.000000 0.003047 0.000000
# 3 -0.025769 -0.010169 0.029397 0.000000 -0.015847 0.000000
# 4 0.000000 0.000000 0.000000 0.024789 0.000000 -0.003337
# 5 0.030131 0.003047 -0.015847 0.000000 0.062169 0.000000
# 6 0.000000 0.000000 0.000000 -0.003337 0.000000 0.043356
#
#
# Mechanical properties :
#
#
# Convention : Reuss Voigt Hill
#
# Bulk Modulus (GPa) = 14.63436 46.69125 30.66281
# Shear Modulus (GPa) = 12.84420 24.32691 18.58556
#
# Velocity S-wave (km/s) = 2.53662 3.49097 3.05134
# Velocity P-wave (km/s) = 3.98880 6.29600 5.27021
#
# Compressibility (1/GPa) = 0.06833231
#
# Stress axis : x y z
#
# Youngs Moduli (GPa) = 9.20356 70.37186 34.01724
#
# Poissons Ratio (x) = 0.42406 0.87658
# Poissons Ratio (y) = 0.05546 0.34594
# Poissons Ratio (z) = 0.23716 0.71564
#
# Static dielectric constant tensor:
#      x y z
#    x 1.740000 0.000000 -0.029890 
#    y 0.000000 1.653120 0.000000 
#    z -0.029890 0.000000 1.812850 
# 
# From -- ./inp_files/238319.got.cif
#   From: 2010.05.17/outbox.cif.g08.bks.cpg/sg12_120_cif.got.tgz:238319.got - 2010.06.03 13:09:07.
