data_PCOD9201287
_publ_section_title
;
Structure prediction by ZEFSAII (Michael W. Deem and Ramdas Pophale) SiO2 
 PCOD9201287
Probable space group: C 2/M
;
_chemical_formula_sum "Si O2"
_cell_formula_units_Z 64
_cell_length_a 27.600505
_cell_length_b 21.651573
_cell_length_c 12.865704
_cell_angle_alpha 90.000000
_cell_angle_beta 22.306293
_cell_angle_gamma 90.000000
_cell_volume 2918.219337
_symmetry_space_group_name_H-M "C 2/M"
_symmetry_group_IT_number 12
_symmetry_cell_setting 'monoclinic'
loop_
_space_group_symop_operation_xyz
x,y,z
-x,y,-z
-x,-y,-z
x,-y,z
1/2+x,1/2+y,z
1/2-x,1/2+y,-z
1/2-x,1/2-y,-z
1/2+x,1/2-y,z
loop_
_atom_site_type_symbol
_atom_site_label
_atom_site_fract_x
_atom_site_fract_y
_atom_site_fract_z
Si Si1 0.518689 0.830808 0.738914
Si Si2 0.379365 0.741022 0.306705
Si Si3 0.784300 0.689974 0.078101
Si Si4 0.635651 0.432701 0.436613
Si Si5 0.372228 0.402532 0.313297
Si Si6 0.323876 0.823268 0.767814
Si Si7 0.832747 0.069558 0.005936
Si Si8 0.832311 0.428886 0.454570
O O1 0.608223 0.779110 0.612856
O O2 0.572360 0.847795 0.519253
O O3 0.543092 0.888704 0.765628
O O4 0.378069 0.806624 0.991912
O O5 0.250000 0.750000 0.500000
O O6 0.397697 0.668926 0.289239
O O7 0.500000 0.763351 0.000000
O O8 0.701304 0.628449 0.261080
O O9 0.712764 0.754584 0.199260
O O10 0.855012 0.681338 0.826863
O O11 0.679851 0.500000 0.307328
O O12 0.653694 0.433148 0.525216
O O13 0.484169 0.428169 0.719191
O O14 0.251670 0.406960 0.476047
O O15 0.500000 0.425779 0.000000
O O16 0.210812 0.873307 0.978153
O O17 0.762889 0.076814 0.256607
O O18 0.799179 0.000000 0.034382
O O19 0.865550 0.500000 0.374952
#
# Coordination Sequence:
#
# PCOD9201287 Si02
#       8
#     8   8   8   8   8   8   8   8
#     4  11  24  42  65  87 129 169 220 265 324 396
#     4  11  25  39  63  99 136 174 218 269 335 400
#     4  11  26  42  65  94 128 170 217 276 336 398
#     4  11  24  40  64 100 138 173 215 274 342 396
#     4  11  21  36  62  95 130 170 217 263 319 394
#     4  10  24  44  67  94 122 168 224 276 332 391
#     4   9  20  39  66  96 127 165 215 274 333 389
#     4  10  20  37  61  91 124 168 218 262 309 385
#
# _framework density 21.931183000000001
#
# number of rings (size 3 to 8) (size 9 to 14) (size 15 to 20)
#    0.000    1.500    2.500    1.500    7.000    2.000 
#    0.000    1.250    0.000    5.625    0.000    0.000 
#    0.000    0.000    0.000    0.000    0.000    0.000 
#
# Total GULP energy -178709.328784 kJ/mol
# GULP energy per Si atom -5584.666525 kJ/mol
# Density = 2.188127 g / cm^3
# Si number density = 21.931183 Si / 1000 Ang^3
#
#
#
# Elastic Constant Matrix: (Units=GPa)
#
#
# Indices 1 2 3 4 5 6 
#
# 1 98.8497 34.9536 16.6429 -0.0002 -14.7770 -0.0010
# 2 34.9536 136.7447 9.3829 0.0007 -8.1824 0.0017
# 3 16.6429 9.3829 41.0138 0.0005 -8.6955 0.0006
# 4 -0.0002 0.0007 0.0005 65.1164 0.0002 85.2385
# 5 -14.7770 -8.1824 -8.6955 0.0002 36.1892 0.0010
# 6 -0.0010 0.0017 0.0006 85.2385 0.0010 161.8894
#
#
#
# Elastic Compliance Matrix: (Units=1/GPa)
#
#
# Indices 1 2 3 4 5 6 
#
# 1 0.012186 -0.002658 -0.003592 0.000000 0.003512 0.000000
# 2 -0.002658 0.008072 -0.000644 0.000000 0.000585 0.000000
# 3 -0.003592 -0.000644 0.027022 0.000000 0.004880 0.000000
# 4 0.000000 0.000000 0.000000 0.049416 0.000000 -0.026019
# 5 0.003512 0.000585 0.004880 0.000000 0.030371 0.000000
# 6 0.000000 0.000000 0.000000 -0.026019 0.000000 0.019876
#
#
# Mechanical properties :
#
#
# Convention : Reuss Voigt Hill
#
# Bulk Modulus (GPa) = 29.85917 44.28521 37.07219
# Shear Modulus (GPa) = 29.08738 67.01424 48.05081
#
# Velocity S-wave (km/s) = 3.64579 5.53380 4.68587
# Velocity P-wave (km/s) = 5.60062 7.81455 6.79831
#
# Compressibility (1/GPa) = 0.03349055
#
# Stress axis : x y z
#
# Youngs Moduli (GPa) = 82.06043 123.89174 37.00718
#
# Poissons Ratio (x) = 0.32934 0.13294
# Poissons Ratio (y) = 0.21814 0.02383
# Poissons Ratio (z) = 0.29479 0.07977
#
# Static dielectric constant tensor:
#      x y z
#    x 1.679500 0.000000 -0.127750 
#    y 0.000000 1.825430 0.000000 
#    z -0.127750 0.000000 1.677490 
# 
# From -- ./inp_files/251890.got.cif
#   From: 2010.05.17/outbox.cif.g08.bks.cpg/sg12_126_cif.got.tgz:251890.got - 2010.06.03 13:09:07.
