data_PCOD9201052
_publ_section_title
;
Structure prediction by ZEFSAII (Michael W. Deem and Ramdas Pophale) SiO2 
 PCOD9201052
Probable space group: C 2/M
;
_chemical_formula_sum "Si O2"
_cell_formula_units_Z 64
_cell_length_a 31.705242
_cell_length_b 9.236259
_cell_length_c 17.639077
_cell_angle_alpha 90.000000
_cell_angle_beta 40.082589
_cell_angle_gamma 90.000000
_cell_volume 3325.948280
_symmetry_space_group_name_H-M "C 2/M"
_symmetry_group_IT_number 12
_symmetry_cell_setting 'monoclinic'
loop_
_space_group_symop_operation_xyz
x,y,z
-x,y,-z
-x,-y,-z
x,-y,z
1/2+x,1/2+y,z
1/2-x,1/2+y,-z
1/2-x,1/2-y,-z
1/2+x,1/2-y,z
loop_
_atom_site_type_symbol
_atom_site_label
_atom_site_fract_x
_atom_site_fract_y
_atom_site_fract_z
Si Si1 0.358587 0.828396 0.094365
Si Si2 0.509823 0.829091 0.396746
Si Si3 0.355617 0.327347 0.834807
Si Si4 0.272697 0.172214 0.079598
Si Si5 0.810175 0.836521 0.450048
Si Si6 0.906609 0.164129 0.173765
Si Si7 0.018358 0.172685 0.130385
Si Si8 0.078848 0.173821 0.595496
O O1 0.292409 0.793858 0.139034
O O2 0.371689 0.756662 0.157499
O O3 0.363656 0.000000 0.095063
O O4 0.416525 0.765430 0.962179
O O5 0.500000 0.810754 0.500000
O O6 0.575867 0.749327 0.277666
O O7 0.447993 0.758336 0.439233
O O8 0.514435 0.000000 0.373399
O O9 0.365511 0.500000 0.830702
O O10 0.302456 0.302523 0.840642
O O11 0.318987 0.261560 0.958663
O O12 0.285268 0.000000 0.050492
O O13 0.750000 0.750000 0.500000
O O14 0.861553 0.842369 0.310293
O O15 0.851242 0.779573 0.465518
O O16 0.789208 0.000000 0.497212
O O17 0.975790 0.212443 0.114246
O O18 0.914400 0.000000 0.134102
O O19 0.974819 0.199267 0.264330
O O20 0.031161 0.000000 0.110663
O O21 0.081582 0.000000 0.579196
#
# Coordination Sequence:
#
# PCOD9201052 Si02
#       8
#     8   8   8   8   8   8   8   8
#     4  11  21  31  47  77 112 140 172 214 265 317
#     4  11  24  40  57  82 116 148 183 235 292 338
#     4  10  20  37  61  82 105 143 188 229 275 335
#     4   9  20  37  55  80 113 145 179 226 279 331
#     4   9  19  37  59  82 108 141 182 227 271 321
#     4   9  19  35  51  71 104 142 177 215 259 313
#     4   9  18  33  53  75 104 140 178 218 261 313
#     4   9  19  37  60  84 106 139 188 228 268 329
#
# _framework density 19.242630999999999
#
# number of rings (size 3 to 8) (size 9 to 14) (size 15 to 20)
#    0.000    2.375    0.000    3.750    0.000    8.000 
#    2.250    2.500    0.000    0.000    0.000    0.000 
#    0.000    0.000    0.000    0.000    0.000    0.000 
#
# Total GULP energy -178532.265551 kJ/mol
# GULP energy per Si atom -5579.133298 kJ/mol
# Density = 1.919883 g / cm^3
# Si number density = 19.242631 Si / 1000 Ang^3
#
#
#
# Elastic Constant Matrix: (Units=GPa)
#
#
# Indices 1 2 3 4 5 6 
#
# 1 179.2597 69.3034 15.2688 -0.0003 -10.7026 -0.0013
# 2 69.3034 56.2458 12.3658 -0.0017 -5.2240 -0.0042
# 3 15.2688 12.3658 18.2418 -0.0007 -11.6953 -0.0029
# 4 -0.0003 -0.0017 -0.0007 16.4380 0.0004 -4.7445
# 5 -10.7026 -5.2240 -11.6953 0.0004 25.9611 0.0011
# 6 -0.0013 -0.0042 -0.0029 -4.7445 0.0011 28.5876
#
#
#
# Elastic Compliance Matrix: (Units=1/GPa)
#
#
# Indices 1 2 3 4 5 6 
#
# 1 0.010766 -0.013402 0.001673 -0.000002 0.002495 -0.000002
# 2 -0.013402 0.037749 -0.018342 0.000004 -0.006192 0.000004
# 3 0.001673 -0.018342 0.089891 0.000002 0.037494 0.000005
# 4 -0.000002 0.000004 0.000002 0.063895 0.000000 0.010604
# 5 0.002495 -0.006192 0.037494 0.000000 0.055193 0.000001
# 6 -0.000002 0.000004 0.000005 0.010604 0.000001 0.036740
#
#
# Mechanical properties :
#
#
# Convention : Reuss Voigt Hill
#
# Bulk Modulus (GPa) = 12.77700 49.73590 31.25645
# Shear Modulus (GPa) = 13.14187 24.65130 18.89658
#
# Velocity S-wave (km/s) = 2.61618 3.58310 3.13711
# Velocity P-wave (km/s) = 3.97243 6.55904 5.42223
#
# Compressibility (1/GPa) = 0.07826563
#
# Stress axis : x y z
#
# Youngs Moduli (GPa) = 92.88366 26.49055 11.12461
#
# Poissons Ratio (x) = 0.35502 -0.01861
# Poissons Ratio (y) = 1.24479 0.20404
# Poissons Ratio (z) = -0.15540 0.48588
#
# Static dielectric constant tensor:
#      x y z
#    x 1.728010 0.000000 -0.010840 
#    y 0.000000 1.648750 0.000000 
#    z -0.010840 0.000000 1.675690 
# 
# From -- ./inp_files/295583.got.cif
#   From: 2010.05.17/outbox.cif.g08.bks.cpg/sg12_148_cif.got.tgz:295583.got - 2010.06.03 13:09:07.
