data_PCOD9201952
_publ_section_title
;
Structure prediction by ZEFSAII (Michael W. Deem and Ramdas Pophale) SiO2 
 PCOD9201952
Probable space group: C 2/M
;
_chemical_formula_sum "Si O2"
_cell_formula_units_Z 38
_cell_length_a 14.856445
_cell_length_b 14.538509
_cell_length_c 8.548296
_cell_angle_alpha 90.000000
_cell_angle_beta 118.911746
_cell_angle_gamma 90.000000
_cell_volume 1616.232047
_symmetry_space_group_name_H-M "C 2/M"
_symmetry_group_IT_number 12
_symmetry_cell_setting 'monoclinic'
loop_
_space_group_symop_operation_xyz
x,y,z
-x,y,-z
-x,-y,-z
x,-y,z
1/2+x,1/2+y,z
1/2-x,1/2+y,-z
1/2-x,1/2-y,-z
1/2+x,1/2-y,z
loop_
_atom_site_type_symbol
_atom_site_label
_atom_site_fract_x
_atom_site_fract_y
_atom_site_fract_z
Si Si1 0.733530 0.203869 0.751267
Si Si2 0.242179 0.500000 0.736106
Si Si3 0.385165 0.805489 0.684299
Si Si4 0.554119 0.686354 0.715250
Si Si5 0.466756 0.500000 0.794066
Si Si6 0.500000 0.000000 0.500000
Si Si7 0.938609 0.500000 0.789298
O O1 0.669773 0.199621 0.531696
O O2 0.841404 0.239114 0.779317
O O3 0.671632 0.280790 0.796045
O O4 0.746722 0.099935 0.823412
O O5 0.340357 0.500000 0.696600
O O6 0.125262 0.500000 0.574140
O O7 0.500938 0.774214 0.752184
O O8 0.372972 0.907994 0.730583
O O9 0.500000 0.681357 0.500000
O O10 0.517733 0.591398 0.762288
O O11 0.500000 0.500000 0.000000
O O12 0.514894 0.000000 0.703211
O O13 0.000000 0.500000 0.000000
#
# Coordination Sequence:
#
# PCOD9201952 Si02
#       7
#     8   4   8   8   4   2   4
#     4  10  20  37  72 102 135 186 249 300 366 450
#     4  12  22  45  74 100 141 200 241 308 379 448
#     4  10  20  39  64 102 136 184 244 308 368 440
#     4  10  22  41  71 102 133 186 248 298 359 450
#     4  12  27  48  67 102 156 192 235 306 386 451
#     4  12  24  44  78 102 138 198 264 302 380 466
#     4  12  26  43  68 105 156 194 251 327 386 452
#
# _framework density 23.511474
#
# number of rings (size 3 to 8) (size 9 to 14) (size 15 to 20)
#    0.000    1.263    4.211    1.579    2.947    1.684 
#    3.789    1.053    0.000    0.000    0.000    0.000 
#    0.000    0.000    0.000    0.000    0.000    0.000 
#
# Total GULP energy -105782.125656 kJ/mol
# GULP energy per Si atom -5567.480298 kJ/mol
# Density = 2.345796 g / cm^3
# Si number density = 23.511474 Si / 1000 Ang^3
#
#
#
# Elastic Constant Matrix: (Units=GPa)
#
#
# Indices 1 2 3 4 5 6 
#
# 1 95.5018 31.1987 32.1557 0.0000 -10.9261 0.0000
# 2 31.1987 162.8409 18.9460 0.0000 -16.6688 0.0000
# 3 32.1557 18.9460 64.5671 0.0000 -6.2491 0.0000
# 4 0.0000 0.0000 0.0000 8.4162 0.0000 -8.1316
# 5 -10.9261 -16.6688 -6.2491 0.0000 15.7804 0.0000
# 6 0.0000 0.0000 0.0000 -8.1316 0.0000 38.1098
#
#
#
# Elastic Compliance Matrix: (Units=1/GPa)
#
#
# Indices 1 2 3 4 5 6 
#
# 1 0.013501 -0.001336 -0.005786 0.000000 0.005646 0.000000
# 2 -0.001336 0.007136 -0.000820 0.000000 0.006288 0.000000
# 3 -0.005786 -0.000820 0.018861 0.000000 0.002597 0.000000
# 4 0.000000 0.000000 0.000000 0.149675 0.000000 0.031937
# 5 0.005646 0.006288 0.002597 0.000000 0.074950 0.000000
# 6 0.000000 0.000000 0.000000 0.031937 0.000000 0.033054
#
#
# Mechanical properties :
#
#
# Convention : Reuss Voigt Hill
#
# Bulk Modulus (GPa) = 42.34474 54.16784 48.25629
# Shear Modulus (GPa) = 15.57962 28.50190 22.04076
#
# Velocity S-wave (km/s) = 2.57697 3.48552 3.06510
# Velocity P-wave (km/s) = 5.18688 6.26797 5.75287
#
# Compressibility (1/GPa) = 0.02361568
#
# Stress axis : x y z
#
# Youngs Moduli (GPa) = 74.06690 140.13555 53.01922
#
# Poissons Ratio (x) = 0.18717 0.30675
# Poissons Ratio (y) = 0.09893 0.04348
# Poissons Ratio (z) = 0.42852 0.11493
#
# Static dielectric constant tensor:
#      x y z
#    x 1.886490 0.000000 0.004280 
#    y 0.000000 1.882700 0.000000 
#    z 0.004280 0.000000 1.941250 
# 
# From -- ./inp_files/59302.got.cif
#   From: 2010.05.17/outbox.cif.g08.bks.cpg/sg12_30_cif.got.tgz:59302.got - 2010.06.03 13:09:07.
