data_PCOD9201679
_publ_section_title
;
Structure prediction by ZEFSAII (Michael W. Deem and Ramdas Pophale) SiO2 
 PCOD9201679
Probable space group: C 2/M
;
_chemical_formula_sum "Si O2"
_cell_formula_units_Z 56
_cell_length_a 12.954559
_cell_length_b 25.967076
_cell_length_c 10.760824
_cell_angle_alpha 90.000000
_cell_angle_beta 132.263880
_cell_angle_gamma 90.000000
_cell_volume 2678.892825
_symmetry_space_group_name_H-M "C 2/M"
_symmetry_group_IT_number 12
_symmetry_cell_setting 'monoclinic'
loop_
_space_group_symop_operation_xyz
x,y,z
-x,y,-z
-x,-y,-z
x,-y,z
1/2+x,1/2+y,z
1/2-x,1/2+y,-z
1/2-x,1/2-y,-z
1/2+x,1/2-y,z
loop_
_atom_site_type_symbol
_atom_site_label
_atom_site_fract_x
_atom_site_fract_y
_atom_site_fract_z
Si Si1 0.933350 0.347344 0.745397
Si Si2 0.128700 0.729769 0.521226
Si Si3 0.853833 0.842216 0.367468
Si Si4 0.844169 0.944438 0.817206
Si Si5 0.452331 0.057029 0.317997
Si Si6 0.269607 0.189628 0.987965
Si Si7 0.158179 0.166902 0.163238
O O1 0.891095 0.299324 0.622996
O O2 0.795418 0.363240 0.709159
O O3 0.983557 0.396845 0.707940
O O4 0.073645 0.325945 0.923808
O O5 0.123104 0.791001 0.528813
O O6 0.269452 0.711039 0.700114
O O7 0.000000 0.709698 0.500000
O O8 0.831005 0.826039 0.205765
O O9 0.000000 0.872350 0.500000
O O10 0.716457 0.944333 0.811793
O O11 0.830958 0.886907 0.751604
O O12 0.829277 0.000000 0.737285
O O13 0.000000 0.944279 0.000000
O O14 0.500000 0.063160 0.500000
O O15 0.498581 0.000000 0.313400
O O16 0.250000 0.250000 0.000000
O O17 0.234811 0.163472 0.091954
O O18 0.000000 0.178150 0.000000
#
# Coordination Sequence:
#
# PCOD9201679 Si02
#       7
#     8   8   8   8   8   8   8
#     4  12  23  39  63  85 122 159 199 247 299 359
#     4  11  20  39  57  85 119 152 196 240 301 351
#     4  11  26  41  56  83 118 165 206 243 288 353
#     4   9  17  32  52  81 118 148 180 229 292 353
#     4  10  20  37  63  93 121 151 193 247 305 360
#     4  12  23  39  58  84 119 158 203 244 291 352
#     4  11  22  33  57  87 117 151 191 243 294 352
#
# _framework density 20.904159
#
# number of rings (size 3 to 8) (size 9 to 14) (size 15 to 20)
#    0.000    1.143    4.286    3.000    4.000    0.000 
#    0.000    0.000    0.000    3.000    0.000    0.000 
#    0.000    0.000    0.000    0.000    0.000    0.000 
#
# Total GULP energy -156138.818706 kJ/mol
# GULP energy per Si atom -5576.386382 kJ/mol
# Density = 2.085658 g / cm^3
# Si number density = 20.904159 Si / 1000 Ang^3
#
#
#
# Elastic Constant Matrix: (Units=GPa)
#
#
# Indices 1 2 3 4 5 6 
#
# 1 95.8430 16.8076 38.9677 0.0000 30.3517 0.0000
# 2 16.8076 85.9348 12.4308 0.0000 11.1323 0.0000
# 3 38.9677 12.4308 96.3868 0.0000 23.6145 0.0000
# 4 0.0000 0.0000 0.0000 16.9559 0.0000 -0.1382
# 5 30.3517 11.1323 23.6145 0.0000 36.4343 0.0000
# 6 0.0000 0.0000 0.0000 -0.1382 0.0000 21.3807
#
#
#
# Elastic Compliance Matrix: (Units=1/GPa)
#
#
# Indices 1 2 3 4 5 6 
#
# 1 0.015271 -0.001169 -0.003559 0.000000 -0.010057 0.000000
# 2 -0.001169 0.012255 -0.000510 0.000000 -0.002440 0.000000
# 3 -0.003559 -0.000510 0.013213 0.000000 -0.005443 0.000000
# 4 0.000000 0.000000 0.000000 0.058980 0.000000 0.000381
# 5 -0.010057 -0.002440 -0.005443 0.000000 0.040099 0.000000
# 6 0.000000 0.000000 0.000000 0.000381 0.000000 0.046774
#
#
# Mechanical properties :
#
#
# Convention : Reuss Voigt Hill
#
# Bulk Modulus (GPa) = 33.04371 46.06407 39.55389
# Shear Modulus (GPa) = 24.13657 28.95143 26.54400
#
# Velocity S-wave (km/s) = 3.40167 3.72554 3.56728
# Velocity P-wave (km/s) = 5.59196 6.37102 5.99416
#
# Compressibility (1/GPa) = 0.03026295
#
# Stress axis : x y z
#
# Youngs Moduli (GPa) = 65.48476 81.59760 75.68282
#
# Poissons Ratio (x) = 0.09539 0.26935
# Poissons Ratio (y) = 0.07655 0.03861
# Poissons Ratio (z) = 0.23305 0.04162
#
# Static dielectric constant tensor:
#      x y z
#    x 1.812900 0.000000 0.044610 
#    y 0.000000 1.791440 0.000000 
#    z 0.044610 0.000000 1.761760 
# 
# From -- ./inp_files/149504.got.cif
#   From: 2010.05.17/outbox.cif.g08.bks.cpg/sg12_75_cif.got.tgz:149504.got - 2010.06.03 13:09:07.
