data_PCOD9201559
_publ_section_title
;
Structure prediction by ZEFSAII (Michael W. Deem and Ramdas Pophale) SiO2 
 PCOD9201559
Probable space group: C 2/M
;
_chemical_formula_sum "Si O2"
_cell_formula_units_Z 40
_cell_length_a 13.966538
_cell_length_b 14.809460
_cell_length_c 17.493780
_cell_angle_alpha 90.000000
_cell_angle_beta 26.568756
_cell_angle_gamma 90.000000
_cell_volume 1618.388592
_symmetry_space_group_name_H-M "C 2/M"
_symmetry_group_IT_number 12
_symmetry_cell_setting 'monoclinic'
loop_
_space_group_symop_operation_xyz
x,y,z
-x,y,-z
-x,-y,-z
x,-y,z
1/2+x,1/2+y,z
1/2-x,1/2+y,-z
1/2-x,1/2-y,-z
1/2+x,1/2-y,z
loop_
_atom_site_type_symbol
_atom_site_label
_atom_site_fract_x
_atom_site_fract_y
_atom_site_fract_z
Si Si1 0.495152 0.603579 0.911862
Si Si2 0.628677 0.224720 0.337913
Si Si3 0.068686 0.393161 0.137963
Si Si4 0.805743 0.104665 0.817140
Si Si5 0.787663 0.644942 0.478344
O O1 0.528691 0.500000 0.861870
O O2 0.677159 0.672970 0.760746
O O3 0.500000 0.601981 0.000000
O O4 0.270031 0.640802 0.043499
O O5 0.500000 0.264904 0.500000
O O6 0.694745 0.310203 0.239661
O O7 0.488991 0.146483 0.393298
O O8 0.089705 0.500000 0.120753
O O9 0.863172 0.379575 0.338447
O O10 0.131607 0.369342 0.006435
O O11 0.057635 0.103235 0.664975
O O12 0.763951 0.000000 0.820659
O O13 0.750000 0.750000 0.500000
#
# Coordination Sequence:
#
# PCOD9201559 Si02
#       5
#     8   8   8   8   8
#     4  10  20  37  62  92 124 158 195 254 324 373
#     4  11  23  39  59  93 129 164 207 257 314 372
#     4  10  20  39  66  92 121 160 206 257 315 372
#     4  10  23  42  64  91 125 169 215 257 301 363
#     4  10  21  37  60  91 120 159 202 255 312 361
#
# _framework density 24.715944
#
# number of rings (size 3 to 8) (size 9 to 14) (size 15 to 20)
#    0.000    1.800    2.000    1.800    0.000    4.800 
#    7.200    0.000    0.000    0.600    0.000    0.000 
#    0.000    0.000    0.000    0.000    0.000    0.000 
#
# Total GULP energy -111587.386102 kJ/mol
# GULP energy per Si atom -5579.369305 kJ/mol
# Density = 2.465969 g / cm^3
# Si number density = 24.715944 Si / 1000 Ang^3
#
#
#
# Elastic Constant Matrix: (Units=GPa)
#
#
# Indices 1 2 3 4 5 6 
#
# 1 38.0204 14.3667 42.7825 -0.0060 4.2213 0.0083
# 2 14.3667 76.2852 -5.1229 -0.0691 10.6666 0.0456
# 3 42.7825 -5.1229 83.3931 -0.0641 19.4590 0.0602
# 4 -0.0060 -0.0691 -0.0641 41.9233 0.0108 -2.0444
# 5 4.2213 10.6666 19.4590 0.0108 51.0994 -0.0220
# 6 0.0083 0.0456 0.0602 -2.0444 -0.0220 -16.4484
#
#
#
# Elastic Compliance Matrix: (Units=1/GPa)
#
#
# Indices 1 2 3 4 5 6 
#
# 1 0.093578 -0.023684 -0.053572 -0.000123 0.017614 -0.000223
# 2 -0.023684 0.019703 0.015216 0.000059 -0.007950 0.000102
# 3 -0.053572 0.015216 0.044031 0.000098 -0.015518 0.000185
# 4 -0.000123 0.000059 0.000098 0.023710 -0.000046 -0.002946
# 5 0.017614 -0.007950 -0.015518 -0.000046 0.025683 -0.000099
# 6 -0.000223 0.000102 0.000185 -0.002946 -0.000099 -0.060429
#
#
# Mechanical properties :
#
#
# Convention : Reuss Voigt Hill
#
# Bulk Modulus (GPa) = 30.09305 33.52792 31.81048
# Shear Modulus (GPa) = 17.76622 25.02634 21.39628
#
# Velocity S-wave (km/s) = 2.68398 3.18552 2.94545
# Velocity P-wave (km/s) = 4.66980 5.20815 4.94630
#
# Compressibility (1/GPa) = 0.03323027
#
# Stress axis : x y z
#
# Youngs Moduli (GPa) = 10.68630 50.75491 22.71137
#
# Poissons Ratio (x) = 1.20207 1.21670
# Poissons Ratio (y) = 0.25309 -0.34557
# Poissons Ratio (z) = 0.57249 -0.77228
#
# Static dielectric constant tensor:
#      x y z
#    x 1.768670 -0.000030 -0.466800 
#    y -0.000030 1.906110 0.000010 
#    z -0.466800 0.000010 1.638360 
# 
# From -- ./inp_files/270801.got.cif
#   From: 2010.05.17/outbox.cif.g08.bks.cpg/sg12_136_cif.got.tgz:270801.got - 2010.06.03 13:09:07.
