data_PCOD9201910
_publ_section_title
;
Structure prediction by ZEFSAII (Michael W. Deem and Ramdas Pophale) SiO2 
 PCOD9201910
Probable space group: C 2/M
;
_chemical_formula_sum "Si O2"
_cell_formula_units_Z 42
_cell_length_a 22.924793
_cell_length_b 10.961686
_cell_length_c 8.859708
_cell_angle_alpha 90.000000
_cell_angle_beta 71.919516
_cell_angle_gamma 90.000000
_cell_volume 2116.458810
_symmetry_space_group_name_H-M "C 2/M"
_symmetry_group_IT_number 12
_symmetry_cell_setting 'monoclinic'
loop_
_space_group_symop_operation_xyz
x,y,z
-x,y,-z
-x,-y,-z
x,-y,z
1/2+x,1/2+y,z
1/2-x,1/2+y,-z
1/2-x,1/2-y,-z
1/2+x,1/2-y,z
loop_
_atom_site_type_symbol
_atom_site_label
_atom_site_fract_x
_atom_site_fract_y
_atom_site_fract_z
Si Si1 0.810665 0.639476 0.172572
Si Si2 0.500000 0.500000 0.000000
Si Si3 0.671496 0.362333 0.284818
Si Si4 0.493829 0.858356 0.333431
Si Si5 0.851761 0.359964 0.467787
Si Si6 0.088199 0.799783 0.072081
O O1 0.830054 0.500000 0.126727
O O2 0.741261 0.654619 0.171725
O O3 0.809495 0.654438 0.354997
O O4 0.859826 0.729013 0.062108
O O5 0.448889 0.395087 0.997254
O O6 0.668531 0.500000 0.356243
O O7 0.658319 0.248876 0.406441
O O8 0.623550 0.357281 0.186900
O O9 0.500000 0.809419 0.500000
O O10 0.422009 0.851223 0.353513
O O11 0.537525 0.789671 0.184576
O O12 0.512253 0.000000 0.322944
O O13 0.844356 0.500000 0.534069
#
# Coordination Sequence:
#
# PCOD9201910 Si02
#       6
#     8   2   8   8   8   8
#     4  10  23  42  68  96 129 167 220 274 325 388
#     4  12  28  44  60  92 144 168 218 274 314 398
#     4  11  23  43  65  96 131 173 223 269 321 397
#     4  10  20  37  66  96 124 160 215 274 318 390
#     4  10  21  41  65  99 130 163 218 273 327 389
#     4  12  23  44  63  92 130 178 214 268 334 381
#
# _framework density 19.844467999999999
#
# number of rings (size 3 to 8) (size 9 to 14) (size 15 to 20)
#    0.000    1.333    2.857    2.857    0.000    0.762 
#    8.571    5.238    0.000    0.000    0.000    0.000 
#    0.000    0.000    0.000    0.000    0.000    0.000 
#
# Total GULP energy -116986.148844 kJ/mol
# GULP energy per Si atom -5570.768993 kJ/mol
# Density = 1.979930 g / cm^3
# Si number density = 19.844468 Si / 1000 Ang^3
#
#
#
# Elastic Constant Matrix: (Units=GPa)
#
#
# Indices 1 2 3 4 5 6 
#
# 1 99.7442 44.8000 12.7129 0.0000 -7.7646 0.0000
# 2 44.8000 160.2734 65.8337 0.0000 -23.4549 0.0000
# 3 12.7129 65.8337 46.2732 0.0000 -15.8611 0.0000
# 4 0.0000 0.0000 0.0000 -26.2838 0.0000 -11.5865
# 5 -7.7646 -23.4549 -15.8611 0.0000 22.4544 0.0000
# 6 0.0000 0.0000 0.0000 -11.5865 0.0000 30.2467
#
#
#
# Elastic Compliance Matrix: (Units=1/GPa)
#
#
# Indices 1 2 3 4 5 6 
#
# 1 0.011766 -0.004690 0.004164 0.000000 0.002111 0.000000
# 2 -0.004690 0.016893 -0.022765 0.000000 -0.000056 0.000000
# 3 0.004164 -0.022765 0.059637 0.000000 0.019786 0.000000
# 4 0.000000 0.000000 0.000000 -0.032550 0.000000 -0.012469
# 5 0.002111 -0.000056 0.019786 0.000000 0.059182 0.000000
# 6 0.000000 0.000000 0.000000 -0.012469 0.000000 0.028285
#
#
# Mechanical properties :
#
#
# Convention : Reuss Voigt Hill
#
# Bulk Modulus (GPa) = 23.97308 61.44267 42.70788
# Shear Modulus (GPa) = 24.54603 17.47975 21.01289
#
# Velocity S-wave (km/s) = 3.52080 2.97111 3.25757
# Velocity P-wave (km/s) = 5.35115 6.54212 5.97637
#
# Compressibility (1/GPa) = 0.04171346
#
# Stress axis : x y z
#
# Youngs Moduli (GPa) = 84.99135 59.19652 16.76825
#
# Poissons Ratio (x) = 0.27765 -0.06982
# Poissons Ratio (y) = 0.39864 0.38172
# Poissons Ratio (z) = -0.35391 1.34758
#
# Static dielectric constant tensor:
#      x y z
#    x 1.716580 0.000000 0.039050 
#    y 0.000000 1.692990 0.000000 
#    z 0.039050 0.000000 1.687520 
# 
# From -- ./inp_files/84007.got.cif
#   From: 2010.05.17/outbox.cif.g08.bks.cpg/sg12_43_cif.got.tgz:84007.got - 2010.06.03 13:09:07.
