data_PCOD9201618
_publ_section_title
;
Structure prediction by ZEFSAII (Michael W. Deem and Ramdas Pophale) SiO2 
 PCOD9201618
Probable space group: C 2/M
;
_chemical_formula_sum "Si O2"
_cell_formula_units_Z 40
_cell_length_a 21.133534
_cell_length_b 14.776103
_cell_length_c 9.644309
_cell_angle_alpha 90.000000
_cell_angle_beta 144.625913
_cell_angle_gamma 90.000000
_cell_volume 1743.476301
_symmetry_space_group_name_H-M "C 2/M"
_symmetry_group_IT_number 12
_symmetry_cell_setting 'monoclinic'
loop_
_space_group_symop_operation_xyz
x,y,z
-x,y,-z
-x,-y,-z
x,-y,z
1/2+x,1/2+y,z
1/2-x,1/2+y,-z
1/2-x,1/2-y,-z
1/2+x,1/2-y,z
loop_
_atom_site_type_symbol
_atom_site_label
_atom_site_fract_x
_atom_site_fract_y
_atom_site_fract_z
Si Si1 0.812459 0.894319 0.948711
Si Si2 0.700336 0.759791 0.562166
Si Si3 0.041911 0.897195 0.233852
Si Si4 0.007358 0.607691 0.172409
Si Si5 0.389260 0.108283 0.222310
O O1 0.790802 0.806403 0.816504
O O2 0.730758 0.872601 0.930951
O O3 0.782354 0.000000 0.852046
O O4 0.943474 0.897474 0.169983
O O5 0.750000 0.750000 0.500000
O O6 0.635049 0.666906 0.461926
O O7 0.609573 0.838416 0.411332
O O8 0.082492 0.000000 0.289142
O O9 0.000000 0.871349 0.000000
O O10 0.025451 0.500000 0.210453
O O11 0.905973 0.629792 0.090322
O O12 0.000000 0.634387 0.000000
O O13 0.500000 0.143530 0.500000
O O14 0.397914 0.000000 0.248595
#
# Coordination Sequence:
#
# PCOD9201618 Si02
#       5
#     8   8   8   8   8
#     4  10  20  37  63  89 116 157 205 251 298 361
#     4  12  22  33  58  85 120 153 203 250 299 350
#     4  10  21  37  55  82 120 162 206 247 295 358
#     4  10  21  36  58  89 122 148 186 251 313 357
#     4   9  16  32  59  88 115 151 199 245 297 363
#
# _framework density 22.942668000000001
#
# number of rings (size 3 to 8) (size 9 to 14) (size 15 to 20)
#    0.000    1.800    4.000    1.200    0.000    0.800 
#    0.000    1.000    4.400    0.000    0.000    2.800 
#    0.000    0.000    0.000    0.000    0.000    0.000 
#
# Total GULP energy -111339.819834 kJ/mol
# GULP energy per Si atom -5566.990992 kJ/mol
# Density = 2.289045 g / cm^3
# Si number density = 22.942668 Si / 1000 Ang^3
#
#
#
# Elastic Constant Matrix: (Units=GPa)
#
#
# Indices 1 2 3 4 5 6 
#
# 1 183.8669 14.3596 11.5769 0.0000 30.5196 0.0000
# 2 14.3596 116.4829 47.4763 0.0000 4.2091 0.0000
# 3 11.5769 47.4763 19.1846 0.0000 20.7320 0.0000
# 4 0.0000 0.0000 0.0000 170.2664 0.0000 -271.2840
# 5 30.5196 4.2091 20.7320 0.0000 27.3603 0.0000
# 6 0.0000 0.0000 0.0000 -271.2840 0.0000 643.9896
#
#
#
# Elastic Compliance Matrix: (Units=1/GPa)
#
#
# Indices 1 2 3 4 5 6 
#
# 1 0.006014 0.002103 -0.006812 0.000000 -0.001870 0.000000
# 2 0.002103 -0.001494 0.026029 0.000000 -0.021839 0.000000
# 3 -0.006812 0.026029 -0.066594 0.000000 0.054056 0.000000
# 4 0.000000 0.000000 0.000000 0.017861 0.000000 0.007524
# 5 -0.001870 -0.021839 0.054056 0.000000 0.001034 0.000000
# 6 0.000000 0.000000 0.000000 0.007524 0.000000 0.004722
#
#
# Mechanical properties :
#
#
# Convention : Reuss Voigt Hill
#
# Bulk Modulus (GPa) = -51.45256 51.81778 0.18261
# Shear Modulus (GPa) = -57.09508 184.73136 63.81814
#
# Velocity S-wave (km/s) = -4.99400 8.98296 5.27984
# Velocity P-wave (km/s) = 7.46516 11.41167 6.10318
#
# Compressibility (1/GPa) = -0.01943538
#
# Stress axis : x y z
#
# Youngs Moduli (GPa) = 166.28528 -669.32205 -15.01640
#
# Poissons Ratio (x) = 1.40745 -0.10230
# Poissons Ratio (y) = -0.34967 0.39086
# Poissons Ratio (z) = 1.13280 17.42175
#
# Static dielectric constant tensor:
#      x y z
#    x 1.941350 0.000000 -0.093080 
#    y 0.000000 1.863870 0.000000 
#    z -0.093080 0.000000 1.939660 
# 
# From -- ./inp_files/176541.got.cif
#   From: 2010.05.17/outbox.cif.g08.bks.cpg/sg12_89_cif.got.tgz:176541.got - 2010.06.03 13:09:07.
