data_PCOD9201204
_publ_section_title
;
Structure prediction by ZEFSAII (Michael W. Deem and Ramdas Pophale) SiO2 
 PCOD9201204
Probable space group: C 2/M
;
_chemical_formula_sum "Si O2"
_cell_formula_units_Z 56
_cell_length_a 9.610904
_cell_length_b 18.418558
_cell_length_c 27.345500
_cell_angle_alpha 90.000000
_cell_angle_beta 140.256916
_cell_angle_gamma 90.000000
_cell_volume 3094.865768
_symmetry_space_group_name_H-M "C 2/M"
_symmetry_group_IT_number 12
_symmetry_cell_setting 'monoclinic'
loop_
_space_group_symop_operation_xyz
x,y,z
-x,y,-z
-x,-y,-z
x,-y,z
1/2+x,1/2+y,z
1/2-x,1/2+y,-z
1/2-x,1/2-y,-z
1/2+x,1/2-y,z
loop_
_atom_site_type_symbol
_atom_site_label
_atom_site_fract_x
_atom_site_fract_y
_atom_site_fract_z
Si Si1 0.752821 0.588303 0.428464
Si Si2 0.750005 0.782584 0.946518
Si Si3 0.603267 0.294829 0.216547
Si Si4 0.011928 0.584424 0.841936
Si Si5 0.083620 0.912705 0.577164
Si Si6 0.024881 0.667320 0.267161
Si Si7 0.990197 0.085639 0.261786
O O1 0.757804 0.500000 0.429238
O O2 0.600206 0.608072 0.432793
O O3 0.641894 0.610680 0.347735
O O4 0.000000 0.614398 0.500000
O O5 0.598337 0.733620 0.870421
O O6 0.650820 0.862909 0.913829
O O7 0.750000 0.750000 0.000000
O O8 0.000000 0.784175 0.000000
O O9 0.814480 0.305103 0.239825
O O10 0.632180 0.233973 0.266375
O O11 0.542019 0.368340 0.227992
O O12 0.065840 0.500000 0.861315
O O13 0.040123 0.611244 0.793663
O O14 0.758557 0.594641 0.787855
O O15 0.302784 0.871022 0.650784
O O16 0.000000 0.897611 0.500000
O O17 0.119549 0.000000 0.590900
O O18 0.027281 0.000000 0.263652
#
# Coordination Sequence:
#
# PCOD9201204 Si02
#       7
#     8   8   8   8   8   8   8
#     4   9  18  33  56  85 118 158 196 238 291 346
#     4  11  22  40  63  87 117 154 195 242 303 367
#     4  11  24  40  61  88 117 157 203 247 298 366
#     4  10  20  38  63  90 120 157 199 243 297 357
#     4  10  21  37  59  89 123 158 200 249 299 347
#     4  11  22  39  60  85 120 163 205 248 295 350
#     4  10  20  37  61  88 120 158 201 246 294 353
#
# _framework density 18.094484000000001
#
# number of rings (size 3 to 8) (size 9 to 14) (size 15 to 20)
#    0.000    1.714    1.429    4.714    2.000    1.429 
#    0.000    2.143    0.000    2.571    0.000    0.000 
#    0.000    0.000    0.000    0.000    0.000    0.000 
#
# Total GULP energy -156351.259141 kJ/mol
# GULP energy per Si atom -5583.973541 kJ/mol
# Density = 1.805330 g / cm^3
# Si number density = 18.094484 Si / 1000 Ang^3
#
#
#
# Elastic Constant Matrix: (Units=GPa)
#
#
# Indices 1 2 3 4 5 6 
#
# 1 88.9593 66.4675 49.8927 0.0001 2.7379 0.0001
# 2 66.4675 94.5777 68.5147 0.0000 -3.2203 0.0000
# 3 49.8927 68.5147 132.0590 0.0000 5.1372 0.0001
# 4 0.0001 0.0000 0.0000 31.8801 0.0000 2.4225
# 5 2.7379 -3.2203 5.1372 0.0000 31.3538 0.0000
# 6 0.0001 0.0000 0.0001 2.4225 0.0000 21.8930
#
#
#
# Elastic Compliance Matrix: (Units=1/GPa)
#
#
# Indices 1 2 3 4 5 6 
#
# 1 0.024130 -0.016970 -0.000163 0.000000 -0.003823 0.000000
# 2 -0.016970 0.029200 -0.008970 0.000000 0.005951 0.000000
# 3 -0.000163 -0.008970 0.012402 0.000000 -0.002939 0.000000
# 4 0.000000 0.000000 0.000000 0.031633 0.000000 -0.003500
# 5 -0.003823 0.005951 -0.002939 0.000000 0.033321 0.000000
# 6 0.000000 0.000000 0.000000 -0.003500 0.000000 0.046064
#
#
# Mechanical properties :
#
#
# Convention : Reuss Voigt Hill
#
# Bulk Modulus (GPa) = 73.93154 76.14953 75.04054
# Shear Modulus (GPa) = 21.41664 25.74012 23.57838
#
# Velocity S-wave (km/s) = 3.44408 3.77575 3.61372
# Velocity P-wave (km/s) = 7.53412 7.82203 7.67942
#
# Compressibility (1/GPa) = 0.01352603
#
# Stress axis : x y z
#
# Youngs Moduli (GPa) = 41.44302 34.24696 80.63180
#
# Poissons Ratio (x) = 0.58116 0.01318
# Poissons Ratio (y) = 0.70327 0.72324
# Poissons Ratio (z) = 0.00677 0.30718
#
# Static dielectric constant tensor:
#      x y z
#    x 1.594680 0.000000 -0.004420 
#    y 0.000000 1.630390 0.000000 
#    z -0.004420 0.000000 1.602800 
# 
# From -- ./inp_files/256994.got.cif
#   From: 2010.05.17/outbox.cif.g08.bks.cpg/sg12_129_cif.got.tgz:256994.got - 2010.06.03 13:09:07.
