data_PCOD9201853
_publ_section_title
;
Structure prediction by ZEFSAII (Michael W. Deem and Ramdas Pophale) SiO2 
 PCOD9201853
Probable space group: C 2/M
;
_chemical_formula_sum "Si O2"
_cell_formula_units_Z 50
_cell_length_a 16.680123
_cell_length_b 15.189730
_cell_length_c 11.259748
_cell_angle_alpha 90.000000
_cell_angle_beta 53.259254
_cell_angle_gamma 90.000000
_cell_volume 2286.127529
_symmetry_space_group_name_H-M "C 2/M"
_symmetry_group_IT_number 12
_symmetry_cell_setting 'monoclinic'
loop_
_space_group_symop_operation_xyz
x,y,z
-x,y,-z
-x,-y,-z
x,-y,z
1/2+x,1/2+y,z
1/2-x,1/2+y,-z
1/2-x,1/2-y,-z
1/2+x,1/2-y,z
loop_
_atom_site_type_symbol
_atom_site_label
_atom_site_fract_x
_atom_site_fract_y
_atom_site_fract_z
Si Si1 0.115658 0.301141 0.908243
Si Si2 0.924543 0.768475 0.801391
Si Si3 0.000000 0.000000 0.500000
Si Si4 0.742937 0.818981 0.366646
Si Si5 0.380240 0.649632 0.449082
Si Si6 0.860279 0.596207 0.762745
Si Si7 0.731025 0.593985 0.118401
O O1 0.165096 0.238853 0.767575
O O2 0.181751 0.388387 0.865057
O O3 0.119440 0.249402 0.029828
O O4 0.000000 0.322968 0.000000
O O5 0.935715 0.674670 0.727896
O O6 0.842456 0.824976 0.805476
O O7 0.023031 0.825888 0.715372
O O8 0.926307 0.921579 0.500441
O O9 0.659500 0.743807 0.465632
O O10 0.787679 0.870858 0.440976
O O11 0.699519 0.881146 0.303115
O O12 0.907380 0.500000 0.714664
O O13 0.782637 0.595097 0.942994
O O14 0.678337 0.500000 0.181141
#
# Coordination Sequence:
#
# PCOD9201853 Si02
#       7
#     8   8   2   8   8   8   8
#     4  11  20  38  66  88 126 169 214 260 328 378
#     4  11  20  40  64  98 125 169 207 269 318 395
#     4  12  28  48  64 102 128 182 220 278 326 418
#     4  11  22  45  62  93 127 178 208 272 322 394
#     4  11  27  41  68  90 134 167 223 258 336 391
#     4  10  20  37  65  91 124 161 215 261 320 381
#     4  10  21  35  61  98 129 165 207 264 327 388
#
# _framework density 21.871044999999999
#
# number of rings (size 3 to 8) (size 9 to 14) (size 15 to 20)
#    0.000    1.280    4.800    1.920    2.240    0.320 
#    0.000    1.600    1.760    3.840    0.000    0.000 
#    0.000    0.000    0.000    0.000    0.000    0.000 
#
# Total GULP energy -139213.592125 kJ/mol
# GULP energy per Si atom -5568.543685 kJ/mol
# Density = 2.182127 g / cm^3
# Si number density = 21.871045 Si / 1000 Ang^3
#
#
#
# Elastic Constant Matrix: (Units=GPa)
#
#
# Indices 1 2 3 4 5 6 
#
# 1 79.9079 32.2725 1.0135 0.0000 10.8805 0.0000
# 2 32.2725 104.1653 2.9035 0.0000 5.4040 0.0000
# 3 1.0135 2.9035 39.6336 0.0000 7.8163 0.0000
# 4 0.0000 0.0000 0.0000 -23.2350 0.0000 4.3598
# 5 10.8805 5.4040 7.8163 0.0000 34.5011 0.0000
# 6 0.0000 0.0000 0.0000 4.3598 0.0000 25.4327
#
#
#
# Elastic Compliance Matrix: (Units=1/GPa)
#
#
# Indices 1 2 3 4 5 6 
#
# 1 0.014852 -0.004407 0.000765 0.000000 -0.004167 0.000000
# 2 -0.004407 0.010993 -0.000656 0.000000 -0.000183 0.000000
# 3 0.000765 -0.000656 0.026470 0.000000 -0.006135 0.000000
# 4 0.000000 0.000000 0.000000 -0.041697 0.000000 0.007148
# 5 -0.004167 -0.000183 -0.006135 0.000000 0.031717 0.000000
# 6 0.000000 0.000000 0.000000 0.007148 0.000000 0.038094
#
#
# Mechanical properties :
#
#
# Convention : Reuss Voigt Hill
#
# Bulk Modulus (GPa) = 22.87382 32.89843 27.88612
# Shear Modulus (GPa) = 48.26357 19.84092 34.05224
#
# Velocity S-wave (km/s) = 4.70268 3.01521 3.95011
# Velocity P-wave (km/s) = 6.32204 5.21504 5.79503
#
# Compressibility (1/GPa) = 0.04371811
#
# Stress axis : x y z
#
# Youngs Moduli (GPa) = 67.33221 90.96563 37.77917
#
# Poissons Ratio (x) = 0.40084 -0.02889
# Poissons Ratio (y) = 0.29670 0.02480
# Poissons Ratio (z) = -0.05149 0.05972
#
# Static dielectric constant tensor:
#      x y z
#    x 1.836800 0.000000 0.016820 
#    y 0.000000 1.815160 0.000000 
#    z 0.016820 0.000000 1.843580 
# 
# From -- ./inp_files/155910.got.cif
#   From: 2010.05.17/outbox.cif.g08.bks.cpg/sg12_78_cif.got.tgz:155910.got - 2010.06.03 13:09:07.
