data_PCOD9201007
_publ_section_title
;
Structure prediction by ZEFSAII (Michael W. Deem and Ramdas Pophale) SiO2 
 PCOD9201007
Probable space group: C 2/M
;
_chemical_formula_sum "Si O2"
_cell_formula_units_Z 48
_cell_length_a 8.804547
_cell_length_b 19.029794
_cell_length_c 13.725986
_cell_angle_alpha 90.000000
_cell_angle_beta 79.148511
_cell_angle_gamma 90.000000
_cell_volume 2258.647881
_symmetry_space_group_name_H-M "C 2/M"
_symmetry_group_IT_number 12
_symmetry_cell_setting 'monoclinic'
loop_
_space_group_symop_operation_xyz
x,y,z
-x,y,-z
-x,-y,-z
x,-y,z
1/2+x,1/2+y,z
1/2-x,1/2+y,-z
1/2-x,1/2-y,-z
1/2+x,1/2-y,z
loop_
_atom_site_type_symbol
_atom_site_label
_atom_site_fract_x
_atom_site_fract_y
_atom_site_fract_z
Si Si1 0.722007 0.829796 0.858803
Si Si2 0.130988 0.420863 0.690185
Si Si3 0.872007 0.698931 0.436167
Si Si4 0.934578 0.788435 0.240923
Si Si5 0.185645 0.919362 0.979099
Si Si6 0.734164 0.922165 0.257513
O O1 0.659393 0.888892 0.792939
O O2 0.633462 0.758298 0.840069
O O3 0.726014 0.862308 0.965903
O O4 0.899218 0.815958 0.809081
O O5 0.186209 0.500000 0.677677
O O6 0.204522 0.370077 0.600956
O O7 0.946117 0.418921 0.694883
O O8 0.750000 0.750000 0.500000
O O9 0.944473 0.738379 0.333671
O O10 0.000000 0.680969 0.500000
O O11 0.826751 0.854323 0.281635
O O12 0.205452 0.000000 0.014200
O O13 0.247158 0.918109 0.861867
O O14 0.000000 0.905796 0.000000
O O15 0.793464 0.000000 0.279946
#
# Coordination Sequence:
#
# PCOD9201007 Si02
#       6
#     8   8   8   8   8   8
#     4  11  22  38  60  86 124 163 201 250 290 352
#     4  10  22  40  63  91 119 155 200 248 302 356
#     4  11  22  40  63  86 117 153 193 248 306 368
#     4  11  22  39  60  87 118 159 201 245 310 357
#     4  10  20  37  60  89 122 163 206 242 291 347
#     4  10  21  39  62  89 123 160 202 247 295 352
#
# _framework density 21.251652
#
# number of rings (size 3 to 8) (size 9 to 14) (size 15 to 20)
#    0.000    1.500    1.667    5.500    0.000    2.333 
#    0.000    3.333    0.000    2.000    0.000    0.000 
#    0.000    0.000    0.000    0.000    0.000    0.000 
#
# Total GULP energy -134161.162381 kJ/mol
# GULP energy per Si atom -5590.048433 kJ/mol
# Density = 2.120328 g / cm^3
# Si number density = 21.251652 Si / 1000 Ang^3
#
#
#
# Elastic Constant Matrix: (Units=GPa)
#
#
# Indices 1 2 3 4 5 6 
#
# 1 26.5471 3.1908 -11.9788 0.0000 4.3576 0.0000
# 2 3.1908 129.7283 10.0757 0.0000 12.3635 0.0000
# 3 -11.9788 10.0757 41.3380 0.0000 5.7158 0.0000
# 4 0.0000 0.0000 0.0000 26.1982 0.0000 -0.3594
# 5 4.3576 12.3635 5.7158 0.0000 29.1103 0.0000
# 6 0.0000 0.0000 0.0000 -0.3594 0.0000 25.4546
#
#
#
# Elastic Compliance Matrix: (Units=1/GPa)
#
#
# Indices 1 2 3 4 5 6 
#
# 1 0.046120 -0.001417 0.014988 0.000000 -0.009245 0.000000
# 2 -0.001417 0.008172 -0.002007 0.000000 -0.002865 0.000000
# 3 0.014988 -0.002007 0.030031 0.000000 -0.007288 0.000000
# 4 0.000000 0.000000 0.000000 0.038178 0.000000 0.000539
# 5 -0.009245 -0.002865 -0.007288 0.000000 0.038384 0.000000
# 6 0.000000 0.000000 0.000000 0.000539 0.000000 0.039293
#
#
# Mechanical properties :
#
#
# Convention : Reuss Voigt Hill
#
# Bulk Modulus (GPa) = 9.30653 22.24319 15.77486
# Shear Modulus (GPa) = 23.48895 29.24101 26.36498
#
# Velocity S-wave (km/s) = 3.32818 3.71339 3.52605
# Velocity P-wave (km/s) = 4.37695 5.37355 4.90065
#
# Compressibility (1/GPa) = 0.10745144
#
# Stress axis : x y z
#
# Youngs Moduli (GPa) = 21.68263 122.36705 33.29914
#
# Poissons Ratio (x) = 0.17344 -0.49910
# Poissons Ratio (y) = 0.03073 0.06682
# Poissons Ratio (z) = -0.32498 0.24553
#
# Static dielectric constant tensor:
#      x y z
#    x 1.145130 0.000000 0.166940 
#    y 0.000000 1.819990 0.000000 
#    z 0.166940 0.000000 1.711040 
# 
# From -- ./inp_files/195963.got.cif
#   From: 2010.05.17/outbox.cif.g08.bks.cpg/sg12_98_cif.got.tgz:195963.got - 2010.06.03 13:09:07.
