data_PCOD9201091
_publ_section_title
;
Structure prediction by ZEFSAII (Michael W. Deem and Ramdas Pophale) SiO2 
 PCOD9201091
Probable space group: C 2/M
;
_chemical_formula_sum "Si O2"
_cell_formula_units_Z 48
_cell_length_a 14.636655
_cell_length_b 18.344578
_cell_length_c 17.906020
_cell_angle_alpha 90.000000
_cell_angle_beta 27.088331
_cell_angle_gamma 90.000000
_cell_volume 2189.308353
_symmetry_space_group_name_H-M "C 2/M"
_symmetry_group_IT_number 12
_symmetry_cell_setting 'monoclinic'
loop_
_space_group_symop_operation_xyz
x,y,z
-x,y,-z
-x,-y,-z
x,-y,z
1/2+x,1/2+y,z
1/2-x,1/2+y,-z
1/2-x,1/2-y,-z
1/2+x,1/2-y,z
loop_
_atom_site_type_symbol
_atom_site_label
_atom_site_fract_x
_atom_site_fract_y
_atom_site_fract_z
Si Si1 0.279832 0.330392 0.943798
Si Si2 0.237518 0.315482 0.806701
Si Si3 0.231842 0.850201 0.807128
Si Si4 0.905015 0.587074 0.383918
Si Si5 0.353221 0.912848 0.258699
Si Si6 0.339599 0.415148 0.290601
O O1 0.339927 0.326330 0.812300
O O2 0.458621 0.368769 0.856941
O O3 0.250000 0.250000 0.000000
O O4 0.077746 0.378708 0.092718
O O5 0.273094 0.233160 0.754654
O O6 0.269600 0.373119 0.717390
O O7 0.000000 0.319414 0.000000
O O8 0.382113 0.872949 0.763385
O O9 0.269372 0.900760 0.708253
O O10 0.000000 0.857015 0.000000
O O11 0.940663 0.500000 0.358209
O O12 0.791341 0.603245 0.389257
O O13 0.784923 0.606682 0.545786
O O14 0.356010 0.000000 0.244937
O O15 0.388027 0.500000 0.262601
#
# Coordination Sequence:
#
# PCOD9201091 Si02
#       6
#     8   8   8   8   8   8
#     4  11  21  38  61  86 117 151 193 242 289 347
#     4   9  20  36  57  85 115 145 187 244 292 339
#     4  11  21  37  60  86 116 152 196 244 295 351
#     4  10  22  39  57  83 120 155 191 239 294 355
#     4  10  20  37  61  85 112 151 197 242 289 346
#     4  11  23  38  58  86 120 155 190 238 300 354
#
# _framework density 21.924733
#
# number of rings (size 3 to 8) (size 9 to 14) (size 15 to 20)
#    0.000    1.667    0.000    6.500    0.000    7.667 
#    0.000   10.000    0.000    3.000    0.000    0.000 
#    0.000    0.000    0.000    0.000    0.000    0.000 
#
# Total GULP energy -134143.972532 kJ/mol
# GULP energy per Si atom -5589.332189 kJ/mol
# Density = 2.187483 g / cm^3
# Si number density = 21.924733 Si / 1000 Ang^3
#
#
#
# Elastic Constant Matrix: (Units=GPa)
#
#
# Indices 1 2 3 4 5 6 
#
# 1 137.5107 39.8912 27.8332 0.0066 25.2215 -0.0021
# 2 39.8912 58.9121 39.3233 0.0939 19.0432 -0.1237
# 3 27.8332 39.3233 52.3781 0.0263 18.8578 -0.0523
# 4 0.0066 0.0939 0.0263 -0.6612 -0.0388 17.6673
# 5 25.2215 19.0432 18.8578 -0.0388 32.4984 0.0210
# 6 -0.0021 -0.1237 -0.0523 17.6673 0.0210 16.1110
#
#
#
# Elastic Compliance Matrix: (Units=1/GPa)
#
#
# Indices 1 2 3 4 5 6 
#
# 1 0.009559 -0.005409 0.000646 -0.000041 -0.004624 0.000013
# 2 -0.005409 0.038195 -0.024340 0.000346 -0.004059 -0.000161
# 3 0.000646 -0.024340 0.040536 -0.000079 -0.009761 0.000044
# 4 -0.000041 0.000346 -0.000079 -0.049908 -0.000220 0.054732
# 5 -0.004624 -0.004059 -0.009761 -0.000220 0.042402 0.000123
# 6 0.000013 -0.000161 0.000044 0.054732 0.000123 0.002049
#
#
# Mechanical properties :
#
#
# Convention : Reuss Voigt Hill
#
# Bulk Modulus (GPa) = 33.23947 51.43293 42.33620
# Shear Modulus (GPa) = 33.09807 19.03983 26.06895
#
# Velocity S-wave (km/s) = 3.88960 2.95009 3.45196
# Velocity P-wave (km/s) = 5.94690 5.92569 5.93631
#
# Compressibility (1/GPa) = 0.03008471
#
# Stress axis : x y z
#
# Youngs Moduli (GPa) = 104.61830 26.18141 24.66928
#
# Poissons Ratio (x) = 0.14162 -0.01595
# Poissons Ratio (y) = 0.56589 0.60045
# Poissons Ratio (z) = -0.06762 0.63725
#
# Static dielectric constant tensor:
#      x y z
#    x 1.841100 0.000000 0.019300 
#    y 0.000000 1.745460 0.000020 
#    z 0.019300 0.000020 1.839270 
# 
# From -- ./inp_files/105061.got.cif
#   From: 2010.05.17/outbox.cif.g08.bks.cpg/sg12_53_cif.got.tgz:105061.got - 2010.06.03 13:09:07.
