data_PCOD9201866
_publ_section_title
;
Structure prediction by ZEFSAII (Michael W. Deem and Ramdas Pophale) SiO2 
 PCOD9201866
Probable space group: C 2/M
;
_chemical_formula_sum "Si O2"
_cell_formula_units_Z 48
_cell_length_a 11.902315
_cell_length_b 18.901518
_cell_length_c 10.648846
_cell_angle_alpha 90.000000
_cell_angle_beta 69.594329
_cell_angle_gamma 90.000000
_cell_volume 2245.354686
_symmetry_space_group_name_H-M "C 2/M"
_symmetry_group_IT_number 12
_symmetry_cell_setting 'monoclinic'
loop_
_space_group_symop_operation_xyz
x,y,z
-x,y,-z
-x,-y,-z
x,-y,z
1/2+x,1/2+y,z
1/2-x,1/2+y,-z
1/2-x,1/2-y,-z
1/2+x,1/2-y,z
loop_
_atom_site_type_symbol
_atom_site_label
_atom_site_fract_x
_atom_site_fract_y
_atom_site_fract_z
Si Si1 0.124057 0.715055 0.386952
Si Si2 0.232816 0.665843 0.989401
Si Si3 0.856683 0.860559 0.196754
Si Si4 0.997564 0.717917 0.829000
Si Si5 0.460095 0.500000 0.290368
Si Si6 0.325748 0.500000 0.608933
Si Si7 0.251059 0.851006 0.304797
O O1 0.242515 0.665553 0.327614
O O2 0.167715 0.793760 0.409274
O O3 0.000000 0.690987 0.500000
O O4 0.082784 0.728164 0.261448
O O5 0.299666 0.628683 0.079623
O O6 0.088375 0.667332 0.054855
O O7 0.250000 0.750000 0.000000
O O8 0.275031 0.644459 0.834927
O O9 0.950201 0.794548 0.149724
O O10 0.920337 0.929751 0.229093
O O11 0.116186 0.678319 0.741053
O O12 0.395068 0.500000 0.450681
O O13 0.595033 0.500000 0.293082
O O14 0.254635 0.427764 0.637138
#
# Coordination Sequence:
#
# PCOD9201866 Si02
#       7
#     8   8   8   8   4   4   8
#     4  10  22  36  62  96 125 159 222 268 309 374
#     4  11  20  40  65  99 130 155 215 272 314 380
#     4  10  23  40  66  94 125 173 209 261 321 375
#     4  10  20  37  65  95 124 165 207 270 322 360
#     4  11  26  47  63  86 134 175 214 258 318 379
#     4  11  28  45  61  91 134 172 215 260 310 392
#     4  11  23  39  64  95 128 171 209 257 328 376
#
# _framework density 21.377468
#
# number of rings (size 3 to 8) (size 9 to 14) (size 15 to 20)
#    0.000    1.500    5.000    1.500    7.000    2.000 
#    0.000    6.250    0.000    0.000    0.000    0.000 
#    0.000    0.000    0.000    0.000    0.000    0.000 
#
# Total GULP energy -133781.353153 kJ/mol
# GULP energy per Si atom -5574.223048 kJ/mol
# Density = 2.132881 g / cm^3
# Si number density = 21.377468 Si / 1000 Ang^3
#
#
#
# Elastic Constant Matrix: (Units=GPa)
#
#
# Indices 1 2 3 4 5 6 
#
# 1 88.0503 26.3148 9.9221 0.0000 17.5083 0.0000
# 2 26.3148 104.3343 -1.5730 0.0000 -0.1632 0.0000
# 3 9.9221 -1.5730 50.7723 0.0000 -3.3801 0.0000
# 4 0.0000 0.0000 0.0000 16.2686 0.0000 17.3004
# 5 17.5083 -0.1632 -3.3801 0.0000 35.3125 0.0000
# 6 0.0000 0.0000 0.0000 17.3004 0.0000 -23.6487
#
#
#
# Elastic Compliance Matrix: (Units=1/GPa)
#
#
# Indices 1 2 3 4 5 6 
#
# 1 0.014319 -0.003675 -0.003408 0.000000 -0.007443 0.000000
# 2 -0.003675 0.010532 0.001176 0.000000 0.001983 0.000000
# 3 -0.003408 0.001176 0.020643 0.000000 0.003671 0.000000
# 4 0.000000 0.000000 0.000000 0.034572 0.000000 0.025292
# 5 -0.007443 0.001983 0.003671 0.000000 0.032369 0.000000
# 6 0.000000 0.000000 0.000000 0.025292 0.000000 -0.023783
#
#
# Mechanical properties :
#
#
# Convention : Reuss Voigt Hill
#
# Bulk Modulus (GPa) = 29.68908 34.72052 32.20480
# Shear Modulus (GPa) = 44.76613 19.48602 32.12608
#
# Velocity S-wave (km/s) = 4.58108 3.02242 3.88080
# Velocity P-wave (km/s) = 6.47301 5.33450 5.93114
#
# Compressibility (1/GPa) = 0.03368241
#
# Stress axis : x y z
#
# Youngs Moduli (GPa) = 69.83581 94.94687 48.44362
#
# Poissons Ratio (x) = 0.34889 0.16508
# Poissons Ratio (y) = 0.25662 -0.05699
# Poissons Ratio (z) = 0.23798 -0.11170
#
# Static dielectric constant tensor:
#      x y z
#    x 1.542490 0.000000 0.517080 
#    y 0.000000 1.736810 0.000000 
#    z 0.517080 0.000000 1.032110 
# 
# From -- ./inp_files/131701.got.cif
#   From: 2010.05.17/outbox.cif.g08.bks.cpg/sg12_66_cif.got.tgz:131701.got - 2010.06.03 13:09:07.
