data_PCOD9201890
_publ_section_title
;
Structure prediction by ZEFSAII (Michael W. Deem and Ramdas Pophale) SiO2 
 PCOD9201890
Probable space group: C 2/M
;
_chemical_formula_sum "Si O2"
_cell_formula_units_Z 56
_cell_length_a 11.634559
_cell_length_b 32.873846
_cell_length_c 14.583113
_cell_angle_alpha 90.000000
_cell_angle_beta 29.595426
_cell_angle_gamma 90.000000
_cell_volume 2754.644035
_symmetry_space_group_name_H-M "C 2/M"
_symmetry_group_IT_number 12
_symmetry_cell_setting 'monoclinic'
loop_
_space_group_symop_operation_xyz
x,y,z
-x,y,-z
-x,-y,-z
x,-y,z
1/2+x,1/2+y,z
1/2-x,1/2+y,-z
1/2-x,1/2-y,-z
1/2+x,1/2-y,z
loop_
_atom_site_type_symbol
_atom_site_label
_atom_site_fract_x
_atom_site_fract_y
_atom_site_fract_z
Si Si1 0.100984 0.898278 0.030520
Si Si2 0.866293 0.174694 0.505768
Si Si3 0.252153 0.546584 0.777059
Si Si4 0.543671 0.048315 0.727091
Si Si5 0.364081 0.402490 0.382986
Si Si6 0.761036 0.771872 0.850713
Si Si7 0.171305 0.310012 0.105424
O O1 0.910890 0.899973 0.242928
O O2 0.293826 0.932218 0.918863
O O3 0.227580 0.854389 0.945220
O O4 0.000000 0.905040 0.000000
O O5 0.839748 0.141926 0.443825
O O6 0.607651 0.188056 0.712496
O O7 0.000000 0.155762 0.500000
O O8 0.036047 0.210682 0.354120
O O9 0.343481 0.500000 0.718074
O O10 0.207787 0.557326 0.701462
O O11 0.415696 0.576558 0.719448
O O12 0.000000 0.546721 0.000000
O O13 0.649149 0.070171 0.565096
O O14 0.530689 0.000000 0.726859
O O15 0.779644 0.723483 0.850884
O O16 0.500000 0.782301 0.000000
O O17 0.785884 0.792823 0.932999
#
# Coordination Sequence:
#
# PCOD9201890 Si02
#       7
#     8   8   8   8   8   8   8
#     4  12  27  47  67  93 131 182 231 272 323 397
#     4  12  23  39  68 106 135 167 214 276 335 396
#     4  10  20  37  66 101 134 169 210 266 339 401
#     4  11  24  44  69  99 133 173 221 278 337 394
#     4  12  24  40  68 100 135 174 216 274 334 396
#     4  11  23  42  69  98 130 174 219 270 326 391
#     4  11  24  45  65  93 137 174 219 269 330 389
#
# _framework density 20.329305999999999
#
# number of rings (size 3 to 8) (size 9 to 14) (size 15 to 20)
#    0.000    0.714    5.714    2.571    0.000    3.143 
#    0.000    0.714    0.000    0.000    0.000    0.000 
#    0.000    0.000    0.000    0.000    0.000    0.000 
#
# Total GULP energy -156593.089067 kJ/mol
# GULP energy per Si atom -5592.610324 kJ/mol
# Density = 2.028304 g / cm^3
# Si number density = 20.329306 Si / 1000 Ang^3
#
#
#
# Elastic Constant Matrix: (Units=GPa)
#
#
# Indices 1 2 3 4 5 6 
#
# 1 61.1897 10.4721 6.5054 0.0000 23.7143 0.0001
# 2 10.4721 65.7157 12.4727 0.0000 11.2323 0.0001
# 3 6.5054 12.4727 87.8874 0.0000 25.9026 0.0002
# 4 0.0000 0.0000 0.0000 15.7009 0.0000 21.3847
# 5 23.7143 11.2323 25.9026 0.0000 33.5501 -0.0001
# 6 0.0001 0.0001 0.0002 21.3847 -0.0001 -63.7975
#
#
#
# Elastic Compliance Matrix: (Units=1/GPa)
#
#
# Indices 1 2 3 4 5 6 
#
# 1 0.023691 -0.001225 0.004188 0.000000 -0.019568 0.000000
# 2 -0.001225 0.016260 -0.001123 0.000000 -0.003710 0.000000
# 3 0.004188 -0.001123 0.015521 0.000000 -0.014567 0.000000
# 4 0.000000 0.000000 0.000000 0.043727 0.000000 0.014657
# 5 -0.019568 -0.003710 -0.014567 0.000000 0.056126 0.000000
# 6 0.000000 0.000000 0.000000 0.014657 0.000000 -0.010762
#
#
# Mechanical properties :
#
#
# Convention : Reuss Voigt Hill
#
# Bulk Modulus (GPa) = 16.90643 30.41035 23.65839
# Shear Modulus (GPa) = 31.13284 9.44686 20.28985
#
# Velocity S-wave (km/s) = 3.91759 2.15801 3.16263
# Velocity P-wave (km/s) = 5.36635 4.60442 4.99992
#
# Compressibility (1/GPa) = 0.05914910
#
# Stress axis : x y z
#
# Youngs Moduli (GPa) = 42.21034 61.50171 64.42954
#
# Poissons Ratio (x) = 0.07536 -0.26980
# Poissons Ratio (y) = 0.05172 0.07238
# Poissons Ratio (z) = -0.17676 0.06909
#
# Static dielectric constant tensor:
#      x y z
#    x 1.710770 0.000000 0.013500 
#    y 0.000000 1.704320 0.000000 
#    z 0.013500 0.000000 1.732850 
# 
# From -- ./inp_files/209975.got.cif
#   From: 2010.05.17/outbox.cif.g08.bks.cpg/sg12_105_cif.got.tgz:209975.got - 2010.06.03 13:09:07.
