data_PCOD9201458
_publ_section_title
;
Structure prediction by ZEFSAII (Michael W. Deem and Ramdas Pophale) SiO2 
 PCOD9201458
Probable space group: C 2/M
;
_chemical_formula_sum "Si O2"
_cell_formula_units_Z 48
_cell_length_a 25.330554
_cell_length_b 8.838808
_cell_length_c 12.759335
_cell_angle_alpha 90.000000
_cell_angle_beta 70.792014
_cell_angle_gamma 90.000000
_cell_volume 2697.680147
_symmetry_space_group_name_H-M "C 2/M"
_symmetry_group_IT_number 12
_symmetry_cell_setting 'monoclinic'
loop_
_space_group_symop_operation_xyz
x,y,z
-x,y,-z
-x,-y,-z
x,-y,z
1/2+x,1/2+y,z
1/2-x,1/2+y,-z
1/2-x,1/2-y,-z
1/2+x,1/2-y,z
loop_
_atom_site_type_symbol
_atom_site_label
_atom_site_fract_x
_atom_site_fract_y
_atom_site_fract_z
Si Si1 0.742334 0.319350 0.889495
Si Si2 0.371977 0.819764 0.118800
Si Si3 0.063252 0.180576 0.734449
Si Si4 0.439036 0.181430 0.492457
Si Si5 0.436292 0.319485 0.883010
Si Si6 0.634117 0.819256 0.260499
O O1 0.734718 0.500000 0.903041
O O2 0.688484 0.246922 0.870881
O O3 0.799974 0.289711 0.790145
O O4 0.750000 0.250000 0.000000
O O5 0.393688 0.760001 0.215672
O O6 0.370080 0.000000 0.117817
O O7 0.414470 0.760402 0.001817
O O8 0.069602 0.236056 0.611503
O O9 0.000263 0.218648 0.813706
O O10 0.069663 0.000000 0.736572
O O11 0.500000 0.219114 0.500000
O O12 0.393497 0.220570 0.610535
O O13 0.437697 0.000000 0.476260
O O14 0.431951 0.500000 0.899376
O O15 0.397639 0.266365 0.811967
O O16 0.625561 0.000000 0.249936
#
# Coordination Sequence:
#
# PCOD9201458 Si02
#       6
#     8   8   8   8   8   8
#     4  11  22  38  61  89 121 157 199 245 292 351
#     4  12  25  40  60  86 119 160 202 246 300 357
#     4  11  24  40  59  88 123 158 197 245 301 357
#     4  10  20  37  62  89 120 157 197 242 289 351
#     4  11  22  36  59  89 123 155 191 244 301 357
#     4  10  21  37  60  90 121 155 197 240 290 351
#
# _framework density 17.793066
#
# number of rings (size 3 to 8) (size 9 to 14) (size 15 to 20)
#    0.000    1.167    3.333    3.500    0.000    5.667 
#    0.000    0.833    0.000    0.000    0.000    0.000 
#    0.000    0.000    0.000    0.000    0.000    0.000 
#
# Total GULP energy -134199.587313 kJ/mol
# GULP energy per Si atom -5591.649471 kJ/mol
# Density = 1.775257 g / cm^3
# Si number density = 17.793066 Si / 1000 Ang^3
#
#
#
# Elastic Constant Matrix: (Units=GPa)
#
#
# Indices 1 2 3 4 5 6 
#
# 1 85.1374 47.5187 74.1725 0.0000 14.6248 0.0000
# 2 47.5187 68.7515 60.6022 0.0000 4.8155 0.0000
# 3 74.1725 60.6022 140.7701 0.0000 1.6628 0.0000
# 4 0.0000 0.0000 0.0000 23.3343 0.0000 -5.9804
# 5 14.6248 4.8155 1.6628 0.0000 32.9791 0.0000
# 6 0.0000 0.0000 0.0000 -5.9804 0.0000 18.0253
#
#
#
# Elastic Compliance Matrix: (Units=1/GPa)
#
#
# Indices 1 2 3 4 5 6 
#
# 1 0.027971 -0.009208 -0.010649 0.000000 -0.010522 0.000000
# 2 -0.009208 0.026755 -0.006672 0.000000 0.000513 0.000000
# 3 -0.010649 -0.006672 0.015529 0.000000 0.004914 0.000000
# 4 0.000000 0.000000 0.000000 0.046838 0.000000 0.015540
# 5 -0.010522 0.000513 0.004914 0.000000 0.034666 0.000000
# 6 0.000000 0.000000 0.000000 0.015540 0.000000 0.060633
#
#
# Mechanical properties :
#
#
# Convention : Reuss Voigt Hill
#
# Bulk Modulus (GPa) = 58.15600 73.24951 65.70275
# Shear Modulus (GPa) = 18.43768 22.35877 20.39823
#
# Velocity S-wave (km/s) = 3.22254 3.54870 3.38955
# Velocity P-wave (km/s) = 6.82656 7.61891 7.23360
#
# Compressibility (1/GPa) = 0.01719513
#
# Stress axis : x y z
#
# Youngs Moduli (GPa) = 35.75195 37.37604 64.39385
#
# Poissons Ratio (x) = 0.34417 0.68575
# Poissons Ratio (y) = 0.32921 0.42966
# Poissons Ratio (z) = 0.38073 0.24939
#
# Static dielectric constant tensor:
#      x y z
#    x 1.585200 0.000000 -0.017190 
#    y 0.000000 1.596630 0.000000 
#    z -0.017190 0.000000 1.582670 
# 
# From -- ./inp_files/172413.got.cif
#   From: 2010.05.17/outbox.cif.g08.bks.cpg/sg12_87_cif.got.tgz:172413.got - 2010.06.03 13:09:07.
