data_PCOD9201707
_publ_section_title
;
Structure prediction by ZEFSAII (Michael W. Deem and Ramdas Pophale) SiO2 
 PCOD9201707
Probable space group: C 2/M
;
_chemical_formula_sum "Si O2"
_cell_formula_units_Z 64
_cell_length_a 9.426030
_cell_length_b 28.628886
_cell_length_c 15.582854
_cell_angle_alpha 90.000000
_cell_angle_beta 50.843446
_cell_angle_gamma 90.000000
_cell_volume 3260.763022
_symmetry_space_group_name_H-M "C 2/M"
_symmetry_group_IT_number 12
_symmetry_cell_setting 'monoclinic'
loop_
_space_group_symop_operation_xyz
x,y,z
-x,y,-z
-x,-y,-z
x,-y,z
1/2+x,1/2+y,z
1/2-x,1/2+y,-z
1/2-x,1/2-y,-z
1/2+x,1/2-y,z
loop_
_atom_site_type_symbol
_atom_site_label
_atom_site_fract_x
_atom_site_fract_y
_atom_site_fract_z
Si Si1 0.426079 0.945675 0.790427
Si Si2 0.152556 0.800826 0.368571
Si Si3 0.199905 0.099393 0.405613
Si Si4 0.918187 0.221887 0.300283
Si Si5 0.606296 0.708317 0.049374
Si Si6 0.713765 0.129366 0.436461
Si Si7 0.655880 0.397190 0.015006
Si Si8 0.625338 0.444391 0.755061
O O1 0.632984 0.931801 0.689416
O O2 0.292371 0.937508 0.759453
O O3 0.415421 0.000000 0.813919
O O4 0.336289 0.918749 0.904247
O O5 0.177989 0.856329 0.350825
O O6 0.326900 0.772603 0.334701
O O7 0.000000 0.793634 0.500000
O O8 0.083075 0.780402 0.305124
O O9 0.255433 0.122359 0.474844
O O10 0.000000 0.077300 0.500000
O O11 0.782159 0.180462 0.381615
O O12 0.976349 0.211868 0.181192
O O13 0.691371 0.656647 0.022820
O O14 0.500000 0.711655 0.000000
O O15 0.750000 0.750000 0.000000
O O16 0.500000 0.124084 0.500000
O O17 0.824800 0.089100 0.343217
O O18 0.560064 0.425995 0.128336
O O19 0.500000 0.398051 0.000000
O O20 0.614709 0.500000 0.739801
#
# Coordination Sequence:
#
# PCOD9201707 Si02
#       8
#     8   8   8   8   8   8   8   8
#     4  10  21  38  64  94 122 166 216 267 326 383
#     4  11  24  40  61  91 123 169 216 256 314 380
#     4  11  24  42  60  90 135 168 212 261 321 388
#     4  12  24  41  63  91 129 167 213 263 322 382
#     4  11  24  41  62  95 127 164 209 257 322 376
#     4  12  23  38  62  94 128 170 212 263 324 382
#     4   9  19  37  62  92 126 159 207 266 321 375
#     4  10  20  37  63  94 125 161 212 275 324 376
#
# _framework density 19.627309
#
# number of rings (size 3 to 8) (size 9 to 14) (size 15 to 20)
#    0.000    1.250    5.000    1.875    3.500    2.500 
#    0.000    0.000    0.000    0.000    0.000    2.625 
#    0.000    0.000    0.000    0.000    0.000    0.000 
#
# Total GULP energy -178738.357663 kJ/mol
# GULP energy per Si atom -5585.573677 kJ/mol
# Density = 1.958264 g / cm^3
# Si number density = 19.627309 Si / 1000 Ang^3
#
#
#
# Elastic Constant Matrix: (Units=GPa)
#
#
# Indices 1 2 3 4 5 6 
#
# 1 53.0588 0.6553 8.5688 0.0000 -5.2422 0.0000
# 2 0.6553 73.6298 15.0552 0.0000 -19.2358 0.0000
# 3 8.5688 15.0552 79.7526 0.0000 -17.4199 0.0000
# 4 0.0000 0.0000 0.0000 32.4194 0.0000 -7.1310
# 5 -5.2422 -19.2358 -17.4199 0.0000 26.3911 0.0000
# 6 0.0000 0.0000 0.0000 -7.1310 0.0000 26.9932
#
#
#
# Elastic Compliance Matrix: (Units=1/GPa)
#
#
# Indices 1 2 3 4 5 6 
#
# 1 0.019437 0.001091 -0.001493 0.000000 0.003671 0.000000
# 2 0.001091 0.016860 -0.000664 0.000000 0.012067 0.000000
# 3 -0.001493 -0.000664 0.014786 0.000000 0.008979 0.000000
# 4 0.000000 0.000000 0.000000 0.032749 0.000000 0.008651
# 5 0.003671 0.012067 0.008979 0.000000 0.053343 0.000000
# 6 0.000000 0.000000 0.000000 0.008651 0.000000 0.039332
#
#
# Mechanical properties :
#
#
# Convention : Reuss Voigt Hill
#
# Bulk Modulus (GPa) = 20.42802 28.33330 24.38066
# Shear Modulus (GPa) = 25.64692 29.30487 27.47589
#
# Velocity S-wave (km/s) = 3.61875 3.86821 3.74556
# Velocity P-wave (km/s) = 5.28119 5.86666 5.58161
#
# Compressibility (1/GPa) = 0.04895237
#
# Stress axis : x y z
#
# Youngs Moduli (GPa) = 51.44748 59.31149 67.63265
#
# Poissons Ratio (x) = -0.06473 0.10094
# Poissons Ratio (y) = -0.05614 0.04492
# Poissons Ratio (z) = 0.07679 0.03940
#
# Static dielectric constant tensor:
#      x y z
#    x 1.737080 0.000000 -0.020420 
#    y 0.000000 1.675660 0.000000 
#    z -0.020420 0.000000 1.683300 
# 
# From -- ./inp_files/201271.got.cif
#   From: 2010.05.17/outbox.cif.g08.bks.cpg/sg12_101_cif.got.tgz:201271.got - 2010.06.03 13:09:07.
