data_PCOD9201343
_publ_section_title
;
Structure prediction by ZEFSAII (Michael W. Deem and Ramdas Pophale) SiO2 
 PCOD9201343
Probable space group: C 2/M
;
_chemical_formula_sum "Si O2"
_cell_formula_units_Z 64
_cell_length_a 12.928977
_cell_length_b 22.909804
_cell_length_c 13.352538
_cell_angle_alpha 90.000000
_cell_angle_beta 61.594628
_cell_angle_gamma 90.000000
_cell_volume 3478.856721
_symmetry_space_group_name_H-M "C 2/M"
_symmetry_group_IT_number 12
_symmetry_cell_setting 'monoclinic'
loop_
_space_group_symop_operation_xyz
x,y,z
-x,y,-z
-x,-y,-z
x,-y,z
1/2+x,1/2+y,z
1/2-x,1/2+y,-z
1/2-x,1/2-y,-z
1/2+x,1/2-y,z
loop_
_atom_site_type_symbol
_atom_site_label
_atom_site_fract_x
_atom_site_fract_y
_atom_site_fract_z
Si Si1 0.361153 0.167417 0.799712
Si Si2 0.783508 0.743522 0.241033
Si Si3 0.124079 0.432225 0.493349
Si Si4 0.368948 0.068196 0.104123
Si Si5 0.751771 0.829537 0.938403
Si Si6 0.865798 0.361874 0.311622
Si Si7 0.791394 0.067911 0.226136
Si Si8 0.017889 0.836241 0.872691
O O1 0.325757 0.213535 0.729676
O O2 0.498796 0.158845 0.746502
O O3 0.293009 0.106961 0.806205
O O4 0.306916 0.188502 0.930048
O O5 0.797944 0.708213 0.130318
O O6 0.784092 0.693968 0.325164
O O7 0.893398 0.786301 0.204523
O O8 0.106686 0.500000 0.532092
O O9 0.156792 0.394079 0.573926
O O10 0.224779 0.430127 0.363270
O O11 0.000000 0.413261 0.500000
O O12 0.285259 0.104503 0.069853
O O13 0.358047 0.094459 0.220622
O O14 0.343472 0.000000 0.116554
O O15 0.500000 0.077180 0.000000
O O16 0.891943 0.828421 0.880591
O O17 0.914879 0.102247 0.174210
O O18 0.801731 0.000000 0.191311
O O19 0.000000 0.829819 0.000000
#
# Coordination Sequence:
#
# PCOD9201343 Si02
#       8
#     8   8   8   8   8   8   8   8
#     4  11  20  33  53  84 112 148 190 228 278 335
#     4  10  23  34  55  82 116 151 193 230 275 333
#     4  10  20  37  62  86 109 144 190 239 288 338
#     4  10  21  34  51  82 117 146 182 232 287 338
#     4  11  21  35  54  80 118 156 186 224 279 342
#     4  11  21  35  59  82 112 151 190 234 286 339
#     4  10  22  38  56  83 114 143 186 237 284 334
#     4  11  22  37  55  84 114 153 192 228 277 341
#
# _framework density 18.396849
#
# number of rings (size 3 to 8) (size 9 to 14) (size 15 to 20)
#    0.000    1.500    5.000    1.500    1.750    1.750 
#    0.000    2.500    0.000    3.000    0.000    7.875 
#    0.000    0.000    0.000    0.000    0.000    0.000 
#
# Total GULP energy -178655.282824 kJ/mol
# GULP energy per Si atom -5582.977588 kJ/mol
# Density = 1.835498 g / cm^3
# Si number density = 18.396849 Si / 1000 Ang^3
#
#
#
# Elastic Constant Matrix: (Units=GPa)
#
#
# Indices 1 2 3 4 5 6 
#
# 1 65.8826 17.3262 -7.3168 0.0000 10.5867 0.0000
# 2 17.3262 93.5382 6.4473 0.0000 19.3447 0.0000
# 3 -7.3168 6.4473 30.6977 0.0000 16.7494 0.0000
# 4 0.0000 0.0000 0.0000 27.0990 0.0000 9.6451
# 5 10.5867 19.3447 16.7494 0.0000 23.2965 0.0000
# 6 0.0000 0.0000 0.0000 9.6451 0.0000 18.6213
#
#
#
# Elastic Compliance Matrix: (Units=1/GPa)
#
#
# Indices 1 2 3 4 5 6 
#
# 1 0.020393 -0.000702 0.016037 0.000000 -0.020214 0.000000
# 2 -0.000702 0.013449 0.004817 0.000000 -0.014311 0.000000
# 3 0.016037 0.004817 0.068364 0.000000 -0.060439 0.000000
# 4 0.000000 0.000000 0.000000 0.045242 0.000000 -0.023434
# 5 -0.020214 -0.014311 -0.060439 0.000000 0.107448 0.000000
# 6 0.000000 0.000000 0.000000 -0.023434 0.000000 0.065840
#
#
# Mechanical properties :
#
#
# Convention : Reuss Voigt Hill
#
# Bulk Modulus (GPa) = 7.01713 24.78132 15.89923
# Shear Modulus (GPa) = 15.24701 25.38083 20.31392
#
# Velocity S-wave (km/s) = 2.88198 3.71837 3.32657
# Velocity P-wave (km/s) = 3.85967 5.65108 4.83899
#
# Compressibility (1/GPa) = 0.14250845
#
# Stress axis : x y z
#
# Youngs Moduli (GPa) = 49.03759 74.35716 14.62769
#
# Poissons Ratio (x) = 0.05221 -0.23459
# Poissons Ratio (y) = 0.03443 -0.07046
# Poissons Ratio (z) = -0.78644 -0.35815
#
# Static dielectric constant tensor:
#      x y z
#    x 1.623060 0.000000 0.006210 
#    y 0.000000 1.678320 0.000000 
#    z 0.006210 0.000000 1.616830 
# 
# From -- ./inp_files/135926.got.cif
#   From: 2010.05.17/outbox.cif.g08.bks.cpg/sg12_68_cif.got.tgz:135926.got - 2010.06.03 13:09:07.
