data_PCOD9201306
_publ_section_title
;
Structure prediction by ZEFSAII (Michael W. Deem and Ramdas Pophale) SiO2 
 PCOD9201306
Probable space group: C 2/M
;
_chemical_formula_sum "Si O2"
_cell_formula_units_Z 56
_cell_length_a 11.356387
_cell_length_b 28.228647
_cell_length_c 9.141250
_cell_angle_alpha 90.000000
_cell_angle_beta 66.470055
_cell_angle_gamma 90.000000
_cell_volume 2686.797005
_symmetry_space_group_name_H-M "C 2/M"
_symmetry_group_IT_number 12
_symmetry_cell_setting 'monoclinic'
loop_
_space_group_symop_operation_xyz
x,y,z
-x,y,-z
-x,-y,-z
x,-y,z
1/2+x,1/2+y,z
1/2-x,1/2+y,-z
1/2-x,1/2-y,-z
1/2+x,1/2-y,z
loop_
_atom_site_type_symbol
_atom_site_label
_atom_site_fract_x
_atom_site_fract_y
_atom_site_fract_z
Si Si1 0.474208 0.552666 0.682491
Si Si2 0.743727 0.377772 0.232313
Si Si3 0.049630 0.447837 0.806874
Si Si4 0.288214 0.222149 0.332195
Si Si5 0.340840 0.873802 0.864422
Si Si6 0.434666 0.223037 0.693471
Si Si7 0.140698 0.948077 0.856977
O O1 0.500000 0.551484 0.500000
O O2 0.417564 0.500000 0.752772
O O3 0.392482 0.600461 0.748990
O O4 0.607149 0.555720 0.703766
O O5 0.757427 0.334214 0.337707
O O6 0.811030 0.424884 0.260710
O O7 0.820792 0.363326 0.046922
O O8 0.045588 0.500000 0.745022
O O9 0.958145 0.409468 0.781018
O O10 0.000000 0.450854 0.000000
O O11 0.250000 0.250000 0.500000
O O12 0.443988 0.229842 0.254398
O O13 0.187818 0.241718 0.259336
O O14 0.370412 0.826636 0.763800
O O15 0.220205 0.904211 0.872901
O O16 0.500000 0.222462 0.500000
O O17 0.200234 0.000000 0.859376
O O18 0.000000 0.947585 0.000000
#
# Coordination Sequence:
#
# PCOD9201306 Si02
#       7
#     8   8   8   8   8   8   8
#     4  10  22  38  59  92 133 175 216 264 318 386
#     4  11  21  37  64  90 123 161 217 268 318 391
#     4   9  18  32  57  91 124 160 200 247 314 380
#     4  10  23  43  64  89 119 169 217 279 342 397
#     4  11  21  37  63  94 124 167 213 267 327 384
#     4  10  23  43  65  89 125 164 216 276 341 407
#     4  10  20  37  61  92 135 174 213 260 317 395
#
# _framework density 20.842659999999999
#
# number of rings (size 3 to 8) (size 9 to 14) (size 15 to 20)
#    0.000    1.857    2.857    0.857    0.000    6.857 
#    0.000    0.000    0.000    0.857    0.000    0.000 
#    0.000    0.000    0.000    0.000    0.000    0.000 
#
# Total GULP energy -155943.459918 kJ/mol
# GULP energy per Si atom -5569.409283 kJ/mol
# Density = 2.079522 g / cm^3
# Si number density = 20.842660 Si / 1000 Ang^3
#
#
#
# Elastic Constant Matrix: (Units=GPa)
#
#
# Indices 1 2 3 4 5 6 
#
# 1 83.9477 27.5750 2.4144 0.0000 -5.0333 0.0000
# 2 27.5750 100.0863 3.7826 0.0000 -7.8503 0.0000
# 3 2.4144 3.7826 32.6307 0.0000 11.7718 0.0000
# 4 0.0000 0.0000 0.0000 25.1243 0.0000 6.7417
# 5 -5.0333 -7.8503 11.7718 0.0000 15.6113 0.0000
# 6 0.0000 0.0000 0.0000 6.7417 0.0000 36.6997
#
#
#
# Elastic Compliance Matrix: (Units=1/GPa)
#
#
# Indices 1 2 3 4 5 6 
#
# 1 0.013297 -0.003247 -0.002150 0.000000 0.004276 0.000000
# 2 -0.003247 0.011642 -0.003906 0.000000 0.007753 0.000000
# 3 -0.002150 -0.003906 0.044255 0.000000 -0.036029 0.000000
# 4 0.000000 0.000000 0.000000 0.041866 0.000000 -0.007691
# 5 0.004276 0.007753 -0.036029 0.000000 0.096501 0.000000
# 6 0.000000 0.000000 0.000000 -0.007691 0.000000 0.028661
#
#
# Mechanical properties :
#
#
# Convention : Reuss Voigt Hill
#
# Bulk Modulus (GPa) = 19.76747 31.57874 25.67310
# Shear Modulus (GPa) = 18.40333 27.67991 23.04162
#
# Velocity S-wave (km/s) = 2.97470 3.64818 3.32852
# Velocity P-wave (km/s) = 4.61553 5.73843 5.20734
#
# Compressibility (1/GPa) = 0.05058817
#
# Stress axis : x y z
#
# Youngs Moduli (GPa) = 75.20561 85.89860 22.59608
#
# Poissons Ratio (x) = 0.27890 0.04858
# Poissons Ratio (y) = 0.24418 0.08826
# Poissons Ratio (z) = 0.16169 0.33553
#
# Static dielectric constant tensor:
#      x y z
#    x 1.879610 0.000000 0.044990 
#    y 0.000000 0.799080 0.000000 
#    z 0.044990 0.000000 1.807810 
# 
# From -- ./inp_files/54167.got.cif
#   From: 2010.05.17/outbox.cif.g08.bks.cpg/sg12_28_cif.got.tgz:54167.got - 2010.06.03 13:09:07.
