data_PCOD9201208
_publ_section_title
;
Structure prediction by ZEFSAII (Michael W. Deem and Ramdas Pophale) SiO2 
 PCOD9201208
Probable space group: C 2/M
;
_chemical_formula_sum "Si O2"
_cell_formula_units_Z 56
_cell_length_a 24.935719
_cell_length_b 8.658724
_cell_length_c 12.221008
_cell_angle_alpha 90.000000
_cell_angle_beta 79.236032
_cell_angle_gamma 90.000000
_cell_volume 2592.228843
_symmetry_space_group_name_H-M "C 2/M"
_symmetry_group_IT_number 12
_symmetry_cell_setting 'monoclinic'
loop_
_space_group_symop_operation_xyz
x,y,z
-x,y,-z
-x,-y,-z
x,-y,z
1/2+x,1/2+y,z
1/2-x,1/2+y,-z
1/2-x,1/2-y,-z
1/2+x,1/2-y,z
loop_
_atom_site_type_symbol
_atom_site_label
_atom_site_fract_x
_atom_site_fract_y
_atom_site_fract_z
Si Si1 0.452370 0.318671 0.786696
Si Si2 0.223442 0.819162 0.322249
Si Si3 0.206802 0.322527 0.098175
Si Si4 0.945367 0.680367 0.371246
Si Si5 0.598674 0.823799 0.993034
Si Si6 0.888919 0.684486 0.607604
Si Si7 0.345375 0.818351 0.248185
O O1 0.443289 0.500000 0.790007
O O2 0.510583 0.274237 0.713574
O O3 0.445713 0.258484 0.913562
O O4 0.409845 0.243603 0.716645
O O5 0.208283 0.787233 0.201897
O O6 0.172028 0.739643 0.400300
O O7 0.285708 0.756807 0.305232
O O8 0.223253 0.000000 0.349753
O O9 0.219892 0.500000 0.125507
O O10 0.150546 0.327385 0.054221
O O11 0.250000 0.250000 0.000000
O O12 0.963242 0.500000 0.367690
O O13 0.932445 0.734019 0.498918
O O14 0.887936 0.687086 0.329993
O O15 0.580484 0.000000 0.976730
O O16 0.623158 0.753900 0.871202
O O17 0.888071 0.500000 0.610741
O O18 0.334972 0.000000 0.223586
#
# Coordination Sequence:
#
# PCOD9201208 Si02
#       7
#     8   8   8   8   8   8   8
#     4  12  25  40  62  91 121 153 198 254 308 352
#     4  11  21  36  60  91 124 157 197 245 297 355
#     4  11  20  32  55  87 123 160 197 243 298 355
#     4  10  23  44  66  84 115 161 206 248 292 356
#     4  10  20  37  61  88 121 158 199 240 292 361
#     4  11  23  40  63  92 119 153 202 250 302 357
#     4   9  20  40  63  89 120 161 202 236 288 361
#
# _framework density 21.603031000000001
#
# number of rings (size 3 to 8) (size 9 to 14) (size 15 to 20)
#    0.000    1.429    2.857    3.000    0.000    4.571 
#    0.000    5.000    0.000    0.000    0.000    0.000 
#    0.000    0.000    0.000    0.000    0.000    0.000 
#
# Total GULP energy -156325.358407 kJ/mol
# GULP energy per Si atom -5583.048515 kJ/mol
# Density = 2.155386 g / cm^3
# Si number density = 21.603031 Si / 1000 Ang^3
#
#
#
# Elastic Constant Matrix: (Units=GPa)
#
#
# Indices 1 2 3 4 5 6 
#
# 1 59.7755 7.8214 30.0176 0.0000 -25.2372 0.0000
# 2 7.8214 41.8506 18.7270 0.0000 -15.9026 0.0000
# 3 30.0176 18.7270 63.7486 0.0000 -28.8870 0.0000
# 4 0.0000 0.0000 0.0000 15.0961 0.0000 -6.7543
# 5 -25.2372 -15.9026 -28.8870 0.0000 36.9575 0.0000
# 6 0.0000 0.0000 0.0000 -6.7543 0.0000 19.9618
#
#
#
# Elastic Compliance Matrix: (Units=1/GPa)
#
#
# Indices 1 2 3 4 5 6 
#
# 1 0.025417 0.003443 -0.006880 0.000000 0.013460 0.000000
# 2 0.003443 0.029840 -0.005425 0.000000 0.010951 0.000000
# 3 -0.006880 -0.005425 0.026839 0.000000 0.013946 0.000000
# 4 0.000000 0.000000 0.000000 0.078060 0.000000 0.026412
# 5 0.013460 0.010951 0.013946 0.000000 0.051862 0.000000
# 6 0.000000 0.000000 0.000000 0.026412 0.000000 0.059032
#
#
# Mechanical properties :
#
#
# Convention : Reuss Voigt Hill
#
# Bulk Modulus (GPa) = 15.53470 30.94518 23.23994
# Shear Modulus (GPa) = 16.11704 21.65701 18.88702
#
# Velocity S-wave (km/s) = 2.73436 3.16966 2.96002
# Velocity P-wave (km/s) = 4.14434 5.26794 4.73956
#
# Compressibility (1/GPa) = 0.06437203
#
# Stress axis : x y z
#
# Youngs Moduli (GPa) = 39.34429 33.51241 37.25878
#
# Poissons Ratio (x) = -0.11539 0.25635
# Poissons Ratio (y) = -0.13547 0.20212
# Poissons Ratio (z) = 0.27070 0.18180
#
# Static dielectric constant tensor:
#      x y z
#    x 1.808600 0.000000 -0.032500 
#    y 0.000000 1.696180 0.000000 
#    z -0.032500 0.000000 1.796020 
# 
# From -- ./inp_files/180698.got.cif
#   From: 2010.05.17/outbox.cif.g08.bks.cpg/sg12_91_cif.got.tgz:180698.got - 2010.06.03 13:09:07.
