data_PCOD9201935
_publ_section_title
;
Structure prediction by ZEFSAII (Michael W. Deem and Ramdas Pophale) SiO2 
 PCOD9201935
Probable space group: C 2/M
;
_chemical_formula_sum "Si O2"
_cell_formula_units_Z 40
_cell_length_a 8.844458
_cell_length_b 18.564145
_cell_length_c 10.920889
_cell_angle_alpha 90.000000
_cell_angle_beta 91.393475
_cell_angle_gamma 90.000000
_cell_volume 1792.568308
_symmetry_space_group_name_H-M "C 2/M"
_symmetry_group_IT_number 12
_symmetry_cell_setting 'monoclinic'
loop_
_space_group_symop_operation_xyz
x,y,z
-x,y,-z
-x,-y,-z
x,-y,z
1/2+x,1/2+y,z
1/2-x,1/2+y,-z
1/2-x,1/2-y,-z
1/2+x,1/2-y,z
loop_
_atom_site_type_symbol
_atom_site_label
_atom_site_fract_x
_atom_site_fract_y
_atom_site_fract_z
Si Si1 0.685650 0.151270 0.831575
Si Si2 0.069265 0.752765 0.203676
Si Si3 0.739102 0.500000 0.088316
Si Si4 0.169810 0.852764 0.683496
Si Si5 0.676932 0.173165 0.538889
Si Si6 0.406334 0.500000 0.181283
O O1 0.842802 0.188092 0.873468
O O2 0.553248 0.204653 0.865623
O O3 0.669865 0.071832 0.879907
O O4 0.689818 0.154431 0.682185
O O5 0.191882 0.695663 0.258433
O O6 0.974919 0.799417 0.303226
O O7 0.587383 0.500000 0.167883
O O8 0.677290 0.500000 0.950385
O O9 0.221877 0.875413 0.548717
O O10 0.139383 0.925794 0.754730
O O11 0.500000 0.169784 0.500000
O O12 0.750000 0.250000 0.500000
#
# Coordination Sequence:
#
# PCOD9201935 Si02
#       6
#     8   8   4   8   8   4
#     4  11  21  40  65 100 129 169 208 258 320 379
#     4  10  20  37  67  98 132 160 215 261 304 388
#     4  11  26  48  65  86 128 173 216 273 326 371
#     4  11  21  40  65 100 129 169 208 258 320 379
#     4  12  20  35  66  99 137 165 201 261 313 378
#     4  11  26  48  65  86 128 173 216 273 326 371
#
# _framework density 22.314350000000001
#
# number of rings (size 3 to 8) (size 9 to 14) (size 15 to 20)
#    0.000    1.000    8.000    0.000    0.000    1.600 
#    0.000   10.000    0.000    0.000    0.000    0.000 
#    0.000    0.000    0.000    0.000    0.000    0.000 
#
# Total GULP energy -111746.166105 kJ/mol
# GULP energy per Si atom -5587.308305 kJ/mol
# Density = 2.226356 g / cm^3
# Si number density = 22.314350 Si / 1000 Ang^3
#
#
#
# Elastic Constant Matrix: (Units=GPa)
#
#
# Indices 1 2 3 4 5 6 
#
# 1 99.0058 34.7878 11.1878 0.0000 -1.9934 0.0000
# 2 34.7878 141.9437 33.3266 0.0000 -0.6668 0.0000
# 3 11.1878 33.3266 60.8510 0.0000 -9.1211 0.0000
# 4 0.0000 0.0000 0.0000 -14.5650 0.0000 38.1025
# 5 -1.9934 -0.6668 -9.1211 0.0000 11.0601 0.0000
# 6 0.0000 0.0000 0.0000 38.1025 0.0000 -1.4533
#
#
#
# Elastic Compliance Matrix: (Units=1/GPa)
#
#
# Indices 1 2 3 4 5 6 
#
# 1 0.011096 -0.002625 -0.000373 0.000000 0.001534 0.000000
# 2 -0.002625 0.008834 -0.004960 0.000000 -0.004031 0.000000
# 3 -0.000373 -0.004960 0.021867 0.000000 0.017667 0.000000
# 4 0.000000 0.000000 0.000000 0.001016 0.000000 0.026633
# 5 0.001534 -0.004031 0.017667 0.000000 0.105018 0.000000
# 6 0.000000 0.000000 0.000000 0.026633 0.000000 0.010181
#
#
# Mechanical properties :
#
#
# Convention : Reuss Voigt Hill
#
# Bulk Modulus (GPa) = 38.63655 51.15609 44.89632
# Shear Modulus (GPa) = 27.38941 13.84158 20.61550
#
# Velocity S-wave (km/s) = 3.50728 2.49328 3.04282
# Velocity P-wave (km/s) = 5.80978 5.59138 5.70163
#
# Compressibility (1/GPa) = 0.02588223
#
# Stress axis : x y z
#
# Youngs Moduli (GPa) = 90.12552 113.20104 45.73196
#
# Poissons Ratio (x) = 0.29711 0.01704
# Poissons Ratio (y) = 0.23655 0.22682
# Poissons Ratio (z) = 0.03358 0.56144
#
# Static dielectric constant tensor:
#      x y z
#    x 1.866380 0.000000 -0.007920 
#    y 0.000000 1.802910 0.000000 
#    z -0.007920 0.000000 1.909830 
# 
# From -- ./inp_files/118971.got.cif
#   From: 2010.05.17/outbox.cif.g08.bks.cpg/sg12_60_cif.got.tgz:118971.got - 2010.06.03 13:09:07.
