data_PCOD9201150
_publ_section_title
;
Structure prediction by ZEFSAII (Michael W. Deem and Ramdas Pophale) SiO2 
 PCOD9201150
Probable space group: C 2/M
;
_chemical_formula_sum "Si O2"
_cell_formula_units_Z 64
_cell_length_a 21.490068
_cell_length_b 8.214535
_cell_length_c 16.384792
_cell_angle_alpha 90.000000
_cell_angle_beta 94.237678
_cell_angle_gamma 90.000000
_cell_volume 2884.514742
_symmetry_space_group_name_H-M "C 2/M"
_symmetry_group_IT_number 12
_symmetry_cell_setting 'monoclinic'
loop_
_space_group_symop_operation_xyz
x,y,z
-x,y,-z
-x,-y,-z
x,-y,z
1/2+x,1/2+y,z
1/2-x,1/2+y,-z
1/2-x,1/2-y,-z
1/2+x,1/2-y,z
loop_
_atom_site_type_symbol
_atom_site_label
_atom_site_fract_x
_atom_site_fract_y
_atom_site_fract_z
Si Si1 0.401659 0.812219 0.269587
Si Si2 0.538409 0.810789 0.891236
Si Si3 0.563112 0.692330 0.550017
Si Si4 0.163745 0.810820 0.977939
Si Si5 0.401947 0.302412 0.876075
Si Si6 0.182391 0.688823 0.464004
Si Si7 0.777871 0.190986 0.179663
Si Si8 0.330568 0.309912 0.717594
O O1 0.454212 0.791915 0.205622
O O2 0.425487 0.772205 0.361271
O O3 0.343186 0.705386 0.234936
O O4 0.380580 0.000000 0.264089
O O5 0.593801 0.704432 0.934195
O O6 0.469206 0.760966 0.908419
O O7 0.550301 0.000000 0.912969
O O8 0.500000 0.753451 0.500000
O O9 0.555507 0.500000 0.562437
O O10 0.624552 0.721901 0.501468
O O11 0.207890 0.741759 0.910773
O O12 0.180755 0.000000 0.987228
O O13 0.151632 0.740427 0.066763
O O14 0.401506 0.500000 0.879516
O O15 0.386531 0.254475 0.782062
O O16 0.177266 0.500000 0.484967
O O17 0.250000 0.750000 0.500000
O O18 0.177463 0.713810 0.366450
O O19 0.728673 0.287934 0.228877
O O20 0.760828 0.000000 0.173527
O O21 0.338402 0.500000 0.697747
#
# Coordination Sequence:
#
# PCOD9201150 Si02
#       8
#     8   8   8   8   8   8   8   8
#     4  10  21  38  60  87 119 156 197 244 299 359
#     4  10  21  35  56  87 120 155 198 248 297 350
#     4  11  25  43  65  95 129 163 204 256 315 377
#     4   9  19  37  59  84 115 157 204 245 294 358
#     4  10  22  38  57  82 118 161 200 243 298 359
#     4  12  26  46  71  95 126 166 212 260 313 378
#     4  10  20  37  61  87 116 154 202 250 297 355
#     4  11  24  41  61  88 122 158 199 248 304 361
#
# _framework density 22.187442000000001
#
# number of rings (size 3 to 8) (size 9 to 14) (size 15 to 20)
#    0.000    1.625    0.000    4.125    1.750    6.500 
#    0.000    0.000    0.000    0.000    0.000    0.000 
#    0.000    0.000    0.000    0.000    0.000    0.000 
#
# Total GULP energy -178899.169770 kJ/mol
# GULP energy per Si atom -5590.599055 kJ/mol
# Density = 2.213694 g / cm^3
# Si number density = 22.187442 Si / 1000 Ang^3
#
#
#
# Elastic Constant Matrix: (Units=GPa)
#
#
# Indices 1 2 3 4 5 6 
#
# 1 87.6718 -4.7288 5.6151 0.0000 -2.2402 0.0000
# 2 -4.7288 38.9594 0.6860 0.0000 4.2030 0.0000
# 3 5.6151 0.6860 104.7108 0.0000 -1.1774 0.0000
# 4 0.0000 0.0000 0.0000 23.9864 0.0000 -5.3722
# 5 -2.2402 4.2030 -1.1774 0.0000 30.4525 0.0000
# 6 0.0000 0.0000 0.0000 -5.3722 0.0000 21.0236
#
#
#
# Elastic Compliance Matrix: (Units=1/GPa)
#
#
# Indices 1 2 3 4 5 6 
#
# 1 0.011535 0.001342 -0.000620 0.000000 0.000639 0.000000
# 2 0.001342 0.026216 -0.000283 0.000000 -0.003531 0.000000
# 3 -0.000620 -0.000283 0.009589 0.000000 0.000364 0.000000
# 4 0.000000 0.000000 0.000000 0.044221 0.000000 0.011300
# 5 0.000639 -0.003531 0.000364 0.000000 0.033386 0.000000
# 6 0.000000 0.000000 0.000000 0.011300 0.000000 0.050453
#
#
# Mechanical properties :
#
#
# Convention : Reuss Voigt Hill
#
# Bulk Modulus (GPa) = 20.73946 26.05408 23.39677
# Shear Modulus (GPa) = 26.23340 30.41047 28.32193
#
# Velocity S-wave (km/s) = 3.44227 3.70620 3.57667
# Velocity P-wave (km/s) = 5.01663 5.48478 5.25592
#
# Compressibility (1/GPa) = 0.04821727
#
# Stress axis : x y z
#
# Youngs Moduli (GPa) = 86.69559 38.14394 104.28263
#
# Poissons Ratio (x) = -0.05119 0.06467
# Poissons Ratio (y) = -0.11635 0.02956
# Poissons Ratio (z) = 0.05376 0.01081
#
# Static dielectric constant tensor:
#      x y z
#    x 1.817010 0.000000 0.001550 
#    y 0.000000 1.764300 0.000000 
#    z 0.001550 0.000000 1.824070 
# 
# From -- ./inp_files/281421.got.cif
#   From: 2010.05.17/outbox.cif.g08.bks.cpg/sg12_141_cif.got.tgz:281421.got - 2010.06.03 13:09:07.
