data_PCOD9201969
_publ_section_title
;
Structure prediction by ZEFSAII (Michael W. Deem and Ramdas Pophale) SiO2 
 PCOD9201969
Probable space group: C 2/M
;
_chemical_formula_sum "Si O2"
_cell_formula_units_Z 36
_cell_length_a 14.323287
_cell_length_b 23.101718
_cell_length_c 5.877966
_cell_angle_alpha 90.000000
_cell_angle_beta 92.607894
_cell_angle_gamma 90.000000
_cell_volume 1942.960692
_symmetry_space_group_name_H-M "C 2/M"
_symmetry_group_IT_number 12
_symmetry_cell_setting 'monoclinic'
loop_
_space_group_symop_operation_xyz
x,y,z
-x,y,-z
-x,-y,-z
x,-y,z
1/2+x,1/2+y,z
1/2-x,1/2+y,-z
1/2-x,1/2-y,-z
1/2+x,1/2-y,z
loop_
_atom_site_type_symbol
_atom_site_label
_atom_site_fract_x
_atom_site_fract_y
_atom_site_fract_z
Si Si1 0.400791 0.247710 0.917607
Si Si2 0.188508 0.435280 0.012329
Si Si3 0.902499 0.364463 0.614753
Si Si4 0.735069 0.177273 0.778919
Si Si5 0.047047 0.500000 0.751421
O O1 0.423480 0.190333 0.778274
O O2 0.333748 0.290760 0.771601
O O3 0.500000 0.273929 0.000000
O O4 0.337730 0.223149 0.118031
O O5 0.230900 0.500000 0.049823
O O6 0.129829 0.417221 0.228110
O O7 0.245886 0.378648 0.946794
O O8 0.117185 0.445698 0.793625
O O9 0.814511 0.344808 0.453504
O O10 0.000000 0.374606 0.500000
O O11 0.000000 0.500000 0.500000
O O12 0.000000 0.500000 0.000000
#
# Coordination Sequence:
#
# PCOD9201969 Si02
#       5
#     8   8   8   8   4
#     4  10  20  38  54  83 109 145 196 248 294 348
#     4   9  24  35  50  80 116 154 191 235 277 356
#     4  11  21  33  56  81 117 155 186 237 294 358
#     4  10  21  35  58  77 112 152 192 236 299 350
#     4  10  24  36  54  80 121 161 199 237 286 354
#
# _framework density 18.528424999999999
#
# number of rings (size 3 to 8) (size 9 to 14) (size 15 to 20)
#    0.667    1.333    2.222    0.667    6.222    1.333 
#    0.000    0.000    0.000    0.667    0.000    1.556 
#    0.000    0.000    0.000    0.000    0.000    0.000 
#
# Total GULP energy -100270.768693 kJ/mol
# GULP energy per Si atom -5570.598261 kJ/mol
# Density = 1.848625 g / cm^3
# Si number density = 18.528425 Si / 1000 Ang^3
#
#
#
# Elastic Constant Matrix: (Units=GPa)
#
#
# Indices 1 2 3 4 5 6 
#
# 1 65.5068 23.2445 17.0362 0.0000 21.4991 0.0000
# 2 23.2445 67.6702 15.2000 0.0000 12.6250 0.0000
# 3 17.0362 15.2000 82.7200 0.0000 17.7575 0.0000
# 4 0.0000 0.0000 0.0000 32.9320 0.0000 6.3182
# 5 21.4991 12.6250 17.7575 0.0000 24.0665 0.0000
# 6 0.0000 0.0000 0.0000 6.3182 0.0000 12.0025
#
#
#
# Elastic Compliance Matrix: (Units=1/GPa)
#
#
# Indices 1 2 3 4 5 6 
#
# 1 0.022750 -0.004459 -0.000006 0.000000 -0.017979 0.000000
# 2 -0.004459 0.017389 -0.001395 0.000000 -0.004110 0.000000
# 3 -0.000006 -0.001395 0.014482 0.000000 -0.009948 0.000000
# 4 0.000000 0.000000 0.000000 0.033777 0.000000 -0.017780
# 5 -0.017979 -0.004110 -0.009948 0.000000 0.067109 0.000000
# 6 0.000000 0.000000 0.000000 -0.017780 0.000000 0.092676
#
#
# Mechanical properties :
#
#
# Convention : Reuss Voigt Hill
#
# Bulk Modulus (GPa) = 23.30916 36.31760 29.81338
# Shear Modulus (GPa) = 18.23460 24.49462 21.36461
#
# Velocity S-wave (km/s) = 3.14051 3.63988 3.39938
# Velocity P-wave (km/s) = 5.07523 6.10807 5.61544
#
# Compressibility (1/GPa) = 0.04290159
#
# Stress axis : x y z
#
# Youngs Moduli (GPa) = 43.95564 57.50691 69.05040
#
# Poissons Ratio (x) = 0.25641 0.00045
# Poissons Ratio (y) = 0.19599 0.09631
# Poissons Ratio (z) = 0.00028 0.08021
#
# Static dielectric constant tensor:
#      x y z
#    x 1.648030 0.000000 -0.025100 
#    y 0.000000 1.689370 0.000000 
#    z -0.025100 0.000000 1.690860 
# 
# From -- ./inp_files/7792.got.cif
#   From: 2010.05.17/outbox.cif.g08.bks.cpg/sg12_4_cif.got.tgz:7792.got - 2010.06.03 13:09:07.
