data_PCOD9201958
_publ_section_title
;
Structure prediction by ZEFSAII (Michael W. Deem and Ramdas Pophale) SiO2 
 PCOD9201958
Probable space group: C 2/M
;
_chemical_formula_sum "Si O2"
_cell_formula_units_Z 56
_cell_length_a 13.324213
_cell_length_b 17.839507
_cell_length_c 17.946561
_cell_angle_alpha 90.000000
_cell_angle_beta 124.623648
_cell_angle_gamma 90.000000
_cell_volume 3510.376794
_symmetry_space_group_name_H-M "C 2/M"
_symmetry_group_IT_number 12
_symmetry_cell_setting 'monoclinic'
loop_
_space_group_symop_operation_xyz
x,y,z
-x,y,-z
-x,-y,-z
x,-y,z
1/2+x,1/2+y,z
1/2-x,1/2+y,-z
1/2-x,1/2-y,-z
1/2+x,1/2-y,z
loop_
_atom_site_type_symbol
_atom_site_label
_atom_site_fract_x
_atom_site_fract_y
_atom_site_fract_z
Si Si1 0.699774 0.000000 0.559341
Si Si2 0.158155 0.851651 0.418678
Si Si3 0.194179 0.411053 0.118922
Si Si4 0.120404 0.808526 0.714588
Si Si5 0.067254 0.411359 0.912098
Si Si6 0.240631 0.697270 0.383195
Si Si7 0.041676 0.500000 0.641933
Si Si8 0.960063 0.648330 0.259294
O O1 0.783170 0.927567 0.585047
O O2 0.632993 0.000000 0.610661
O O3 0.593684 0.000000 0.451591
O O4 0.220958 0.782983 0.400852
O O5 0.190288 0.841883 0.519249
O O6 0.013918 0.844212 0.347270
O O7 0.224757 0.500000 0.137330
O O8 0.297093 0.357468 0.195004
O O9 0.069280 0.399799 0.113203
O O10 0.159113 0.394145 0.018458
O O11 0.185060 0.808597 0.661488
O O12 0.101440 0.722752 0.733069
O O13 0.077860 0.500000 0.900353
O O14 0.084418 0.366774 0.843371
O O15 0.105776 0.662723 0.318081
O O16 0.059492 0.574658 0.698607
#
# Coordination Sequence:
#
# PCOD9201958 Si02
#       8
#     4   8   8   8   8   8   4   8
#     4  11  22  38  54  80 109 141 189 222 260 323
#     4  10  22  36  54  76 110 148 180 219 271 317
#     4   9  19  34  55  82 108 146 172 222 278 321
#     4  11  22  34  55  81 110 147 181 215 280 322
#     4   9  17  34  58  80 110 134 180 230 271 316
#     4  10  20  38  51  76 113 143 180 224 261 323
#     4  11  22  36  59  82 104 143 185 231 262 309
#     4  11  20  34  58  82 104 143 183 225 269 317
#
# _framework density 15.952703
#
# number of rings (size 3 to 8) (size 9 to 14) (size 15 to 20)
#    0.000    1.857    3.571    2.143    1.000    0.571 
#    1.286    0.714    0.000    0.000    0.000    1.000 
#    0.000    0.000    0.000    0.000    0.000    0.000 
#
# Total GULP energy -156237.549062 kJ/mol
# GULP energy per Si atom -5579.912467 kJ/mol
# Density = 1.591639 g / cm^3
# Si number density = 15.952703 Si / 1000 Ang^3
#
#
#
# Elastic Constant Matrix: (Units=GPa)
#
#
# Indices 1 2 3 4 5 6 
#
# 1 87.6718 69.2292 59.5588 0.0000 -5.3763 0.0000
# 2 69.2292 118.5169 70.2469 0.0000 -3.9831 0.0000
# 3 59.5588 70.2469 113.5768 0.0000 -10.8165 0.0000
# 4 0.0000 0.0000 0.0000 29.5814 0.0000 3.7932
# 5 -5.3763 -3.9831 -10.8165 0.0000 22.5210 0.0000
# 6 0.0000 0.0000 0.0000 3.7932 0.0000 15.1752
#
#
#
# Elastic Compliance Matrix: (Units=1/GPa)
#
#
# Indices 1 2 3 4 5 6 
#
# 1 0.023570 -0.010205 -0.005957 0.000000 0.000961 0.000000
# 2 -0.010205 0.017800 -0.005858 0.000000 -0.002102 0.000000
# 3 -0.005957 -0.005858 0.016052 0.000000 0.005251 0.000000
# 4 0.000000 0.000000 0.000000 0.034924 0.000000 -0.008730
# 5 0.000961 -0.002102 0.005251 0.000000 0.046783 0.000000
# 6 0.000000 0.000000 0.000000 -0.008730 0.000000 0.068079
#
#
# Mechanical properties :
#
#
# Convention : Reuss Voigt Hill
#
# Bulk Modulus (GPa) = 74.72578 79.75947 77.24263
# Shear Modulus (GPa) = 19.55356 21.50425 20.52891
#
# Velocity S-wave (km/s) = 3.50483 3.67550 3.59118
# Velocity P-wave (km/s) = 7.95752 8.25338 8.10680
#
# Compressibility (1/GPa) = 0.01338226
#
# Stress axis : x y z
#
# Youngs Moduli (GPa) = 42.42691 56.17905 62.29943
#
# Poissons Ratio (x) = 0.57331 0.37109
# Poissons Ratio (y) = 0.43297 0.36496
# Poissons Ratio (z) = 0.25272 0.32910
#
# Static dielectric constant tensor:
#      x y z
#    x 1.502750 0.000000 -0.002840 
#    y 0.000000 1.515380 0.000000 
#    z -0.002840 0.000000 1.525170 
# 
# From -- ./inp_files/263470.got.cif
#   From: 2010.05.17/outbox.cif.g08.bks.cpg/sg12_132_cif.got.tgz:263470.got - 2010.06.03 13:09:07.
