data_PCOD9201196
_publ_section_title
;
Structure prediction by ZEFSAII (Michael W. Deem and Ramdas Pophale) SiO2 
 PCOD9201196
Probable space group: C 2/M
;
_chemical_formula_sum "Si O2"
_cell_formula_units_Z 42
_cell_length_a 17.954059
_cell_length_b 10.292456
_cell_length_c 13.229277
_cell_angle_alpha 90.000000
_cell_angle_beta 115.091253
_cell_angle_gamma 90.000000
_cell_volume 2213.962596
_symmetry_space_group_name_H-M "C 2/M"
_symmetry_group_IT_number 12
_symmetry_cell_setting 'monoclinic'
loop_
_space_group_symop_operation_xyz
x,y,z
-x,y,-z
-x,-y,-z
x,-y,z
1/2+x,1/2+y,z
1/2-x,1/2+y,-z
1/2-x,1/2-y,-z
1/2+x,1/2-y,z
loop_
_atom_site_type_symbol
_atom_site_label
_atom_site_fract_x
_atom_site_fract_y
_atom_site_fract_z
Si Si1 0.259603 0.650148 0.913113
Si Si2 0.471464 0.649483 0.697671
Si Si3 0.307501 0.650117 0.471309
Si Si4 0.422280 0.342545 0.887305
Si Si5 0.000000 0.500000 0.500000
Si Si6 0.879607 0.709936 0.325523
O O1 0.273123 0.500000 0.955165
O O2 0.338219 0.695335 0.892757
O O3 0.182221 0.650856 0.792669
O O4 0.250000 0.750000 0.000000
O O5 0.493545 0.500000 0.730000
O O6 0.396114 0.652173 0.576821
O O7 0.438261 0.707689 0.783699
O O8 0.550961 0.715303 0.697597
O O9 0.277305 0.500000 0.456909
O O10 0.250000 0.750000 0.500000
O O11 0.325354 0.700501 0.368891
O O12 0.418062 0.500000 0.878832
O O13 0.500000 0.307038 0.000000
O O14 0.932436 0.611398 0.424564
#
# Coordination Sequence:
#
# PCOD9201196 Si02
#       6
#     8   8   8   8   2   8
#     4  11  24  41  65  93 127 166 212 268 325 391
#     4  10  20  37  61  88 118 158 210 267 321 382
#     4  11  24  38  60  91 127 169 217 272 327 391
#     4   9  18  35  59  87 114 154 203 254 312 371
#     4  12  24  40  66  92 128 184 212 274 332 394
#     4  12  23  41  64  92 129 168 221 265 334 393
#
# _framework density 18.970510999999998
#
# number of rings (size 3 to 8) (size 9 to 14) (size 15 to 20)
#    0.000    1.333    2.857    2.857    1.333    6.095 
#    0.000    0.000    2.095    1.714    0.000    0.000 
#    0.000    0.000    0.000    0.000    0.000    0.000 
#
# Total GULP energy -116905.950448 kJ/mol
# GULP energy per Si atom -5566.950021 kJ/mol
# Density = 1.892733 g / cm^3
# Si number density = 18.970511 Si / 1000 Ang^3
#
#
#
# Elastic Constant Matrix: (Units=GPa)
#
#
# Indices 1 2 3 4 5 6 
#
# 1 153.8459 68.9538 30.9678 0.0000 -12.6196 0.0000
# 2 68.9538 103.6807 29.3126 0.0000 -14.2432 0.0000
# 3 30.9678 29.3126 75.2571 0.0000 -8.2154 0.0000
# 4 0.0000 0.0000 0.0000 21.0294 0.0000 9.0866
# 5 -12.6196 -14.2432 -8.2154 0.0000 39.9607 0.0000
# 6 0.0000 0.0000 0.0000 9.0866 0.0000 8.0603
#
#
#
# Elastic Compliance Matrix: (Units=1/GPa)
#
#
# Indices 1 2 3 4 5 6 
#
# 1 0.009446 -0.005752 -0.001580 0.000000 0.000608 0.000000
# 2 -0.005752 0.014721 -0.003061 0.000000 0.002801 0.000000
# 3 -0.001580 -0.003061 0.015300 0.000000 0.001555 0.000000
# 4 0.000000 0.000000 0.000000 0.092715 0.000000 -0.104522
# 5 0.000608 0.002801 0.001555 0.000000 0.026535 0.000000
# 6 0.000000 0.000000 0.000000 -0.104522 0.000000 0.241896
#
#
# Mechanical properties :
#
#
# Convention : Reuss Voigt Hill
#
# Bulk Modulus (GPa) = 53.53203 65.69471 59.61337
# Shear Modulus (GPa) = 11.69246 27.38004 19.53625
#
# Velocity S-wave (km/s) = 2.48533 3.80319 3.21257
# Velocity P-wave (km/s) = 6.04282 7.34784 6.72705
#
# Compressibility (1/GPa) = 0.01868040
#
# Stress axis : x y z
#
# Youngs Moduli (GPa) = 105.86554 67.93242 65.35905
#
# Poissons Ratio (x) = 0.39074 0.10328
# Poissons Ratio (y) = 0.60892 0.20007
# Poissons Ratio (z) = 0.16729 0.20794
#
# Static dielectric constant tensor:
#      x y z
#    x 1.643930 0.000000 -0.019970 
#    y 0.000000 1.692880 0.000000 
#    z -0.019970 0.000000 1.666830 
# 
# From -- ./inp_files/221829.got.cif
#   From: 2010.05.17/outbox.cif.g08.bks.cpg/sg12_111_cif.got.tgz:221829.got - 2010.06.03 13:09:07.
