data_PCOD9201668
_publ_section_title
;
Structure prediction by ZEFSAII (Michael W. Deem and Ramdas Pophale) SiO2 
 PCOD9201668
Probable space group: C 2/M
;
_chemical_formula_sum "Si O2"
_cell_formula_units_Z 48
_cell_length_a 12.257370
_cell_length_b 21.699280
_cell_length_c 16.945725
_cell_angle_alpha 90.000000
_cell_angle_beta 151.606895
_cell_angle_gamma 90.000000
_cell_volume 2143.236285
_symmetry_space_group_name_H-M "C 2/M"
_symmetry_group_IT_number 12
_symmetry_cell_setting 'monoclinic'
loop_
_space_group_symop_operation_xyz
x,y,z
-x,y,-z
-x,-y,-z
x,-y,z
1/2+x,1/2+y,z
1/2-x,1/2+y,-z
1/2-x,1/2-y,-z
1/2+x,1/2-y,z
loop_
_atom_site_type_symbol
_atom_site_label
_atom_site_fract_x
_atom_site_fract_y
_atom_site_fract_z
Si Si1 0.208262 0.072911 0.191177
Si Si2 0.630576 0.069202 0.999583
Si Si3 0.051252 0.153917 0.232582
Si Si4 0.245590 0.370216 0.332240
Si Si5 0.087788 0.333925 0.399206
Si Si6 0.169998 0.746554 0.181172
O O1 0.444827 0.102590 0.314016
O O2 0.160316 0.101130 0.246325
O O3 0.215273 0.000000 0.196744
O O4 0.000000 0.092579 0.000000
O O5 0.445980 0.080511 0.813117
O O6 0.732283 0.000000 0.056613
O O7 0.500000 0.071642 0.000000
O O8 0.812762 0.124432 0.108389
O O9 0.214710 0.167948 0.409916
O O10 0.047934 0.212730 0.172278
O O11 0.500000 0.397089 0.500000
O O12 0.186684 0.333984 0.374778
O O13 0.237572 0.318978 0.258901
O O14 0.898327 0.282462 0.298703
O O15 0.000000 0.741479 0.000000
#
# Coordination Sequence:
#
# PCOD9201668 Si02
#       6
#     8   8   8   8   8   8
#     4  10  20  37  63  92 124 164 209 262 320 370
#     4  11  25  44  65  92 128 172 219 260 305 370
#     4  11  22  41  66  94 129 163 205 263 320 375
#     4  12  26  44  67  93 126 169 213 260 318 376
#     4  11  24  40  62  96 131 163 208 261 312 378
#     4  11  24  43  69  98 127 162 208 264 321 378
#
# _framework density 22.396038000000001
#
# number of rings (size 3 to 8) (size 9 to 14) (size 15 to 20)
#    0.000    1.000    0.000    9.000    0.000   11.000 
#    0.000    0.000    0.000    0.000    0.000    0.000 
#    0.000    0.000    0.000    0.000    0.000    0.000 
#
# Total GULP energy -134457.031590 kJ/mol
# GULP energy per Si atom -5602.376316 kJ/mol
# Density = 2.234506 g / cm^3
# Si number density = 22.396038 Si / 1000 Ang^3
#
#
#
# Elastic Constant Matrix: (Units=GPa)
#
#
# Indices 1 2 3 4 5 6 
#
# 1 84.8002 -0.1324 44.7778 0.0008 -11.5081 0.0014
# 2 -0.1324 40.4338 10.7675 -0.0014 -4.5721 0.0017
# 3 44.7778 10.7675 160.8906 -0.0010 -16.7991 0.0054
# 4 0.0008 -0.0014 -0.0010 21.9648 0.0004 -5.9001
# 5 -11.5081 -4.5721 -16.7991 0.0004 43.0357 0.0018
# 6 0.0014 0.0017 0.0054 -5.9001 0.0018 17.5765
#
#
#
# Elastic Compliance Matrix: (Units=1/GPa)
#
#
# Indices 1 2 3 4 5 6 
#
# 1 0.014112 0.001324 -0.003761 -0.000001 0.002446 -0.000001
# 2 0.001324 0.025489 -0.001829 0.000001 0.002348 -0.000002
# 3 -0.003761 -0.001829 0.007568 0.000000 0.001754 -0.000002
# 4 -0.000001 0.000001 0.000000 0.050040 -0.000001 0.016797
# 5 0.002446 0.002348 0.001754 -0.000001 0.024825 -0.000004
# 6 -0.000001 -0.000002 -0.000002 0.016797 -0.000004 0.062533
#
#
# Mechanical properties :
#
#
# Convention : Reuss Voigt Hill
#
# Bulk Modulus (GPa) = 25.88171 44.10561 34.99366
# Shear Modulus (GPa) = 24.27460 31.89616 28.08538
#
# Velocity S-wave (km/s) = 3.29580 3.77794 3.54508
# Velocity P-wave (km/s) = 5.10535 6.22629 5.69347
#
# Compressibility (1/GPa) = 0.03863733
#
# Stress axis : x y z
#
# Youngs Moduli (GPa) = 70.85983 39.23298 132.14132
#
# Poissons Ratio (x) = -0.05196 0.49696
# Poissons Ratio (y) = -0.09384 0.24172
# Poissons Ratio (z) = 0.26649 0.07177
#
# Static dielectric constant tensor:
#      x y z
#    x 1.852650 0.000000 0.034650 
#    y 0.000000 1.808020 0.000000 
#    z 0.034650 0.000000 1.803120 
# 
# From -- ./inp_files/209470.got.cif
#   From: 2010.05.17/outbox.cif.g08.bks.cpg/sg12_105_cif.got.tgz:209470.got - 2010.06.03 13:09:07.
