data_PCOD9201667
_publ_section_title
;
Structure prediction by ZEFSAII (Michael W. Deem and Ramdas Pophale) SiO2 
 PCOD9201667
Probable space group: C 2/M
;
_chemical_formula_sum "Si O2"
_cell_formula_units_Z 48
_cell_length_a 22.411445
_cell_length_b 13.905527
_cell_length_c 16.623582
_cell_angle_alpha 90.000000
_cell_angle_beta 28.349888
_cell_angle_gamma 90.000000
_cell_volume 2460.042640
_symmetry_space_group_name_H-M "C 2/M"
_symmetry_group_IT_number 12
_symmetry_cell_setting 'monoclinic'
loop_
_space_group_symop_operation_xyz
x,y,z
-x,y,-z
-x,-y,-z
x,-y,z
1/2+x,1/2+y,z
1/2-x,1/2+y,-z
1/2-x,1/2-y,-z
1/2+x,1/2-y,z
loop_
_atom_site_type_symbol
_atom_site_label
_atom_site_fract_x
_atom_site_fract_y
_atom_site_fract_z
Si Si1 0.426763 0.610625 0.834170
Si Si2 0.882287 0.245811 0.296363
Si Si3 0.997986 0.208540 0.591729
Si Si4 0.060697 0.607666 0.016930
Si Si5 0.675201 0.109704 0.232816
Si Si6 0.227656 0.232753 0.743577
O O1 0.466368 0.500000 0.791373
O O2 0.522971 0.674776 0.771227
O O3 0.429565 0.647012 0.739691
O O4 0.288079 0.618430 0.035368
O O5 0.750000 0.250000 0.500000
O O6 0.858460 0.214615 0.231699
O O7 0.955227 0.347781 0.200832
O O8 0.142478 0.223838 0.443975
O O9 0.000000 0.164749 0.500000
O O10 0.929919 0.311744 0.663416
O O11 0.101933 0.500000 0.991672
O O12 0.167064 0.688506 0.876172
O O13 0.000000 0.600013 0.000000
O O14 0.735071 0.141333 0.247253
O O15 0.630110 0.000000 0.287587
#
# Coordination Sequence:
#
# PCOD9201667 Si02
#       6
#     8   8   8   8   8   8
#     4  11  23  40  63  90 124 160 200 253 307 363
#     4  11  21  38  62  91 130 159 196 249 303 361
#     4  10  22  40  64  86 120 158 205 258 299 352
#     4   9  19  36  59  87 121 163 201 238 295 359
#     4  10  22  41  65  88 119 164 207 248 302 364
#     4  10  20  37  63  92 124 158 195 254 300 359
#
# _framework density 19.511856999999999
#
# number of rings (size 3 to 8) (size 9 to 14) (size 15 to 20)
#    0.000    1.833    3.333    0.500    0.000    5.333 
#    0.000    5.000    0.000    0.000    0.000    0.000 
#    0.000    0.000    0.000    0.000    0.000    0.000 
#
# Total GULP energy -133919.432359 kJ/mol
# GULP energy per Si atom -5579.976348 kJ/mol
# Density = 1.946745 g / cm^3
# Si number density = 19.511857 Si / 1000 Ang^3
#
#
#
# Elastic Constant Matrix: (Units=GPa)
#
#
# Indices 1 2 3 4 5 6 
#
# 1 60.3309 17.0989 11.9275 0.0000 9.6837 0.0000
# 2 17.0989 86.8583 42.7504 0.0000 7.9943 0.0000
# 3 11.9275 42.7504 109.3957 0.0000 14.3062 0.0000
# 4 0.0000 0.0000 0.0000 3.3596 0.0000 0.6817
# 5 9.6837 7.9943 14.3062 0.0000 31.2986 0.0000
# 6 0.0000 0.0000 0.0000 0.6817 0.0000 24.3068
#
#
#
# Elastic Compliance Matrix: (Units=1/GPa)
#
#
# Indices 1 2 3 4 5 6 
#
# 1 0.018246 -0.003071 -0.000163 0.000000 -0.004786 0.000000
# 2 -0.003071 0.014812 -0.005406 0.000000 -0.000362 0.000000
# 3 -0.000163 -0.005406 0.011789 0.000000 -0.003957 0.000000
# 4 0.000000 0.000000 0.000000 0.299362 0.000000 -0.008396
# 5 -0.004786 -0.000362 -0.003957 0.000000 0.035332 0.000000
# 6 0.000000 0.000000 0.000000 -0.008396 0.000000 0.041376
#
#
# Mechanical properties :
#
#
# Convention : Reuss Voigt Hill
#
# Bulk Modulus (GPa) = 36.27644 44.45982 40.36813
# Shear Modulus (GPa) = 11.17601 24.11352 17.64476
#
# Velocity S-wave (km/s) = 2.39588 3.51926 3.01044
# Velocity P-wave (km/s) = 5.12699 6.27289 5.72866
#
# Compressibility (1/GPa) = 0.02756610
#
# Stress axis : x y z
#
# Youngs Moduli (GPa) = 54.80598 67.51438 84.82437
#
# Poissons Ratio (x) = 0.20734 0.01386
# Poissons Ratio (y) = 0.16831 0.45856
# Poissons Ratio (z) = 0.00895 0.36498
#
# Static dielectric constant tensor:
#      x y z
#    x 1.691180 0.000000 0.004320 
#    y 0.000000 1.664590 0.000000 
#    z 0.004320 0.000000 1.702980 
# 
# From -- ./inp_files/289311.got.cif
#   From: 2010.05.17/outbox.cif.g08.bks.cpg/sg12_145_cif.got.tgz:289311.got - 2010.06.03 13:09:07.
