data_PCOD9201531
_publ_section_title
;
Structure prediction by ZEFSAII (Michael W. Deem and Ramdas Pophale) SiO2 
 PCOD9201531
Probable space group: C 2/M
;
_chemical_formula_sum "Si O2"
_cell_formula_units_Z 64
_cell_length_a 27.940597
_cell_length_b 23.687247
_cell_length_c 13.775940
_cell_angle_alpha 90.000000
_cell_angle_beta 21.369656
_cell_angle_gamma 90.000000
_cell_volume 3322.235287
_symmetry_space_group_name_H-M "C 2/M"
_symmetry_group_IT_number 12
_symmetry_cell_setting 'monoclinic'
loop_
_space_group_symop_operation_xyz
x,y,z
-x,y,-z
-x,-y,-z
x,-y,z
1/2+x,1/2+y,z
1/2-x,1/2+y,-z
1/2-x,1/2-y,-z
1/2+x,1/2-y,z
loop_
_atom_site_type_symbol
_atom_site_label
_atom_site_fract_x
_atom_site_fract_y
_atom_site_fract_z
Si Si1 0.364735 0.744523 0.203013
Si Si2 0.000328 0.062077 0.385528
Si Si3 0.260053 0.854614 0.683832
Si Si4 0.716702 0.565298 0.350429
Si Si5 0.470688 0.567858 0.945442
Si Si6 0.186595 0.169875 0.032319
Si Si7 0.603697 0.200800 0.214912
Si Si8 0.443177 0.846617 0.912572
O O1 0.250000 0.750000 0.500000
O O2 0.314598 0.697603 0.223722
O O3 0.500000 0.728128 0.000000
O O4 0.398056 0.799576 0.075557
O O5 0.000000 0.056451 0.500000
O O6 0.854274 0.068781 0.619750
O O7 0.047854 0.000000 0.255415
O O8 0.083560 0.118951 0.213437
O O9 0.274473 0.839347 0.770284
O O10 0.403270 0.860999 0.366522
O O11 0.162332 0.906442 0.846936
O O12 0.742779 0.500000 0.324181
O O13 0.598055 0.585982 0.643348
O O14 0.846743 0.601155 0.110394
O O15 0.463255 0.500000 0.957188
O O16 0.500000 0.585525 0.000000
O O17 0.269568 0.170453 0.975340
O O18 0.126098 0.232737 0.149141
O O19 0.500000 0.197786 0.500000
O O20 0.573502 0.173992 0.167534
#
# Coordination Sequence:
#
# PCOD9201531 Si02
#       8
#     8   8   8   8   8   8   8   8
#     4  12  27  45  65  95 132 169 219 272 324 383
#     4  10  20  37  62  91 122 162 216 265 314 375
#     4  12  24  41  67  96 128 172 215 266 324 391
#     4  10  23  42  65  94 128 167 212 268 326 387
#     4  10  23  44  70  98 127 165 217 272 328 389
#     4  11  22  38  64  93 126 168 214 268 320 384
#     4  11  23  40  61  92 134 170 213 263 327 391
#     4  12  26  42  65  95 132 172 217 264 329 394
#
# _framework density 19.264137999999999
#
# number of rings (size 3 to 8) (size 9 to 14) (size 15 to 20)
#    0.000    1.000    5.000    1.500    3.500    2.500 
#    0.000    0.000    0.000    3.375    0.000    0.000 
#    0.000    0.000    0.000    0.000    0.000    0.000 
#
# Total GULP energy -178498.208146 kJ/mol
# GULP energy per Si atom -5578.069005 kJ/mol
# Density = 1.922029 g / cm^3
# Si number density = 19.264138 Si / 1000 Ang^3
#
#
#
# Elastic Constant Matrix: (Units=GPa)
#
#
# Indices 1 2 3 4 5 6 
#
# 1 98.8927 22.9580 38.2583 0.0003 -1.1142 -0.0002
# 2 22.9580 95.7226 62.3423 0.0008 -14.9992 -0.0005
# 3 38.2583 62.3423 141.8189 0.0008 -12.1003 -0.0003
# 4 0.0003 0.0008 0.0008 28.1212 -0.0002 -0.3212
# 5 -1.1142 -14.9992 -12.1003 -0.0002 34.1687 -0.0002
# 6 -0.0002 -0.0005 -0.0003 -0.3212 -0.0002 18.0854
#
#
#
# Elastic Compliance Matrix: (Units=1/GPa)
#
#
# Indices 1 2 3 4 5 6 
#
# 1 0.011398 -0.001178 -0.002650 0.000000 -0.001084 0.000000
# 2 -0.001178 0.015391 -0.006058 0.000000 0.004573 0.000000
# 3 -0.002650 -0.006058 0.010512 0.000000 0.000977 0.000000
# 4 0.000000 0.000000 0.000000 0.035568 0.000000 0.000632
# 5 -0.001084 0.004573 0.000977 0.000000 0.031585 0.000001
# 6 0.000000 0.000000 0.000000 0.000632 0.000001 0.055304
#
#
# Mechanical properties :
#
#
# Convention : Reuss Voigt Hill
#
# Bulk Modulus (GPa) = 57.04162 64.83903 60.94033
# Shear Modulus (GPa) = 26.97263 30.26677 28.61970
#
# Velocity S-wave (km/s) = 3.74591 3.96807 3.85859
# Velocity P-wave (km/s) = 6.95584 7.39764 7.18014
#
# Compressibility (1/GPa) = 0.01753106
#
# Stress axis : x y z
#
# Youngs Moduli (GPa) = 87.73287 64.97170 95.12582
#
# Poissons Ratio (x) = 0.07653 0.25204
# Poissons Ratio (y) = 0.10335 0.57627
# Poissons Ratio (z) = 0.23245 0.39360
#
# Static dielectric constant tensor:
#      x y z
#    x 1.724520 0.000000 0.007620 
#    y 0.000000 1.684990 0.000000 
#    z 0.007620 0.000000 1.689690 
# 
# From -- ./inp_files/251902.got.cif
#   From: 2010.05.17/outbox.cif.g08.bks.cpg/sg12_126_cif.got.tgz:251902.got - 2010.06.03 13:09:07.
