data_PCOD9201178
_publ_section_title
;
Structure prediction by ZEFSAII (Michael W. Deem and Ramdas Pophale) SiO2 
 PCOD9201178
Probable space group: C 2/M
;
_chemical_formula_sum "Si O2"
_cell_formula_units_Z 56
_cell_length_a 13.311914
_cell_length_b 15.037937
_cell_length_c 20.777019
_cell_angle_alpha 90.000000
_cell_angle_beta 35.757276
_cell_angle_gamma 90.000000
_cell_volume 2430.452139
_symmetry_space_group_name_H-M "C 2/M"
_symmetry_group_IT_number 12
_symmetry_cell_setting 'monoclinic'
loop_
_space_group_symop_operation_xyz
x,y,z
-x,y,-z
-x,-y,-z
x,-y,z
1/2+x,1/2+y,z
1/2-x,1/2+y,-z
1/2-x,1/2-y,-z
1/2+x,1/2-y,z
loop_
_atom_site_type_symbol
_atom_site_label
_atom_site_fract_x
_atom_site_fract_y
_atom_site_fract_z
Si Si1 0.304627 0.397765 0.107234
Si Si2 0.199841 0.895855 0.548039
Si Si3 0.194892 0.600687 0.873697
Si Si4 0.347180 0.602628 0.655984
Si Si5 0.739295 0.726742 0.651699
Si Si6 0.417870 0.099488 0.652070
Si Si7 0.862845 0.753764 0.877788
O O1 0.309939 0.500000 0.082612
O O2 0.229239 0.394775 0.217951
O O3 0.170260 0.341616 0.136535
O O4 0.500000 0.361935 0.000000
O O5 0.202179 0.823523 0.604226
O O6 0.390978 0.888347 0.418749
O O7 0.036317 0.880903 0.587769
O O8 0.184299 0.000000 0.578672
O O9 0.260150 0.500000 0.852017
O O10 0.221970 0.615578 0.783410
O O11 0.294831 0.673428 0.862609
O O12 0.000000 0.604350 0.000000
O O13 0.336013 0.500000 0.640857
O O14 0.299635 0.671611 0.625286
O O15 0.878797 0.671010 0.618645
O O16 0.561005 0.725169 0.783875
O O17 0.411887 0.000000 0.627099
O O18 0.750000 0.750000 0.000000
#
# Coordination Sequence:
#
# PCOD9201178 Si02
#       7
#     8   8   8   8   8   8   8
#     4  10  22  43  67  90 125 170 212 262 326 391
#     4  10  22  44  69  96 131 172 223 276 323 387
#     4  10  20  37  61  87 122 171 221 266 319 389
#     4  10  22  42  64  90 131 177 220 269 326 389
#     4  12  23  37  65  98 130 171 217 271 325 389
#     4  10  22  41  68  97 127 166 216 272 326 384
#     4  12  24  37  58  95 134 166 207 274 327 385
#
# _framework density 23.040980999999999
#
# number of rings (size 3 to 8) (size 9 to 14) (size 15 to 20)
#    0.000    1.429    1.429    3.857    0.000    3.429 
#    2.571    0.000    0.000    1.714    0.000    0.000 
#    0.000    0.000    0.000    0.000    0.000    0.000 
#
# Total GULP energy -156666.205412 kJ/mol
# GULP energy per Si atom -5595.221622 kJ/mol
# Density = 2.298854 g / cm^3
# Si number density = 23.040981 Si / 1000 Ang^3
#
#
#
# Elastic Constant Matrix: (Units=GPa)
#
#
# Indices 1 2 3 4 5 6 
#
# 1 44.7708 61.2081 19.2348 -0.0001 0.7467 0.0000
# 2 61.2081 127.3888 27.8121 -0.0007 10.3773 0.0001
# 3 19.2348 27.8121 148.1496 -0.0028 -9.0727 0.0007
# 4 -0.0001 -0.0007 -0.0028 18.5689 0.0004 0.5750
# 5 0.7467 10.3773 -9.0727 0.0004 34.4171 -0.0001
# 6 0.0000 0.0001 0.0007 0.5750 -0.0001 -111.2811
#
#
#
# Elastic Compliance Matrix: (Units=1/GPa)
#
#
# Indices 1 2 3 4 5 6 
#
# 1 0.068104 -0.032886 -0.002187 -0.000001 0.007861 0.000000
# 2 -0.032886 0.024364 -0.000722 0.000001 -0.006823 0.000000
# 3 -0.002187 -0.000722 0.007304 0.000001 0.002190 0.000000
# 4 -0.000001 0.000001 0.000001 0.053845 0.000000 0.000278
# 5 0.007861 -0.006823 0.002190 0.000000 0.031520 0.000000
# 6 0.000000 0.000000 0.000000 0.000278 0.000000 -0.008985
#
#
# Mechanical properties :
#
#
# Convention : Reuss Voigt Hill
#
# Bulk Modulus (GPa) = 35.48340 59.64656 47.56498
# Shear Modulus (GPa) = 19.44500 2.47792 10.96146
#
# Velocity S-wave (km/s) = 2.90820 1.03816 2.18351
# Velocity P-wave (km/s) = 5.16821 5.23263 5.20052
#
# Compressibility (1/GPa) = 0.02818219
#
# Stress axis : x y z
#
# Youngs Moduli (GPa) = 14.68344 41.04345 136.91860
#
# Poissons Ratio (x) = 1.34974 0.29946
# Poissons Ratio (y) = 0.48287 0.09887
# Poissons Ratio (z) = 0.03211 0.02964
#
# Static dielectric constant tensor:
#      x y z
#    x 1.625400 0.000000 -0.225300 
#    y 0.000000 1.892540 0.000000 
#    z -0.225300 0.000000 1.636780 
# 
# From -- ./inp_files/340307.got.cif
#   From: 2010.05.17/outbox.cif.g08.bks.cpg/sg12_171_cif.got.tgz:340307.got - 2010.06.03 13:09:07.
