data_PCOD9201553
_publ_section_title
;
Structure prediction by ZEFSAII (Michael W. Deem and Ramdas Pophale) SiO2 
 PCOD9201553
Probable space group: C 2/M
;
_chemical_formula_sum "Si O2"
_cell_formula_units_Z 44
_cell_length_a 13.782898
_cell_length_b 18.986192
_cell_length_c 15.589721
_cell_angle_alpha 90.000000
_cell_angle_beta 149.640943
_cell_angle_gamma 90.000000
_cell_volume 2061.896443
_symmetry_space_group_name_H-M "C 2/M"
_symmetry_group_IT_number 12
_symmetry_cell_setting 'monoclinic'
loop_
_space_group_symop_operation_xyz
x,y,z
-x,y,-z
-x,-y,-z
x,-y,z
1/2+x,1/2+y,z
1/2-x,1/2+y,-z
1/2-x,1/2-y,-z
1/2+x,1/2-y,z
loop_
_atom_site_type_symbol
_atom_site_label
_atom_site_fract_x
_atom_site_fract_y
_atom_site_fract_z
Si Si1 0.000000 0.879934 0.000000
Si Si2 0.997726 0.727979 0.751042
Si Si3 0.354786 0.370980 0.069827
Si Si4 0.718502 0.500000 0.865061
Si Si5 0.715864 0.650315 0.629312
Si Si6 0.326451 0.000000 0.757935
Si Si7 0.327136 0.773010 0.300405
O O1 0.179823 0.835062 0.171428
O O2 0.913837 0.908612 0.024722
O O3 0.010006 0.803599 0.806900
O O4 0.073715 0.740898 0.714230
O O5 0.791320 0.690913 0.603148
O O6 0.148790 0.669675 0.904884
O O7 0.356380 0.429414 0.145551
O O8 0.697912 0.500000 0.746702
O O9 0.948178 0.500000 0.051328
O O10 0.500000 0.646739 0.500000
O O11 0.784613 0.571458 0.677256
O O12 0.794189 0.704510 0.761631
O O13 0.500000 0.788316 0.500000
#
# Coordination Sequence:
#
# PCOD9201553 Si02
#       7
#     4   8   8   4   8   4   8
#     4  10  20  39  64  89 126 156 210 274 306 367
#     4  10  20  38  60  90 124 159 210 263 304 372
#     4  10  20  37  62  92 120 163 209 257 316 368
#     4  11  22  37  62  88 122 166 202 260 312 384
#     4  11  22  38  60  88 124 168 203 254 318 371
#     4  11  23  38  54  90 128 159 211 248 311 389
#     4  10  22  37  61  94 125 161 209 262 319 366
#
# _framework density 21.339576999999998
#
# number of rings (size 3 to 8) (size 9 to 14) (size 15 to 20)
#    0.000    1.636    3.636    1.364    0.000    4.727 
#    3.273    0.000    0.000    0.000    0.000    5.727 
#    0.000    0.000    0.000    0.000    0.000    0.000 
#
# Total GULP energy -122519.090536 kJ/mol
# GULP energy per Si atom -5569.049570 kJ/mol
# Density = 2.129101 g / cm^3
# Si number density = 21.339577 Si / 1000 Ang^3
#
#
#
# Elastic Constant Matrix: (Units=GPa)
#
#
# Indices 1 2 3 4 5 6 
#
# 1 125.1372 31.9374 -16.3013 0.0007 2.1412 -0.0032
# 2 31.9374 113.3306 7.9411 0.0025 3.9460 -0.0116
# 3 -16.3013 7.9411 47.0056 0.0052 7.8714 -0.0150
# 4 0.0007 0.0025 0.0052 11.2519 0.0020 5.6757
# 5 2.1412 3.9460 7.8714 0.0020 28.7003 -0.0062
# 6 -0.0032 -0.0116 -0.0150 5.6757 -0.0062 68.1437
#
#
#
# Elastic Compliance Matrix: (Units=1/GPa)
#
#
# Indices 1 2 3 4 5 6 
#
# 1 0.009248 -0.002833 0.003916 -0.000002 -0.001374 0.000001
# 2 -0.002833 0.009817 -0.002568 -0.000001 -0.000434 0.000001
# 3 0.003916 -0.002568 0.024166 -0.000012 -0.006567 0.000006
# 4 -0.000002 -0.000001 -0.000012 0.092772 -0.000004 -0.007727
# 5 -0.001374 -0.000434 -0.006567 -0.000004 0.036806 0.000002
# 6 0.000001 0.000001 0.000006 -0.007727 0.000002 0.015318
#
#
# Mechanical properties :
#
#
# Convention : Reuss Voigt Hill
#
# Bulk Modulus (GPa) = 24.83827 36.95864 30.89845
# Shear Modulus (GPa) = 24.44789 39.07894 31.76341
#
# Velocity S-wave (km/s) = 3.38843 4.28400 3.86226
# Velocity P-wave (km/s) = 5.19359 6.46739 5.86517
#
# Compressibility (1/GPa) = 0.04026046
#
# Stress axis : x y z
#
# Youngs Moduli (GPa) = 108.13405 101.86350 41.38122
#
# Poissons Ratio (x) = 0.28854 -0.16204
# Poissons Ratio (y) = 0.30630 0.10627
# Poissons Ratio (z) = -0.42343 0.26160
#
# Static dielectric constant tensor:
#      x y z
#    x 1.724740 0.000000 0.005040 
#    y 0.000000 1.767950 0.000000 
#    z 0.005040 0.000000 1.821350 
# 
# From -- ./inp_files/271516.got.cif
#   From: 2010.05.17/outbox.cif.g08.bks.cpg/sg12_136_cif.got.tgz:271516.got - 2010.06.03 13:09:07.
