data_PCOD9201314
_publ_section_title
;
Structure prediction by ZEFSAII (Michael W. Deem and Ramdas Pophale) SiO2 
 PCOD9201314
Probable space group: C 2/M
;
_chemical_formula_sum "Si O2"
_cell_formula_units_Z 56
_cell_length_a 13.919337
_cell_length_b 22.936762
_cell_length_c 14.724977
_cell_angle_alpha 90.000000
_cell_angle_beta 31.587982
_cell_angle_gamma 90.000000
_cell_volume 2462.503073
_symmetry_space_group_name_H-M "C 2/M"
_symmetry_group_IT_number 12
_symmetry_cell_setting 'monoclinic'
loop_
_space_group_symop_operation_xyz
x,y,z
-x,y,-z
-x,-y,-z
x,-y,z
1/2+x,1/2+y,z
1/2-x,1/2+y,-z
1/2-x,1/2-y,-z
1/2+x,1/2-y,z
loop_
_atom_site_type_symbol
_atom_site_label
_atom_site_fract_x
_atom_site_fract_y
_atom_site_fract_z
Si Si1 0.259408 0.435901 0.428805
Si Si2 0.029925 0.756838 0.577972
Si Si3 0.988941 0.068285 0.609697
Si Si4 0.362330 0.068054 0.816132
Si Si5 0.904700 0.815724 0.294265
Si Si6 0.670747 0.315201 0.929453
Si Si7 0.614657 0.070486 0.995288
O O1 0.312212 0.500000 0.351803
O O2 0.328206 0.432490 0.478207
O O3 0.356996 0.381695 0.304453
O O4 0.041715 0.430213 0.608083
O O5 0.060128 0.807173 0.627299
O O6 0.218624 0.719928 0.425345
O O7 0.000000 0.776842 0.500000
O O8 0.854624 0.718717 0.751496
O O9 0.000000 0.093210 0.500000
O O10 0.821509 0.089179 0.806253
O O11 0.938580 0.000000 0.636689
O O12 0.223181 0.116558 0.893509
O O13 0.300439 0.000000 0.870175
O O14 0.420956 0.087191 0.871723
O O15 0.082908 0.795860 0.096056
O O16 0.500000 0.305489 0.000000
O O17 0.593353 0.000000 0.013211
O O18 0.500000 0.091853 0.000000
#
# Coordination Sequence:
#
# PCOD9201314 Si02
#       7
#     8   8   8   8   8   8   8
#     4  10  20  37  61  93 135 181 221 269 338 407
#     4  11  24  48  73 103 136 173 236 294 353 407
#     4   9  16  26  44  71 110 162 213 255 309 383
#     4  10  21  37  59  93 139 185 234 283 334 411
#     4  11  24  43  75 102 136 183 226 291 346 414
#     4  12  24  43  73 101 137 182 230 288 359 410
#     4   9  16  28  47  74 113 166 220 271 328 389
#
# _framework density 22.741088999999999
#
# number of rings (size 3 to 8) (size 9 to 14) (size 15 to 20)
#    0.000    1.714    2.857    2.143    0.000    6.000 
#    0.000    1.429    0.000    3.429    0.000    0.000 
#    0.000    0.000    0.000    0.000    0.000    0.000 
#
# Total GULP energy -156331.426995 kJ/mol
# GULP energy per Si atom -5583.265250 kJ/mol
# Density = 2.268933 g / cm^3
# Si number density = 22.741089 Si / 1000 Ang^3
#
#
#
# Elastic Constant Matrix: (Units=GPa)
#
#
# Indices 1 2 3 4 5 6 
#
# 1 43.8255 14.8803 6.5596 0.0235 -2.1962 -0.0099
# 2 14.8803 100.3096 35.3620 0.0946 -10.4725 -0.0516
# 3 6.5596 35.3620 117.7384 0.1166 -8.9241 -0.0607
# 4 0.0235 0.0946 0.1166 11.0123 -0.0226 -4.8078
# 5 -2.1962 -10.4725 -8.9241 -0.0226 34.6267 0.0048
# 6 -0.0099 -0.0516 -0.0607 -4.8078 0.0048 14.9133
#
#
#
# Elastic Compliance Matrix: (Units=1/GPa)
#
#
# Indices 1 2 3 4 5 6 
#
# 1 0.024043 -0.003425 -0.000279 -0.000020 0.000417 -0.000004
# 2 -0.003425 0.011864 -0.003179 -0.000052 0.002552 0.000008
# 3 -0.000279 -0.003179 0.009577 -0.000068 0.001489 0.000005
# 4 -0.000020 -0.000052 -0.000068 0.105682 0.000030 0.034069
# 5 0.000417 0.002552 0.001489 0.000030 0.030061 0.000015
# 6 -0.000004 0.000008 0.000005 0.034069 0.000015 0.078037
#
#
# Mechanical properties :
#
#
# Convention : Reuss Voigt Hill
#
# Bulk Modulus (GPa) = 31.52766 41.71970 36.62368
# Shear Modulus (GPa) = 17.63020 25.78192 21.70606
#
# Velocity S-wave (km/s) = 2.78737 3.37072 3.09283
# Velocity P-wave (km/s) = 4.92474 5.79089 5.37529
#
# Compressibility (1/GPa) = 0.03171818
#
# Stress axis : x y z
#
# Youngs Moduli (GPa) = 41.59170 84.28615 104.41996
#
# Poissons Ratio (x) = 0.28865 0.02917
# Poissons Ratio (y) = 0.14244 0.33196
# Poissons Ratio (z) = 0.01162 0.26796
#
# Static dielectric constant tensor:
#      x y z
#    x 1.882940 0.000000 0.017910 
#    y 0.000000 1.870600 0.000020 
#    z 0.017910 0.000020 1.850640 
# 
# From -- ./inp_files/218659.got.cif
#   From: 2010.05.17/outbox.cif.g08.bks.cpg/sg12_110_cif.got.tgz:218659.got - 2010.06.03 13:09:07.
