data_PCOD9201406
_publ_section_title
;
Structure prediction by ZEFSAII (Michael W. Deem and Ramdas Pophale) SiO2 
 PCOD9201406
Probable space group: C 2/M
;
_chemical_formula_sum "Si O2"
_cell_formula_units_Z 56
_cell_length_a 9.521772
_cell_length_b 17.781210
_cell_length_c 20.367600
_cell_angle_alpha 90.000000
_cell_angle_beta 123.594609
_cell_angle_gamma 90.000000
_cell_volume 2872.433813
_symmetry_space_group_name_H-M "C 2/M"
_symmetry_group_IT_number 12
_symmetry_cell_setting 'monoclinic'
loop_
_space_group_symop_operation_xyz
x,y,z
-x,y,-z
-x,-y,-z
x,-y,z
1/2+x,1/2+y,z
1/2-x,1/2+y,-z
1/2-x,1/2-y,-z
1/2+x,1/2-y,z
loop_
_atom_site_type_symbol
_atom_site_label
_atom_site_fract_x
_atom_site_fract_y
_atom_site_fract_z
Si Si1 0.899414 0.910823 0.680975
Si Si2 0.115231 0.588677 0.256977
Si Si3 0.783449 0.807728 0.208734
Si Si4 0.785699 0.357156 0.246123
Si Si5 0.469677 0.590502 0.419564
Si Si6 0.801903 0.690551 0.958021
Si Si7 0.514806 0.410443 0.927106
O O1 0.749168 0.891650 0.691259
O O2 0.895328 0.890299 0.602576
O O3 0.056086 0.862179 0.747579
O O4 0.935054 0.000000 0.694625
O O5 0.119571 0.500000 0.241724
O O6 0.130720 0.641937 0.197359
O O7 0.284069 0.607450 0.342641
O O8 0.950326 0.607871 0.255392
O O9 0.803688 0.732592 0.256116
O O10 0.759687 0.781424 0.128600
O O11 0.628189 0.375258 0.156965
O O12 0.500000 0.622035 0.500000
O O13 0.475354 0.500000 0.426204
O O14 0.695993 0.616263 0.948006
O O15 0.750000 0.750000 0.000000
O O16 0.000000 0.678969 0.000000
O O17 0.496105 0.500000 0.919030
O O18 0.500000 0.387156 0.000000
#
# Coordination Sequence:
#
# PCOD9201406 Si02
#       7
#     8   8   8   8   8   8   8
#     4  10  20  37  62  88 116 156 199 245 300 356
#     4  10  22  37  61  93 119 154 202 250 299 356
#     4  11  23  38  61  83 117 158 204 247 297 363
#     4  12  22  38  60  88 123 157 199 254 303 357
#     4   8  16  35  61  89 122 157 196 242 295 360
#     4  12  26  42  62  85 117 156 208 258 309 370
#     4  11  25  43  61  85 122 165 205 257 319 363
#
# _framework density 19.495661999999999
#
# number of rings (size 3 to 8) (size 9 to 14) (size 15 to 20)
#    0.000    1.429    1.429    5.571    4.000    0.857 
#    0.000    0.714    0.000   17.143    0.000    0.000 
#    0.000    0.000    0.000    0.000    0.000    0.000 
#
# Total GULP energy -156299.237972 kJ/mol
# GULP energy per Si atom -5582.115642 kJ/mol
# Density = 1.945129 g / cm^3
# Si number density = 19.495662 Si / 1000 Ang^3
#
#
#
# Elastic Constant Matrix: (Units=GPa)
#
#
# Indices 1 2 3 4 5 6 
#
# 1 139.7055 30.3133 36.8251 0.0000 -22.1258 0.0000
# 2 30.3133 95.0244 16.8537 0.0000 -10.2602 0.0000
# 3 36.8251 16.8537 70.0903 0.0000 -34.4484 0.0000
# 4 0.0000 0.0000 0.0000 9.4626 0.0000 1.1713
# 5 -22.1258 -10.2602 -34.4484 0.0000 29.4071 0.0000
# 6 0.0000 0.0000 0.0000 1.1713 0.0000 1.2546
#
#
#
# Elastic Compliance Matrix: (Units=1/GPa)
#
#
# Indices 1 2 3 4 5 6 
#
# 1 0.008751 -0.002010 -0.002883 0.000000 0.002506 0.000000
# 2 -0.002010 0.011492 -0.001131 0.000000 0.001172 0.000000
# 3 -0.002883 -0.001131 0.034870 0.000000 0.038284 0.000000
# 4 0.000000 0.000000 0.000000 0.119488 0.000000 -0.111556
# 5 0.002506 0.001172 0.038284 0.000000 0.081147 0.000000
# 6 0.000000 0.000000 0.000000 -0.111556 0.000000 0.901234
#
#
# Mechanical properties :
#
#
# Convention : Reuss Voigt Hill
#
# Bulk Modulus (GPa) = 23.22057 52.53382 37.87719
# Shear Modulus (GPa) = 4.22517 22.74674 13.48595
#
# Velocity S-wave (km/s) = 1.47375 3.41949 2.63295
# Velocity P-wave (km/s) = 3.85129 6.52652 5.35854
#
# Compressibility (1/GPa) = 0.04306527
#
# Stress axis : x y z
#
# Youngs Moduli (GPa) = 114.27652 87.01765 28.67798
#
# Poissons Ratio (x) = 0.17488 0.08267
# Poissons Ratio (y) = 0.22966 0.03244
# Poissons Ratio (z) = 0.32943 0.09844
#
# Static dielectric constant tensor:
#      x y z
#    x 1.708570 0.000000 -0.022980 
#    y 0.000000 1.702160 0.000000 
#    z -0.022980 0.000000 1.717700 
# 
# From -- ./inp_files/300880.got.cif
#   From: 2010.05.17/outbox.cif.g08.bks.cpg/sg12_151_cif.got.tgz:300880.got - 2010.06.03 13:09:07.
