data_PCOD9201557
_publ_section_title
;
Structure prediction by ZEFSAII (Michael W. Deem and Ramdas Pophale) SiO2 
 PCOD9201557
Probable space group: C 2/M
;
_chemical_formula_sum "Si O2"
_cell_formula_units_Z 40
_cell_length_a 19.132629
_cell_length_b 10.612165
_cell_length_c 9.524901
_cell_angle_alpha 90.000000
_cell_angle_beta 91.948186
_cell_angle_gamma 90.000000
_cell_volume 1932.804867
_symmetry_space_group_name_H-M "C 2/M"
_symmetry_group_IT_number 12
_symmetry_cell_setting 'monoclinic'
loop_
_space_group_symop_operation_xyz
x,y,z
-x,y,-z
-x,-y,-z
x,-y,z
1/2+x,1/2+y,z
1/2-x,1/2+y,-z
1/2-x,1/2-y,-z
1/2+x,1/2-y,z
loop_
_atom_site_type_symbol
_atom_site_label
_atom_site_fract_x
_atom_site_fract_y
_atom_site_fract_z
Si Si1 0.933108 0.141218 0.677053
Si Si2 0.328969 0.212414 0.177596
Si Si3 0.484928 0.858021 0.165127
Si Si4 0.308880 0.352094 0.454142
Si Si5 0.815873 0.132126 0.904637
O O1 0.881803 0.167774 0.542937
O O2 0.879237 0.134518 0.802673
O O3 0.983763 0.253365 0.727664
O O4 0.964954 0.000000 0.662949
O O5 0.402153 0.142015 0.190058
O O6 0.324663 0.321472 0.292996
O O7 0.255835 0.140148 0.186642
O O8 0.325019 0.260216 0.017779
O O9 0.513246 0.000000 0.189561
O O10 0.500000 0.826947 0.000000
O O11 0.288565 0.500000 0.472378
O O12 0.250000 0.250000 0.500000
O O13 0.815639 0.000000 0.984327
#
# Coordination Sequence:
#
# PCOD9201557 Si02
#       5
#     8   8   8   8   8
#     4  10  22  42  64  90 125 167 210 259 311 376
#     4  11  22  39  63  94 126 165 211 260 312 373
#     4  11  24  42  64  95 130 167 208 262 320 373
#     4  11  24  42  65  95 130 166 209 260 318 374
#     4  10  20  37  62  92 121 161 215 261 308 368
#
# _framework density 20.695311
#
# number of rings (size 3 to 8) (size 9 to 14) (size 15 to 20)
#    0.000    1.400    4.000    1.200    0.000    4.400 
#    0.000    3.000    0.000    0.000    0.000    0.000 
#    0.000    0.000    0.000    0.000    0.000    0.000 
#
# Total GULP energy -111486.609269 kJ/mol
# GULP energy per Si atom -5574.330463 kJ/mol
# Density = 2.064821 g / cm^3
# Si number density = 20.695311 Si / 1000 Ang^3
#
#
#
# Elastic Constant Matrix: (Units=GPa)
#
#
# Indices 1 2 3 4 5 6 
#
# 1 88.2693 56.7667 11.1431 0.0000 14.3355 0.0000
# 2 56.7667 114.6867 25.5142 0.0000 22.2335 0.0000
# 3 11.1431 25.5142 73.1401 0.0000 10.2904 0.0000
# 4 0.0000 0.0000 0.0000 17.7887 0.0000 10.5686
# 5 14.3355 22.2335 10.2904 0.0000 29.2795 0.0000
# 6 0.0000 0.0000 0.0000 10.5686 0.0000 13.0334
#
#
#
# Elastic Compliance Matrix: (Units=1/GPa)
#
#
# Indices 1 2 3 4 5 6 
#
# 1 0.016763 -0.007964 0.000556 0.000000 -0.002355 0.000000
# 2 -0.007964 0.014502 -0.002993 0.000000 -0.006061 0.000000
# 3 0.000556 -0.002993 0.015097 0.000000 -0.003305 0.000000
# 4 0.000000 0.000000 0.000000 0.108475 0.000000 -0.087961
# 5 -0.002355 -0.006061 -0.003305 0.000000 0.041071 0.000000
# 6 0.000000 0.000000 0.000000 -0.087961 0.000000 0.148052
#
#
# Mechanical properties :
#
#
# Convention : Reuss Voigt Hill
#
# Bulk Modulus (GPa) = 39.12466 51.43821 45.28144
# Shear Modulus (GPa) = 13.39465 24.19847 18.79656
#
# Velocity S-wave (km/s) = 2.54683 3.42317 3.01699
# Velocity P-wave (km/s) = 5.25306 6.36656 5.83643
#
# Compressibility (1/GPa) = 0.02555933
#
# Stress axis : x y z
#
# Youngs Moduli (GPa) = 59.65430 68.95393 66.23929
#
# Poissons Ratio (x) = 0.54918 -0.03681
# Poissons Ratio (y) = 0.47511 0.19824
# Poissons Ratio (z) = -0.03315 0.20637
#
# Static dielectric constant tensor:
#      x y z
#    x 1.750190 0.000000 -0.015860 
#    y 0.000000 1.796630 0.000000 
#    z -0.015860 0.000000 1.720790 
# 
# From -- ./inp_files/71322.got.cif
#   From: 2010.05.17/outbox.cif.g08.bks.cpg/sg12_36_cif.got.tgz:71322.got - 2010.06.03 13:09:07.
