data_PCOD9201023
_publ_section_title
;
Structure prediction by ZEFSAII (Michael W. Deem and Ramdas Pophale) SiO2 
 PCOD9201023
Probable space group: C 2/M
;
_chemical_formula_sum "Si O2"
_cell_formula_units_Z 56
_cell_length_a 22.623348
_cell_length_b 8.666201
_cell_length_c 15.580789
_cell_angle_alpha 90.000000
_cell_angle_beta 62.809796
_cell_angle_gamma 90.000000
_cell_volume 2717.179645
_symmetry_space_group_name_H-M "C 2/M"
_symmetry_group_IT_number 12
_symmetry_cell_setting 'monoclinic'
loop_
_space_group_symop_operation_xyz
x,y,z
-x,y,-z
-x,-y,-z
x,-y,z
1/2+x,1/2+y,z
1/2-x,1/2+y,-z
1/2-x,1/2-y,-z
1/2+x,1/2-y,z
loop_
_atom_site_type_symbol
_atom_site_label
_atom_site_fract_x
_atom_site_fract_y
_atom_site_fract_z
Si Si1 0.823691 0.184427 0.782782
Si Si2 0.917560 0.817693 0.393399
Si Si3 0.826420 0.682888 0.105197
Si Si4 0.318150 0.183153 0.597060
Si Si5 0.543374 0.319014 0.054988
Si Si6 0.045344 0.681431 0.231854
Si Si7 0.825776 0.317708 0.310370
O O1 0.749878 0.222599 0.865591
O O2 0.831953 0.266748 0.685541
O O3 0.883697 0.238115 0.801993
O O4 0.825131 0.000000 0.768675
O O5 0.877103 0.738105 0.496734
O O6 0.876757 0.776837 0.334095
O O7 0.991178 0.751370 0.332155
O O8 0.919747 0.000000 0.404958
O O9 0.836865 0.500000 0.081997
O O10 0.834168 0.708086 0.202769
O O11 0.880845 0.779916 0.019150
O O12 0.249234 0.266746 0.617538
O O13 0.309282 0.000000 0.597030
O O14 0.535281 0.500000 0.080335
O O15 0.522478 0.219684 0.150543
O O16 0.500000 0.282052 0.000000
O O17 0.051289 0.500000 0.240665
O O18 0.834239 0.500000 0.321709
#
# Coordination Sequence:
#
# PCOD9201023 Si02
#       7
#     8   8   8   8   8   8   8
#     4  10  22  43  65  89 121 156 200 250 300 353
#     4  12  24  39  59  86 121 161 203 250 305 357
#     4   9  20  38  63  90 119 157 197 243 298 353
#     4  11  22  38  61  90 122 159 203 248 298 357
#     4  11  24  41  63  92 124 158 197 241 294 355
#     4  12  26  43  63  88 119 157 201 248 300 359
#     4  10  20  37  60  90 125 160 201 249 302 357
#
# _framework density 20.609603
#
# number of rings (size 3 to 8) (size 9 to 14) (size 15 to 20)
#    0.000    1.286    0.000    7.286    0.000    8.000 
#    0.000    2.857    0.000    0.000    0.000    0.000 
#    0.000    0.000    0.000    0.000    0.000    0.000 
#
# Total GULP energy -156709.943508 kJ/mol
# GULP energy per Si atom -5596.783697 kJ/mol
# Density = 2.056269 g / cm^3
# Si number density = 20.609603 Si / 1000 Ang^3
#
#
#
# Elastic Constant Matrix: (Units=GPa)
#
#
# Indices 1 2 3 4 5 6 
#
# 1 57.1111 -11.1161 3.4329 0.0000 -9.8807 0.0000
# 2 -11.1161 33.4299 4.9065 0.0000 -10.7138 -0.0001
# 3 3.4329 4.9065 50.3891 0.0000 -22.8170 0.0000
# 4 0.0000 0.0000 0.0000 33.6704 0.0000 1.2637
# 5 -9.8807 -10.7138 -22.8170 0.0000 21.1344 0.0000
# 6 0.0000 -0.0001 0.0000 1.2637 0.0000 33.4564
#
#
#
# Elastic Compliance Matrix: (Units=1/GPa)
#
#
# Indices 1 2 3 4 5 6 
#
# 1 0.026222 0.017959 0.012009 0.000000 0.034329 0.000000
# 2 0.017959 0.050356 0.018066 0.000000 0.053427 0.000000
# 3 0.012009 0.018066 0.046871 0.000000 0.065376 0.000000
# 4 0.000000 0.000000 0.000000 0.029742 0.000000 -0.001123
# 5 0.034329 0.053427 0.065376 0.000000 0.161030 0.000000
# 6 0.000000 0.000000 0.000000 -0.001123 0.000000 0.029932
#
#
# Mechanical properties :
#
#
# Convention : Reuss Voigt Hill
#
# Bulk Modulus (GPa) = 4.55543 15.04186 9.79865
# Shear Modulus (GPa) = 15.56381 27.23271 21.39826
#
# Velocity S-wave (km/s) = 2.75102 3.63900 3.22571
# Velocity P-wave (km/s) = 3.50799 4.99707 4.31721
#
# Compressibility (1/GPa) = 0.21951803
#
# Stress axis : x y z
#
# Youngs Moduli (GPa) = 38.13521 19.85862 21.33498
#
# Poissons Ratio (x) = -0.35663 -0.25622
# Poissons Ratio (y) = -0.68486 -0.38544
# Poissons Ratio (z) = -0.45798 -0.35876
#
# Static dielectric constant tensor:
#      x y z
#    x 1.738580 0.000000 0.009640 
#    y 0.000000 1.679020 0.000000 
#    z 0.009640 0.000000 1.721060 
# 
# From -- ./inp_files/238360.got.cif
#   From: 2010.05.17/outbox.cif.g08.bks.cpg/sg12_120_cif.got.tgz:238360.got - 2010.06.03 13:09:07.
