data_PCOD9201184
_publ_section_title
;
Structure prediction by ZEFSAII (Michael W. Deem and Ramdas Pophale) SiO2 
 PCOD9201184
Probable space group: C 2/M
;
_chemical_formula_sum "Si O2"
_cell_formula_units_Z 56
_cell_length_a 25.341763
_cell_length_b 14.473608
_cell_length_c 9.210879
_cell_angle_alpha 90.000000
_cell_angle_beta 65.534317
_cell_angle_gamma 90.000000
_cell_volume 3075.077500
_symmetry_space_group_name_H-M "C 2/M"
_symmetry_group_IT_number 12
_symmetry_cell_setting 'monoclinic'
loop_
_space_group_symop_operation_xyz
x,y,z
-x,y,-z
-x,-y,-z
x,-y,z
1/2+x,1/2+y,z
1/2-x,1/2+y,-z
1/2-x,1/2-y,-z
1/2+x,1/2-y,z
loop_
_atom_site_type_symbol
_atom_site_label
_atom_site_fract_x
_atom_site_fract_y
_atom_site_fract_z
Si Si1 0.174690 0.890269 0.206200
Si Si2 0.042021 0.099606 0.317409
Si Si3 0.449870 0.892216 0.436527
Si Si4 0.980414 0.267245 0.858771
Si Si5 0.327499 0.109883 0.727311
Si Si6 0.842777 0.276168 0.991498
Si Si7 0.251423 0.261558 0.671378
O O1 0.105730 0.883461 0.309137
O O2 0.178110 0.820003 0.063635
O O3 0.209066 0.842856 0.300309
O O4 0.189212 0.000000 0.168064
O O5 0.019023 0.173563 0.232412
O O6 0.000000 0.098173 0.500000
O O7 0.044662 0.000000 0.240557
O O8 0.500000 0.883364 0.500000
O O9 0.475451 0.836469 0.272135
O O10 0.389355 0.863394 0.581342
O O11 0.443678 0.000000 0.404884
O O12 0.911671 0.289933 0.930559
O O13 0.000000 0.256269 0.000000
O O14 0.278706 0.166337 0.699099
O O15 0.321606 0.000000 0.726981
O O16 0.325117 0.145284 0.895831
O O17 0.810485 0.278686 0.181715
O O18 0.250000 0.250000 0.500000
#
# Coordination Sequence:
#
# PCOD9201184 Si02
#       7
#     8   8   8   8   8   8   8
#     4   9  19  38  60  80 107 148 192 233 275 329
#     4   9  19  35  58  86 110 145 196 235 272 337
#     4  10  20  37  61  88 115 151 200 240 280 346
#     4  11  23  34  58  86 124 157 181 231 305 344
#     4  10  21  40  65  86 112 155 200 242 284 337
#     4  10  22  39  57  86 112 150 198 238 276 342
#     4  11  25  38  56  86 121 147 188 239 292 348
#
# _framework density 18.210923000000001
#
# number of rings (size 3 to 8) (size 9 to 14) (size 15 to 20)
#    0.000    2.000    1.429    2.143    6.000    3.429 
#    0.000    0.000    0.000    0.000    0.000    0.000 
#    0.000    0.000    0.000    0.000    0.000    0.000 
#
# Total GULP energy -156020.839561 kJ/mol
# GULP energy per Si atom -5572.172841 kJ/mol
# Density = 1.816947 g / cm^3
# Si number density = 18.210923 Si / 1000 Ang^3
#
#
#
# Elastic Constant Matrix: (Units=GPa)
#
#
# Indices 1 2 3 4 5 6 
#
# 1 33.1938 15.2470 29.7798 0.0000 3.0015 0.0000
# 2 15.2470 70.4315 26.2661 0.0000 -0.8159 0.0000
# 3 29.7798 26.2661 119.5790 0.0000 -6.2572 0.0000
# 4 0.0000 0.0000 0.0000 46.2488 0.0000 18.1815
# 5 3.0015 -0.8159 -6.2572 0.0000 34.4312 0.0000
# 6 0.0000 0.0000 0.0000 18.1815 0.0000 42.6737
#
#
#
# Elastic Compliance Matrix: (Units=1/GPa)
#
#
# Indices 1 2 3 4 5 6 
#
# 1 0.041640 -0.005559 -0.009435 0.000000 -0.005476 0.000000
# 2 -0.005559 0.016209 -0.002151 0.000000 0.000478 0.000000
# 3 -0.009435 -0.002151 0.011333 0.000000 0.002831 0.000000
# 4 0.000000 0.000000 0.000000 0.025972 0.000000 -0.011066
# 5 -0.005476 0.000478 0.002831 0.000000 0.030047 0.000000
# 6 0.000000 0.000000 0.000000 -0.011066 0.000000 0.028148
#
#
# Mechanical properties :
#
#
# Convention : Reuss Voigt Hill
#
# Bulk Modulus (GPa) = 28.66038 40.64334 34.65186
# Shear Modulus (GPa) = 25.09155 34.79818 29.94487
#
# Velocity S-wave (km/s) = 3.71594 4.37606 4.05944
# Velocity P-wave (km/s) = 5.84663 6.92096 6.40636
#
# Compressibility (1/GPa) = 0.03489137
#
# Stress axis : x y z
#
# Youngs Moduli (GPa) = 24.01563 61.69296 88.23718
#
# Poissons Ratio (x) = 0.34294 0.83255
# Poissons Ratio (y) = 0.13350 0.18981
# Poissons Ratio (z) = 0.22660 0.13271
#
# Static dielectric constant tensor:
#      x y z
#    x 1.636390 0.000000 -0.051300 
#    y 0.000000 1.666410 0.000000 
#    z -0.051300 0.000000 1.634750 
# 
# From -- ./inp_files/96240.got.cif
#   From: 2010.05.17/outbox.cif.g08.bks.cpg/sg12_49_cif.got.tgz:96240.got - 2010.06.03 13:09:07.
