data_PCOD9201304
_publ_section_title
;
Structure prediction by ZEFSAII (Michael W. Deem and Ramdas Pophale) SiO2 
 PCOD9201304
Probable space group: C 2/M
;
_chemical_formula_sum "Si O2"
_cell_formula_units_Z 64
_cell_length_a 23.219516
_cell_length_b 18.762435
_cell_length_c 14.473048
_cell_angle_alpha 90.000000
_cell_angle_beta 147.953984
_cell_angle_gamma 90.000000
_cell_volume 3345.567252
_symmetry_space_group_name_H-M "C 2/M"
_symmetry_group_IT_number 12
_symmetry_cell_setting 'monoclinic'
loop_
_space_group_symop_operation_xyz
x,y,z
-x,y,-z
-x,-y,-z
x,-y,z
1/2+x,1/2+y,z
1/2-x,1/2+y,-z
1/2-x,1/2-y,-z
1/2+x,1/2-y,z
loop_
_atom_site_type_symbol
_atom_site_label
_atom_site_fract_x
_atom_site_fract_y
_atom_site_fract_z
Si Si1 0.731347 0.693487 0.225531
Si Si2 0.630654 0.079784 0.179235
Si Si3 0.206189 0.329532 0.962237
Si Si4 0.129958 0.415247 0.679411
Si Si5 0.155338 0.732347 0.300478
Si Si6 0.454379 0.742873 0.158288
Si Si7 0.432050 0.697352 0.498714
Si Si8 0.798880 0.081180 0.246031
O O1 0.801965 0.621764 0.310780
O O2 0.668210 0.712748 0.233208
O O3 0.822756 0.755375 0.345043
O O4 0.643060 0.699995 0.023644
O O5 0.666392 0.150752 0.281543
O O6 0.689711 0.084648 0.160014
O O7 0.660037 0.000000 0.255622
O O8 0.500000 0.082728 0.000000
O O9 0.174731 0.374840 0.830607
O O10 0.098478 0.315390 0.875764
O O11 0.250000 0.250000 0.000000
O O12 0.287231 0.371937 0.138322
O O13 0.147240 0.500000 0.706421
O O14 0.000000 0.402595 0.500000
O O15 0.250000 0.750000 0.500000
O O16 0.043358 0.742130 0.202078
O O17 0.507260 0.708894 0.322044
O O18 0.500000 0.717916 0.500000
O O19 0.393696 0.616345 0.435049
O O20 0.819548 0.000000 0.250619
#
# Coordination Sequence:
#
# PCOD9201304 Si02
#       8
#     8   8   8   8   8   8   8   8
#     4  12  22  43  66  94 129 174 224 271 329 395
#     4  10  20  37  61  92 129 163 204 268 335 388
#     4  12  21  38  66  97 125 168 217 271 328 393
#     4  11  25  43  64  96 137 177 222 278 334 401
#     4  12  23  40  65  97 132 172 227 280 322 396
#     4  12  23  38  69  98 128 170 225 276 326 387
#     4  12  24  40  62  96 128 165 221 265 325 389
#     4  11  22  39  59  89 132 166 205 263 328 389
#
# _framework density 19.12979
#
# number of rings (size 3 to 8) (size 9 to 14) (size 15 to 20)
#    0.000    0.500    5.000    4.875    0.000    0.250 
#    0.000    1.875    0.000    3.000    0.000    0.000 
#    0.000    0.000    0.000    0.000    0.000    0.000 
#
# Total GULP energy -178714.262898 kJ/mol
# GULP energy per Si atom -5584.820716 kJ/mol
# Density = 1.908625 g / cm^3
# Si number density = 19.129790 Si / 1000 Ang^3
#
#
#
# Elastic Constant Matrix: (Units=GPa)
#
#
# Indices 1 2 3 4 5 6 
#
# 1 121.4351 48.6736 26.1629 0.0000 2.8134 0.0000
# 2 48.6736 159.3181 59.4492 0.0000 -15.2612 0.0000
# 3 26.1629 59.4492 107.8877 0.0000 -19.5317 0.0000
# 4 0.0000 0.0000 0.0000 24.6360 0.0000 4.9491
# 5 2.8134 -15.2612 -19.5317 0.0000 34.0980 0.0000
# 6 0.0000 0.0000 0.0000 4.9491 0.0000 21.2702
#
#
#
# Elastic Compliance Matrix: (Units=1/GPa)
#
#
# Indices 1 2 3 4 5 6 
#
# 1 0.009682 -0.002720 -0.001355 0.000000 -0.002792 0.000000
# 2 -0.002720 0.008707 -0.003785 0.000000 0.001954 0.000000
# 3 -0.001355 -0.003785 0.012715 0.000000 0.005701 0.000000
# 4 0.000000 0.000000 0.000000 0.042581 0.000000 -0.009908
# 5 -0.002792 0.001954 0.005701 0.000000 0.033698 0.000000
# 6 0.000000 0.000000 0.000000 -0.009908 0.000000 0.049320
#
#
# Mechanical properties :
#
#
# Convention : Reuss Voigt Hill
#
# Bulk Modulus (GPa) = 64.99609 73.02360 69.00984
# Shear Modulus (GPa) = 28.16132 32.95785 30.55959
#
# Velocity S-wave (km/s) = 3.84098 4.15523 4.00119
# Velocity P-wave (km/s) = 7.32946 7.82795 7.58280
#
# Compressibility (1/GPa) = 0.01538554
#
# Stress axis : x y z
#
# Youngs Moduli (GPa) = 103.28941 114.84956 78.64783
#
# Poissons Ratio (x) = 0.31237 0.10653
# Poissons Ratio (y) = 0.28093 0.29765
# Poissons Ratio (z) = 0.13991 0.43466
#
# Static dielectric constant tensor:
#      x y z
#    x 1.749250 0.000000 0.030710 
#    y 0.000000 1.662350 0.000000 
#    z 0.030710 0.000000 1.722280 
# 
# From -- ./inp_files/241540.got.cif
#   From: 2010.05.17/outbox.cif.g08.bks.cpg/sg12_121_cif.got.tgz:241540.got - 2010.06.03 13:09:07.
