data_PCOD9201242
_publ_section_title
;
Structure prediction by ZEFSAII (Michael W. Deem and Ramdas Pophale) SiO2 
 PCOD9201242
Probable space group: C 2/M
;
_chemical_formula_sum "Si O2"
_cell_formula_units_Z 64
_cell_length_a 15.806162
_cell_length_b 8.784974
_cell_length_c 24.341583
_cell_angle_alpha 90.000000
_cell_angle_beta 90.244019
_cell_angle_gamma 90.000000
_cell_volume 3379.961775
_symmetry_space_group_name_H-M "C 2/M"
_symmetry_group_IT_number 12
_symmetry_cell_setting 'monoclinic'
loop_
_space_group_symop_operation_xyz
x,y,z
-x,y,-z
-x,-y,-z
x,-y,z
1/2+x,1/2+y,z
1/2-x,1/2+y,-z
1/2-x,1/2-y,-z
1/2+x,1/2-y,z
loop_
_atom_site_type_symbol
_atom_site_label
_atom_site_fract_x
_atom_site_fract_y
_atom_site_fract_z
Si Si1 0.470055 0.815134 0.939290
Si Si2 0.775629 0.316185 0.940716
Si Si3 0.627970 0.183057 0.865167
Si Si4 0.958030 0.818593 0.674137
Si Si5 0.125467 0.816338 0.743832
Si Si6 0.784075 0.681012 0.669201
Si Si7 0.277566 0.179153 0.442375
Si Si8 0.040227 0.180655 0.559779
O O1 0.372947 0.769389 0.928505
O O2 0.541222 0.767992 0.895798
O O3 0.470105 0.000000 0.939788
O O4 0.500000 0.764788 0.000000
O O5 0.772380 0.500000 0.942392
O O6 0.708150 0.253847 0.896956
O O7 0.750000 0.250000 0.000000
O O8 0.626315 0.238129 0.802716
O O9 0.633310 0.000000 0.868289
O O10 0.874369 0.732233 0.692227
O O11 0.040510 0.779407 0.709862
O O12 0.978805 0.784288 0.610359
O O13 0.944235 0.000000 0.678304
O O14 0.206669 0.770497 0.707866
O O15 0.128325 0.000000 0.750490
O O16 0.779993 0.500000 0.663745
O O17 0.772569 0.753563 0.609266
O O18 0.250000 0.250000 0.500000
O O19 0.375121 0.223228 0.433914
O O20 0.264704 0.000000 0.444425
O O21 0.000000 0.206766 0.500000
O O22 0.061667 0.000000 0.563936
#
# Coordination Sequence:
#
# PCOD9201242 Si02
#       8
#     8   8   8   8   8   8   8   8
#     4   9  18  36  60  86 122 162 197 241 304 365
#     4  11  21  37  62  91 126 164 204 250 310 369
#     4  11  23  40  63  91 122 161 211 257 301 363
#     4  10  21  40  64  91 125 164 205 254 314 370
#     4  10  23  44  64  86 126 170 205 251 311 368
#     4  11  23  42  66  91 123 164 209 254 314 376
#     4  12  24  38  60  90 125 161 206 257 312 373
#     4  10  20  37  61  89 124 161 198 250 317 375
#
# _framework density 18.935123999999998
#
# number of rings (size 3 to 8) (size 9 to 14) (size 15 to 20)
#    0.000    1.500    2.500    3.000    0.000    4.250 
#    0.000    6.875    0.000    0.000    0.000    0.000 
#    0.000    0.000    0.000    0.000    0.000    0.000 
#
# Total GULP energy -178842.088833 kJ/mol
# GULP energy per Si atom -5588.815276 kJ/mol
# Density = 1.889203 g / cm^3
# Si number density = 18.935124 Si / 1000 Ang^3
#
#
#
# Elastic Constant Matrix: (Units=GPa)
#
#
# Indices 1 2 3 4 5 6 
#
# 1 171.7520 57.4948 78.8935 0.0000 -7.2895 0.0000
# 2 57.4948 50.0279 45.2519 0.0000 0.9142 0.0000
# 3 78.8935 45.2519 138.0327 0.0000 -0.5320 0.0000
# 4 0.0000 0.0000 0.0000 32.3153 0.0000 1.6238
# 5 -7.2895 0.9142 -0.5320 0.0000 23.3412 0.0000
# 6 0.0000 0.0000 0.0000 1.6238 0.0000 33.6105
#
#
#
# Elastic Compliance Matrix: (Units=1/GPa)
#
#
# Indices 1 2 3 4 5 6 
#
# 1 0.010470 -0.009521 -0.002849 0.000000 0.003578 0.000000
# 2 -0.009521 0.037114 -0.006743 0.000000 -0.004581 0.000000
# 3 -0.002849 -0.006743 0.011082 0.000000 -0.000373 0.000000
# 4 0.000000 0.000000 0.000000 0.031020 0.000000 -0.001499
# 5 0.003578 -0.004581 -0.000373 0.000000 0.044131 0.000000
# 6 0.000000 0.000000 0.000000 -0.001499 0.000000 0.029825
#
#
# Mechanical properties :
#
#
# Convention : Reuss Voigt Hill
#
# Bulk Modulus (GPa) = 48.92402 80.34367 64.63385
# Shear Modulus (GPa) = 23.95978 29.73157 26.84567
#
# Velocity S-wave (km/s) = 3.56105 3.96685 3.76942
# Velocity P-wave (km/s) = 6.54232 7.96896 7.29062
#
# Compressibility (1/GPa) = 0.02043986
#
# Stress axis : x y z
#
# Youngs Moduli (GPa) = 95.50921 26.94388 90.23405
#
# Poissons Ratio (x) = 0.25654 0.25709
# Poissons Ratio (y) = 0.90936 0.60846
# Poissons Ratio (z) = 0.27212 0.18169
#
# Static dielectric constant tensor:
#      x y z
#    x 1.662040 0.000000 -0.004240 
#    y 0.000000 1.639990 0.000000 
#    z -0.004240 0.000000 1.632510 
# 
# From -- ./inp_files/338909.got.cif
#   From: 2010.05.17/outbox.cif.g08.bks.cpg/sg12_170_cif.got.tgz:338909.got - 2010.06.03 13:09:07.
