data_PCOD9201302
_publ_section_title
;
Structure prediction by ZEFSAII (Michael W. Deem and Ramdas Pophale) SiO2 
 PCOD9201302
Probable space group: C 2/M
;
_chemical_formula_sum "Si O2"
_cell_formula_units_Z 48
_cell_length_a 18.159749
_cell_length_b 20.027197
_cell_length_c 8.651861
_cell_angle_alpha 90.000000
_cell_angle_beta 129.214735
_cell_angle_gamma 90.000000
_cell_volume 2437.917603
_symmetry_space_group_name_H-M "C 2/M"
_symmetry_group_IT_number 12
_symmetry_cell_setting 'monoclinic'
loop_
_space_group_symop_operation_xyz
x,y,z
-x,y,-z
-x,-y,-z
x,-y,z
1/2+x,1/2+y,z
1/2-x,1/2+y,-z
1/2-x,1/2-y,-z
1/2+x,1/2-y,z
loop_
_atom_site_type_symbol
_atom_site_label
_atom_site_fract_x
_atom_site_fract_y
_atom_site_fract_z
Si Si1 0.770977 0.139643 0.465279
Si Si2 0.901408 0.420918 0.952098
Si Si3 0.474357 0.425775 0.783859
Si Si4 0.570560 0.830729 0.721256
Si Si5 0.769415 0.276368 0.287603
Si Si6 0.448102 0.287482 0.098095
O O1 0.686995 0.100266 0.270444
O O2 0.864565 0.095345 0.617056
O O3 0.795086 0.204433 0.392869
O O4 0.734340 0.170223 0.578044
O O5 0.902426 0.500000 0.974848
O O6 0.897097 0.383367 0.108941
O O7 0.000000 0.400712 0.000000
O O8 0.492499 0.500000 0.742164
O O9 0.533929 0.361108 0.808495
O O10 0.500000 0.429573 0.000000
O O11 0.500000 0.860170 0.500000
O O12 0.658910 0.799302 0.748257
O O13 0.517906 0.770598 0.742841
O O14 0.662298 0.274048 0.080699
O O15 0.500000 0.283684 0.000000
#
# Coordination Sequence:
#
# PCOD9201302 Si02
#       6
#     8   8   8   8   8   8
#     4  11  21  40  68  93 127 169 217 268 325 391
#     4  11  25  44  65  91 128 174 221 269 327 392
#     4  10  20  37  61  92 127 165 208 258 319 389
#     4  12  25  40  64  95 128 166 214 277 326 381
#     4  11  23  38  66  99 126 163 219 272 324 383
#     4  11  21  41  63  93 132 166 214 271 318 390
#
# _framework density 19.688935000000001
#
# number of rings (size 3 to 8) (size 9 to 14) (size 15 to 20)
#    0.000    1.000    5.000    3.500    2.333    0.333 
#    0.000    2.500    0.000    1.500    0.000    0.000 
#    0.000    0.000    0.000    0.000    0.000    0.000 
#
# Total GULP energy -134159.117798 kJ/mol
# GULP energy per Si atom -5589.963242 kJ/mol
# Density = 1.964412 g / cm^3
# Si number density = 19.688935 Si / 1000 Ang^3
#
#
#
# Elastic Constant Matrix: (Units=GPa)
#
#
# Indices 1 2 3 4 5 6 
#
# 1 84.5359 15.6382 32.2598 0.0000 -4.4147 0.0000
# 2 15.6382 92.5997 38.6734 0.0000 -11.0060 0.0000
# 3 32.2598 38.6734 134.2623 0.0000 12.5369 0.0000
# 4 0.0000 0.0000 0.0000 56.5659 0.0000 7.5884
# 5 -4.4147 -11.0060 12.5369 0.0000 28.1935 0.0000
# 6 0.0000 0.0000 0.0000 7.5884 0.0000 17.4071
#
#
#
# Elastic Compliance Matrix: (Units=1/GPa)
#
#
# Indices 1 2 3 4 5 6 
#
# 1 0.013392 -0.000424 -0.003418 0.000000 0.003451 0.000000
# 2 -0.000424 0.013609 -0.004495 0.000000 0.007245 0.000000
# 3 -0.003418 -0.004495 0.010201 0.000000 -0.006826 0.000000
# 4 0.000000 0.000000 0.000000 0.018777 0.000000 -0.008185
# 5 0.003451 0.007245 -0.006826 0.000000 0.041873 0.000000
# 6 0.000000 0.000000 0.000000 -0.008185 0.000000 0.061016
#
#
# Mechanical properties :
#
#
# Convention : Reuss Voigt Hill
#
# Bulk Modulus (GPa) = 48.71025 53.83787 51.27406
# Shear Modulus (GPa) = 27.41453 35.42173 31.41813
#
# Velocity S-wave (km/s) = 3.73551 4.24614 3.99899
# Velocity P-wave (km/s) = 6.58779 7.17239 6.88630
#
# Compressibility (1/GPa) = 0.02052956
#
# Stress axis : x y z
#
# Youngs Moduli (GPa) = 74.66978 73.48081 98.02581
#
# Poissons Ratio (x) = 0.03115 0.33505
# Poissons Ratio (y) = 0.03166 0.44059
# Poissons Ratio (z) = 0.25522 0.33027
#
# Static dielectric constant tensor:
#      x y z
#    x 1.667460 0.000000 0.006380 
#    y 0.000000 1.694980 0.000000 
#    z 0.006380 0.000000 1.715570 
# 
# From -- ./inp_files/77709.got.cif
#   From: 2010.05.17/outbox.cif.g08.bks.cpg/sg12_39_cif.got.tgz:77709.got - 2010.06.03 13:09:07.
