data_PCOD9201809
_publ_section_title
;
Structure prediction by ZEFSAII (Michael W. Deem and Ramdas Pophale) SiO2 
 PCOD9201809
Probable space group: C 2/M
;
_chemical_formula_sum "Si O2"
_cell_formula_units_Z 48
_cell_length_a 26.202887
_cell_length_b 15.494056
_cell_length_c 9.631799
_cell_angle_alpha 90.000000
_cell_angle_beta 141.163405
_cell_angle_gamma 90.000000
_cell_volume 2452.220285
_symmetry_space_group_name_H-M "C 2/M"
_symmetry_group_IT_number 12
_symmetry_cell_setting 'monoclinic'
loop_
_space_group_symop_operation_xyz
x,y,z
-x,y,-z
-x,-y,-z
x,-y,z
1/2+x,1/2+y,z
1/2-x,1/2+y,-z
1/2-x,1/2-y,-z
1/2+x,1/2-y,z
loop_
_atom_site_type_symbol
_atom_site_label
_atom_site_fract_x
_atom_site_fract_y
_atom_site_fract_z
Si Si1 0.816015 0.180968 0.091656
Si Si2 0.682625 0.674444 0.357959
Si Si3 0.897803 0.896534 0.532080
Si Si4 0.788668 0.403787 0.369627
Si Si5 0.446582 0.270947 0.149617
Si Si6 0.971697 0.601954 0.780287
O O1 0.846116 0.123928 0.284071
O O2 0.893494 0.221196 0.176723
O O3 0.750000 0.250000 0.000000
O O4 0.767515 0.131601 0.869660
O O5 0.750000 0.750000 0.500000
O O6 0.649354 0.642256 0.434233
O O7 0.734536 0.600349 0.392452
O O8 0.609822 0.704714 0.102594
O O9 0.980845 0.841102 0.694777
O O10 0.911265 0.000000 0.575079
O O11 0.808664 0.500000 0.374632
O O12 0.878141 0.364141 0.576525
O O13 0.477908 0.173193 0.197200
O O14 0.980704 0.500000 0.757593
O O15 0.000000 0.605508 0.000000
#
# Coordination Sequence:
#
# PCOD9201809 Si02
#       6
#     8   8   8   8   8   8
#     4  11  24  42  62  84 120 165 207 252 307 371
#     4  11  22  39  63  89 123 161 203 252 304 365
#     4  12  25  40  63  95 127 164 212 259 309 374
#     4  10  21  38  60  86 118 155 194 242 300 358
#     4  11  23  40  63  88 124 164 202 256 317 372
#     4  10  20  37  64  95 123 155 203 259 312 369
#
# _framework density 19.574097999999999
#
# number of rings (size 3 to 8) (size 9 to 14) (size 15 to 20)
#    0.000    1.167    0.000    8.000    0.000    5.333 
#    0.000    5.833    0.000    4.000    0.000    0.000 
#    0.000    0.000    0.000    0.000    0.000    0.000 
#
# Total GULP energy -133944.663022 kJ/mol
# GULP energy per Si atom -5581.027626 kJ/mol
# Density = 1.952955 g / cm^3
# Si number density = 19.574098 Si / 1000 Ang^3
#
#
#
# Elastic Constant Matrix: (Units=GPa)
#
#
# Indices 1 2 3 4 5 6 
#
# 1 146.3732 58.9931 51.2094 0.0000 -11.3982 0.0000
# 2 58.9931 129.8909 36.8051 0.0000 2.6404 0.0000
# 3 51.2094 36.8051 110.1431 0.0000 11.5534 0.0000
# 4 0.0000 0.0000 0.0000 21.3849 0.0000 3.2934
# 5 -11.3982 2.6404 11.5534 0.0000 25.4090 0.0000
# 6 0.0000 0.0000 0.0000 3.2934 0.0000 24.1104
#
#
#
# Elastic Compliance Matrix: (Units=1/GPa)
#
#
# Indices 1 2 3 4 5 6 
#
# 1 0.010350 -0.003614 -0.004338 0.000000 0.006991 0.000000
# 2 -0.003614 0.009770 -0.001374 0.000000 -0.002012 0.000000
# 3 -0.004338 -0.001374 0.012332 0.000000 -0.007411 0.000000
# 4 0.000000 0.000000 0.000000 0.047767 0.000000 -0.006525
# 5 0.006991 -0.002012 -0.007411 0.000000 0.046071 0.000000
# 6 0.000000 0.000000 0.000000 -0.006525 0.000000 0.042367
#
#
# Mechanical properties :
#
#
# Convention : Reuss Voigt Hill
#
# Bulk Modulus (GPa) = 72.45255 75.60250 74.02752
# Shear Modulus (GPa) = 26.05398 30.14083 28.09741
#
# Velocity S-wave (km/s) = 3.65231 3.92833 3.79283
# Velocity P-wave (km/s) = 7.40815 7.69956 7.55526
#
# Compressibility (1/GPa) = 0.01380214
#
# Stress axis : x y z
#
# Youngs Moduli (GPa) = 96.61440 102.35240 81.08767
#
# Poissons Ratio (x) = 0.36988 0.35176
# Poissons Ratio (y) = 0.34915 0.11138
# Poissons Ratio (z) = 0.41912 0.14059
#
# Static dielectric constant tensor:
#      x y z
#    x 1.700370 0.000000 0.009130 
#    y 0.000000 1.700860 0.000000 
#    z 0.009130 0.000000 1.617490 
# 
# From -- ./inp_files/105031.got.cif
#   From: 2010.05.17/outbox.cif.g08.bks.cpg/sg12_53_cif.got.tgz:105031.got - 2010.06.03 13:09:07.
