data_PCOD9201214
_publ_section_title
;
Structure prediction by ZEFSAII (Michael W. Deem and Ramdas Pophale) SiO2 
 PCOD9201214
Probable space group: C 2/M
;
_chemical_formula_sum "Si O2"
_cell_formula_units_Z 64
_cell_length_a 15.718956
_cell_length_b 8.920823
_cell_length_c 33.859681
_cell_angle_alpha 90.000000
_cell_angle_beta 46.012277
_cell_angle_gamma 90.000000
_cell_volume 3416.138099
_symmetry_space_group_name_H-M "C 2/M"
_symmetry_group_IT_number 12
_symmetry_cell_setting 'monoclinic'
loop_
_space_group_symop_operation_xyz
x,y,z
-x,y,-z
-x,-y,-z
x,-y,z
1/2+x,1/2+y,z
1/2-x,1/2+y,-z
1/2-x,1/2-y,-z
1/2+x,1/2-y,z
loop_
_atom_site_type_symbol
_atom_site_label
_atom_site_fract_x
_atom_site_fract_y
_atom_site_fract_z
Si Si1 0.283012 0.678137 0.674152
Si Si2 0.133090 0.180403 0.057548
Si Si3 0.670106 0.680461 0.136969
Si Si4 0.033795 0.678671 0.332396
Si Si5 0.868980 0.824528 0.559553
Si Si6 0.693174 0.323262 0.556966
Si Si7 0.057126 0.680482 0.938801
Si Si8 0.012484 0.680459 0.742909
O O1 0.288263 0.500000 0.680666
O O2 0.341689 0.768744 0.690495
O O3 0.356404 0.704403 0.610090
O O4 0.147522 0.720296 0.709706
O O5 0.136954 0.222129 0.102640
O O6 0.019486 0.241649 0.070598
O O7 0.137797 0.000000 0.053232
O O8 0.250000 0.250000 0.000000
O O9 0.665632 0.500000 0.140637
O O10 0.805173 0.724901 0.103564
O O11 0.578793 0.749474 0.197141
O O12 0.021342 0.500000 0.338487
O O13 0.015300 0.726266 0.293073
O O14 0.932978 0.753912 0.391584
O O15 0.779663 0.719455 0.564964
O O16 0.000000 0.805563 0.500000
O O17 0.834306 0.000000 0.564488
O O18 0.682551 0.500000 0.554875
O O19 0.750000 0.250000 0.500000
O O20 0.050070 0.500000 0.935839
O O21 0.000000 0.714835 0.000000
O O22 0.003998 0.500000 0.747318
#
# Coordination Sequence:
#
# PCOD9201214 Si02
#       8
#     8   8   8   8   8   8   8   8
#     4  10  21  40  63  90 124 163 205 250 310 369
#     4  11  22  38  61  92 126 163 205 253 308 366
#     4  10  23  41  62  89 125 164 206 256 304 361
#     4  11  23  42  65  91 123 161 206 257 310 364
#     4  10  20  37  61  88 123 160 198 251 311 365
#     4  12  24  38  60  90 124 161 204 253 309 371
#     4  10  20  39  62  88 126 165 203 253 312 365
#     4  10  23  43  64  87 125 168 207 254 305 364
#
# _framework density 18.734605999999999
#
# number of rings (size 3 to 8) (size 9 to 14) (size 15 to 20)
#    0.000    1.500    2.500    2.625    0.000    6.000 
#    0.000    5.000    0.000    0.000    0.000    0.000 
#    0.000    0.000    0.000    0.000    0.000    0.000 
#
# Total GULP energy -178857.986474 kJ/mol
# GULP energy per Si atom -5589.312077 kJ/mol
# Density = 1.869197 g / cm^3
# Si number density = 18.734606 Si / 1000 Ang^3
#
#
#
# Elastic Constant Matrix: (Units=GPa)
#
#
# Indices 1 2 3 4 5 6 
#
# 1 169.4584 61.4643 84.6437 0.0000 5.5305 -0.0002
# 2 61.4643 54.1893 47.9029 0.0001 5.0027 -0.0004
# 3 84.6437 47.9029 150.7303 0.0001 -3.0003 0.0001
# 4 0.0000 0.0001 0.0001 33.2263 0.0002 -2.2900
# 5 5.5305 5.0027 -3.0003 0.0002 24.2597 0.0001
# 6 -0.0002 -0.0004 0.0001 -2.2900 0.0001 34.5783
#
#
#
# Elastic Compliance Matrix: (Units=1/GPa)
#
#
# Indices 1 2 3 4 5 6 
#
# 1 0.010976 -0.009597 -0.003132 0.000000 -0.000910 0.000000
# 2 -0.009597 0.035058 -0.005867 0.000000 -0.005767 0.000000
# 3 -0.003132 -0.005867 0.010321 0.000000 0.003200 0.000000
# 4 0.000000 0.000000 0.000000 0.030235 0.000000 0.002002
# 5 -0.000910 -0.005767 0.003200 0.000000 0.043013 0.000000
# 6 0.000000 0.000000 0.000000 0.002002 0.000000 0.029053
#
#
# Mechanical properties :
#
#
# Convention : Reuss Voigt Hill
#
# Bulk Modulus (GPa) = 52.18231 84.71109 68.44670
# Shear Modulus (GPa) = 24.72350 30.43733 27.58042
#
# Velocity S-wave (km/s) = 3.63667 4.03508 3.84104
# Velocity P-wave (km/s) = 6.74890 8.18680 7.50238
#
# Compressibility (1/GPa) = 0.01916358
#
# Stress axis : x y z
#
# Youngs Moduli (GPa) = 91.10606 28.52383 96.88607
#
# Poissons Ratio (x) = 0.27375 0.30343
# Poissons Ratio (y) = 0.87436 0.56845
# Poissons Ratio (z) = 0.28533 0.16735
#
# Static dielectric constant tensor:
#      x y z
#    x 1.651150 0.000000 0.000790 
#    y 0.000000 1.630530 0.000000 
#    z 0.000790 0.000000 1.622980 
# 
# From -- ./inp_files/375438.got.cif
#   From: 2010.05.17/outbox.cif.g08.bks.cpg/sg12_188_cif.got.tgz:375438.got - 2010.06.03 13:09:07.
