data_PCOD9201440
_publ_section_title
;
Structure prediction by ZEFSAII (Michael W. Deem and Ramdas Pophale) SiO2 
 PCOD9201440
Probable space group: C 2/M
;
_chemical_formula_sum "Si O2"
_cell_formula_units_Z 52
_cell_length_a 18.313819
_cell_length_b 23.497152
_cell_length_c 6.592975
_cell_angle_alpha 90.000000
_cell_angle_beta 113.692896
_cell_angle_gamma 90.000000
_cell_volume 2597.973273
_symmetry_space_group_name_H-M "C 2/M"
_symmetry_group_IT_number 12
_symmetry_cell_setting 'monoclinic'
loop_
_space_group_symop_operation_xyz
x,y,z
-x,y,-z
-x,-y,-z
x,-y,z
1/2+x,1/2+y,z
1/2-x,1/2+y,-z
1/2-x,1/2-y,-z
1/2+x,1/2-y,z
loop_
_atom_site_type_symbol
_atom_site_label
_atom_site_fract_x
_atom_site_fract_y
_atom_site_fract_z
Si Si1 0.199156 0.153342 0.145037
Si Si2 0.349198 0.170272 0.077842
Si Si3 0.947560 0.772553 0.117364
Si Si4 0.341570 0.566795 0.238506
Si Si5 0.095885 0.436049 0.597112
Si Si6 0.798031 0.387562 0.633680
Si Si7 0.000000 0.138375 0.500000
O O1 0.262198 0.183544 0.067195
O O2 0.242022 0.141977 0.403813
O O3 0.122730 0.192515 0.069480
O O4 0.176616 0.095159 0.001000
O O5 0.408649 0.221030 0.196707
O O6 0.373880 0.111963 0.215796
O O7 0.341162 0.156967 0.830929
O O8 0.993409 0.818865 0.302668
O O9 0.000000 0.746315 0.000000
O O10 0.357328 0.500000 0.241540
O O11 0.263820 0.577646 0.292956
O O12 0.419770 0.600145 0.409913
O O13 0.121198 0.500000 0.683774
O O14 0.136135 0.421915 0.423774
O O15 0.000000 0.434195 0.500000
#
# Coordination Sequence:
#
# PCOD9201440 Si02
#       7
#     8   8   8   8   8   8   4
#     4   9  21  40  55  85 120 150 188 238 287 335
#     4  10  23  37  61  86 112 150 196 234 283 345
#     4  11  23  37  60  85 115 153 195 237 283 337
#     4  10  20  37  62  89 117 153 194 233 284 347
#     4  10  23  40  58  83 117 148 183 237 291 340
#     4  10  21  37  60  86 116 150 192 232 287 344
#     4  10  23  40  58  86 123 154 188 242 290 332
#
# _framework density 20.015604
#
# number of rings (size 3 to 8) (size 9 to 14) (size 15 to 20)
#    0.000    2.000    0.000    2.077    3.231    8.615 
#    0.000    1.538    0.000    5.077    0.000    0.000 
#    0.000    0.000    0.000    0.000    0.000    0.000 
#
# Total GULP energy -145096.902155 kJ/mol
# GULP energy per Si atom -5580.650083 kJ/mol
# Density = 1.997005 g / cm^3
# Si number density = 20.015604 Si / 1000 Ang^3
#
#
#
# Elastic Constant Matrix: (Units=GPa)
#
#
# Indices 1 2 3 4 5 6 
#
# 1 76.4099 14.7373 18.6504 0.0000 3.8173 0.0000
# 2 14.7373 93.9801 32.6897 0.0000 3.4584 0.0000
# 3 18.6504 32.6897 70.8502 0.0000 -2.0487 0.0000
# 4 0.0000 0.0000 0.0000 16.9819 0.0000 9.9132
# 5 3.8173 3.4584 -2.0487 0.0000 19.1215 0.0000
# 6 0.0000 0.0000 0.0000 9.9132 0.0000 25.8267
#
#
#
# Elastic Compliance Matrix: (Units=1/GPa)
#
#
# Indices 1 2 3 4 5 6 
#
# 1 0.014252 -0.000938 -0.003407 0.000000 -0.003040 0.000000
# 2 -0.000938 0.012902 -0.005786 0.000000 -0.002766 0.000000
# 3 -0.003407 -0.005786 0.017786 0.000000 0.003632 0.000000
# 4 0.000000 0.000000 0.000000 0.075891 0.000000 -0.029130
# 5 -0.003040 -0.002766 0.003632 0.000000 0.053794 0.000000
# 6 0.000000 0.000000 0.000000 -0.029130 0.000000 0.049901
#
#
# Mechanical properties :
#
#
# Convention : Reuss Voigt Hill
#
# Bulk Modulus (GPa) = 40.52185 41.48834 41.00510
# Shear Modulus (GPa) = 19.76195 24.06354 21.91275
#
# Velocity S-wave (km/s) = 3.14559 3.47109 3.31234
# Velocity P-wave (km/s) = 5.78637 6.06940 5.92957
#
# Compressibility (1/GPa) = 0.02467804
#
# Stress axis : x y z
#
# Youngs Moduli (GPa) = 70.16738 77.50739 56.22501
#
# Poissons Ratio (x) = 0.07270 0.19154
# Poissons Ratio (y) = 0.06582 0.32532
# Poissons Ratio (z) = 0.23904 0.44845
#
# Static dielectric constant tensor:
#      x y z
#    x 1.719440 0.000000 0.001990 
#    y 0.000000 1.689960 0.000000 
#    z 0.001990 0.000000 1.697320 
# 
# From -- ./inp_files/21968.got.cif
#   From: 2010.05.17/outbox.cif.g08.bks.cpg/sg12_11_cif.got.tgz:21968.got - 2010.06.03 13:09:07.
