data_PCOD9201369
_publ_section_title
;
Structure prediction by ZEFSAII (Michael W. Deem and Ramdas Pophale) SiO2 
 PCOD9201369
Probable space group: C 2/M
;
_chemical_formula_sum "Si O2"
_cell_formula_units_Z 56
_cell_length_a 27.894709
_cell_length_b 7.802231
_cell_length_c 18.981374
_cell_angle_alpha 90.000000
_cell_angle_beta 142.515925
_cell_angle_gamma 90.000000
_cell_volume 2513.958226
_symmetry_space_group_name_H-M "C 2/M"
_symmetry_group_IT_number 12
_symmetry_cell_setting 'monoclinic'
loop_
_space_group_symop_operation_xyz
x,y,z
-x,y,-z
-x,-y,-z
x,-y,z
1/2+x,1/2+y,z
1/2-x,1/2+y,-z
1/2-x,1/2-y,-z
1/2+x,1/2-y,z
loop_
_atom_site_type_symbol
_atom_site_label
_atom_site_fract_x
_atom_site_fract_y
_atom_site_fract_z
Si Si1 0.749529 0.705306 0.198001
Si Si2 0.511206 0.699029 0.784472
Si Si3 0.319671 0.707219 0.028128
Si Si4 0.977390 0.697641 0.896508
Si Si5 0.135884 0.207561 0.471496
Si Si6 0.696580 0.702596 0.290509
Si Si7 0.581987 0.293987 0.564613
O O1 0.741467 0.500000 0.190474
O O2 0.718264 0.768621 0.237113
O O3 0.841943 0.746613 0.300982
O O4 0.704010 0.771771 0.077079
O O5 0.509255 0.500000 0.760705
O O6 0.593109 0.772720 0.850725
O O7 0.514381 0.710004 0.872574
O O8 0.428539 0.770604 0.659792
O O9 0.324703 0.500000 0.030501
O O10 0.250000 0.750000 0.000000
O O11 0.003105 0.500000 0.924466
O O12 0.883293 0.709541 0.778743
O O13 0.000000 0.768412 0.000000
O O14 0.225420 0.271354 0.571856
O O15 0.101849 0.262434 0.508250
O O16 0.141156 0.000000 0.475599
O O17 0.680177 0.500000 0.268285
O O18 0.500000 0.227647 0.500000
O O19 0.576918 0.500000 0.556258
#
# Coordination Sequence:
#
# PCOD9201369 Si02
#       7
#     8   8   8   8   8   8   8
#     4   9  19  35  53  79 111 144 185 232 280 335
#     4  10  22  40  61  84 116 156 195 237 284 343
#     4  10  22  38  57  82 113 151 193 236 286 341
#     4  11  24  40  61  89 118 148 189 241 292 342
#     4   9  19  36  56  83 118 152 191 238 285 337
#     4  10  20  37  62  87 114 151 192 234 287 345
#     4   9  18  31  53  81 107 143 189 234 280 332
#
# _framework density 22.275628000000001
#
# number of rings (size 3 to 8) (size 9 to 14) (size 15 to 20)
#    0.000    2.286    0.000    1.714    2.000    5.429 
#    0.000    0.000    0.000    0.000    0.000    0.000 
#    0.000    0.000    0.000    0.000    0.000    0.000 
#
# Total GULP energy -156388.843603 kJ/mol
# GULP energy per Si atom -5585.315843 kJ/mol
# Density = 2.222493 g / cm^3
# Si number density = 22.275628 Si / 1000 Ang^3
#
#
#
# Elastic Constant Matrix: (Units=GPa)
#
#
# Indices 1 2 3 4 5 6 
#
# 1 69.5237 -7.9124 31.2232 0.0000 25.6226 0.0000
# 2 -7.9124 28.0082 -2.0424 0.0000 -0.6202 0.0000
# 3 31.2232 -2.0424 119.1838 0.0000 7.5096 0.0000
# 4 0.0000 0.0000 0.0000 15.3903 0.0000 -4.8697
# 5 25.6226 -0.6202 7.5096 0.0000 31.0072 0.0000
# 6 0.0000 0.0000 0.0000 -4.8697 0.0000 12.9919
#
#
#
# Elastic Compliance Matrix: (Units=1/GPa)
#
#
# Indices 1 2 3 4 5 6 
#
# 1 0.024232 0.006063 -0.005068 0.000000 -0.018676 0.000000
# 2 0.006063 0.037275 -0.000691 0.000000 -0.004097 0.000000
# 3 -0.005068 -0.000691 0.009589 0.000000 0.001851 0.000000
# 4 0.000000 0.000000 0.000000 0.073719 0.000000 0.027632
# 5 -0.018676 -0.004097 0.001851 0.000000 0.047153 0.000000
# 6 0.000000 0.000000 0.000000 0.027632 0.000000 0.087328
#
#
# Mechanical properties :
#
#
# Convention : Reuss Voigt Hill
#
# Bulk Modulus (GPa) = 13.94612 28.80581 21.37597
# Shear Modulus (GPa) = 16.52396 24.90772 20.71584
#
# Velocity S-wave (km/s) = 2.72655 3.34752 3.05286
# Velocity P-wave (km/s) = 4.02323 5.28212 4.69506
#
# Compressibility (1/GPa) = 0.07170453
#
# Stress axis : x y z
#
# Youngs Moduli (GPa) = 41.26736 26.82731 104.28076
#
# Poissons Ratio (x) = -0.16264 0.52846
# Poissons Ratio (y) = -0.25019 0.07209
# Poissons Ratio (z) = 0.20913 0.01855
#
# Static dielectric constant tensor:
#      x y z
#    x 1.813570 0.000000 0.003470 
#    y 0.000000 1.806540 0.000000 
#    z 0.003470 0.000000 1.843230 
# 
# From -- ./inp_files/292560.got.cif
#   From: 2010.05.17/outbox.cif.g08.bks.cpg/sg12_147_cif.got.tgz:292560.got - 2010.06.03 13:09:07.
