data_PCOD9201784
_publ_section_title
;
Structure prediction by ZEFSAII (Michael W. Deem and Ramdas Pophale) SiO2 
 PCOD9201784
Probable space group: C 2/M
;
_chemical_formula_sum "Si O2"
_cell_formula_units_Z 58
_cell_length_a 20.942997
_cell_length_b 14.172023
_cell_length_c 11.763089
_cell_angle_alpha 90.000000
_cell_angle_beta 142.309467
_cell_angle_gamma 90.000000
_cell_volume 2134.591946
_symmetry_space_group_name_H-M "C 2/M"
_symmetry_group_IT_number 12
_symmetry_cell_setting 'monoclinic'
loop_
_space_group_symop_operation_xyz
x,y,z
-x,y,-z
-x,-y,-z
x,-y,z
1/2+x,1/2+y,z
1/2-x,1/2+y,-z
1/2-x,1/2-y,-z
1/2+x,1/2-y,z
loop_
_atom_site_type_symbol
_atom_site_label
_atom_site_fract_x
_atom_site_fract_y
_atom_site_fract_z
Si Si1 0.500000 0.000000 0.000000
Si Si2 0.623715 0.848993 0.030313
Si Si3 0.944755 0.105560 0.259671
Si Si4 0.597478 0.884541 0.558357
Si Si5 0.172610 0.889304 0.550347
Si Si6 0.711396 0.894215 0.508982
Si Si7 0.902063 0.865825 0.939650
Si Si8 0.779044 0.614783 0.054112
O O1 0.542302 0.081553 0.971815
O O2 0.738575 0.883420 0.230869
O O3 0.606595 0.746023 0.055137
O O4 0.631330 0.853205 0.905639
O O5 0.835505 0.151539 0.143140
O O6 0.060239 0.149007 0.432520
O O7 0.947214 0.000000 0.313716
O O8 0.924538 0.096998 0.096432
O O9 0.500000 0.856338 0.500000
O O10 0.620423 0.851566 0.461018
O O11 0.592602 0.000000 0.541905
O O12 0.693255 0.859114 0.777739
O O13 0.232227 0.849756 0.521897
O O14 0.150907 0.000000 0.493285
O O15 0.803162 0.901346 0.730520
O O16 0.676565 0.000000 0.420185
O O17 0.000000 0.888200 0.000000
O O18 0.777167 0.500000 0.047756
#
# Coordination Sequence:
#
# PCOD9201784 Si02
#       8
#     2   8   8   8   8   8   8   8
#     4  12  24  48  64  78 124 178 234 252 290 384
#     4  12  26  43  64  91 128 176 220 264 310 384
#     4  10  21  39  69  98 128 165 206 266 328 390
#     4   9  18  34  57  92 124 160 213 260 311 373
#     4  10  21  39  65  96 125 162 215 263 315 378
#     4  10  20  37  64  93 127 165 206 271 323 383
#     4  12  23  39  63  96 127 169 210 263 333 380
#     4  10  20  39  66  90 123 169 211 262 321 383
#
# _framework density 27.171469999999999
#
# number of rings (size 3 to 8) (size 9 to 14) (size 15 to 20)
#    0.000    1.517    4.828    0.414    0.000    3.310 
#    2.483    2.069    0.000    0.000    0.000    0.000 
#    0.000    0.000    0.000    0.000    0.000    0.000 
#
# Total GULP energy -162092.327807 kJ/mol
# GULP energy per Si atom -5589.390614 kJ/mol
# Density = 2.710963 g / cm^3
# Si number density = 27.171470 Si / 1000 Ang^3
#
#
#
# Elastic Constant Matrix: (Units=GPa)
#
#
# Indices 1 2 3 4 5 6 
#
# 1 197.1675 0.1627 16.1010 0.0000 8.0549 0.0000
# 2 0.1627 124.3703 -17.0195 0.0000 10.9779 0.0000
# 3 16.1010 -17.0195 74.0863 0.0000 7.3879 0.0000
# 4 0.0000 0.0000 0.0000 37.9544 0.0000 -2.1515
# 5 8.0549 10.9779 7.3879 0.0000 47.1149 0.0000
# 6 0.0000 0.0000 0.0000 -2.1515 0.0000 25.6667
#
#
#
# Elastic Compliance Matrix: (Units=1/GPa)
#
#
# Indices 1 2 3 4 5 6 
#
# 1 0.005189 -0.000093 -0.001080 0.000000 -0.000696 0.000000
# 2 -0.000093 0.008549 0.002216 0.000000 -0.002323 0.000000
# 3 -0.001080 0.002216 0.014501 0.000000 -0.002606 0.000000
# 4 0.000000 0.000000 0.000000 0.026473 0.000000 0.002219
# 5 -0.000696 -0.002323 -0.002606 0.000000 0.022294 0.000000
# 6 0.000000 0.000000 0.000000 0.002219 0.000000 0.039147
#
#
# Mechanical properties :
#
#
# Convention : Reuss Voigt Hill
#
# Bulk Modulus (GPa) = 32.97601 43.79028 38.38315
# Shear Modulus (GPa) = 40.26588 48.57253 44.41920
#
# Velocity S-wave (km/s) = 3.85374 4.23262 4.04762
# Velocity P-wave (km/s) = 5.65371 6.32756 6.00010
#
# Compressibility (1/GPa) = 0.03032507
#
# Stress axis : x y z
#
# Youngs Moduli (GPa) = 192.73386 116.97353 68.95949
#
# Poissons Ratio (x) = 0.01089 0.07445
# Poissons Ratio (y) = 0.01794 -0.15280
# Poissons Ratio (z) = 0.20807 -0.25919
#
# Static dielectric constant tensor:
#      x y z
#    x 2.108310 0.000000 0.043730 
#    y 0.000000 2.168020 0.000000 
#    z 0.043730 0.000000 2.157030 
# 
# From -- ./inp_files/168975.got.cif
#   From: 2010.05.17/outbox.cif.g08.bks.cpg/sg12_85_cif.got.tgz:168975.got - 2010.06.03 13:09:07.
