data_PCOD9201722
_publ_section_title
;
Structure prediction by ZEFSAII (Michael W. Deem and Ramdas Pophale) SiO2 
 PCOD9201722
Probable space group: C 2/M
;
_chemical_formula_sum "Si O2"
_cell_formula_units_Z 46
_cell_length_a 13.118226
_cell_length_b 28.868838
_cell_length_c 14.461243
_cell_angle_alpha 90.000000
_cell_angle_beta 20.289909
_cell_angle_gamma 90.000000
_cell_volume 1899.118811
_symmetry_space_group_name_H-M "C 2/M"
_symmetry_group_IT_number 12
_symmetry_cell_setting 'monoclinic'
loop_
_space_group_symop_operation_xyz
x,y,z
-x,y,-z
-x,-y,-z
x,-y,z
1/2+x,1/2+y,z
1/2-x,1/2+y,-z
1/2-x,1/2-y,-z
1/2+x,1/2-y,z
loop_
_atom_site_type_symbol
_atom_site_label
_atom_site_fract_x
_atom_site_fract_y
_atom_site_fract_z
Si Si1 0.344510 0.308933 0.230498
Si Si2 0.771494 0.915165 0.820499
Si Si3 0.658255 0.500000 0.765734
Si Si4 0.716360 0.902766 0.403649
Si Si5 0.346526 0.792948 0.230670
Si Si6 0.934009 0.617459 0.269932
Si Si7 0.500000 0.500000 0.500000
O O1 0.407022 0.355722 0.234040
O O2 0.402277 0.258675 0.224401
O O3 0.000000 0.308142 0.500000
O O4 0.500000 0.313032 0.000000
O O5 0.081671 0.890033 0.559880
O O6 0.847874 0.960119 0.696027
O O7 0.500000 0.890423 0.000000
O O8 0.624632 0.918099 0.046234
O O9 0.619382 0.452195 0.742132
O O10 0.000000 0.500000 0.500000
O O11 0.500000 0.500000 0.000000
O O12 0.500000 0.902961 0.500000
O O13 0.525236 0.895193 0.657904
O O14 0.470146 0.831359 0.196411
O O15 0.000000 0.799316 0.500000
O O16 0.500000 0.792541 0.000000
#
# Coordination Sequence:
#
# PCOD9201722 Si02
#       7
#     8   8   4   8   8   8   2
#     4   9  19  37  63  92 128 176 222 277 338 399
#     4  12  25  44  67  97 137 171 222 274 339 405
#     4  10  22  42  68  86 115 169 220 278 335 374
#     4  10  24  45  68  95 135 178 232 287 335 389
#     4  10  20  37  63  95 134 173 217 272 342 408
#     4  12  25  39  68 102 133 183 222 275 335 410
#     4  12  26  44  74  96 140 182 206 284 348 402
#
# _framework density 24.22176
#
# number of rings (size 3 to 8) (size 9 to 14) (size 15 to 20)
#    0.000    1.391    1.739    3.391    0.000    7.652 
#    0.000    0.000    0.000   14.609    0.000    0.000 
#    0.000    0.000    0.000    0.000    0.000    0.000 
#
# Total GULP energy -128197.543828 kJ/mol
# GULP energy per Si atom -5573.806253 kJ/mol
# Density = 2.416663 g / cm^3
# Si number density = 24.221760 Si / 1000 Ang^3
#
#
#
# Elastic Constant Matrix: (Units=GPa)
#
#
# Indices 1 2 3 4 5 6 
#
# 1 97.5556 68.8757 45.8999 -0.0149 24.6160 -0.0176
# 2 68.8757 171.0571 49.9676 0.0090 35.8931 -0.0038
# 3 45.8999 49.9676 202.7094 -0.0621 35.6737 -0.0273
# 4 -0.0149 0.0090 -0.0621 30.8624 0.0393 5.0592
# 5 24.6160 35.8931 35.6737 0.0393 58.9632 0.0200
# 6 -0.0176 -0.0038 -0.0273 5.0592 0.0200 6.2430
#
#
#
# Elastic Compliance Matrix: (Units=1/GPa)
#
#
# Indices 1 2 3 4 5 6 
#
# 1 0.015302 -0.005184 -0.001811 0.000002 -0.002137 0.000037
# 2 -0.005184 0.008662 -0.000464 -0.000002 -0.002828 0.000000
# 3 -0.001811 -0.000464 0.005903 0.000011 -0.002533 0.000020
# 4 0.000002 -0.000002 0.000011 0.037366 -0.000021 -0.030280
# 5 -0.002137 -0.002828 -0.002533 -0.000021 0.021106 -0.000070
# 6 0.000037 0.000000 0.000020 -0.030280 -0.000070 0.184718
#
#
# Mechanical properties :
#
#
# Convention : Reuss Voigt Hill
#
# Bulk Modulus (GPa) = 66.88795 88.97872 77.93334
# Shear Modulus (GPa) = 17.06730 39.65232 28.35981
#
# Velocity S-wave (km/s) = 2.65736 4.05044 3.42547
# Velocity P-wave (km/s) = 6.09017 7.66091 6.92025
#
# Compressibility (1/GPa) = 0.01495038
#
# Stress axis : x y z
#
# Youngs Moduli (GPa) = 65.35242 115.44467 169.39528
#
# Poissons Ratio (x) = 0.59844 0.30676
# Poissons Ratio (y) = 0.33877 0.07855
# Poissons Ratio (z) = 0.11835 0.05353
#
# Static dielectric constant tensor:
#      x y z
#    x 1.962100 -0.000010 -0.031740 
#    y -0.000010 2.005700 -0.000020 
#    z -0.031740 -0.000020 1.933370 
# 
# From -- ./inp_files/219572.got.cif
#   From: 2010.05.17/outbox.cif.g08.bks.cpg/sg12_110_cif.got.tgz:219572.got - 2010.06.03 13:09:07.
