data_PCOD9201547
_publ_section_title
;
Structure prediction by ZEFSAII (Michael W. Deem and Ramdas Pophale) SiO2 
 PCOD9201547
Probable space group: C 2/M
;
_chemical_formula_sum "Si O2"
_cell_formula_units_Z 64
_cell_length_a 28.172095
_cell_length_b 14.522829
_cell_length_c 9.483521
_cell_angle_alpha 90.000000
_cell_angle_beta 47.039160
_cell_angle_gamma 90.000000
_cell_volume 2839.514225
_symmetry_space_group_name_H-M "C 2/M"
_symmetry_group_IT_number 12
_symmetry_cell_setting 'monoclinic'
loop_
_space_group_symop_operation_xyz
x,y,z
-x,y,-z
-x,-y,-z
x,-y,z
1/2+x,1/2+y,z
1/2-x,1/2+y,-z
1/2-x,1/2-y,-z
1/2+x,1/2-y,z
loop_
_atom_site_type_symbol
_atom_site_label
_atom_site_fract_x
_atom_site_fract_y
_atom_site_fract_z
Si Si1 0.562609 0.208587 0.799946
Si Si2 0.311557 0.895608 0.406195
Si Si3 0.224596 0.101445 0.856477
Si Si4 0.341685 0.397503 0.612312
Si Si5 0.292089 0.801574 0.157889
Si Si6 0.421067 0.401476 0.157096
Si Si7 0.441701 0.732114 0.509794
Si Si8 0.352594 0.897215 0.789959
O O1 0.621266 0.138458 0.662521
O O2 0.586239 0.292263 0.856486
O O3 0.542801 0.251106 0.687916
O O4 0.500000 0.165749 0.000000
O O5 0.256881 0.896178 0.635992
O O6 0.295698 0.825775 0.313935
O O7 0.316590 0.000000 0.341447
O O8 0.188681 0.199206 0.931256
O O9 0.284314 0.108057 0.844788
O O10 0.194186 0.000000 0.938676
O O11 0.317825 0.500000 0.695528
O O12 0.282901 0.325304 0.727494
O O13 0.378606 0.404581 0.387238
O O14 0.395527 0.357290 0.607210
O O15 0.336329 0.872712 0.983457
O O16 0.402632 0.500000 0.121551
O O17 0.500000 0.406470 0.000000
O O18 0.500000 0.721601 0.500000
O O19 0.400959 0.821323 0.635139
O O20 0.378201 0.000000 0.721038
#
# Coordination Sequence:
#
# PCOD9201547 Si02
#       8
#     8   8   8   8   8   8   8   8
#     4  10  21  39  61  88 119 164 210 267 319 373
#     4  11  23  40  62  92 129 167 209 263 320 377
#     4  10  21  39  64  89 126 169 206 255 319 379
#     4  10  20  37  62  91 126 166 210 263 321 379
#     4  12  23  41  65  99 130 169 214 261 319 389
#     4   8  15  31  56  83 114 155 204 252 306 369
#     4  11  24  41  62  91 124 169 218 265 318 379
#     4  11  23  42  64  91 128 169 211 263 320 383
#
# _framework density 22.539065999999998
#
# number of rings (size 3 to 8) (size 9 to 14) (size 15 to 20)
#    0.000    1.625    2.500    2.625    1.750    0.750 
#    0.000    1.875    0.000    0.000    0.000    0.000 
#    0.000    0.000    0.000    0.000    0.000    0.000 
#
# Total GULP energy -178492.196722 kJ/mol
# GULP energy per Si atom -5577.881148 kJ/mol
# Density = 2.248777 g / cm^3
# Si number density = 22.539066 Si / 1000 Ang^3
#
#
#
# Elastic Constant Matrix: (Units=GPa)
#
#
# Indices 1 2 3 4 5 6 
#
# 1 80.5096 5.9543 -2.5576 0.0000 8.0919 0.0000
# 2 5.9543 105.2269 -6.5019 0.0000 -7.3092 0.0000
# 3 -2.5576 -6.5019 66.8392 0.0000 7.6760 0.0000
# 4 0.0000 0.0000 0.0000 66.5632 0.0000 -13.5032
# 5 8.0919 -7.3092 7.6760 0.0000 18.1155 0.0000
# 6 0.0000 0.0000 0.0000 -13.5032 0.0000 25.9851
#
#
#
# Elastic Compliance Matrix: (Units=1/GPa)
#
#
# Indices 1 2 3 4 5 6 
#
# 1 0.013235 -0.001154 0.001184 0.000000 -0.006879 0.000000
# 2 -0.001154 0.009895 0.000421 0.000000 0.004329 0.000000
# 3 0.001184 0.000421 0.015861 0.000000 -0.007080 0.000000
# 4 0.000000 0.000000 0.000000 0.016794 0.000000 0.008727
# 5 -0.006879 0.004329 -0.007080 0.000000 0.063021 0.000000
# 6 0.000000 0.000000 0.000000 0.008727 0.000000 0.043019
#
#
# Mechanical properties :
#
#
# Convention : Reuss Voigt Hill
#
# Bulk Modulus (GPa) = 25.06580 27.37392 26.21986
# Shear Modulus (GPa) = 28.69956 39.17816 33.93886
#
# Velocity S-wave (km/s) = 3.57224 4.17374 3.88465
# Velocity P-wave (km/s) = 5.30657 5.94964 5.63728
#
# Compressibility (1/GPa) = 0.03989500
#
# Stress axis : x y z
#
# Youngs Moduli (GPa) = 75.55591 101.05808 63.04928
#
# Poissons Ratio (x) = 0.11658 -0.07467
# Poissons Ratio (y) = 0.08716 -0.02656
# Poissons Ratio (z) = -0.08948 -0.04257
#
# Static dielectric constant tensor:
#      x y z
#    x 1.841430 0.000000 0.022190 
#    y 0.000000 1.866480 0.000000 
#    z 0.022190 0.000000 1.832680 
# 
# From -- ./inp_files/111995.got.cif
#   From: 2010.05.17/outbox.cif.g08.bks.cpg/sg12_56_cif.got.tgz:111995.got - 2010.06.03 13:09:07.
