data_PCOD9201598
_publ_section_title
;
Structure prediction by ZEFSAII (Michael W. Deem and Ramdas Pophale) SiO2 
 PCOD9201598
Probable space group: C 2/M
;
_chemical_formula_sum "Si O2"
_cell_formula_units_Z 56
_cell_length_a 18.779571
_cell_length_b 14.318938
_cell_length_c 24.259797
_cell_angle_alpha 90.000000
_cell_angle_beta 149.372575
_cell_angle_gamma 90.000000
_cell_volume 3323.441715
_symmetry_space_group_name_H-M "C 2/M"
_symmetry_group_IT_number 12
_symmetry_cell_setting 'monoclinic'
loop_
_space_group_symop_operation_xyz
x,y,z
-x,y,-z
-x,-y,-z
x,-y,z
1/2+x,1/2+y,z
1/2-x,1/2+y,-z
1/2-x,1/2-y,-z
1/2+x,1/2-y,z
loop_
_atom_site_type_symbol
_atom_site_label
_atom_site_fract_x
_atom_site_fract_y
_atom_site_fract_z
Si Si1 0.650283 0.890088 0.312395
Si Si2 0.725864 0.111460 0.067924
Si Si3 0.533195 0.609656 0.457531
Si Si4 0.878758 0.391499 0.205940
Si Si5 0.821075 0.782276 0.238586
Si Si6 0.372426 0.609768 0.048980
Si Si7 0.940277 0.280229 0.855497
O O1 0.801730 0.872640 0.439493
O O2 0.523048 0.874758 0.269518
O O3 0.626424 0.827258 0.242997
O O4 0.646896 0.000000 0.293576
O O5 0.801312 0.154489 0.171078
O O6 0.810296 0.132630 0.067894
O O7 0.713516 0.000000 0.064088
O O8 0.573492 0.157406 0.961210
O O9 0.500000 0.624954 0.500000
O O10 0.505000 0.500000 0.427184
O O11 0.436677 0.672839 0.355183
O O12 0.874745 0.500000 0.220123
O O13 0.861877 0.319929 0.244262
O O14 0.752237 0.376273 0.078270
O O15 0.674991 0.778023 0.173822
O O16 0.410199 0.500000 0.073283
O O17 0.497730 0.678570 0.117333
#
# Coordination Sequence:
#
# PCOD9201598 Si02
#       7
#     8   8   8   8   8   8   8
#     4  10  20  37  63  84 106 151 196 228 273 340
#     4  11  22  35  54  85 118 146 180 232 289 337
#     4  10  21  39  59  83 115 149 186 229 282 344
#     4  10  21  39  59  81 112 152 196 232 270 330
#     4  12  24  35  56  87 118 146 183 237 287 328
#     4  10  21  38  58  79 114 159 193 222 271 340
#     4  12  21  34  56  85 115 147 187 230 280 338
#
# _framework density 16.850003000000001
#
# number of rings (size 3 to 8) (size 9 to 14) (size 15 to 20)
#    0.000    1.286    4.286    2.571    0.000    3.429 
#    0.000    1.429    0.000    1.286    0.000    0.000 
#    0.000    0.000    0.000    0.000    0.000    0.000 
#
# Total GULP energy -156451.910258 kJ/mol
# GULP energy per Si atom -5587.568223 kJ/mol
# Density = 1.681165 g / cm^3
# Si number density = 16.850003 Si / 1000 Ang^3
#
#
#
# Elastic Constant Matrix: (Units=GPa)
#
#
# Indices 1 2 3 4 5 6 
#
# 1 30.4254 44.8620 32.6250 0.0005 -14.3525 0.0000
# 2 44.8620 88.2560 49.5071 0.0003 -12.5169 0.0002
# 3 32.6250 49.5071 87.8681 0.0006 -11.6330 0.0005
# 4 0.0005 0.0003 0.0006 29.9472 0.0005 -5.3395
# 5 -14.3525 -12.5169 -11.6330 0.0005 20.4663 0.0003
# 6 0.0000 0.0002 0.0005 -5.3395 0.0003 23.9857
#
#
#
# Elastic Compliance Matrix: (Units=1/GPa)
#
#
# Indices 1 2 3 4 5 6 
#
# 1 0.270644 -0.107914 -0.025194 -0.000004 0.109477 -0.000001
# 2 -0.107914 0.060127 0.001125 0.000002 -0.038265 0.000000
# 3 -0.025194 0.001125 0.019306 0.000000 -0.006006 0.000000
# 4 -0.000004 0.000002 0.000000 0.034772 -0.000003 0.007741
# 5 0.109477 -0.038265 -0.006006 -0.000003 0.098818 -0.000001
# 6 -0.000001 0.000000 0.000000 0.007741 -0.000001 0.043415
#
#
# Mechanical properties :
#
#
# Convention : Reuss Voigt Hill
#
# Bulk Modulus (GPa) = 11.61281 51.17086 31.39183
# Shear Modulus (GPa) = 6.09941 20.18353 13.14147
#
# Velocity S-wave (km/s) = 1.90465 3.46473 2.79571
# Velocity P-wave (km/s) = 3.42691 6.81470 5.39370
#
# Compressibility (1/GPa) = 0.08611184
#
# Stress axis : x y z
#
# Youngs Moduli (GPa) = 3.69489 16.63139 51.79721
#
# Poissons Ratio (x) = 1.79476 1.30496
# Poissons Ratio (y) = 0.39873 -0.05826
# Poissons Ratio (z) = 0.09309 -0.01871
#
# Static dielectric constant tensor:
#      x y z
#    x 1.556710 0.000000 0.005940 
#    y 0.000000 1.569260 0.000000 
#    z 0.005940 0.000000 1.544250 
# 
# From -- ./inp_files/143729.got.cif
#   From: 2010.05.17/outbox.cif.g08.bks.cpg/sg12_72_cif.got.tgz:143729.got - 2010.06.03 13:09:07.
