data_PCOD9201785
_publ_section_title
;
Structure prediction by ZEFSAII (Michael W. Deem and Ramdas Pophale) SiO2 
 PCOD9201785
Probable space group: C 2/M
;
_chemical_formula_sum "Si O2"
_cell_formula_units_Z 64
_cell_length_a 9.405339
_cell_length_b 18.074236
_cell_length_c 29.510821
_cell_angle_alpha 90.000000
_cell_angle_beta 140.401182
_cell_angle_gamma 90.000000
_cell_volume 3197.667244
_symmetry_space_group_name_H-M "C 2/M"
_symmetry_group_IT_number 12
_symmetry_cell_setting 'monoclinic'
loop_
_space_group_symop_operation_xyz
x,y,z
-x,y,-z
-x,-y,-z
x,-y,z
1/2+x,1/2+y,z
1/2-x,1/2+y,-z
1/2-x,1/2-y,-z
1/2+x,1/2-y,z
loop_
_atom_site_type_symbol
_atom_site_label
_atom_site_fract_x
_atom_site_fract_y
_atom_site_fract_z
Si Si1 0.160980 0.328003 0.996200
Si Si2 0.391597 0.792959 0.233630
Si Si3 0.778251 0.817459 0.473474
Si Si4 0.806982 0.287696 0.316520
Si Si5 0.964633 0.087179 0.697229
Si Si6 0.466013 0.587686 0.858348
Si Si7 0.748929 0.588153 0.448709
Si Si8 0.250020 0.139813 0.840586
O O1 0.363468 0.378692 0.062955
O O2 0.250000 0.250000 0.000000
O O3 0.000000 0.315125 0.000000
O O4 0.001241 0.366028 0.919893
O O5 0.659622 0.780712 0.299787
O O6 0.301821 0.776320 0.261762
O O7 0.303718 0.727290 0.179347
O O8 0.270791 0.870276 0.193873
O O9 0.750000 0.750000 0.500000
O O10 0.561315 0.806721 0.389835
O O11 0.798968 0.886629 0.512292
O O12 0.000000 0.811251 0.500000
O O13 0.687591 0.359577 0.309214
O O14 0.914925 0.110772 0.632962
O O15 0.200094 0.101746 0.779818
O O16 0.910217 0.000000 0.687504
O O17 0.443060 0.500000 0.855810
O O18 0.586014 0.607112 0.839322
O O19 0.753184 0.500000 0.448647
O O20 0.000000 0.616154 0.500000
#
# Coordination Sequence:
#
# PCOD9201785 Si02
#       8
#     8   8   8   8   8   8   8   8
#     4  10  21  37  62  99 133 181 223 271 326 403
#     4  11  21  39  63  96 126 176 221 272 331 405
#     4  12  26  42  64  94 131 167 215 282 333 392
#     4  11  24  39  62  96 124 173 221 268 336 405
#     4  10  20  37  64  93 127 169 220 272 331 399
#     4  11  22  39  67 103 134 174 228 285 330 388
#     4  10  21  40  65  92 129 175 217 265 341 414
#     4  10  21  36  62  96 132 175 225 269 331 393
#
# _framework density 20.014590999999999
#
# number of rings (size 3 to 8) (size 9 to 14) (size 15 to 20)
#    0.000    1.375    5.000    1.500    3.500    3.000 
#    0.000    0.000    0.000    6.375    0.000    0.000 
#    0.000    0.000    0.000    0.000    0.000    0.000 
#
# Total GULP energy -178366.284150 kJ/mol
# GULP energy per Si atom -5573.946380 kJ/mol
# Density = 1.996904 g / cm^3
# Si number density = 20.014591 Si / 1000 Ang^3
#
#
#
# Elastic Constant Matrix: (Units=GPa)
#
#
# Indices 1 2 3 4 5 6 
#
# 1 96.1300 42.8218 51.9476 0.0000 12.4259 0.0000
# 2 42.8218 124.2724 51.7057 0.0000 4.9947 0.0000
# 3 51.9476 51.7057 144.3045 0.0002 1.8646 0.0000
# 4 0.0000 0.0000 0.0002 31.6206 0.0000 -7.6641
# 5 12.4259 4.9947 1.8646 0.0000 25.2545 0.0000
# 6 0.0000 0.0000 0.0000 -7.6641 0.0000 26.8175
#
#
#
# Elastic Compliance Matrix: (Units=1/GPa)
#
#
# Indices 1 2 3 4 5 6 
#
# 1 0.014867 -0.003142 -0.004144 0.000000 -0.006388 0.000000
# 2 -0.003142 0.010188 -0.002516 0.000000 -0.000283 0.000000
# 3 -0.004144 -0.002516 0.009299 0.000000 0.001850 0.000000
# 4 0.000000 0.000000 0.000000 0.033979 0.000000 0.009711
# 5 -0.006388 -0.000283 0.001850 0.000000 0.042659 0.000000
# 6 0.000000 0.000000 0.000000 0.009711 0.000000 0.040064
#
#
# Mechanical properties :
#
#
# Convention : Reuss Voigt Hill
#
# Bulk Modulus (GPa) = 67.79177 73.07301 70.43239
# Shear Modulus (GPa) = 28.47783 31.28729 29.88256
#
# Velocity S-wave (km/s) = 3.77616 3.95805 3.86818
# Velocity P-wave (km/s) = 7.27717 7.58138 7.43084
#
# Compressibility (1/GPa) = 0.01475105
#
# Stress axis : x y z
#
# Youngs Moduli (GPa) = 67.26263 98.15883 107.54035
#
# Poissons Ratio (x) = 0.30843 0.44560
# Poissons Ratio (y) = 0.21135 0.27052
# Poissons Ratio (z) = 0.27870 0.24692
#
# Static dielectric constant tensor:
#      x y z
#    x 1.674060 0.000000 0.055240 
#    y 0.000000 1.796960 0.000000 
#    z 0.055240 0.000000 1.656070 
# 
# From -- ./inp_files/372989.got.cif
#   From: 2010.05.17/outbox.cif.g08.bks.cpg/sg12_187_cif.got.tgz:372989.got - 2010.06.03 13:09:07.
