data_PCOD9201754
_publ_section_title
;
Structure prediction by ZEFSAII (Michael W. Deem and Ramdas Pophale) SiO2 
 PCOD9201754
Probable space group: C 2/M
;
_chemical_formula_sum "Si O2"
_cell_formula_units_Z 58
_cell_length_a 27.252430
_cell_length_b 7.472179
_cell_length_c 23.567808
_cell_angle_alpha 90.000000
_cell_angle_beta 31.979902
_cell_angle_gamma 90.000000
_cell_volume 2541.777369
_symmetry_space_group_name_H-M "C 2/M"
_symmetry_group_IT_number 12
_symmetry_cell_setting 'monoclinic'
loop_
_space_group_symop_operation_xyz
x,y,z
-x,y,-z
-x,-y,-z
x,-y,z
1/2+x,1/2+y,z
1/2-x,1/2+y,-z
1/2-x,1/2-y,-z
1/2+x,1/2-y,z
loop_
_atom_site_type_symbol
_atom_site_label
_atom_site_fract_x
_atom_site_fract_y
_atom_site_fract_z
Si Si1 0.665055 0.784617 0.964856
Si Si2 0.871046 0.780260 0.790976
Si Si3 0.816987 0.214166 0.381680
Si Si4 0.500000 0.500000 0.000000
Si Si5 0.359969 0.792143 0.140310
Si Si6 0.478311 0.710374 0.796902
Si Si7 0.999516 0.791977 0.563487
Si Si8 0.290870 0.784893 0.623298
O O1 0.764557 0.723126 0.890495
O O2 0.649580 0.725663 0.915334
O O3 0.667050 0.000000 0.961156
O O4 0.583728 0.728671 0.086386
O O5 0.921875 0.717641 0.798219
O O6 0.928792 0.718890 0.679396
O O7 0.870881 0.000000 0.791625
O O8 0.750000 0.250000 0.500000
O O9 0.769542 0.280864 0.370650
O O10 0.919499 0.286639 0.293455
O O11 0.824832 0.000000 0.367139
O O12 0.565214 0.658280 0.906902
O O13 0.262110 0.774759 0.268051
O O14 0.387503 0.000000 0.114695
O O15 0.490834 0.500000 0.772654
O O16 0.104285 0.781896 0.482961
O O17 0.000000 0.710712 0.500000
O O18 0.972193 0.000000 0.583655
O O19 0.294468 0.000000 0.619360
#
# Coordination Sequence:
#
# PCOD9201754 Si02
#       8
#     8   8   8   2   8   8   8   8
#     4  10  22  39  61  90 123 158 210 262 316 387
#     4   9  18  36  59  88 123 160 210 268 317 378
#     4  10  23  40  60  87 122 162 207 259 317 378
#     4  12  26  44  68  94 138 164 222 276 314 386
#     4  11  25  43  67  96 130 175 215 264 331 387
#     4  10  21  36  60  86 118 165 207 252 321 380
#     4  10  20  37  64  90 118 162 214 266 324 386
#     4  11  23  40  61  92 133 169 209 266 320 380
#
# _framework density 22.818678999999999
#
# number of rings (size 3 to 8) (size 9 to 14) (size 15 to 20)
#    0.000    1.793    0.690    2.690    2.897    5.241 
#    0.000    1.379    0.000    0.000    0.000    0.000 
#    0.000    0.000    0.000    0.000    0.000    0.000 
#
# Total GULP energy -161967.325154 kJ/mol
# GULP energy per Si atom -5585.080178 kJ/mol
# Density = 2.276674 g / cm^3
# Si number density = 22.818679 Si / 1000 Ang^3
#
#
#
# Elastic Constant Matrix: (Units=GPa)
#
#
# Indices 1 2 3 4 5 6 
#
# 1 129.6529 -4.6558 54.2731 0.0036 1.5973 -0.0001
# 2 -4.6558 83.3122 -16.8673 0.0031 -2.3174 -0.0294
# 3 54.2731 -16.8673 157.3688 0.0099 -11.8982 0.0050
# 4 0.0036 0.0031 0.0099 19.6846 -0.0005 -8.3487
# 5 1.5973 -2.3174 -11.8982 -0.0005 38.5676 0.0113
# 6 -0.0001 -0.0294 0.0050 -8.3487 0.0113 -44.3616
#
#
#
# Elastic Compliance Matrix: (Units=1/GPa)
#
#
# Indices 1 2 3 4 5 6 
#
# 1 0.009088 -0.000191 -0.003260 0.000000 -0.001394 -0.000001
# 2 -0.000191 0.012325 0.001478 -0.000005 0.001204 -0.000007
# 3 -0.003260 0.001478 0.007837 -0.000003 0.002642 0.000001
# 4 0.000000 -0.000005 -0.000003 0.047046 0.000002 -0.008854
# 5 -0.001394 0.001204 0.002642 0.000002 0.026873 0.000006
# 6 -0.000001 -0.000007 0.000001 -0.008854 0.000006 -0.020876
#
#
# Mechanical properties :
#
#
# Convention : Reuss Voigt Hill
#
# Bulk Modulus (GPa) = 39.51958 48.42599 43.97278
# Shear Modulus (GPa) = 52.81258 25.28371 39.04814
#
# Velocity S-wave (km/s) = 4.81609 3.33232 4.14120
# Velocity P-wave (km/s) = 6.94858 6.00616 6.49449
#
# Compressibility (1/GPa) = 0.02530392
#
# Stress axis : x y z
#
# Youngs Moduli (GPa) = 110.03668 81.13520 127.60067
#
# Poissons Ratio (x) = 0.01549 0.41598
# Poissons Ratio (y) = 0.02101 -0.18859
# Poissons Ratio (z) = 0.35872 -0.11991
#
# Static dielectric constant tensor:
#      x y z
#    x 1.882620 0.000000 -0.009280 
#    y 0.000000 1.870880 0.000020 
#    z -0.009280 0.000020 1.818850 
# 
# From -- ./inp_files/351441.got.cif
#   From: 2010.05.17/outbox.cif.g08.bks.cpg/sg12_176_cif.got.tgz:351441.got - 2010.06.03 13:09:07.
