data_PCOD9201485
_publ_section_title
;
Structure prediction by ZEFSAII (Michael W. Deem and Ramdas Pophale) SiO2 
 PCOD9201485
Probable space group: C 2/M
;
_chemical_formula_sum "Si O2"
_cell_formula_units_Z 56
_cell_length_a 19.021176
_cell_length_b 8.286139
_cell_length_c 17.392901
_cell_angle_alpha 90.000000
_cell_angle_beta 81.265732
_cell_angle_gamma 90.000000
_cell_volume 2709.541236
_symmetry_space_group_name_H-M "C 2/M"
_symmetry_group_IT_number 12
_symmetry_cell_setting 'monoclinic'
loop_
_space_group_symop_operation_xyz
x,y,z
-x,y,-z
-x,-y,-z
x,-y,z
1/2+x,1/2+y,z
1/2-x,1/2+y,-z
1/2-x,1/2-y,-z
1/2+x,1/2-y,z
loop_
_atom_site_type_symbol
_atom_site_label
_atom_site_fract_x
_atom_site_fract_y
_atom_site_fract_z
Si Si1 0.874774 0.806412 0.195375
Si Si2 0.283777 0.809011 0.764560
Si Si3 0.584253 0.814768 0.980093
Si Si4 0.595833 0.802484 0.371906
Si Si5 0.193537 0.814557 0.071224
Si Si6 0.831575 0.305203 0.481189
Si Si7 0.558009 0.195327 0.664388
O O1 0.796258 0.745792 0.233724
O O2 0.891472 0.737231 0.108678
O O3 0.930520 0.755330 0.251031
O O4 0.872974 0.000000 0.189535
O O5 0.345131 0.744191 0.698953
O O6 0.302867 0.781254 0.850171
O O7 0.280657 0.000000 0.750024
O O8 0.606781 0.000000 0.989859
O O9 0.500000 0.805561 0.000000
O O10 0.619403 0.706878 0.039851
O O11 0.623187 0.753968 0.451441
O O12 0.516698 0.751231 0.360688
O O13 0.594480 0.000000 0.371354
O O14 0.208410 0.000000 0.086184
O O15 0.250000 0.750000 0.000000
O O16 0.830916 0.500000 0.480556
O O17 0.750000 0.250000 0.500000
O O18 0.875340 0.249884 0.399006
O O19 0.557810 0.000000 0.665298
#
# Coordination Sequence:
#
# PCOD9201485 Si02
#       7
#     8   8   8   8   8   8   8
#     4  11  23  39  60  87 122 160 198 246 302 360
#     4  10  21  38  60  85 116 158 203 248 300 360
#     4  11  25  43  64  88 119 160 205 253 307 366
#     4   9  19  37  61  87 117 156 200 243 294 354
#     4  12  24  40  63  90 121 159 205 255 306 360
#     4  10  20  37  62  90 119 155 199 244 296 355
#     4  10  21  37  60  88 119 156 200 249 296 355
#
# _framework density 20.667705999999999
#
# number of rings (size 3 to 8) (size 9 to 14) (size 15 to 20)
#    0.000    1.571    1.429    3.429    2.000    5.143 
#    0.000    1.429    0.000    1.714    0.000    0.000 
#    0.000    0.000    0.000    0.000    0.000    0.000 
#
# Total GULP energy -156483.784131 kJ/mol
# GULP energy per Si atom -5588.706576 kJ/mol
# Density = 2.062067 g / cm^3
# Si number density = 20.667706 Si / 1000 Ang^3
#
#
#
# Elastic Constant Matrix: (Units=GPa)
#
#
# Indices 1 2 3 4 5 6 
#
# 1 104.6614 3.9629 12.4695 0.0000 6.4844 0.0000
# 2 3.9629 12.2851 -11.0338 0.0000 -13.0148 0.0000
# 3 12.4695 -11.0338 60.3942 0.0000 5.1883 0.0000
# 4 0.0000 0.0000 0.0000 17.3964 0.0000 -0.2013
# 5 6.4844 -13.0148 5.1883 0.0000 37.6540 0.0000
# 6 0.0000 0.0000 0.0000 -0.2013 0.0000 25.1405
#
#
#
# Elastic Compliance Matrix: (Units=1/GPa)
#
#
# Indices 1 2 3 4 5 6 
#
# 1 0.010960 -0.013790 -0.004261 0.000000 -0.006067 0.000000
# 2 -0.013790 0.174683 0.029722 0.000000 0.058657 0.000000
# 3 -0.004261 0.029722 0.022185 0.000000 0.007950 0.000000
# 4 0.000000 0.000000 0.000000 0.057488 0.000000 0.000460
# 5 -0.006067 0.058657 0.007950 0.000000 0.046781 0.000000
# 6 0.000000 0.000000 0.000000 0.000460 0.000000 0.039780
#
#
# Mechanical properties :
#
#
# Convention : Reuss Voigt Hill
#
# Bulk Modulus (GPa) = 4.32580 20.90424 12.61502
# Shear Modulus (GPa) = 12.32764 27.50100 19.91432
#
# Velocity S-wave (km/s) = 2.44492 3.65173 3.10747
# Velocity P-wave (km/s) = 3.17297 5.28362 4.35800
#
# Compressibility (1/GPa) = 0.23117102
#
# Stress axis : x y z
#
# Youngs Moduli (GPa) = 91.23850 5.72464 45.07600
#
# Poissons Ratio (x) = 0.07894 0.19207
# Poissons Ratio (y) = 1.25814 -1.33975
# Poissons Ratio (z) = 0.38878 -0.17015
#
# Static dielectric constant tensor:
#      x y z
#    x 1.763120 0.000000 -0.015220 
#    y 0.000000 1.761360 0.000000 
#    z -0.015220 0.000000 1.700890 
# 
# From -- ./inp_files/275029.got.cif
#   From: 2010.05.17/outbox.cif.g08.bks.cpg/sg12_138_cif.got.tgz:275029.got - 2010.06.03 13:09:07.
