data_PCOD9201159
_publ_section_title
;
Structure prediction by ZEFSAII (Michael W. Deem and Ramdas Pophale) SiO2 
 PCOD9201159
Probable space group: C 2/M
;
_chemical_formula_sum "Si O2"
_cell_formula_units_Z 56
_cell_length_a 12.571953
_cell_length_b 17.083675
_cell_length_c 19.200034
_cell_angle_alpha 90.000000
_cell_angle_beta 136.187024
_cell_angle_gamma 90.000000
_cell_volume 2854.858117
_symmetry_space_group_name_H-M "C 2/M"
_symmetry_group_IT_number 12
_symmetry_cell_setting 'monoclinic'
loop_
_space_group_symop_operation_xyz
x,y,z
-x,y,-z
-x,-y,-z
x,-y,z
1/2+x,1/2+y,z
1/2-x,1/2+y,-z
1/2-x,1/2-y,-z
1/2+x,1/2-y,z
loop_
_atom_site_type_symbol
_atom_site_label
_atom_site_fract_x
_atom_site_fract_y
_atom_site_fract_z
Si Si1 0.150828 0.692891 0.277574
Si Si2 0.123381 0.201106 0.875562
Si Si3 0.931370 0.592624 0.268412
Si Si4 0.652927 0.848964 0.616980
Si Si5 0.069237 0.093173 0.605963
Si Si6 0.945253 0.912197 0.690561
Si Si7 0.330452 0.660570 0.949958
O O1 0.261136 0.765550 0.347910
O O2 0.268180 0.632227 0.298502
O O3 0.009537 0.733888 0.169708
O O4 0.069409 0.645296 0.301937
O O5 0.263853 0.251129 0.911746
O O6 0.050247 0.146515 0.783236
O O7 0.163873 0.152705 0.963645
O O8 0.968434 0.500000 0.290414
O O9 0.882720 0.626690 0.320507
O O10 0.788625 0.606154 0.147849
O O11 0.500000 0.848381 0.500000
O O12 0.775982 0.907716 0.641876
O O13 0.000000 0.121633 0.500000
O O14 0.951216 0.109743 0.612368
O O15 0.090455 0.000000 0.609809
O O16 0.005849 0.000000 0.725456
O O17 0.500000 0.651510 0.000000
#
# Coordination Sequence:
#
# PCOD9201159 Si02
#       7
#     8   8   8   8   8   8   8
#     4  10  22  40  64  88 124 161 210 257 303 366
#     4   9  21  37  59  90 114 159 203 251 313 367
#     4  11  25  42  64  95 127 165 210 259 315 375
#     4  11  25  40  64  93 127 166 210 256 309 367
#     4  10  22  38  60  89 125 169 207 249 306 367
#     4  10  22  39  60  88 125 163 202 251 307 367
#     4  10  20  37  61  87 118 158 198 258 312 368
#
# _framework density 19.615686
#
# number of rings (size 3 to 8) (size 9 to 14) (size 15 to 20)
#    0.000    1.857    0.000    3.000   10.000    2.571 
#    0.000    0.000    0.000    0.429    0.000    0.000 
#    0.000    0.000    0.000    0.000    0.000    0.000 
#
# Total GULP energy -156199.373582 kJ/mol
# GULP energy per Si atom -5578.549057 kJ/mol
# Density = 1.957104 g / cm^3
# Si number density = 19.615686 Si / 1000 Ang^3
#
#
#
# Elastic Constant Matrix: (Units=GPa)
#
#
# Indices 1 2 3 4 5 6 
#
# 1 69.2314 30.2422 3.3282 0.0000 -20.3896 0.0000
# 2 30.2422 79.8613 32.2223 0.0000 -14.0123 0.0000
# 3 3.3282 32.2223 79.0163 0.0000 -18.3889 0.0000
# 4 0.0000 0.0000 0.0000 7.6183 0.0000 6.6053
# 5 -20.3896 -14.0123 -18.3889 0.0000 22.2837 0.0000
# 6 0.0000 0.0000 0.0000 6.6053 0.0000 50.0049
#
#
#
# Elastic Compliance Matrix: (Units=1/GPa)
#
#
# Indices 1 2 3 4 5 6 
#
# 1 0.024786 -0.008391 0.007956 0.000000 0.023968 0.000000
# 2 -0.008391 0.018377 -0.007721 0.000000 -0.002493 0.000000
# 3 0.007956 -0.007721 0.019844 0.000000 0.018800 0.000000
# 4 0.000000 0.000000 0.000000 0.148240 0.000000 -0.019581
# 5 0.023968 -0.002493 0.018800 0.000000 0.080753 0.000000
# 6 0.000000 0.000000 0.000000 -0.019581 0.000000 0.022585
#
#
# Mechanical properties :
#
#
# Convention : Reuss Voigt Hill
#
# Bulk Modulus (GPa) = 21.41530 39.96604 30.69067
# Shear Modulus (GPa) = 14.43162 26.80247 20.61704
#
# Velocity S-wave (km/s) = 2.71536 3.70047 3.24551
# Velocity P-wave (km/s) = 4.55763 6.21906 5.45200
#
# Compressibility (1/GPa) = 0.04669559
#
# Stress axis : x y z
#
# Youngs Moduli (GPa) = 40.34529 54.41642 50.39254
#
# Poissons Ratio (x) = 0.45659 -0.40090
# Poissons Ratio (y) = 0.33852 0.38907
# Poissons Ratio (z) = -0.32097 0.42013
#
# Static dielectric constant tensor:
#      x y z
#    x 1.694140 0.000000 0.001680 
#    y 0.000000 1.711590 0.000000 
#    z 0.001680 0.000000 1.685150 
# 
# From -- ./inp_files/264285.got.cif
#   From: 2010.05.17/outbox.cif.g08.bks.cpg/sg12_133_cif.got.tgz:264285.got - 2010.06.03 13:09:07.
