data_PCOD9201360
_publ_section_title
;
Structure prediction by ZEFSAII (Michael W. Deem and Ramdas Pophale) SiO2 
 PCOD9201360
Probable space group: C 2/M
;
_chemical_formula_sum "Si O2"
_cell_formula_units_Z 48
_cell_length_a 21.992862
_cell_length_b 12.856168
_cell_length_c 24.586115
_cell_angle_alpha 90.000000
_cell_angle_beta 21.335102
_cell_angle_gamma 90.000000
_cell_volume 2529.135540
_symmetry_space_group_name_H-M "C 2/M"
_symmetry_group_IT_number 12
_symmetry_cell_setting 'monoclinic'
loop_
_space_group_symop_operation_xyz
x,y,z
-x,y,-z
-x,-y,-z
x,-y,z
1/2+x,1/2+y,z
1/2-x,1/2+y,-z
1/2-x,1/2-y,-z
1/2+x,1/2-y,z
loop_
_atom_site_type_symbol
_atom_site_label
_atom_site_fract_x
_atom_site_fract_y
_atom_site_fract_z
Si Si1 0.973229 0.382200 0.697235
Si Si2 0.513866 0.114158 0.094449
Si Si3 0.812078 0.212642 0.664215
Si Si4 0.664834 0.702014 0.894832
Si Si5 0.553004 0.230819 0.169493
Si Si6 0.732337 0.623238 0.636202
O O1 0.996517 0.500000 0.697476
O O2 0.787580 0.371830 0.826166
O O3 0.987992 0.304332 0.735396
O O4 0.114913 0.362753 0.533605
O O5 0.321747 0.124456 0.237236
O O6 0.519113 0.140771 0.153632
O O7 0.582080 0.000000 0.025706
O O8 0.603273 0.206275 0.986299
O O9 0.778822 0.249973 0.752748
O O10 0.773624 0.309526 0.655551
O O11 0.000000 0.178719 0.500000
O O12 0.500000 0.660157 0.000000
O O13 0.436577 0.327267 0.248210
O O14 0.750000 0.250000 0.000000
O O15 0.715175 0.500000 0.661684
#
# Coordination Sequence:
#
# PCOD9201360 Si02
#       6
#     8   8   8   8   8   8
#     4  11  22  39  62  89 121 159 199 242 297 358
#     4  10  22  40  60  84 117 159 200 243 300 352
#     4  10  20  37  62  86 121 152 196 246 289 353
#     4  10  21  38  58  87 121 158 192 243 298 345
#     4  11  22  41  62  87 121 153 199 254 297 348
#     4  10  23  40  63  90 120 159 197 241 300 360
#
# _framework density 18.978815999999998
#
# number of rings (size 3 to 8) (size 9 to 14) (size 15 to 20)
#    0.000    1.667    3.333    1.000    0.000    6.000 
#    0.000    0.000    0.000    0.000    0.000    0.000 
#    0.000    0.000    0.000    0.000    0.000    0.000 
#
# Total GULP energy -133903.170999 kJ/mol
# GULP energy per Si atom -5579.298792 kJ/mol
# Density = 1.893562 g / cm^3
# Si number density = 18.978816 Si / 1000 Ang^3
#
#
#
# Elastic Constant Matrix: (Units=GPa)
#
#
# Indices 1 2 3 4 5 6 
#
# 1 64.5694 12.6950 1.6505 -0.0013 6.5820 0.0005
# 2 12.6950 76.6659 15.3990 -0.0023 1.7128 0.0003
# 3 1.6505 15.3990 91.4585 -0.0055 -3.5253 0.0009
# 4 -0.0013 -0.0023 -0.0055 21.0447 0.0014 1.6155
# 5 6.5820 1.7128 -3.5253 0.0014 33.0304 0.0000
# 6 0.0005 0.0003 0.0009 1.6155 0.0000 8.3341
#
#
#
# Elastic Compliance Matrix: (Units=1/GPa)
#
#
# Indices 1 2 3 4 5 6 
#
# 1 0.016323 -0.002639 0.000030 0.000001 -0.003113 -0.000001
# 2 -0.002639 0.013956 -0.002319 0.000001 -0.000445 0.000000
# 3 0.000030 -0.002319 0.011375 0.000003 0.001328 -0.000002
# 4 0.000001 0.000001 0.000003 0.048236 -0.000002 -0.009350
# 5 -0.003113 -0.000445 0.001328 -0.000002 0.031060 0.000000
# 6 -0.000001 0.000000 -0.000002 -0.009350 0.000000 0.121801
#
#
# Mechanical properties :
#
#
# Convention : Reuss Voigt Hill
#
# Bulk Modulus (GPa) = 31.45001 32.46476 31.95739
# Shear Modulus (GPa) = 18.99638 26.01179 22.50408
#
# Velocity S-wave (km/s) = 3.16717 3.70614 3.44720
# Velocity P-wave (km/s) = 5.47556 5.95457 5.72008
#
# Compressibility (1/GPa) = 0.03179649
#
# Stress axis : x y z
#
# Youngs Moduli (GPa) = 61.26454 71.65131 87.91125
#
# Poissons Ratio (x) = 0.18911 -0.00262
# Poissons Ratio (y) = 0.16170 0.20390
# Poissons Ratio (z) = -0.00183 0.16619
#
# Static dielectric constant tensor:
#      x y z
#    x 1.685830 0.000000 -0.023740 
#    y 0.000000 1.649980 0.000000 
#    z -0.023740 0.000000 1.656730 
# 
# From -- ./inp_files/94315.got.cif
#   From: 2010.05.17/outbox.cif.g08.bks.cpg/sg12_48_cif.got.tgz:94315.got - 2010.06.03 13:09:07.
