data_PCOD9201803
_publ_section_title
;
Structure prediction by ZEFSAII (Michael W. Deem and Ramdas Pophale) SiO2 
 PCOD9201803
Probable space group: C 2/M
;
_chemical_formula_sum "Si O2"
_cell_formula_units_Z 56
_cell_length_a 9.059425
_cell_length_b 26.129524
_cell_length_c 17.584736
_cell_angle_alpha 90.000000
_cell_angle_beta 140.981626
_cell_angle_gamma 90.000000
_cell_volume 2620.666273
_symmetry_space_group_name_H-M "C 2/M"
_symmetry_group_IT_number 12
_symmetry_cell_setting 'monoclinic'
loop_
_space_group_symop_operation_xyz
x,y,z
-x,y,-z
-x,-y,-z
x,-y,z
1/2+x,1/2+y,z
1/2-x,1/2+y,-z
1/2-x,1/2-y,-z
1/2+x,1/2-y,z
loop_
_atom_site_type_symbol
_atom_site_label
_atom_site_fract_x
_atom_site_fract_y
_atom_site_fract_z
Si Si1 0.778045 0.210983 0.210490
Si Si2 0.140371 0.163719 0.476727
Si Si3 0.746547 0.557772 0.818877
Si Si4 0.610581 0.639733 0.878533
Si Si5 0.427186 0.136334 0.138514
Si Si6 0.269086 0.057446 0.459705
Si Si7 0.632444 0.174099 0.723183
O O1 0.791884 0.186913 0.132163
O O2 0.552470 0.188210 0.161419
O O3 0.771918 0.271630 0.209394
O O4 0.989776 0.186656 0.346757
O O5 0.214025 0.104386 0.493677
O O6 0.395959 0.188743 0.585020
O O7 0.000000 0.170137 0.500000
O O8 0.832207 0.500000 0.860040
O O9 0.728960 0.590062 0.888881
O O10 0.475130 0.555820 0.684165
O O11 0.905389 0.590800 0.824765
O O12 0.332671 0.645049 0.757016
O O13 0.683680 0.637258 0.995507
O O14 0.419550 0.138649 0.225364
O O15 0.500000 0.067343 0.500000
O O16 0.302305 0.000000 0.506407
#
# Coordination Sequence:
#
# PCOD9201803 Si02
#       7
#     8   8   8   8   8   8   8
#     4  11  23  42  62  91 121 171 217 252 312 374
#     4  12  23  41  62  89 131 162 207 266 309 381
#     4  10  20  41  68  93 123 164 210 256 312 380
#     4  11  24  39  66  93 123 165 211 266 304 371
#     4  11  23  43  61  93 128 160 215 259 310 371
#     4  10  20  37  64  94 125 162 207 260 320 376
#     4  12  25  40  62  90 131 166 206 261 319 364
#
# _framework density 21.368613
#
# number of rings (size 3 to 8) (size 9 to 14) (size 15 to 20)
#    0.000    1.000    4.286    4.286    0.000    4.857 
#    0.000    1.429    0.000    1.714    0.000    0.000 
#    0.000    0.000    0.000    0.000    0.000    0.000 
#
# Total GULP energy -156337.254086 kJ/mol
# GULP energy per Si atom -5583.473360 kJ/mol
# Density = 2.131998 g / cm^3
# Si number density = 21.368613 Si / 1000 Ang^3
#
#
#
# Elastic Constant Matrix: (Units=GPa)
#
#
# Indices 1 2 3 4 5 6 
#
# 1 71.2332 17.8517 6.2464 -0.0004 10.8376 -0.0002
# 2 17.8517 117.5126 5.1673 -0.0001 -0.4133 -0.0001
# 3 6.2464 5.1673 64.7333 -0.0017 7.4561 -0.0007
# 4 -0.0004 -0.0001 -0.0017 12.1045 -0.0007 6.4983
# 5 10.8376 -0.4133 7.4561 -0.0007 32.2305 -0.0003
# 6 -0.0002 -0.0001 -0.0007 6.4983 -0.0003 6.2630
#
#
#
# Elastic Compliance Matrix: (Units=1/GPa)
#
#
# Indices 1 2 3 4 5 6 
#
# 1 0.015457 -0.002334 -0.000722 0.000000 -0.005060 0.000000
# 2 -0.002334 0.008895 -0.000604 0.000000 0.001039 0.000000
# 3 -0.000722 -0.000604 0.015964 0.000003 -0.003458 -0.000001
# 4 0.000000 0.000000 0.000003 0.186495 0.000002 -0.193501
# 5 -0.005060 0.001039 -0.003458 0.000002 0.033541 0.000000
# 6 0.000000 0.000000 -0.000001 -0.193501 0.000000 0.360439
#
#
# Mechanical properties :
#
#
# Convention : Reuss Voigt Hill
#
# Bulk Modulus (GPa) = 30.30882 34.66776 32.48829
# Shear Modulus (GPa) = 7.82338 25.06716 16.44527
#
# Velocity S-wave (km/s) = 1.91549 3.42875 2.77718
# Velocity P-wave (km/s) = 4.37112 5.65101 5.05177
#
# Compressibility (1/GPa) = 0.03299370
#
# Stress axis : x y z
#
# Youngs Moduli (GPa) = 64.69754 112.42856 62.63996
#
# Poissons Ratio (x) = 0.26242 0.04525
# Poissons Ratio (y) = 0.15101 0.03786
# Poissons Ratio (z) = 0.04673 0.06795
#
# Static dielectric constant tensor:
#      x y z
#    x 1.753220 0.000000 0.016600 
#    y 0.000000 1.774930 0.000000 
#    z 0.016600 0.000000 1.827030 
# 
# From -- ./inp_files/124202.got.cif
#   From: 2010.05.17/outbox.cif.g08.bks.cpg/sg12_63_cif.got.tgz:124202.got - 2010.06.03 13:09:07.
