data_PCOD9201631
_publ_section_title
;
Structure prediction by ZEFSAII (Michael W. Deem and Ramdas Pophale) SiO2 
 PCOD9201631
Probable space group: C 2/M
;
_chemical_formula_sum "Si O2"
_cell_formula_units_Z 40
_cell_length_a 15.009075
_cell_length_b 10.834542
_cell_length_c 12.254217
_cell_angle_alpha 90.000000
_cell_angle_beta 79.104380
_cell_angle_gamma 90.000000
_cell_volume 1956.814563
_symmetry_space_group_name_H-M "C 2/M"
_symmetry_group_IT_number 12
_symmetry_cell_setting 'monoclinic'
loop_
_space_group_symop_operation_xyz
x,y,z
-x,y,-z
-x,-y,-z
x,-y,z
1/2+x,1/2+y,z
1/2-x,1/2+y,-z
1/2-x,1/2-y,-z
1/2+x,1/2-y,z
loop_
_atom_site_type_symbol
_atom_site_label
_atom_site_fract_x
_atom_site_fract_y
_atom_site_fract_z
Si Si1 0.145865 0.137710 0.751399
Si Si2 0.792520 0.632382 0.400725
Si Si3 0.066161 0.139599 0.238936
Si Si4 0.895524 0.232489 0.550456
Si Si5 0.319996 0.359711 0.001631
O O1 0.193947 0.253491 0.684306
O O2 0.146232 0.148080 0.882170
O O3 0.041917 0.144265 0.737325
O O4 0.182167 0.000000 0.715938
O O5 0.810085 0.500000 0.344936
O O6 0.861756 0.652605 0.485760
O O7 0.687051 0.640126 0.461316
O O8 0.104180 0.235666 0.318212
O O9 0.092717 0.000000 0.268635
O O10 0.103669 0.155795 0.108735
O O11 0.000000 0.198559 0.500000
O O12 0.282959 0.500000 0.995681
O O13 0.250000 0.250000 0.000000
#
# Coordination Sequence:
#
# PCOD9201631 Si02
#       5
#     8   8   8   8   8
#     4  10  21  40  65  92 123 165 213 258 311 383
#     4  11  25  42  65  98 131 163 210 272 322 369
#     4  10  20  37  63  90 119 164 217 259 301 373
#     4  11  23  42  62  91 124 174 213 255 312 384
#     4  10  21  38  61  90 125 161 206 260 315 372
#
# _framework density 20.441382999999998
#
# number of rings (size 3 to 8) (size 9 to 14) (size 15 to 20)
#    0.000    1.600    2.000    2.400    0.000   10.800 
#    0.000    2.000    0.000    2.400    0.000    0.000 
#    0.000    0.000    0.000    0.000    0.000    0.000 
#
# Total GULP energy -111500.443407 kJ/mol
# GULP energy per Si atom -5575.022170 kJ/mol
# Density = 2.039486 g / cm^3
# Si number density = 20.441383 Si / 1000 Ang^3
#
#
#
# Elastic Constant Matrix: (Units=GPa)
#
#
# Indices 1 2 3 4 5 6 
#
# 1 110.1307 42.2963 38.7815 0.0000 2.3914 0.0000
# 2 42.2963 129.0261 60.8010 0.0000 -5.4258 0.0000
# 3 38.7815 60.8010 106.9591 0.0000 11.0264 0.0000
# 4 0.0000 0.0000 0.0000 25.0440 0.0000 5.1990
# 5 2.3914 -5.4258 11.0264 0.0000 37.5544 0.0000
# 6 0.0000 0.0000 0.0000 5.1990 0.0000 16.8103
#
#
#
# Elastic Compliance Matrix: (Units=1/GPa)
#
#
# Indices 1 2 3 4 5 6 
#
# 1 0.010905 -0.002372 -0.002576 0.000000 -0.000281 0.000000
# 2 -0.002372 0.011540 -0.006071 0.000000 0.003601 0.000000
# 3 -0.002576 -0.006071 0.014239 0.000000 -0.004894 0.000000
# 4 0.000000 0.000000 0.000000 0.042669 0.000000 -0.013196
# 5 -0.000281 0.003601 -0.004894 0.000000 0.028603 0.000000
# 6 0.000000 0.000000 0.000000 -0.013196 0.000000 0.063568
#
#
# Mechanical properties :
#
#
# Convention : Reuss Voigt Hill
#
# Bulk Modulus (GPa) = 68.28551 69.98594 69.13573
# Shear Modulus (GPa) = 25.19575 29.49756 27.34665
#
# Velocity S-wave (km/s) = 3.51463 3.80285 3.66157
# Velocity P-wave (km/s) = 7.06740 7.32078 7.19521
#
# Compressibility (1/GPa) = 0.01464439
#
# Stress axis : x y z
#
# Youngs Moduli (GPa) = 91.70461 86.65177 70.22886
#
# Poissons Ratio (x) = 0.20558 0.18093
# Poissons Ratio (y) = 0.21756 0.42637
# Poissons Ratio (z) = 0.23625 0.52608
#
# Static dielectric constant tensor:
#      x y z
#    x 1.726210 0.000000 -0.006830 
#    y 0.000000 1.740850 0.000000 
#    z -0.006830 0.000000 1.789780 
# 
# From -- ./inp_files/140825.got.cif
#   From: 2010.05.17/outbox.cif.g08.bks.cpg/sg12_71_cif.got.tgz:140825.got - 2010.06.03 13:09:07.
