data_PCOD9201560
_publ_section_title
;
Structure prediction by ZEFSAII (Michael W. Deem and Ramdas Pophale) SiO2 
 PCOD9201560
Probable space group: C 2/M
;
_chemical_formula_sum "Si O2"
_cell_formula_units_Z 64
_cell_length_a 29.310542
_cell_length_b 8.607289
_cell_length_c 19.156661
_cell_angle_alpha 90.000000
_cell_angle_beta 41.051507
_cell_angle_gamma 90.000000
_cell_volume 3173.961690
_symmetry_space_group_name_H-M "C 2/M"
_symmetry_group_IT_number 12
_symmetry_cell_setting 'monoclinic'
loop_
_space_group_symop_operation_xyz
x,y,z
-x,y,-z
-x,-y,-z
x,-y,z
1/2+x,1/2+y,z
1/2-x,1/2+y,-z
1/2-x,1/2-y,-z
1/2+x,1/2-y,z
loop_
_atom_site_type_symbol
_atom_site_label
_atom_site_fract_x
_atom_site_fract_y
_atom_site_fract_z
Si Si1 0.334979 0.819888 0.836228
Si Si2 0.705206 0.187763 0.616731
Si Si3 0.545040 0.319821 0.380513
Si Si4 0.924323 0.321721 0.447252
Si Si5 0.213957 0.812959 0.334938
Si Si6 0.712725 0.183894 0.895328
Si Si7 0.562027 0.818872 0.728762
Si Si8 0.589957 0.318079 0.114421
O O1 0.389269 0.785060 0.711176
O O2 0.266789 0.723312 0.895080
O O3 0.376334 0.768714 0.857644
O O4 0.317013 0.000000 0.861117
O O5 0.750000 0.250000 0.500000
O O6 0.739803 0.227753 0.650774
O O7 0.625046 0.241430 0.703472
O O8 0.704314 0.000000 0.612474
O O9 0.500000 0.278480 0.500000
O O10 0.566538 0.500000 0.360287
O O11 0.489210 0.291268 0.384213
O O12 0.944651 0.500000 0.439535
O O13 0.859883 0.268275 0.567976
O O14 0.907056 0.313509 0.385520
O O15 0.251370 0.772339 0.219399
O O16 0.202762 0.000000 0.347592
O O17 0.699296 0.000000 0.910208
O O18 0.642000 0.274514 0.991755
O O19 0.488238 0.734286 0.812405
O O20 0.548287 0.000000 0.761070
O O21 0.591634 0.500000 0.127433
#
# Coordination Sequence:
#
# PCOD9201560 Si02
#       8
#     8   8   8   8   8   8   8   8
#     4  12  24  40  62  89 120 157 203 251 299 357
#     4  10  20  37  62  92 124 158 199 243 296 359
#     4  11  23  37  54  81 119 161 202 245 295 355
#     4  11  21  34  57  87 121 159 195 242 300 354
#     4  10  22  39  62  90 123 162 202 246 301 361
#     4  11  24  43  63  87 121 161 204 252 301 356
#     4  10  21  38  60  90 123 156 196 245 297 354
#     4  12  25  42  65  90 118 159 206 254 302 354
#
# _framework density 20.164075
#
# number of rings (size 3 to 8) (size 9 to 14) (size 15 to 20)
#    0.000    1.125    2.500    4.500    0.000    6.000 
#    0.000    0.625    0.000    3.750    0.000    0.000 
#    0.000    0.000    0.000    0.000    0.000    0.000 
#
# Total GULP energy -178901.309452 kJ/mol
# GULP energy per Si atom -5590.665920 kJ/mol
# Density = 2.011818 g / cm^3
# Si number density = 20.164075 Si / 1000 Ang^3
#
#
#
# Elastic Constant Matrix: (Units=GPa)
#
#
# Indices 1 2 3 4 5 6 
#
# 1 81.5932 -3.7404 20.5830 0.0181 -12.5142 -0.0042
# 2 -3.7404 27.7142 13.5434 0.0257 -0.2513 -0.0123
# 3 20.5830 13.5434 92.9687 0.0254 -13.0571 -0.0146
# 4 0.0181 0.0257 0.0254 32.8254 -0.0159 -4.0260
# 5 -12.5142 -0.2513 -13.0571 -0.0159 28.6672 0.0037
# 6 -0.0042 -0.0123 -0.0146 -4.0260 0.0037 22.3017
#
#
#
# Elastic Compliance Matrix: (Units=1/GPa)
#
#
# Indices 1 2 3 4 5 6 
#
# 1 0.013867 0.003325 -0.002885 -0.000006 0.004769 0.000001
# 2 0.003325 0.039799 -0.006710 -0.000027 -0.001256 0.000013
# 3 -0.002885 -0.006710 0.013020 -0.000001 0.004612 0.000003
# 4 -0.000006 -0.000027 -0.000001 0.031154 0.000014 0.005624
# 5 0.004769 -0.001256 0.004612 0.000014 0.039055 -0.000001
# 6 0.000001 0.000013 0.000003 0.005624 -0.000001 0.045855
#
#
# Mechanical properties :
#
#
# Convention : Reuss Voigt Hill
#
# Bulk Modulus (GPa) = 18.46862 29.22756 23.84809
# Shear Modulus (GPa) = 23.43677 28.21820 25.82748
#
# Velocity S-wave (km/s) = 3.41296 3.74495 3.58280
# Velocity P-wave (km/s) = 4.97092 5.76419 5.38219
#
# Compressibility (1/GPa) = 0.05414590
#
# Stress axis : x y z
#
# Youngs Moduli (GPa) = 72.11124 25.12622 76.80328
#
# Poissons Ratio (x) = -0.08353 0.22156
# Poissons Ratio (y) = -0.23974 0.51537
# Poissons Ratio (z) = 0.20802 0.16860
#
# Static dielectric constant tensor:
#      x y z
#    x 1.738420 0.000000 0.016480 
#    y 0.000000 1.691070 0.000000 
#    z 0.016480 0.000000 1.729060 
# 
# From -- ./inp_files/295549.got.cif
#   From: 2010.05.17/outbox.cif.g08.bks.cpg/sg12_148_cif.got.tgz:295549.got - 2010.06.03 13:09:07.
