data_PCOD9201493
_publ_section_title
;
Structure prediction by ZEFSAII (Michael W. Deem and Ramdas Pophale) SiO2 
 PCOD9201493
Probable space group: C 2/M
;
_chemical_formula_sum "Si O2"
_cell_formula_units_Z 48
_cell_length_a 12.753858
_cell_length_b 20.693817
_cell_length_c 13.736508
_cell_angle_alpha 90.000000
_cell_angle_beta 34.064190
_cell_angle_gamma 90.000000
_cell_volume 2030.676057
_symmetry_space_group_name_H-M "C 2/M"
_symmetry_group_IT_number 12
_symmetry_cell_setting 'monoclinic'
loop_
_space_group_symop_operation_xyz
x,y,z
-x,y,-z
-x,-y,-z
x,-y,z
1/2+x,1/2+y,z
1/2-x,1/2+y,-z
1/2-x,1/2-y,-z
1/2+x,1/2-y,z
loop_
_atom_site_type_symbol
_atom_site_label
_atom_site_fract_x
_atom_site_fract_y
_atom_site_fract_z
Si Si1 0.230283 0.290069 0.414018
Si Si2 0.573159 0.572195 0.047957
Si Si3 0.203518 0.429612 0.465865
Si Si4 0.284437 0.572132 0.632176
Si Si5 0.802308 0.694410 0.194373
Si Si6 0.841638 0.182483 0.903218
O O1 0.250000 0.250000 0.500000
O O2 0.118638 0.358070 0.508836
O O3 0.199404 0.244355 0.344684
O O4 0.444162 0.310393 0.233893
O O5 0.652195 0.500000 0.973528
O O6 0.390085 0.565429 0.256801
O O7 0.718530 0.620486 0.987891
O O8 0.500000 0.596242 0.000000
O O9 0.103479 0.500000 0.530081
O O10 0.266896 0.425547 0.529485
O O11 0.500000 0.582055 0.500000
O O12 0.229086 0.500000 0.707337
O O13 0.163829 0.629552 0.770282
O O14 0.681268 0.674933 0.194056
O O15 0.000000 0.719064 0.000000
O O16 0.750000 0.250000 0.000000
#
# Coordination Sequence:
#
# PCOD9201493 Si02
#       6
#     8   8   8   8   8   8
#     4  11  22  39  63  90 122 160 212 257 315 385
#     4   9  19  36  62  90 119 162 213 262 308 366
#     4   9  18  33  56  86 115 149 203 258 301 356
#     4  10  20  37  62  90 120 159 207 257 309 380
#     4  12  25  40  60  91 130 168 208 260 331 386
#     4  11  24  38  59  89 129 160 202 268 323 374
#
# _framework density 23.637447000000002
#
# number of rings (size 3 to 8) (size 9 to 14) (size 15 to 20)
#    0.000    1.667    3.333    2.000    4.667    2.333 
#    0.000    0.000    0.000    1.000    0.000    1.167 
#    0.000    0.500    0.000    0.000    0.000    0.000 
#
# Total GULP energy -133961.875144 kJ/mol
# GULP energy per Si atom -5581.744798 kJ/mol
# Density = 2.358365 g / cm^3
# Si number density = 23.637447 Si / 1000 Ang^3
#
#
#
# Elastic Constant Matrix: (Units=GPa)
#
#
# Indices 1 2 3 4 5 6 
#
# 1 103.0539 46.3840 26.0517 0.0080 41.5406 -0.0049
# 2 46.3840 203.6644 43.8808 -0.0133 39.2178 0.0045
# 3 26.0517 43.8808 74.9434 0.0009 30.6318 0.0138
# 4 0.0080 -0.0133 0.0009 31.3734 -0.0039 19.9671
# 5 41.5406 39.2178 30.6318 -0.0039 45.9500 0.0015
# 6 -0.0049 0.0045 0.0138 19.9671 0.0015 54.2035
#
#
#
# Elastic Compliance Matrix: (Units=1/GPa)
#
#
# Indices 1 2 3 4 5 6 
#
# 1 0.015468 -0.001078 0.000816 -0.000009 -0.013607 0.000005
# 2 -0.001078 0.006157 -0.002035 0.000003 -0.002923 -0.000001
# 3 0.000816 -0.002035 0.019027 0.000000 -0.011685 -0.000004
# 4 -0.000009 0.000003 0.000000 0.041635 0.000010 -0.015337
# 5 -0.013607 -0.002923 -0.011685 0.000010 0.044349 -0.000003
# 6 0.000005 -0.000001 -0.000004 -0.015337 -0.000003 0.024099
#
#
# Mechanical properties :
#
#
# Convention : Reuss Voigt Hill
#
# Bulk Modulus (GPa) = 27.73379 68.25498 47.99438
# Shear Modulus (GPa) = 29.87764 43.99507 36.93635
#
# Velocity S-wave (km/s) = 3.55913 4.31889 3.95729
# Velocity P-wave (km/s) = 5.35241 7.33546 6.42095
#
# Compressibility (1/GPa) = 0.03605710
#
# Stress axis : x y z
#
# Youngs Moduli (GPa) = 64.65102 162.41479 52.55554
#
# Poissons Ratio (x) = 0.17515 -0.04290
# Poissons Ratio (y) = 0.06972 0.10697
# Poissons Ratio (z) = -0.05277 0.33058
#
# Static dielectric constant tensor:
#      x y z
#    x 2.092720 -0.000010 0.064020 
#    y -0.000010 2.136680 -0.000010 
#    z 0.064020 -0.000010 1.968830 
# 
# From -- ./inp_files/133746.got.cif
#   From: 2010.05.17/outbox.cif.g08.bks.cpg/sg12_67_cif.got.tgz:133746.got - 2010.06.03 13:09:07.
