data_PCOD9201798
_publ_section_title
;
Structure prediction by ZEFSAII (Michael W. Deem and Ramdas Pophale) SiO2 
 PCOD9201798
Probable space group: C 2/M
;
_chemical_formula_sum "Si O2"
_cell_formula_units_Z 64
_cell_length_a 32.125174
_cell_length_b 22.561307
_cell_length_c 9.901299
_cell_angle_alpha 90.000000
_cell_angle_beta 24.854034
_cell_angle_gamma 90.000000
_cell_volume 3016.265524
_symmetry_space_group_name_H-M "C 2/M"
_symmetry_group_IT_number 12
_symmetry_cell_setting 'monoclinic'
loop_
_space_group_symop_operation_xyz
x,y,z
-x,y,-z
-x,-y,-z
x,-y,z
1/2+x,1/2+y,z
1/2-x,1/2+y,-z
1/2-x,1/2-y,-z
1/2+x,1/2-y,z
loop_
_atom_site_type_symbol
_atom_site_label
_atom_site_fract_x
_atom_site_fract_y
_atom_site_fract_z
Si Si1 0.437707 0.625128 0.819186
Si Si2 0.119914 0.680423 0.147757
Si Si3 0.380207 0.826369 0.345555
Si Si4 0.740599 0.066835 0.426710
Si Si5 0.757505 0.431993 0.252698
Si Si6 0.386014 0.747913 0.086945
Si Si7 0.623668 0.246195 0.398320
Si Si8 0.422733 0.366940 0.344513
O O1 0.500000 0.639498 0.500000
O O2 0.513406 0.609355 0.717033
O O3 0.352975 0.577161 0.044919
O O4 0.376723 0.682018 0.056861
O O5 0.152715 0.728606 0.162427
O O6 0.000000 0.677183 0.500000
O O7 0.165355 0.615750 0.032620
O O8 0.153188 0.705388 0.905585
O O9 0.329768 0.884383 0.433832
O O10 0.353916 0.770239 0.327103
O O11 0.344204 0.806734 0.598521
O O12 0.500000 0.833374 0.000000
O O13 0.742708 0.073194 0.583566
O O14 0.707939 0.000000 0.491745
O O15 0.780310 0.500000 0.151402
O O16 0.651047 0.413081 0.506913
O O17 0.504442 0.754940 0.744139
O O18 0.638937 0.311204 0.414851
O O19 0.500000 0.346510 0.000000
#
# Coordination Sequence:
#
# PCOD9201798 Si02
#       8
#     8   8   8   8   8   8   8   8
#     4  11  23  40  65  95 128 161 199 258 322 368
#     4  10  20  39  64  92 127 162 196 256 314 365
#     4  10  20  37  64  94 124 158 199 254 315 371
#     4  11  25  43  62  89 122 167 222 255 293 371
#     4  11  25  42  63  90 120 169 227 252 285 369
#     4   9  17  35  62  91 123 160 197 240 307 385
#     4   9  19  33  59  94 128 152 193 251 320 372
#     4  11  21  40  65  94 128 166 204 256 307 366
#
# _framework density 21.218291000000001
#
# number of rings (size 3 to 8) (size 9 to 14) (size 15 to 20)
#    0.000    1.750    2.500    3.750    0.000    4.500 
#    0.000    1.875    0.000    2.250    0.000    0.000 
#    0.000    0.000    0.000    0.000    0.000    0.000 
#
# Total GULP energy -178713.875616 kJ/mol
# GULP energy per Si atom -5584.808613 kJ/mol
# Density = 2.117000 g / cm^3
# Si number density = 21.218291 Si / 1000 Ang^3
#
#
#
# Elastic Constant Matrix: (Units=GPa)
#
#
# Indices 1 2 3 4 5 6 
#
# 1 92.7708 27.1187 23.1488 0.0000 1.5607 0.0000
# 2 27.1187 90.1952 4.0789 0.0000 -12.3208 0.0000
# 3 23.1488 4.0789 59.2557 0.0000 -20.7494 0.0000
# 4 0.0000 0.0000 0.0000 21.2156 0.0000 -10.4596
# 5 1.5607 -12.3208 -20.7494 0.0000 24.2208 0.0000
# 6 0.0000 0.0000 0.0000 -10.4596 0.0000 11.3824
#
#
#
# Elastic Compliance Matrix: (Units=1/GPa)
#
#
# Indices 1 2 3 4 5 6 
#
# 1 0.015136 -0.005793 -0.009839 0.000000 -0.012351 0.000000
# 2 -0.005793 0.014277 0.005649 0.000000 0.012475 0.000000
# 3 -0.009839 0.005649 0.030798 0.000000 0.029891 0.000000
# 4 0.000000 0.000000 0.000000 0.086178 0.000000 0.079191
# 5 -0.012351 0.012475 0.029891 0.000000 0.074035 0.000000
# 6 0.000000 0.000000 0.000000 0.079191 0.000000 0.160626
#
#
# Mechanical properties :
#
#
# Convention : Reuss Voigt Hill
#
# Bulk Modulus (GPa) = 24.84830 38.99051 31.91940
# Shear Modulus (GPa) = 12.06475 23.88878 17.97676
#
# Velocity S-wave (km/s) = 2.38712 3.35902 2.91388
# Velocity P-wave (km/s) = 4.39705 5.78445 5.13779
#
# Compressibility (1/GPa) = 0.04024421
#
# Stress axis : x y z
#
# Youngs Moduli (GPa) = 66.06980 70.04043 32.46991
#
# Poissons Ratio (x) = 0.40574 0.31947
# Poissons Ratio (y) = 0.38274 -0.18341
# Poissons Ratio (z) = 0.65006 -0.39563
#
# Static dielectric constant tensor:
#      x y z
#    x 1.775870 0.000000 -0.026990 
#    y 0.000000 1.749480 0.000000 
#    z -0.026990 0.000000 1.792150 
# 
# From -- ./inp_files/113615.got.cif
#   From: 2010.05.17/outbox.cif.g08.bks.cpg/sg12_57_cif.got.tgz:113615.got - 2010.06.03 13:09:07.
