data_PCOD9201318
_publ_section_title
;
Structure prediction by ZEFSAII (Michael W. Deem and Ramdas Pophale) SiO2 
 PCOD9201318
Probable space group: C 2/M
;
_chemical_formula_sum "Si O2"
_cell_formula_units_Z 58
_cell_length_a 11.719322
_cell_length_b 31.496590
_cell_length_c 16.711021
_cell_angle_alpha 90.000000
_cell_angle_beta 153.378313
_cell_angle_gamma 90.000000
_cell_volume 2764.022231
_symmetry_space_group_name_H-M "C 2/M"
_symmetry_group_IT_number 12
_symmetry_cell_setting 'monoclinic'
loop_
_space_group_symop_operation_xyz
x,y,z
-x,y,-z
-x,-y,-z
x,-y,z
1/2+x,1/2+y,z
1/2-x,1/2+y,-z
1/2-x,1/2-y,-z
1/2+x,1/2-y,z
loop_
_atom_site_type_symbol
_atom_site_label
_atom_site_fract_x
_atom_site_fract_y
_atom_site_fract_z
Si Si1 0.695222 0.796129 0.197076
Si Si2 0.718294 0.575335 0.543557
Si Si3 0.692420 0.380606 0.804682
Si Si4 0.486558 0.374717 0.855032
Si Si5 0.000000 0.000000 0.500000
Si Si6 0.482667 0.841709 0.756259
Si Si7 0.258518 0.201719 0.217423
Si Si8 0.368785 0.951140 0.330161
O O1 0.865000 0.835686 0.274981
O O2 0.563943 0.812140 0.196195
O O3 0.805351 0.749248 0.277818
O O4 0.500000 0.792749 0.000000
O O5 0.447468 0.582028 0.329948
O O6 0.693041 0.537130 0.588183
O O7 0.788242 0.619686 0.628784
O O8 0.928451 0.564666 0.608233
O O9 0.570700 0.378884 0.816038
O O10 0.000000 0.385523 0.000000
O O11 0.302435 0.334383 0.755461
O O12 0.357627 0.417292 0.806377
O O13 0.745090 0.364526 0.063581
O O14 0.513117 0.813972 0.695736
O O15 0.000000 0.203751 0.000000
O O16 0.500000 0.950088 0.500000
O O17 0.293535 0.000000 0.266901
#
# Coordination Sequence:
#
# PCOD9201318 Si02
#       8
#     8   8   8   8   2   8   8   8
#     4  10  20  37  61  94 131 177 221 261 313 387
#     4  12  25  46  70  94 132 173 214 269 339 393
#     4  11  23  43  68  95 129 174 217 264 324 394
#     4  11  21  41  67  99 131 169 220 270 322 383
#     4  12  28  44  68  98 132 168 212 270 338 402
#     4  11  22  41  65  96 138 172 218 270 329 387
#     4   9  21  33  63  98 128 174 218 267 316 378
#     4  11  23  44  70  98 126 168 221 272 328 390
#
# _framework density 20.983912
#
# number of rings (size 3 to 8) (size 9 to 14) (size 15 to 20)
#    0.000    1.241    6.207    0.828    1.931    1.655 
#    1.241    1.724    6.069    0.000    0.000    0.000 
#    0.000    0.000    0.000    0.000    0.000    0.000 
#
# Total GULP energy -161724.049667 kJ/mol
# GULP energy per Si atom -5576.691368 kJ/mol
# Density = 2.093615 g / cm^3
# Si number density = 20.983912 Si / 1000 Ang^3
#
#
#
# Elastic Constant Matrix: (Units=GPa)
#
#
# Indices 1 2 3 4 5 6 
#
# 1 150.3934 63.8795 27.8085 0.0001 19.0860 -0.0001
# 2 63.8795 168.9922 48.5392 0.0001 17.2687 -0.0001
# 3 27.8085 48.5392 43.5625 -0.0010 12.9679 0.0013
# 4 0.0001 0.0001 -0.0010 38.8107 -0.0001 -22.5760
# 5 19.0860 17.2687 12.9679 -0.0001 17.6318 0.0001
# 6 -0.0001 -0.0001 0.0013 -22.5760 0.0001 65.8983
#
#
#
# Elastic Compliance Matrix: (Units=1/GPa)
#
#
# Indices 1 2 3 4 5 6 
#
# 1 0.008626 -0.002315 -0.001053 0.000000 -0.006296 0.000000
# 2 -0.002315 0.009368 -0.008930 0.000000 -0.000101 0.000000
# 3 -0.001053 -0.008930 0.039223 0.000001 -0.018961 -0.000001
# 4 0.000000 0.000000 0.000001 0.032179 0.000000 0.011024
# 5 -0.006296 -0.000101 -0.018961 0.000000 0.077575 0.000000
# 6 0.000000 0.000000 -0.000001 0.011024 0.000000 0.018952
#
#
# Mechanical properties :
#
#
# Convention : Reuss Voigt Hill
#
# Bulk Modulus (GPa) = 30.65571 71.48915 51.07243
# Shear Modulus (GPa) = 22.58438 39.31623 30.95030
#
# Velocity S-wave (km/s) = 3.28422 4.33325 3.84468
# Velocity P-wave (km/s) = 5.38723 7.69276 6.64082
#
# Compressibility (1/GPa) = 0.03262035
#
# Stress axis : x y z
#
# Youngs Moduli (GPa) = 115.92609 106.74888 25.49551
#
# Poissons Ratio (x) = 0.24711 0.02685
# Poissons Ratio (y) = 0.26836 0.22768
# Poissons Ratio (z) = 0.12208 0.95328
#
# Static dielectric constant tensor:
#      x y z
#    x 1.786280 0.000000 -0.033170 
#    y 0.000000 1.736910 0.000000 
#    z -0.033170 0.000000 1.792330 
# 
# From -- ./inp_files/266210.got.cif
#   From: 2010.05.17/outbox.cif.g08.bks.cpg/sg12_134_cif.got.tgz:266210.got - 2010.06.03 13:09:07.
