data_PCOD9201549
_publ_section_title
;
Structure prediction by ZEFSAII (Michael W. Deem and Ramdas Pophale) SiO2 
 PCOD9201549
Probable space group: C 2/M
;
_chemical_formula_sum "Si O2"
_cell_formula_units_Z 42
_cell_length_a 8.274458
_cell_length_b 14.484213
_cell_length_c 15.764149
_cell_angle_alpha 90.000000
_cell_angle_beta 67.826486
_cell_angle_gamma 90.000000
_cell_volume 1749.593478
_symmetry_space_group_name_H-M "C 2/M"
_symmetry_group_IT_number 12
_symmetry_cell_setting 'monoclinic'
loop_
_space_group_symop_operation_xyz
x,y,z
-x,y,-z
-x,-y,-z
x,-y,z
1/2+x,1/2+y,z
1/2-x,1/2+y,-z
1/2-x,1/2-y,-z
1/2+x,1/2-y,z
loop_
_atom_site_type_symbol
_atom_site_label
_atom_site_fract_x
_atom_site_fract_y
_atom_site_fract_z
Si Si1 0.793193 0.888007 0.797156
Si Si2 0.912547 0.158938 0.394076
Si Si3 0.058714 0.394238 0.206556
Si Si4 0.040370 0.357197 0.401659
Si Si5 0.000000 0.000000 0.500000
Si Si6 0.049923 0.113017 0.894361
O O1 0.597706 0.852551 0.818206
O O2 0.913105 0.864449 0.692862
O O3 0.901558 0.856052 0.857511
O O4 0.782662 0.000000 0.802632
O O5 0.748724 0.155607 0.364025
O O6 0.895532 0.081442 0.468506
O O7 0.937306 0.260834 0.424576
O O8 0.077291 0.500000 0.173649
O O9 0.000055 0.396419 0.316840
O O10 0.252686 0.353540 0.162850
O O11 0.000000 0.403151 0.500000
O O12 0.052239 0.000000 0.886313
O O13 0.000000 0.136483 0.000000
#
# Coordination Sequence:
#
# PCOD9201549 Si02
#       6
#     8   8   8   8   2   8
#     4  10  20  37  62  91 130 171 215 274 330 390
#     4  12  25  44  64  95 135 176 225 272 329 386
#     4  10  22  38  61  98 132 173 226 271 330 395
#     4  12  26  41  64  94 135 175 224 272 324 386
#     4  12  28  40  70  92 128 182 226 268 326 388
#     4   9  18  36  62  94 129 168 219 277 334 395
#
# _framework density 24.005575
#
# number of rings (size 3 to 8) (size 9 to 14) (size 15 to 20)
#    0.000    1.333    3.810    1.714    4.000    1.143 
#    0.000    3.810    0.000    1.143    0.000    0.000 
#    0.000    0.000    0.000    0.000    0.000    0.000 
#
# Total GULP energy -117158.513914 kJ/mol
# GULP energy per Si atom -5578.976853 kJ/mol
# Density = 2.395094 g / cm^3
# Si number density = 24.005575 Si / 1000 Ang^3
#
#
#
# Elastic Constant Matrix: (Units=GPa)
#
#
# Indices 1 2 3 4 5 6 
#
# 1 229.7940 24.5909 73.5595 0.0000 23.7185 0.0000
# 2 24.5909 93.2460 -8.3557 0.0000 1.0881 0.0000
# 3 73.5595 -8.3557 92.7640 0.0000 1.0676 0.0000
# 4 0.0000 0.0000 0.0000 22.1272 0.0000 10.6912
# 5 23.7185 1.0881 1.0676 0.0000 25.0526 0.0000
# 6 0.0000 0.0000 0.0000 10.6912 0.0000 19.0480
#
#
#
# Elastic Compliance Matrix: (Units=1/GPa)
#
#
# Indices 1 2 3 4 5 6 
#
# 1 0.007105 -0.002316 -0.005769 0.000000 -0.006380 0.000000
# 2 -0.002316 0.011573 0.002861 0.000000 0.001568 0.000000
# 3 -0.005769 0.002861 0.015559 0.000000 0.004675 0.000000
# 4 0.000000 0.000000 0.000000 0.062010 0.000000 -0.034805
# 5 -0.006380 0.001568 0.004675 0.000000 0.045689 0.000000
# 6 0.000000 0.000000 0.000000 -0.034805 0.000000 0.072034
#
#
# Mechanical properties :
#
#
# Convention : Reuss Voigt Hill
#
# Bulk Modulus (GPa) = 42.03748 66.15482 54.09615
# Shear Modulus (GPa) = 21.51944 34.97951 28.24948
#
# Velocity S-wave (km/s) = 2.99730 3.82139 3.43416
# Velocity P-wave (km/s) = 5.43397 6.86212 6.18937
#
# Compressibility (1/GPa) = 0.02378830
#
# Stress axis : x y z
#
# Youngs Moduli (GPa) = 140.74762 86.40622 64.27226
#
# Poissons Ratio (x) = 0.20014 0.37080
# Poissons Ratio (y) = 0.32601 -0.18389
# Poissons Ratio (z) = 0.81201 -0.24722
#
# Static dielectric constant tensor:
#      x y z
#    x 1.931140 0.000000 -0.021070 
#    y 0.000000 1.910760 0.000000 
#    z -0.021070 0.000000 1.896110 
# 
# From -- ./inp_files/195357.got.cif
#   From: 2010.05.17/outbox.cif.g08.bks.cpg/sg12_98_cif.got.tgz:195357.got - 2010.06.03 13:09:07.
