data_PCOD9201535
_publ_section_title
;
Structure prediction by ZEFSAII (Michael W. Deem and Ramdas Pophale) SiO2 
 PCOD9201535
Probable space group: C 2/M
;
_chemical_formula_sum "Si O2"
_cell_formula_units_Z 40
_cell_length_a 14.619510
_cell_length_b 10.815752
_cell_length_c 16.071126
_cell_angle_alpha 90.000000
_cell_angle_beta 133.222521
_cell_angle_gamma 90.000000
_cell_volume 1851.758361
_symmetry_space_group_name_H-M "C 2/M"
_symmetry_group_IT_number 12
_symmetry_cell_setting 'monoclinic'
loop_
_space_group_symop_operation_xyz
x,y,z
-x,y,-z
-x,-y,-z
x,-y,z
1/2+x,1/2+y,z
1/2-x,1/2+y,-z
1/2-x,1/2-y,-z
1/2+x,1/2-y,z
loop_
_atom_site_type_symbol
_atom_site_label
_atom_site_fract_x
_atom_site_fract_y
_atom_site_fract_z
Si Si1 0.601366 0.140640 0.989154
Si Si2 0.681949 0.860305 0.646707
Si Si3 0.160315 0.366622 0.448812
Si Si4 0.148208 0.861685 0.751636
Si Si5 0.458303 0.723983 0.759559
O O1 0.734175 0.166957 0.114861
O O2 0.606359 0.000000 0.958471
O O3 0.500000 0.141782 0.000000
O O4 0.553027 0.236541 0.890942
O O5 0.612142 0.861572 0.513505
O O6 0.642930 0.746834 0.680677
O O7 0.829765 0.832887 0.716052
O O8 0.671651 0.000000 0.675660
O O9 0.223447 0.500000 0.479800
O O10 0.250000 0.250000 0.500000
O O11 0.071624 0.345556 0.314905
O O12 0.026499 0.860719 0.734289
O O13 0.167444 0.000000 0.727829
#
# Coordination Sequence:
#
# PCOD9201535 Si02
#       5
#     8   8   8   8   8
#     4  10  20  37  62  91 123 159 202 253 307 365
#     4  10  22  41  61  89 126 160 201 250 303 361
#     4   9  20  37  62  92 123 162 204 249 302 362
#     4  11  24  41  63  92 124 161 206 251 303 366
#     4  11  21  39  64  90 122 161 203 253 306 359
#
# _framework density 21.601089999999999
#
# number of rings (size 3 to 8) (size 9 to 14) (size 15 to 20)
#    0.000    1.800    2.000    1.800    0.000    6.400 
#    0.000    6.000    0.000    0.000    0.000    0.000 
#    0.000    0.000    0.000    0.000    0.000    0.000 
#
# Total GULP energy -111598.662416 kJ/mol
# GULP energy per Si atom -5579.933121 kJ/mol
# Density = 2.155192 g / cm^3
# Si number density = 21.601090 Si / 1000 Ang^3
#
#
#
# Elastic Constant Matrix: (Units=GPa)
#
#
# Indices 1 2 3 4 5 6 
#
# 1 79.8389 36.7843 3.6367 0.0000 0.8874 0.0000
# 2 36.7843 173.1537 61.0567 0.0000 -19.6461 0.0000
# 3 3.6367 61.0567 72.6929 0.0000 -3.3176 0.0000
# 4 0.0000 0.0000 0.0000 13.6358 0.0000 5.7919
# 5 0.8874 -19.6461 -3.3176 0.0000 29.2330 0.0000
# 6 0.0000 0.0000 0.0000 5.7919 0.0000 19.3511
#
#
#
# Elastic Compliance Matrix: (Units=1/GPa)
#
#
# Indices 1 2 3 4 5 6 
#
# 1 0.014472 -0.004433 0.002859 0.000000 -0.003094 0.000000
# 2 -0.004433 0.010279 -0.008133 0.000000 0.006120 0.000000
# 3 0.002859 -0.008133 0.020296 0.000000 -0.003249 0.000000
# 4 0.000000 0.000000 0.000000 0.084018 0.000000 -0.025147
# 5 -0.003094 0.006120 -0.003249 0.000000 0.038046 0.000000
# 6 0.000000 0.000000 0.000000 -0.025147 0.000000 0.059203
#
#
# Mechanical properties :
#
#
# Convention : Reuss Voigt Hill
#
# Bulk Modulus (GPa) = 39.01355 58.73787 48.87571
# Shear Modulus (GPa) = 19.66392 27.39118 23.52755
#
# Velocity S-wave (km/s) = 3.02043 3.56483 3.30386
# Velocity P-wave (km/s) = 5.50128 6.64794 6.10161
#
# Compressibility (1/GPa) = 0.02563212
#
# Stress axis : x y z
#
# Youngs Moduli (GPa) = 69.09882 97.28527 49.27089
#
# Poissons Ratio (x) = 0.43131 -0.14084
# Poissons Ratio (y) = 0.30635 0.40070
# Poissons Ratio (z) = -0.19752 0.79118
#
# Static dielectric constant tensor:
#      x y z
#    x 1.837770 0.000000 0.035960 
#    y 0.000000 1.780750 0.000000 
#    z 0.035960 0.000000 1.804260 
# 
# From -- ./inp_files/140792.got.cif
#   From: 2010.05.17/outbox.cif.g08.bks.cpg/sg12_71_cif.got.tgz:140792.got - 2010.06.03 13:09:07.
