data_PCOD9201666
_publ_section_title
;
Structure prediction by ZEFSAII (Michael W. Deem and Ramdas Pophale) SiO2 
 PCOD9201666
Probable space group: C 2/M
;
_chemical_formula_sum "Si O2"
_cell_formula_units_Z 40
_cell_length_a 29.662899
_cell_length_b 8.975681
_cell_length_c 22.545091
_cell_angle_alpha 90.000000
_cell_angle_beta 19.464788
_cell_angle_gamma 90.000000
_cell_volume 2000.201762
_symmetry_space_group_name_H-M "C 2/M"
_symmetry_group_IT_number 12
_symmetry_cell_setting 'monoclinic'
loop_
_space_group_symop_operation_xyz
x,y,z
-x,y,-z
-x,-y,-z
x,-y,z
1/2+x,1/2+y,z
1/2-x,1/2+y,-z
1/2-x,1/2-y,-z
1/2+x,1/2-y,z
loop_
_atom_site_type_symbol
_atom_site_label
_atom_site_fract_x
_atom_site_fract_y
_atom_site_fract_z
Si Si1 0.086484 0.177807 0.833780
Si Si2 0.604006 0.823421 0.170080
Si Si3 0.844625 0.329320 0.673956
Si Si4 0.088473 0.175463 0.066747
Si Si5 0.146850 0.824881 0.457858
O O1 0.227733 0.263639 0.659725
O O2 0.001918 0.207178 0.879036
O O3 0.111498 0.000000 0.805702
O O4 0.000000 0.217230 0.000000
O O5 0.558986 0.775761 0.159813
O O6 0.490843 0.758827 0.354250
O O7 0.613896 0.000000 0.164337
O O8 0.750000 0.750000 0.000000
O O9 0.815794 0.500000 0.689264
O O10 0.819058 0.218028 0.652068
O O11 0.000000 0.320538 0.500000
O O12 0.743277 0.301575 0.853768
O O13 0.071847 0.000000 0.102711
O O14 0.129904 0.000000 0.486504
#
# Coordination Sequence:
#
# PCOD9201666 Si02
#       5
#     8   8   8   8   8
#     4  10  20  40  67  94 128 170 213 259 317 378
#     4  12  26  45  67  92 129 169 212 262 320 381
#     4  10  20  37  63  92 123 164 211 261 318 380
#     4  10  21  39  65  95 128 167 212 261 317 379
#     4  12  25  40  63  94 129 167 213 264 316 373
#
# _framework density 19.997982
#
# number of rings (size 3 to 8) (size 9 to 14) (size 15 to 20)
#    0.000    1.200    2.000    4.800    0.000    4.800 
#    0.000    0.000    0.000    0.000    0.000    0.000 
#    0.000    0.000    0.000    0.000    0.000    0.000 
#
# Total GULP energy -111882.741389 kJ/mol
# GULP energy per Si atom -5594.137069 kJ/mol
# Density = 1.995247 g / cm^3
# Si number density = 19.997982 Si / 1000 Ang^3
#
#
#
# Elastic Constant Matrix: (Units=GPa)
#
#
# Indices 1 2 3 4 5 6 
#
# 1 51.0903 25.8652 -6.7416 0.0000 -0.9576 0.0000
# 2 25.8652 103.1738 35.7839 -0.0006 -2.3729 0.0001
# 3 -6.7416 35.7839 60.0816 -0.0003 -8.8111 0.0000
# 4 0.0000 -0.0006 -0.0003 31.2404 0.0000 -0.0391
# 5 -0.9576 -2.3729 -8.8111 0.0000 28.6250 0.0001
# 6 0.0000 0.0001 0.0000 -0.0391 0.0001 34.3625
#
#
#
# Elastic Compliance Matrix: (Units=1/GPa)
#
#
# Indices 1 2 3 4 5 6 
#
# 1 0.025577 -0.009435 0.008902 0.000000 0.002814 0.000000
# 2 -0.009435 0.015741 -0.010775 0.000000 -0.002328 0.000000
# 3 0.008902 -0.010775 0.025107 0.000000 0.007133 0.000000
# 4 0.000000 0.000000 0.000000 0.032010 0.000000 0.000036
# 5 0.002814 -0.002328 0.007133 0.000000 0.037031 0.000000
# 6 0.000000 0.000000 0.000000 0.000036 0.000000 0.029102
#
#
# Mechanical properties :
#
#
# Convention : Reuss Voigt Hill
#
# Bulk Modulus (GPa) = 22.82667 36.01785 29.42226
# Shear Modulus (GPa) = 24.77859 29.47480 27.12669
#
# Velocity S-wave (km/s) = 3.52384 3.84329 3.68703
# Velocity P-wave (km/s) = 5.29111 6.14364 5.73325
#
# Compressibility (1/GPa) = 0.04380841
#
# Stress axis : x y z
#
# Youngs Moduli (GPa) = 39.09752 63.52696 39.83013
#
# Poissons Ratio (x) = 0.59936 -0.35456
# Poissons Ratio (y) = 0.36888 0.42918
# Poissons Ratio (z) = -0.34804 0.68453
#
# Static dielectric constant tensor:
#      x y z
#    x 1.713840 0.000000 -0.005300 
#    y 0.000000 1.672230 0.000000 
#    z -0.005300 0.000000 1.689690 
# 
# From -- ./inp_files/151714.got.cif
#   From: 2010.05.17/outbox.cif.g08.bks.cpg/sg12_76_cif.got.tgz:151714.got - 2010.06.03 13:09:07.
