data_PCOD9201901
_publ_section_title
;
Structure prediction by ZEFSAII (Michael W. Deem and Ramdas Pophale) SiO2 
 PCOD9201901
Probable space group: C 2/M
;
_chemical_formula_sum "Si O2"
_cell_formula_units_Z 36
_cell_length_a 10.772614
_cell_length_b 28.912025
_cell_length_c 7.121583
_cell_angle_alpha 90.000000
_cell_angle_beta 45.999662
_cell_angle_gamma 90.000000
_cell_volume 1595.540254
_symmetry_space_group_name_H-M "C 2/M"
_symmetry_group_IT_number 12
_symmetry_cell_setting 'monoclinic'
loop_
_space_group_symop_operation_xyz
x,y,z
-x,y,-z
-x,-y,-z
x,-y,z
1/2+x,1/2+y,z
1/2-x,1/2+y,-z
1/2-x,1/2-y,-z
1/2+x,1/2-y,z
loop_
_atom_site_type_symbol
_atom_site_label
_atom_site_fract_x
_atom_site_fract_y
_atom_site_fract_z
Si Si1 0.162419 0.714140 0.729373
Si Si2 0.799414 0.946834 0.377291
Si Si3 0.000000 0.828165 0.500000
Si Si4 0.878571 0.903717 0.889224
Si Si5 0.494948 0.119824 0.278308
O O1 0.250000 0.750000 0.500000
O O2 0.322915 0.699702 0.689399
O O3 0.079671 0.667873 0.723569
O O4 0.000000 0.737406 0.000000
O O5 0.635098 0.921599 0.636740
O O6 0.978072 0.942934 0.304496
O O7 0.764379 0.000000 0.367204
O O8 0.832700 0.916938 0.152474
O O9 0.988432 0.859672 0.700075
O O10 0.687721 0.894059 0.008772
O O11 0.500000 0.124733 0.500000
#
# Coordination Sequence:
#
# PCOD9201901 Si02
#       5
#     8   8   4   8   8
#     4  12  28  47  71 102 137 174 232 286 348 419
#     4  10  21  39  65 102 135 175 231 277 325 401
#     4  12  24  44  69  94 136 176 217 282 350 400
#     4  10  20  37  66  91 130 178 218 269 332 396
#     4  10  22  41  68  97 133 177 223 278 342 395
#
# _framework density 22.562888000000001
#
# number of rings (size 3 to 8) (size 9 to 14) (size 15 to 20)
#    0.000    1.333    4.444    1.333    1.556    9.333 
#    0.000    2.222    0.000    2.000    0.000    0.000 
#    0.000    0.000    0.000    0.000    0.000    0.000 
#
# Total GULP energy -100228.911843 kJ/mol
# GULP energy per Si atom -5568.272880 kJ/mol
# Density = 2.251153 g / cm^3
# Si number density = 22.562888 Si / 1000 Ang^3
#
#
#
# Elastic Constant Matrix: (Units=GPa)
#
#
# Indices 1 2 3 4 5 6 
#
# 1 77.8226 32.5520 45.9461 0.0000 -14.7629 0.0000
# 2 32.5520 85.1604 41.6539 0.0000 -9.3120 0.0000
# 3 45.9461 41.6539 140.4010 0.0000 -41.8291 0.0000
# 4 0.0000 0.0000 0.0000 -114.2266 0.0000 -112.8243
# 5 -14.7629 -9.3120 -41.8291 0.0000 59.4661 0.0000
# 6 0.0000 0.0000 0.0000 -112.8243 0.0000 -31.6515
#
#
#
# Elastic Compliance Matrix: (Units=1/GPa)
#
#
# Indices 1 2 3 4 5 6 
#
# 1 0.017303 -0.004526 -0.004113 0.000000 0.000694 0.000000
# 2 -0.004526 0.014958 -0.003281 0.000000 -0.001089 0.000000
# 3 -0.004113 -0.003281 0.011367 0.000000 0.006461 0.000000
# 4 0.000000 0.000000 0.000000 0.003473 0.000000 -0.012379
# 5 0.000694 -0.001089 0.006461 0.000000 0.021362 0.000000
# 6 0.000000 0.000000 0.000000 -0.012379 0.000000 0.012533
#
#
# Mechanical properties :
#
#
# Convention : Reuss Voigt Hill
#
# Bulk Modulus (GPa) = 50.53738 60.40977 55.47357
# Shear Modulus (GPa) = 44.87014 -5.06692 19.90161
#
# Velocity S-wave (km/s) = 4.46429 -1.50019 2.97316
# Velocity P-wave (km/s) = 7.00145 4.88173 6.03538
#
# Compressibility (1/GPa) = 0.01978733
#
# Stress axis : x y z
#
# Youngs Moduli (GPa) = 57.79404 66.85164 87.97755
#
# Poissons Ratio (x) = 0.30260 0.36183
# Poissons Ratio (y) = 0.26160 0.28867
# Poissons Ratio (z) = 0.23769 0.21935
#
# Static dielectric constant tensor:
#      x y z
#    x 2.039100 0.000000 0.014830 
#    y 0.000000 1.818120 0.000000 
#    z 0.014830 0.000000 1.755990 
# 
# From -- ./inp_files/52255.got.cif
#   From: 2010.05.17/outbox.cif.g08.bks.cpg/sg12_27_cif.got.tgz:52255.got - 2010.06.03 13:09:07.
