data_PCOD9201333
_publ_section_title
;
Structure prediction by ZEFSAII (Michael W. Deem and Ramdas Pophale) SiO2 
 PCOD9201333
Probable space group: C 2/M
;
_chemical_formula_sum "Si O2"
_cell_formula_units_Z 48
_cell_length_a 14.178463
_cell_length_b 14.350182
_cell_length_c 28.712203
_cell_angle_alpha 90.000000
_cell_angle_beta 25.224171
_cell_angle_gamma 90.000000
_cell_volume 2489.583796
_symmetry_space_group_name_H-M "C 2/M"
_symmetry_group_IT_number 12
_symmetry_cell_setting 'monoclinic'
loop_
_space_group_symop_operation_xyz
x,y,z
-x,y,-z
-x,-y,-z
x,-y,z
1/2+x,1/2+y,z
1/2-x,1/2+y,-z
1/2-x,1/2-y,-z
1/2+x,1/2-y,z
loop_
_atom_site_type_symbol
_atom_site_label
_atom_site_fract_x
_atom_site_fract_y
_atom_site_fract_z
Si Si1 0.890563 0.286605 0.274320
Si Si2 0.955731 0.000000 0.465182
Si Si3 0.208034 0.000000 0.011345
Si Si4 0.932505 0.822393 0.433191
Si Si5 0.532926 0.000000 0.778275
Si Si6 0.381009 0.000000 0.102098
Si Si7 0.862785 0.817470 0.756554
Si Si8 0.474735 0.299725 0.884734
O O1 0.628667 0.289148 0.379880
O O2 0.977420 0.394464 0.238340
O O3 0.986398 0.231629 0.186266
O O4 0.960747 0.232631 0.289157
O O5 0.828092 0.090566 0.506096
O O6 0.000000 0.000000 0.500000
O O7 0.198887 0.000000 0.331234
O O8 0.064636 0.908290 0.086831
O O9 0.334496 0.000000 0.904869
O O10 0.422192 0.000000 0.948655
O O11 0.750000 0.750000 0.500000
O O12 0.041065 0.850997 0.335655
O O13 0.240040 0.093353 0.172087
O O14 0.500000 0.000000 0.000000
O O15 0.672438 0.744089 0.826917
O O16 0.250000 0.250000 0.000000
#
# Coordination Sequence:
#
# PCOD9201333 Si02
#       8
#     8   4   4   8   4   4   8   8
#     4  10  22  40  60  91 127 164 210 265 316 387
#     4  10  22  40  69  95 120 161 222 263 318 394
#     4  12  20  37  59  84 126 161 212 256 310 370
#     4  10  23  42  67  94 123 167 210 269 330 375
#     4  10  20  37  62  83 120 164 207 258 312 360
#     4  12  22  34  62  88 116 173 211 246 311 397
#     4  11  24  40  61  90 131 162 213 260 319 384
#     4  11  21  37  58  86 124 167 204 260 310 375
#
# _framework density 19.280331
#
# number of rings (size 3 to 8) (size 9 to 14) (size 15 to 20)
#    0.000    1.333    3.333    3.500    4.667    0.667 
#    0.000    5.000    0.000    2.000    0.000    0.000 
#    0.000    0.000    0.000    0.000    0.000    0.000 
#
# Total GULP energy -133826.610379 kJ/mol
# GULP energy per Si atom -5576.108766 kJ/mol
# Density = 1.923645 g / cm^3
# Si number density = 19.280331 Si / 1000 Ang^3
#
#
#
# Elastic Constant Matrix: (Units=GPa)
#
#
# Indices 1 2 3 4 5 6 
#
# 1 124.2468 60.1033 22.2280 0.0361 -12.6087 0.0442
# 2 60.1033 173.5530 29.2648 -0.0259 1.0378 -0.0199
# 3 22.2280 29.2648 42.7317 0.0889 2.9708 0.1121
# 4 0.0361 -0.0259 0.0889 38.0725 -0.0497 16.2122
# 5 -12.6087 1.0378 2.9708 -0.0497 15.0225 -0.0498
# 6 0.0442 -0.0199 0.1121 16.2122 -0.0498 56.6245
#
#
#
# Elastic Compliance Matrix: (Units=1/GPa)
#
#
# Indices 1 2 3 4 5 6 
#
# 1 0.011549 -0.003306 -0.004495 0.000009 0.010811 0.000006
# 2 -0.003306 0.007464 -0.003207 0.000009 -0.002656 0.000007
# 3 -0.004495 -0.003207 0.028576 -0.000057 -0.009202 -0.000046
# 4 0.000009 0.000009 -0.000057 0.029913 0.000089 -0.008564
# 5 0.010811 -0.002656 -0.009202 0.000089 0.077644 0.000052
# 6 0.000006 0.000007 -0.000046 -0.008564 0.000052 0.020112
#
#
# Mechanical properties :
#
#
# Convention : Reuss Voigt Hill
#
# Bulk Modulus (GPa) = 39.10417 62.63599 50.87008
# Shear Modulus (GPa) = 24.29561 37.20628 30.75095
#
# Velocity S-wave (km/s) = 3.55367 4.39766 3.99800
# Velocity P-wave (km/s) = 6.09623 7.63829 6.91041
#
# Compressibility (1/GPa) = 0.02557272
#
# Stress axis : x y z
#
# Youngs Moduli (GPa) = 86.58676 133.98389 34.99415
#
# Poissons Ratio (x) = 0.44299 0.15729
# Poissons Ratio (y) = 0.28628 0.11222
# Poissons Ratio (z) = 0.38919 0.42968
#
# Static dielectric constant tensor:
#      x y z
#    x -0.222550 0.000110 -1.819980 
#    y 0.000110 1.719320 0.000110 
#    z -1.819980 0.000110 -0.127820 
# 
# From -- ./inp_files/358379.got.cif
#   From: 2010.05.17/outbox.cif.g08.bks.cpg/sg12_180_cif.got.tgz:358379.got - 2010.06.03 13:09:07.
