data_PCOD9201504
_publ_section_title
;
Structure prediction by ZEFSAII (Michael W. Deem and Ramdas Pophale) SiO2 
 PCOD9201504
Probable space group: C 2/M
;
_chemical_formula_sum "Si O2"
_cell_formula_units_Z 56
_cell_length_a 30.217371
_cell_length_b 8.932032
_cell_length_c 11.034815
_cell_angle_alpha 90.000000
_cell_angle_beta 67.559545
_cell_angle_gamma 90.000000
_cell_volume 2752.795992
_symmetry_space_group_name_H-M "C 2/M"
_symmetry_group_IT_number 12
_symmetry_cell_setting 'monoclinic'
loop_
_space_group_symop_operation_xyz
x,y,z
-x,y,-z
-x,-y,-z
x,-y,z
1/2+x,1/2+y,z
1/2-x,1/2+y,-z
1/2-x,1/2-y,-z
1/2+x,1/2-y,z
loop_
_atom_site_type_symbol
_atom_site_label
_atom_site_fract_x
_atom_site_fract_y
_atom_site_fract_z
Si Si1 0.373807 0.822976 0.804494
Si Si2 0.528960 0.320852 0.348293
Si Si3 0.871357 0.320258 0.298910
Si Si4 0.222222 0.828163 0.178821
Si Si5 0.793774 0.831605 0.518851
Si Si6 0.172153 0.318723 0.908481
Si Si7 0.516915 0.180747 0.846301
O O1 0.416244 0.732583 0.698576
O O2 0.321690 0.774812 0.813303
O O3 0.381428 0.000000 0.781900
O O4 0.369707 0.786764 0.952221
O O5 0.500000 0.273781 0.500000
O O6 0.526184 0.500000 0.343030
O O7 0.509538 0.250929 0.242510
O O8 0.867830 0.500000 0.308166
O O9 0.843535 0.251008 0.440622
O O10 0.842779 0.268037 0.208815
O O11 0.926908 0.282424 0.227749
O O12 0.218267 0.837411 0.327868
O O13 0.275755 0.765523 0.101184
O O14 0.217563 0.000000 0.136339
O O15 0.750000 0.750000 0.500000
O O16 0.797439 0.000000 0.467747
O O17 0.176859 0.500000 0.899166
O O18 0.510949 0.000000 0.846225
O O19 0.500000 0.226113 0.000000
#
# Coordination Sequence:
#
# PCOD9201504 Si02
#       7
#     8   8   8   8   8   8   8
#     4  11  23  39  64  91 118 154 205 256 302 360
#     4  11  26  46  65  88 126 170 213 261 316 376
#     4  10  20  37  62  90 122 157 195 244 303 361
#     4  10  21  38  59  84 123 164 197 239 299 361
#     4  11  22  37  58  84 119 161 201 245 295 355
#     4   9  18  37  61  88 123 160 193 238 298 357
#     4  10  22  42  70  99 126 160 208 264 319 376
#
# _framework density 20.342955
#
# number of rings (size 3 to 8) (size 9 to 14) (size 15 to 20)
#    0.000    1.714    1.429    2.571    2.000    5.429 
#    0.000    3.571    0.000    0.000    0.000    0.000 
#    0.000    0.000    0.000    0.000    0.000    0.000 
#
# Total GULP energy -156348.358411 kJ/mol
# GULP energy per Si atom -5583.869943 kJ/mol
# Density = 2.029665 g / cm^3
# Si number density = 20.342955 Si / 1000 Ang^3
#
#
#
# Elastic Constant Matrix: (Units=GPa)
#
#
# Indices 1 2 3 4 5 6 
#
# 1 80.8230 21.2226 37.4201 0.0000 -16.1111 0.0000
# 2 21.2226 26.2323 28.8446 0.0000 -7.4397 0.0000
# 3 37.4201 28.8446 119.5105 0.0000 -24.9314 0.0000
# 4 0.0000 0.0000 0.0000 24.9022 0.0000 1.2697
# 5 -16.1111 -7.4397 -24.9314 0.0000 39.5693 0.0000
# 6 0.0000 0.0000 0.0000 1.2697 0.0000 29.2933
#
#
#
# Elastic Compliance Matrix: (Units=1/GPa)
#
#
# Indices 1 2 3 4 5 6 
#
# 1 0.016724 -0.010313 -0.001993 0.000000 0.003614 0.000000
# 2 -0.010313 0.058412 -0.010884 0.000000 -0.000075 0.000000
# 3 -0.001993 -0.010884 0.012690 0.000000 0.005138 0.000000
# 4 0.000000 0.000000 0.000000 0.040246 0.000000 -0.001744
# 5 0.003614 -0.000075 0.005138 0.000000 0.029967 0.000000
# 6 0.000000 0.000000 0.000000 -0.001744 0.000000 0.034213
#
#
# Mechanical properties :
#
#
# Convention : Reuss Voigt Hill
#
# Bulk Modulus (GPa) = 24.12878 44.61562 34.37220
# Shear Modulus (GPa) = 19.80590 28.02484 23.91537
#
# Velocity S-wave (km/s) = 3.12364 3.71566 3.43244
# Velocity P-wave (km/s) = 4.98962 6.35511 5.71331
#
# Compressibility (1/GPa) = 0.04144428
#
# Stress axis : x y z
#
# Youngs Moduli (GPa) = 59.79358 17.11976 78.79954
#
# Poissons Ratio (x) = 0.17656 0.15707
# Poissons Ratio (y) = 0.61668 0.85769
# Poissons Ratio (z) = 0.11919 0.18634
#
# Static dielectric constant tensor:
#      x y z
#    x 1.724010 0.000000 0.008300 
#    y 0.000000 1.703880 0.000000 
#    z 0.008300 0.000000 1.732950 
# 
# From -- ./inp_files/180652.got.cif
#   From: 2010.05.17/outbox.cif.g08.bks.cpg/sg12_91_cif.got.tgz:180652.got - 2010.06.03 13:09:07.
