data_PCOD9201021
_publ_section_title
;
Structure prediction by ZEFSAII (Michael W. Deem and Ramdas Pophale) SiO2 
 PCOD9201021
Probable space group: C 2/M
;
_chemical_formula_sum "Si O2"
_cell_formula_units_Z 56
_cell_length_a 12.136462
_cell_length_b 21.097961
_cell_length_c 11.847715
_cell_angle_alpha 90.000000
_cell_angle_beta 108.234000
_cell_angle_gamma 90.000000
_cell_volume 2881.331289
_symmetry_space_group_name_H-M "C 2/M"
_symmetry_group_IT_number 12
_symmetry_cell_setting 'monoclinic'
loop_
_space_group_symop_operation_xyz
x,y,z
-x,y,-z
-x,-y,-z
x,-y,z
1/2+x,1/2+y,z
1/2-x,1/2+y,-z
1/2-x,1/2-y,-z
1/2+x,1/2-y,z
loop_
_atom_site_type_symbol
_atom_site_label
_atom_site_fract_x
_atom_site_fract_y
_atom_site_fract_z
Si Si1 0.227752 0.363737 0.799199
Si Si2 0.370831 0.198677 0.442606
Si Si3 0.822341 0.927703 0.229914
Si Si4 0.792744 0.681467 0.659418
Si Si5 0.631202 0.108005 0.999662
Si Si6 0.119898 0.258123 0.097817
Si Si7 0.470146 0.424390 0.861675
O O1 0.146426 0.347262 0.668596
O O2 0.288594 0.298407 0.862826
O O3 0.339922 0.403089 0.795882
O O4 0.158172 0.398231 0.876598
O O5 0.500000 0.222360 0.500000
O O6 0.291459 0.259164 0.390320
O O7 0.338954 0.165618 0.550583
O O8 0.774199 0.877152 0.304611
O O9 0.723183 0.930338 0.102155
O O10 0.936628 0.901916 0.201234
O O11 0.841821 0.000000 0.278171
O O12 0.887700 0.709749 0.779033
O O13 0.658097 0.181651 0.036899
O O14 0.500000 0.095805 0.000000
O O15 0.000000 0.237586 0.000000
O O16 0.479189 0.500000 0.862359
O O17 0.500000 0.404813 0.000000
#
# Coordination Sequence:
#
# PCOD9201021 Si02
#       7
#     8   8   8   8   8   8   8
#     4  11  21  36  58  88 117 158 201 249 303 363
#     4  10  23  39  63  84 121 165 203 247 298 355
#     4  10  21  38  63  89 120 157 196 248 304 358
#     4   9  21  41  57  88 119 158 206 245 298 361
#     4  10  21  34  52  86 126 156 192 242 296 369
#     4   9  19  32  56  85 120 149 193 247 312 358
#     4  10  20  37  60  90 123 154 197 252 306 359
#
# _framework density 19.435461
#
# number of rings (size 3 to 8) (size 9 to 14) (size 15 to 20)
#    0.000    2.143    1.429    0.857    6.000    3.714 
#    2.571    0.714    0.000    3.000    0.000    0.000 
#    0.000    0.000    0.000    0.000    0.000    0.000 
#
# Total GULP energy -156090.948761 kJ/mol
# GULP energy per Si atom -5574.676741 kJ/mol
# Density = 1.939122 g / cm^3
# Si number density = 19.435461 Si / 1000 Ang^3
#
#
#
# Elastic Constant Matrix: (Units=GPa)
#
#
# Indices 1 2 3 4 5 6 
#
# 1 83.4829 11.7734 40.7606 0.0000 -11.1693 0.0000
# 2 11.7734 42.3308 10.8084 0.0000 -13.4334 0.0000
# 3 40.7606 10.8084 109.0613 0.0000 -2.1746 0.0000
# 4 0.0000 0.0000 0.0000 2.3150 0.0000 0.9817
# 5 -11.1693 -13.4334 -2.1746 0.0000 28.6137 0.0000
# 6 0.0000 0.0000 0.0000 0.9817 0.0000 -0.8705
#
#
#
# Elastic Compliance Matrix: (Units=1/GPa)
#
#
# Indices 1 2 3 4 5 6 
#
# 1 0.015565 -0.001303 -0.005587 0.000000 0.005039 0.000000
# 2 -0.001303 0.028563 -0.002090 0.000000 0.012742 0.000000
# 3 -0.005587 -0.002090 0.011419 0.000000 -0.002294 0.000000
# 4 0.000000 0.000000 0.000000 0.292224 0.000000 0.329553
# 5 0.005039 0.012742 -0.002294 0.000000 0.042723 0.000000
# 6 0.000000 0.000000 0.000000 0.329553 0.000000 -0.777154
#
#
# Mechanical properties :
#
#
# Convention : Reuss Voigt Hill
#
# Bulk Modulus (GPa) = 26.60569 40.17331 33.38950
# Shear Modulus (GPa) = -14.03818 17.44714 1.70448
#
# Velocity S-wave (km/s) = -2.69047 2.99941 0.93750
# Velocity P-wave (km/s) = 2.01679 5.71929 4.28822
#
# Compressibility (1/GPa) = 0.03758594
#
# Stress axis : x y z
#
# Youngs Moduli (GPa) = 64.24843 35.01020 87.57514
#
# Poissons Ratio (x) = 0.04562 0.48932
# Poissons Ratio (y) = 0.08373 0.18300
# Poissons Ratio (z) = 0.35899 0.07316
#
# Static dielectric constant tensor:
#      x y z
#    x 1.582780 0.000000 -0.024680 
#    y 0.000000 1.678500 0.000000 
#    z -0.024680 0.000000 1.692670 
# 
# From -- ./inp_files/133990.got.cif
#   From: 2010.05.17/outbox.cif.g08.bks.cpg/sg12_67_cif.got.tgz:133990.got - 2010.06.03 13:09:07.
