data_PCOD9201309
_publ_section_title
;
Structure prediction by ZEFSAII (Michael W. Deem and Ramdas Pophale) SiO2 
 PCOD9201309
Probable space group: C 2/M
;
_chemical_formula_sum "Si O2"
_cell_formula_units_Z 44
_cell_length_a 9.705845
_cell_length_b 28.979364
_cell_length_c 7.777124
_cell_angle_alpha 90.000000
_cell_angle_beta 121.139224
_cell_angle_gamma 90.000000
_cell_volume 1872.280807
_symmetry_space_group_name_H-M "C 2/M"
_symmetry_group_IT_number 12
_symmetry_cell_setting 'monoclinic'
loop_
_space_group_symop_operation_xyz
x,y,z
-x,y,-z
-x,-y,-z
x,-y,z
1/2+x,1/2+y,z
1/2-x,1/2+y,-z
1/2-x,1/2-y,-z
1/2+x,1/2-y,z
loop_
_atom_site_type_symbol
_atom_site_label
_atom_site_fract_x
_atom_site_fract_y
_atom_site_fract_z
Si Si1 0.373628 0.763554 0.728442
Si Si2 0.151310 0.000000 0.866792
Si Si3 0.000000 0.573998 0.500000
Si Si4 0.338789 0.595052 0.295264
Si Si5 0.466106 0.863159 0.776408
Si Si6 0.903099 0.808880 0.253538
Si Si7 0.729200 0.500000 0.321611
O O1 0.250000 0.750000 0.500000
O O2 0.473234 0.809237 0.740111
O O3 0.263216 0.781912 0.813195
O O4 0.491612 0.720344 0.809554
O O5 0.215892 0.952892 0.822818
O O6 0.954016 0.000000 0.726204
O O7 0.202920 0.000000 0.098820
O O8 0.946460 0.605910 0.306191
O O9 0.154324 0.542510 0.554522
O O10 0.500000 0.584169 0.500000
O O11 0.217703 0.619336 0.349974
O O12 0.371429 0.637839 0.185736
O O13 0.500000 0.871032 0.000000
O O14 0.000000 0.810115 0.500000
#
# Coordination Sequence:
#
# PCOD9201309 Si02
#       7
#     8   4   4   8   8   8   4
#     4   9  18  34  59  88 125 172 214 265 321 390
#     4  11  21  39  65  88 135 169 215 276 335 369
#     4  11  24  44  66  92 136 174 210 267 348 376
#     4  10  20  37  61  93 124 173 222 264 325 404
#     4  11  24  41  66  98 131 169 222 270 322 396
#     4   8  16  31  54  84 121 158 218 259 308 387
#     4  10  24  41  60  95 129 166 224 275 311 419
#
# _framework density 23.500747
#
# number of rings (size 3 to 8) (size 9 to 14) (size 15 to 20)
#    0.000    2.182    0.000    3.545    3.818    1.455 
#    0.000    6.818    8.000    0.000    0.000    0.000 
#    0.000    0.000    0.000    0.000    0.000    0.000 
#
# Total GULP energy -122832.224853 kJ/mol
# GULP energy per Si atom -5583.282948 kJ/mol
# Density = 2.344726 g / cm^3
# Si number density = 23.500747 Si / 1000 Ang^3
#
#
#
# Elastic Constant Matrix: (Units=GPa)
#
#
# Indices 1 2 3 4 5 6 
#
# 1 30.6261 38.8413 0.2151 0.0000 1.9473 0.0000
# 2 38.8413 193.0937 38.7830 0.0000 -16.9582 0.0000
# 3 0.2151 38.7830 72.4914 0.0000 -9.8635 0.0000
# 4 0.0000 0.0000 0.0000 16.6086 0.0000 -4.5962
# 5 1.9473 -16.9582 -9.8635 0.0000 25.1449 0.0000
# 6 0.0000 0.0000 0.0000 -4.5962 0.0000 32.6896
#
#
#
# Elastic Compliance Matrix: (Units=1/GPa)
#
#
# Indices 1 2 3 4 5 6 
#
# 1 0.047611 -0.011344 0.004632 0.000000 -0.009521 0.000000
# 2 -0.011344 0.008705 -0.003914 0.000000 0.005214 0.000000
# 3 0.004632 -0.003914 0.016339 0.000000 0.003411 0.000000
# 4 0.000000 0.000000 0.000000 0.062647 0.000000 0.008808
# 5 -0.009521 0.005214 0.003411 0.000000 0.045361 0.000000
# 6 0.000000 0.000000 0.000000 0.008808 0.000000 0.031829
#
#
# Mechanical properties :
#
#
# Convention : Reuss Voigt Hill
#
# Bulk Modulus (GPa) = 19.45366 50.20999 34.83182
# Shear Modulus (GPa) = 19.93001 29.44676 24.68839
#
# Velocity S-wave (km/s) = 2.91530 3.54363 3.24471
# Velocity P-wave (km/s) = 4.43033 6.17696 5.37506
#
# Compressibility (1/GPa) = 0.05140421
#
# Stress axis : x y z
#
# Youngs Moduli (GPa) = 21.00343 114.88118 61.20303
#
# Poissons Ratio (x) = 1.30317 -0.28350
# Poissons Ratio (y) = 0.23826 0.23954
# Poissons Ratio (z) = -0.09729 0.44964
#
# Static dielectric constant tensor:
#      x y z
#    x 2.149410 0.000000 -0.083370 
#    y 0.000000 1.522590 0.000000 
#    z -0.083370 0.000000 2.020000 
# 
# From -- ./inp_files/53440.got.cif
#   From: 2010.05.17/outbox.cif.g08.bks.cpg/sg12_27_cif.got.tgz:53440.got - 2010.06.03 13:09:07.
