data_PCOD9201684
_publ_section_title
;
Structure prediction by ZEFSAII (Michael W. Deem and Ramdas Pophale) SiO2 
 PCOD9201684
Probable space group: C 2/M
;
_chemical_formula_sum "Si O2"
_cell_formula_units_Z 60
_cell_length_a 12.818634
_cell_length_b 11.959546
_cell_length_c 18.492359
_cell_angle_alpha 90.000000
_cell_angle_beta 120.557820
_cell_angle_gamma 90.000000
_cell_volume 2441.241185
_symmetry_space_group_name_H-M "C 2/M"
_symmetry_group_IT_number 12
_symmetry_cell_setting 'monoclinic'
loop_
_space_group_symop_operation_xyz
x,y,z
-x,y,-z
-x,-y,-z
x,-y,z
1/2+x,1/2+y,z
1/2-x,1/2+y,-z
1/2-x,1/2-y,-z
1/2+x,1/2-y,z
loop_
_atom_site_type_symbol
_atom_site_label
_atom_site_fract_x
_atom_site_fract_y
_atom_site_fract_z
Si Si1 0.572760 0.373965 0.203444
Si Si2 0.862182 0.651216 0.955529
Si Si3 0.630950 0.872661 0.558832
Si Si4 0.567303 0.125547 0.700068
Si Si5 0.648364 0.619945 0.985091
Si Si6 0.262879 0.687105 0.226669
Si Si7 0.068381 0.000000 0.639410
Si Si8 0.896750 0.817529 0.622407
O O1 0.621230 0.500000 0.201781
O O2 0.448838 0.363100 0.113972
O O3 0.653149 0.263511 0.218009
O O4 0.559945 0.374060 0.285856
O O5 0.781888 0.621825 0.996684
O O6 0.789334 0.620255 0.859023
O O7 0.865193 0.785464 0.960903
O O8 0.000000 0.614438 0.000000
O O9 0.500000 0.819211 0.500000
O O10 0.637328 0.879529 0.647916
O O11 0.752144 0.820043 0.571523
O O12 0.625458 0.000000 0.527951
O O13 0.644391 0.217157 0.770169
O O14 0.442829 0.190226 0.639754
O O15 0.554515 0.000000 0.723848
O O16 0.627720 0.500000 0.011183
O O17 0.331921 0.601578 0.304050
O O18 0.963392 0.900265 0.590479
#
# Coordination Sequence:
#
# PCOD9201684 Si02
#       8
#     8   8   8   8   8   8   4   8
#     4  11  20  37  64  85 112 156 202 248 297 350
#     4  11  23  40  55  84 116 149 195 242 307 356
#     4  10  20  37  63  93 123 158 202 240 285 352
#     4  10  22  39  60  91 121 155 199 249 294 342
#     4  10  23  39  59  81 111 153 197 244 292 360
#     4  11  22  38  62  88 115 153 199 252 293 356
#     4  10  22  38  60  90 115 151 203 242 298 350
#     4  11  20  38  64  89 120 161 200 242 292 350
#
# _framework density 24.577663000000001
#
# number of rings (size 3 to 8) (size 9 to 14) (size 15 to 20)
#    0.000    1.467    4.000    2.000    2.800    2.133 
#    1.200    0.000    0.000    0.400    0.000    0.000 
#    0.000    0.000    0.000    0.000    0.000    0.000 
#
# Total GULP energy -167081.097785 kJ/mol
# GULP energy per Si atom -5569.369926 kJ/mol
# Density = 2.452172 g / cm^3
# Si number density = 24.577663 Si / 1000 Ang^3
#
#
#
# Elastic Constant Matrix: (Units=GPa)
#
#
# Indices 1 2 3 4 5 6 
#
# 1 104.7012 40.9023 21.2172 0.0000 42.6663 0.0000
# 2 40.9023 204.8471 12.8519 0.0000 24.1474 0.0000
# 3 21.2172 12.8519 68.9793 0.0000 27.8396 0.0000
# 4 0.0000 0.0000 0.0000 24.2181 0.0000 2.5777
# 5 42.6663 24.1474 27.8396 0.0000 48.3463 0.0000
# 6 0.0000 0.0000 0.0000 2.5777 0.0000 -1.9218
#
#
#
# Elastic Compliance Matrix: (Units=1/GPa)
#
#
# Indices 1 2 3 4 5 6 
#
# 1 0.015418 -0.001562 0.000945 0.000000 -0.013371 0.000000
# 2 -0.001562 0.005346 0.000007 0.000000 -0.001296 0.000000
# 3 0.000945 0.000007 0.018946 0.000000 -0.011748 0.000000
# 4 0.000000 0.000000 0.000000 0.036133 0.000000 0.048464
# 5 -0.013371 -0.001296 -0.011748 0.000000 0.039896 0.000000
# 6 0.000000 0.000000 0.000000 0.048464 0.000000 -0.455328
#
#
# Mechanical properties :
#
#
# Convention : Reuss Voigt Hill
#
# Bulk Modulus (GPa) = 25.97949 58.71896 42.34922
# Shear Modulus (GPa) = -15.35913 34.36558 9.50322
#
# Velocity S-wave (km/s) = -2.50256 3.74337 1.96850
# Velocity P-wave (km/s) = 1.49764 6.52892 4.73654
#
# Compressibility (1/GPa) = 0.03849191
#
# Stress axis : x y z
#
# Youngs Moduli (GPa) = 64.85769 187.06127 52.78062
#
# Poissons Ratio (x) = 0.29214 -0.04987
# Poissons Ratio (y) = 0.10129 -0.00039
# Poissons Ratio (z) = -0.06129 -0.00140
#
# Static dielectric constant tensor:
#      x y z
#    x 2.016800 0.000000 0.004210 
#    y 0.000000 1.999870 0.000000 
#    z 0.004210 0.000000 2.008640 
# 
# From -- ./inp_files/339628.got.cif
#   From: 2010.05.17/outbox.cif.g08.bks.cpg/sg12_170_cif.got.tgz:339628.got - 2010.06.03 13:09:07.
