data_PCOD9201257
_publ_section_title
;
Structure prediction by ZEFSAII (Michael W. Deem and Ramdas Pophale) SiO2 
 PCOD9201257
Probable space group: C 2/M
;
_chemical_formula_sum "Si O2"
_cell_formula_units_Z 48
_cell_length_a 30.300590
_cell_length_b 8.641698
_cell_length_c 15.454078
_cell_angle_alpha 90.000000
_cell_angle_beta 40.028589
_cell_angle_gamma 90.000000
_cell_volume 2602.668704
_symmetry_space_group_name_H-M "C 2/M"
_symmetry_group_IT_number 12
_symmetry_cell_setting 'monoclinic'
loop_
_space_group_symop_operation_xyz
x,y,z
-x,y,-z
-x,-y,-z
x,-y,z
1/2+x,1/2+y,z
1/2-x,1/2+y,-z
1/2-x,1/2-y,-z
1/2+x,1/2-y,z
loop_
_atom_site_type_symbol
_atom_site_label
_atom_site_fract_x
_atom_site_fract_y
_atom_site_fract_z
Si Si1 0.171932 0.314484 0.895263
Si Si2 0.324678 0.815661 0.413562
Si Si3 0.079912 0.814283 0.879966
Si Si4 0.078426 0.188572 0.382612
Si Si5 0.173921 0.186856 0.398747
Si Si6 0.176704 0.813893 0.079025
O O1 0.167568 0.500000 0.904013
O O2 0.118300 0.248288 0.907153
O O3 0.248988 0.273666 0.747869
O O4 0.161234 0.248033 0.006876
O O5 0.250000 0.750000 0.500000
O O6 0.380179 0.751385 0.262894
O O7 0.340152 0.762088 0.487723
O O8 0.322422 0.000000 0.411179
O O9 0.084345 0.000000 0.872018
O O10 0.000000 0.769519 0.000000
O O11 0.120672 0.235630 0.404364
O O12 0.120033 0.235114 0.234576
O O13 0.000000 0.242215 0.500000
O O14 0.077739 0.000000 0.384228
O O15 0.170722 0.000000 0.412303
O O16 0.179438 0.000000 0.073798
O O17 0.250000 0.750000 0.000000
#
# Coordination Sequence:
#
# PCOD9201257 Si02
#       6
#     8   8   8   8   8   8
#     4  11  22  38  62  92 124 160 201 251 309 370
#     4  12  24  39  63  93 124 161 205 253 308 367
#     4  11  25  44  65  91 123 161 206 256 310 371
#     4   9  19  37  60  86 118 156 199 246 296 350
#     4  10  20  37  61  90 121 159 205 250 299 360
#     4  11  21  36  60  90 121 158 207 255 305 362
#
# _framework density 18.442608
#
# number of rings (size 3 to 8) (size 9 to 14) (size 15 to 20)
#    0.000    1.333    3.333    3.000    0.000    3.333 
#    0.000    3.333    0.000    3.500    0.000    0.000 
#    0.000    0.000    0.000    0.000    0.000    0.000 
#
# Total GULP energy -134169.798935 kJ/mol
# GULP energy per Si atom -5590.408289 kJ/mol
# Density = 1.840063 g / cm^3
# Si number density = 18.442608 Si / 1000 Ang^3
#
#
#
# Elastic Constant Matrix: (Units=GPa)
#
#
# Indices 1 2 3 4 5 6 
#
# 1 203.1135 57.7442 132.3779 0.0000 8.4771 0.0000
# 2 57.7442 58.9535 60.3569 0.0000 0.6408 0.0000
# 3 132.3779 60.3569 199.5922 -0.0001 4.8907 0.0000
# 4 0.0000 0.0000 -0.0001 28.2040 0.0000 5.3493
# 5 8.4771 0.6408 4.8907 0.0000 42.5545 0.0000
# 6 0.0000 0.0000 0.0000 5.3493 0.0000 32.4325
#
#
#
# Elastic Compliance Matrix: (Units=1/GPa)
#
#
# Indices 1 2 3 4 5 6 
#
# 1 0.009357 -0.004098 -0.004937 0.000000 -0.001235 0.000000
# 2 -0.004098 0.026374 -0.005283 0.000000 0.001026 0.000000
# 3 -0.004937 -0.005283 0.009884 0.000000 -0.000073 0.000000
# 4 0.000000 0.000000 0.000000 0.036601 0.000000 -0.006037
# 5 -0.001235 0.001026 -0.000073 0.000000 0.023738 0.000000
# 6 0.000000 0.000000 0.000000 -0.006037 0.000000 0.031829
#
#
# Mechanical properties :
#
#
# Convention : Reuss Voigt Hill
#
# Bulk Modulus (GPa) = 58.89213 106.95745 82.92479
# Shear Modulus (GPa) = 29.05671 34.71689 31.88680
#
# Velocity S-wave (km/s) = 3.97359 4.34340 4.16261
# Velocity P-wave (km/s) = 7.28385 9.12547 8.25617
#
# Compressibility (1/GPa) = 0.01698020
#
# Stress axis : x y z
#
# Youngs Moduli (GPa) = 106.86755 37.91681 101.17569
#
# Poissons Ratio (x) = 0.15537 0.49948
# Poissons Ratio (y) = 0.43791 0.53449
# Poissons Ratio (z) = 0.52758 0.20031
#
# Static dielectric constant tensor:
#      x y z
#    x 1.629570 0.000000 -0.017430 
#    y 0.000000 1.625620 0.000000 
#    z -0.017430 0.000000 1.620830 
# 
# From -- ./inp_files/244631.got.cif
#   From: 2010.05.17/outbox.cif.g08.bks.cpg/sg12_123_cif.got.tgz:244631.got - 2010.06.03 13:09:07.
