data_PCOD9201433
_publ_section_title
;
Structure prediction by ZEFSAII (Michael W. Deem and Ramdas Pophale) SiO2 
 PCOD9201433
Probable space group: C 2/M
;
_chemical_formula_sum "Si O2"
_cell_formula_units_Z 44
_cell_length_a 16.918186
_cell_length_b 9.353032
_cell_length_c 12.839756
_cell_angle_alpha 90.000000
_cell_angle_beta 92.185747
_cell_angle_gamma 90.000000
_cell_volume 2030.237727
_symmetry_space_group_name_H-M "C 2/M"
_symmetry_group_IT_number 12
_symmetry_cell_setting 'monoclinic'
loop_
_space_group_symop_operation_xyz
x,y,z
-x,y,-z
-x,-y,-z
x,-y,z
1/2+x,1/2+y,z
1/2-x,1/2+y,-z
1/2-x,1/2-y,-z
1/2+x,1/2-y,z
loop_
_atom_site_type_symbol
_atom_site_label
_atom_site_fract_x
_atom_site_fract_y
_atom_site_fract_z
Si Si1 0.266813 0.669706 0.296493
Si Si2 0.424567 0.840077 0.287081
Si Si3 0.857164 0.154303 0.612216
Si Si4 0.500000 0.760670 0.500000
Si Si5 0.459546 0.339542 0.831893
Si Si6 0.798292 0.172552 0.911928
O O1 0.266907 0.500000 0.285905
O O2 0.353689 0.733877 0.310733
O O3 0.206977 0.721037 0.383751
O O4 0.233481 0.749969 0.192931
O O5 0.479042 0.843838 0.393339
O O6 0.473589 0.774234 0.192972
O O7 0.396324 0.000000 0.262687
O O8 0.922492 0.171732 0.526919
O O9 0.907902 0.153411 0.722140
O O10 0.816541 0.000000 0.601665
O O11 0.491727 0.500000 0.851457
O O12 0.393802 0.305111 0.915814
O O13 0.786434 0.000000 0.909491
O O14 0.750000 0.250000 0.000000
#
# Coordination Sequence:
#
# PCOD9201433 Si02
#       6
#     8   8   8   4   8   8
#     4  11  23  38  57  82 114 150 186 230 282 330
#     4  11  22  37  57  81 112 148 189 235 280 331
#     4   9  18  35  57  80 109 145 186 230 278 331
#     4  10  22  36  58  84 110 146 190 234 282 334
#     4   8  17  34  55  80 111 146 180 221 277 332
#     4  10  20  37  62  89 116 146 183 226 274 333
#
# _framework density 21.672338
#
# number of rings (size 3 to 8) (size 9 to 14) (size 15 to 20)
#    0.000    2.182    0.000    4.364    0.000   10.909 
#    0.000    0.909    0.000    5.455    0.000    0.000 
#    0.000    0.000    0.000    0.000    0.000    0.000 
#
# Total GULP energy -122756.369840 kJ/mol
# GULP energy per Si atom -5579.834993 kJ/mol
# Density = 2.162301 g / cm^3
# Si number density = 21.672338 Si / 1000 Ang^3
#
#
#
# Elastic Constant Matrix: (Units=GPa)
#
#
# Indices 1 2 3 4 5 6 
#
# 1 82.4724 64.5300 26.0048 0.0000 -35.7160 0.0000
# 2 64.5300 179.4407 30.6827 0.0000 -29.3807 0.0000
# 3 26.0048 30.6827 66.0609 0.0000 -35.1915 0.0000
# 4 0.0000 0.0000 0.0000 -2.0074 0.0000 5.6595
# 5 -35.7160 -29.3807 -35.1915 0.0000 38.4663 0.0000
# 6 0.0000 0.0000 0.0000 5.6595 0.0000 27.1142
#
#
#
# Elastic Compliance Matrix: (Units=1/GPa)
#
#
# Indices 1 2 3 4 5 6 
#
# 1 0.025790 -0.006259 0.005783 0.000000 0.024456 0.000000
# 2 -0.006259 0.007906 -0.002121 0.000000 -0.001713 0.000000
# 3 0.005783 -0.002121 0.030906 0.000000 0.032024 0.000000
# 4 0.000000 0.000000 0.000000 -0.313605 0.000000 0.065458
# 5 0.024456 -0.001713 0.032024 0.000000 0.076694 0.000000
# 6 0.000000 0.000000 0.000000 0.065458 0.000000 0.023218
#
#
# Mechanical properties :
#
#
# Convention : Reuss Voigt Hill
#
# Bulk Modulus (GPa) = 16.83270 63.37878 40.10574
# Shear Modulus (GPa) = -40.29206 26.49839 -6.89684
#
# Velocity S-wave (km/s) = -4.31646 3.50048 -1.78584
# Velocity P-wave (km/s) = 4.13021 6.75614 3.78066
#
# Compressibility (1/GPa) = 0.05940818
#
# Stress axis : x y z
#
# Youngs Moduli (GPa) = 38.77414 126.48821 32.35624
#
# Poissons Ratio (x) = 0.79171 -0.18711
# Poissons Ratio (y) = 0.24269 0.06862
# Poissons Ratio (z) = -0.22423 0.26825
#
# Static dielectric constant tensor:
#      x y z
#    x 1.813330 0.000000 0.007970 
#    y 0.000000 1.754660 0.000000 
#    z 0.007970 0.000000 1.865130 
# 
# From -- ./inp_files/220894.got.cif
#   From: 2010.05.17/outbox.cif.g08.bks.cpg/sg12_111_cif.got.tgz:220894.got - 2010.06.03 13:09:07.
