data_PCOD9201293
_publ_section_title
;
Structure prediction by ZEFSAII (Michael W. Deem and Ramdas Pophale) SiO2 
 PCOD9201293
Probable space group: C 2/M
;
_chemical_formula_sum "Si O2"
_cell_formula_units_Z 42
_cell_length_a 18.976129
_cell_length_b 14.400523
_cell_length_c 9.166915
_cell_angle_alpha 90.000000
_cell_angle_beta 56.096160
_cell_angle_gamma 90.000000
_cell_volume 2079.093658
_symmetry_space_group_name_H-M "C 2/M"
_symmetry_group_IT_number 12
_symmetry_cell_setting 'monoclinic'
loop_
_space_group_symop_operation_xyz
x,y,z
-x,y,-z
-x,-y,-z
x,-y,z
1/2+x,1/2+y,z
1/2-x,1/2+y,-z
1/2-x,1/2-y,-z
1/2+x,1/2-y,z
loop_
_atom_site_type_symbol
_atom_site_label
_atom_site_fract_x
_atom_site_fract_y
_atom_site_fract_z
Si Si1 0.967030 0.273643 0.876651
Si Si2 0.701274 0.105926 0.901995
Si Si3 0.500000 0.500000 0.500000
Si Si4 0.774533 0.106721 0.488873
Si Si5 0.116952 0.834764 0.259152
Si Si6 0.128560 0.716253 0.520891
O O1 0.937586 0.183486 0.821390
O O2 0.043667 0.318617 0.696309
O O3 0.883320 0.336201 0.979201
O O4 0.000000 0.254834 0.000000
O O5 0.727492 0.108632 0.700526
O O6 0.784748 0.144820 0.885557
O O7 0.687430 0.000000 0.960709
O O8 0.573315 0.419440 0.393360
O O9 0.845004 0.187422 0.425158
O O10 0.706002 0.145274 0.452668
O O11 0.802063 0.000000 0.430012
O O12 0.113823 0.746818 0.371829
#
# Coordination Sequence:
#
# PCOD9201293 Si02
#       6
#     8   8   2   8   8   8
#     4  12  23  38  60  94 128 160 196 256 315 367
#     4  10  21  38  63  90 123 164 206 247 309 371
#     4  12  20  40  74  88 108 160 224 246 292 372
#     4   9  19  36  63  90 121 160 208 258 300 362
#     4  11  23  41  67  89 120 163 211 254 303 367
#     4  10  20  37  61  92 118 162 210 248 306 365
#
# _framework density 20.201108999999999
#
# number of rings (size 3 to 8) (size 9 to 14) (size 15 to 20)
#    0.000    1.524    4.762    0.571    1.333    1.143 
#    0.000    1.429    0.000    2.286    0.000    0.000 
#    0.000    0.000    0.000    0.000    0.000    0.000 
#
# Total GULP energy -117003.652477 kJ/mol
# GULP energy per Si atom -5571.602499 kJ/mol
# Density = 2.015513 g / cm^3
# Si number density = 20.201109 Si / 1000 Ang^3
#
#
#
# Elastic Constant Matrix: (Units=GPa)
#
#
# Indices 1 2 3 4 5 6 
#
# 1 115.8212 10.8868 29.9337 0.0000 -9.7382 0.0000
# 2 10.8868 38.6114 7.6085 0.0000 0.0968 0.0000
# 3 29.9337 7.6085 41.3210 0.0000 -15.0403 0.0000
# 4 0.0000 0.0000 0.0000 4.0443 0.0000 -11.3692
# 5 -9.7382 0.0968 -15.0403 0.0000 32.9192 0.0000
# 6 0.0000 0.0000 0.0000 -11.3692 0.0000 22.3448
#
#
#
# Elastic Compliance Matrix: (Units=1/GPa)
#
#
# Indices 1 2 3 4 5 6 
#
# 1 0.010714 -0.001525 -0.007587 0.000000 -0.000292 0.000000
# 2 -0.001525 0.027309 -0.004938 0.000000 -0.002788 0.000000
# 3 -0.007587 -0.004938 0.035738 0.000000 0.014098 0.000000
# 4 0.000000 0.000000 0.000000 -0.574543 0.000000 -0.292332
# 5 -0.000292 -0.002788 0.014098 0.000000 0.036740 0.000000
# 6 0.000000 0.000000 0.000000 -0.292332 0.000000 -0.103988
#
#
# Mechanical properties :
#
#
# Convention : Reuss Voigt Hill
#
# Bulk Modulus (GPa) = 21.90105 32.51241 27.20673
# Shear Modulus (GPa) = -9.52908 21.68330 6.07711
#
# Velocity S-wave (km/s) = -2.17425 3.27979 1.73633
# Velocity P-wave (km/s) = 2.13586 5.52014 4.18533
#
# Compressibility (1/GPa) = 0.04565990
#
# Stress axis : x y z
#
# Youngs Moduli (GPa) = 93.34000 36.61771 27.98174
#
# Poissons Ratio (x) = 0.05584 0.21229
# Poissons Ratio (y) = 0.14235 0.13819
# Poissons Ratio (z) = 0.70814 0.18083
#
# Static dielectric constant tensor:
#      x y z
#    x 1.748670 0.000000 0.004940 
#    y 0.000000 1.699610 0.000000 
#    z 0.004940 0.000000 1.721350 
# 
# From -- ./inp_files/73270.got.cif
#   From: 2010.05.17/outbox.cif.g08.bks.cpg/sg12_37_cif.got.tgz:73270.got - 2010.06.03 13:09:07.
