data_PCOD9201734
_publ_section_title
;
Structure prediction by ZEFSAII (Michael W. Deem and Ramdas Pophale) SiO2 
 PCOD9201734
Probable space group: C 2/M
;
_chemical_formula_sum "Si O2"
_cell_formula_units_Z 64
_cell_length_a 29.145439
_cell_length_b 13.646264
_cell_length_c 9.336037
_cell_angle_alpha 90.000000
_cell_angle_beta 125.642442
_cell_angle_gamma 90.000000
_cell_volume 3017.593972
_symmetry_space_group_name_H-M "C 2/M"
_symmetry_group_IT_number 12
_symmetry_cell_setting 'monoclinic'
loop_
_space_group_symop_operation_xyz
x,y,z
-x,y,-z
-x,-y,-z
x,-y,z
1/2+x,1/2+y,z
1/2-x,1/2+y,-z
1/2-x,1/2-y,-z
1/2+x,1/2-y,z
loop_
_atom_site_type_symbol
_atom_site_label
_atom_site_fract_x
_atom_site_fract_y
_atom_site_fract_z
Si Si1 0.658693 0.884222 0.667308
Si Si2 0.472661 0.118082 0.608891
Si Si3 0.326430 0.115892 0.967106
Si Si4 0.565522 0.607896 0.152512
Si Si5 0.871095 0.888889 0.459116
Si Si6 0.066519 0.272423 0.941215
Si Si7 0.438810 0.615783 0.316113
Si Si8 0.230957 0.235761 0.628045
O O1 0.593701 0.855203 0.513375
O O2 0.706122 0.832415 0.658299
O O3 0.661314 0.000000 0.649014
O O4 0.670093 0.866326 0.856139
O O5 0.500000 0.139695 0.500000
O O6 0.507282 0.173666 0.796748
O O7 0.477467 0.000000 0.635769
O O8 0.279893 0.184375 0.809097
O O9 0.315755 0.000000 0.924588
O O10 0.386149 0.147889 0.008950
O O11 0.590808 0.500000 0.153057
O O12 0.575170 0.611669 0.339317
O O13 0.500000 0.602096 0.000000
O O14 0.581665 0.712379 0.112615
O O15 0.890692 0.852570 0.341192
O O16 0.822778 0.834856 0.456054
O O17 0.852422 0.000000 0.403353
O O18 0.067439 0.182856 0.831306
O O19 0.500000 0.628136 0.500000
O O20 0.432703 0.500000 0.274118
O O21 0.250000 0.250000 0.500000
#
# Coordination Sequence:
#
# PCOD9201734 Si02
#       8
#     8   8   8   8   8   8   8   8
#     4  10  23  43  69  99 131 168 216 271 327 390
#     4  10  20  37  64 100 135 168 206 258 327 395
#     4  11  24  44  67  96 132 168 217 275 326 384
#     4  10  22  38  56  85 130 172 210 258 315 384
#     4  10  22  41  61  84 122 170 213 254 318 387
#     4  12  21  35  65  96 129 172 211 263 324 390
#     4  10  21  35  58  96 132 162 205 263 318 381
#     4  12  26  44  67  93 126 172 224 273 325 382
#
# _framework density 21.208949
#
# number of rings (size 3 to 8) (size 9 to 14) (size 15 to 20)
#    0.000    1.375    1.250    4.125    3.500    3.000 
#    0.000    2.500    0.000    0.750    0.000    0.000 
#    0.000    0.000    0.000    0.000    0.000    0.000 
#
# Total GULP energy -178766.445658 kJ/mol
# GULP energy per Si atom -5586.451427 kJ/mol
# Density = 2.116068 g / cm^3
# Si number density = 21.208949 Si / 1000 Ang^3
#
#
#
# Elastic Constant Matrix: (Units=GPa)
#
#
# Indices 1 2 3 4 5 6 
#
# 1 101.7813 39.2100 29.1454 0.0000 3.8355 0.0000
# 2 39.2100 112.0685 28.9525 0.0000 -2.8921 0.0000
# 3 29.1454 28.9525 69.5030 0.0000 17.4439 0.0000
# 4 0.0000 0.0000 0.0000 28.8134 0.0000 6.6845
# 5 3.8355 -2.8921 17.4439 0.0000 29.6813 0.0000
# 6 0.0000 0.0000 0.0000 6.6845 0.0000 42.6127
#
#
#
# Elastic Compliance Matrix: (Units=1/GPa)
#
#
# Indices 1 2 3 4 5 6 
#
# 1 0.012164 -0.003255 -0.003837 0.000000 0.000366 0.000000
# 2 -0.003255 0.011295 -0.004366 0.000000 0.004087 0.000000
# 3 -0.003837 -0.004366 0.020877 0.000000 -0.012199 0.000000
# 4 0.000000 0.000000 0.000000 0.036017 0.000000 -0.005650
# 5 0.000366 0.004087 -0.012199 0.000000 0.041212 0.000000
# 6 0.000000 0.000000 0.000000 -0.005650 0.000000 0.024353
#
#
# Mechanical properties :
#
#
# Convention : Reuss Voigt Hill
#
# Bulk Modulus (GPa) = 46.68350 53.10763 49.89557
# Shear Modulus (GPa) = 28.41316 32.62447 30.51882
#
# Velocity S-wave (km/s) = 3.66413 3.92630 3.79748
# Velocity P-wave (km/s) = 6.32141 6.75640 6.54252
#
# Compressibility (1/GPa) = 0.02142084
#
# Stress axis : x y z
#
# Youngs Moduli (GPa) = 82.21072 88.53102 47.89898
#
# Poissons Ratio (x) = 0.28819 0.18377
# Poissons Ratio (y) = 0.26761 0.20913
# Poissons Ratio (z) = 0.31541 0.38653
#
# Static dielectric constant tensor:
#      x y z
#    x 1.764480 0.000000 0.007790 
#    y 0.000000 1.822040 0.000000 
#    z 0.007790 0.000000 1.774710 
# 
# From -- ./inp_files/112020.got.cif
#   From: 2010.05.17/outbox.cif.g08.bks.cpg/sg12_57_cif.got.tgz:112020.got - 2010.06.03 13:09:07.
