data_PCOD9201389
_publ_section_title
;
Structure prediction by ZEFSAII (Michael W. Deem and Ramdas Pophale) SiO2 
 PCOD9201389
Probable space group: C 2/M
;
_chemical_formula_sum "Si O2"
_cell_formula_units_Z 64
_cell_length_a 7.657423
_cell_length_b 29.869326
_cell_length_c 14.920722
_cell_angle_alpha 90.000000
_cell_angle_beta 54.517565
_cell_angle_gamma 90.000000
_cell_volume 2778.938084
_symmetry_space_group_name_H-M "C 2/M"
_symmetry_group_IT_number 12
_symmetry_cell_setting 'monoclinic'
loop_
_space_group_symop_operation_xyz
x,y,z
-x,y,-z
-x,-y,-z
x,-y,z
1/2+x,1/2+y,z
1/2-x,1/2+y,-z
1/2-x,1/2-y,-z
1/2+x,1/2-y,z
loop_
_atom_site_type_symbol
_atom_site_label
_atom_site_fract_x
_atom_site_fract_y
_atom_site_fract_z
Si Si1 0.760750 0.609606 0.528278
Si Si2 0.308318 0.788057 0.208974
Si Si3 0.622296 0.548840 0.720078
Si Si4 0.140805 0.893514 0.093798
Si Si5 0.937327 0.807849 0.201203
Si Si6 0.139295 0.206325 0.575565
Si Si7 0.091517 0.550843 0.669107
Si Si8 0.507809 0.119778 0.852669
O O1 0.610817 0.588717 0.650636
O O2 0.698229 0.659093 0.514500
O O3 0.000000 0.612226 0.500000
O O4 0.758665 0.574654 0.448221
O O5 0.184089 0.801463 0.156571
O O6 0.382599 0.737906 0.169413
O O7 0.117908 0.787168 0.340315
O O8 0.470307 0.827949 0.183753
O O9 0.578429 0.500000 0.693437
O O10 0.468591 0.559941 0.848495
O O11 0.862276 0.548495 0.686860
O O12 0.949118 0.856402 0.154816
O O13 0.315620 0.887132 0.121583
O O14 0.276055 0.889593 0.963716
O O15 0.808213 0.804193 0.334237
O O16 0.250000 0.250000 0.500000
O O17 0.152601 0.500000 0.674683
O O18 0.064074 0.584679 0.759241
#
# Coordination Sequence:
#
# PCOD9201389 Si02
#       8
#     8   8   8   8   8   8   8   8
#     4  10  20  37  62  87 119 161 194 232 293 363
#     4   9  21  37  54  82 115 154 190 237 289 339
#     4  10  20  39  64  89 116 150 196 244 297 357
#     4  10  21  41  63  84 111 162 203 239 289 350
#     4   9  20  37  55  82 119 147 198 237 287 344
#     4  10  22  33  56  89 119 152 192 238 283 343
#     4  10  23  39  59  90 122 149 190 249 302 351
#     4  10  22  41  61  82 120 156 199 244 292 348
#
# _framework density 23.030380999999998
#
# number of rings (size 3 to 8) (size 9 to 14) (size 15 to 20)
#    0.750    1.500    1.250    0.375    3.500    4.500 
#    0.000    4.375    0.000    3.750    0.000    0.000 
#    0.000    0.000    0.000    0.000    0.000    0.000 
#
# Total GULP energy -178497.878151 kJ/mol
# GULP energy per Si atom -5578.058692 kJ/mol
# Density = 2.297796 g / cm^3
# Si number density = 23.030381 Si / 1000 Ang^3
#
#
#
# Elastic Constant Matrix: (Units=GPa)
#
#
# Indices 1 2 3 4 5 6 
#
# 1 22.9963 18.8447 20.1084 0.0000 0.9748 0.0000
# 2 18.8447 138.4819 36.6601 0.0000 -3.0675 0.0000
# 3 20.1084 36.6601 96.0431 0.0000 -10.1730 0.0000
# 4 0.0000 0.0000 0.0000 22.8613 0.0000 -4.0958
# 5 0.9748 -3.0675 -10.1730 0.0000 28.4850 0.0000
# 6 0.0000 0.0000 0.0000 -4.0958 0.0000 20.7735
#
#
#
# Elastic Compliance Matrix: (Units=1/GPa)
#
#
# Indices 1 2 3 4 5 6 
#
# 1 0.057311 -0.005100 -0.010724 0.000000 -0.006340 0.000000
# 2 -0.005100 0.008488 -0.002138 0.000000 0.000325 0.000000
# 3 -0.010724 -0.002138 0.014018 0.000000 0.005143 0.000000
# 4 0.000000 0.000000 0.000000 0.045344 0.000000 0.008940
# 5 -0.006340 0.000325 0.005143 0.000000 0.037195 0.000000
# 6 0.000000 0.000000 0.000000 0.008940 0.000000 0.049901
#
#
# Mechanical properties :
#
#
# Convention : Reuss Voigt Hill
#
# Bulk Modulus (GPa) = 22.78262 45.41641 34.09952
# Shear Modulus (GPa) = 19.02504 26.55117 22.78810
#
# Velocity S-wave (km/s) = 2.87729 3.39909 3.14901
# Velocity P-wave (km/s) = 4.57736 5.93027 5.29719
#
# Compressibility (1/GPa) = 0.04389311
#
# Stress axis : x y z
#
# Youngs Moduli (GPa) = 17.44875 117.80859 71.33696
#
# Poissons Ratio (x) = 0.60087 0.76500
# Poissons Ratio (y) = 0.08900 0.15250
# Poissons Ratio (z) = 0.18712 0.25184
#
# Static dielectric constant tensor:
#      x y z
#    x 1.926010 0.000000 0.016440 
#    y 0.000000 1.907550 0.000000 
#    z 0.016440 0.000000 1.877130 
# 
# From -- ./inp_files/201264.got.cif
#   From: 2010.05.17/outbox.cif.g08.bks.cpg/sg12_101_cif.got.tgz:201264.got - 2010.06.03 13:09:07.
