data_PCOD9201655
_publ_section_title
;
Structure prediction by ZEFSAII (Michael W. Deem and Ramdas Pophale) SiO2 
 PCOD9201655
Probable space group: C 2/M
;
_chemical_formula_sum "Si O2"
_cell_formula_units_Z 64
_cell_length_a 9.276874
_cell_length_b 25.709843
_cell_length_c 16.395933
_cell_angle_alpha 90.000000
_cell_angle_beta 51.332580
_cell_angle_gamma 90.000000
_cell_volume 3053.297558
_symmetry_space_group_name_H-M "C 2/M"
_symmetry_group_IT_number 12
_symmetry_cell_setting 'monoclinic'
loop_
_space_group_symop_operation_xyz
x,y,z
-x,y,-z
-x,-y,-z
x,-y,z
1/2+x,1/2+y,z
1/2-x,1/2+y,-z
1/2-x,1/2-y,-z
1/2+x,1/2-y,z
loop_
_atom_site_type_symbol
_atom_site_label
_atom_site_fract_x
_atom_site_fract_y
_atom_site_fract_z
Si Si1 0.959412 0.126147 0.927007
Si Si2 0.819208 0.320820 0.267400
Si Si3 0.010804 0.132502 0.719562
Si Si4 0.465799 0.941867 0.607931
Si Si5 0.617314 0.201377 0.040670
Si Si6 0.886976 0.060037 0.464611
Si Si7 0.645656 0.152412 0.249007
Si Si8 0.170876 0.720181 0.380893
O O1 0.966821 0.111394 0.826886
O O2 0.151029 0.159780 0.860424
O O3 0.758822 0.153211 0.002770
O O4 0.000000 0.095733 0.000000
O O5 0.676236 0.347596 0.257547
O O6 0.719911 0.280904 0.363397
O O7 0.963997 0.288248 0.163012
O O8 0.967216 0.358583 0.257382
O O9 0.087854 0.090056 0.628861
O O10 0.153637 0.181785 0.668364
O O11 0.500000 0.933507 0.500000
O O12 0.351794 0.896490 0.690058
O O13 0.674578 0.940570 0.566308
O O14 0.387433 0.000000 0.646925
O O15 0.500000 0.195697 0.000000
O O16 0.750000 0.250000 0.000000
O O17 0.000000 0.083893 0.500000
O O18 0.946009 0.000000 0.432174
O O19 0.604796 0.204398 0.313788
O O20 0.000000 0.708300 0.500000
#
# Coordination Sequence:
#
# PCOD9201655 Si02
#       8
#     8   8   8   8   8   8   8   8
#     4  11  22  41  60  88 120 162 208 266 318 368
#     4  12  25  38  58  90 117 166 212 253 307 378
#     4  11  23  40  63  90 124 167 212 258 321 383
#     4  10  20  37  63  92 119 154 202 256 311 369
#     4  12  24  39  63  87 118 157 216 275 311 357
#     4  10  21  39  66  98 127 159 205 261 320 380
#     4  11  22  38  61  86 121 161 204 253 315 371
#     4  11  25  40  54  82 127 169 207 249 307 383
#
# _framework density 20.960944000000001
#
# number of rings (size 3 to 8) (size 9 to 14) (size 15 to 20)
#    0.000    1.000    2.500    6.000    1.750    3.500 
#    0.000    0.000    0.000    1.500    0.000    0.875 
#    0.000    0.000    0.000    0.000    0.000    0.000 
#
# Total GULP energy -178205.876672 kJ/mol
# GULP energy per Si atom -5568.933646 kJ/mol
# Density = 2.091324 g / cm^3
# Si number density = 20.960944 Si / 1000 Ang^3
#
#
#
# Elastic Constant Matrix: (Units=GPa)
#
#
# Indices 1 2 3 4 5 6 
#
# 1 142.3375 12.9848 17.0809 0.0000 3.7276 0.0000
# 2 12.9848 47.1847 3.7442 0.0000 1.8817 0.0000
# 3 17.0809 3.7442 61.7982 0.0000 -4.2620 0.0000
# 4 0.0000 0.0000 0.0000 -6.3157 0.0000 -11.9076
# 5 3.7276 1.8817 -4.2620 0.0000 39.2874 0.0000
# 6 0.0000 0.0000 0.0000 -11.9076 0.0000 17.4957
#
#
#
# Elastic Compliance Matrix: (Units=1/GPa)
#
#
# Indices 1 2 3 4 5 6 
#
# 1 0.007458 -0.001860 -0.002006 0.000000 -0.000836 0.000000
# 2 -0.001860 0.021813 -0.000874 0.000000 -0.000963 0.000000
# 3 -0.002006 -0.000874 0.016932 0.000000 0.002069 0.000000
# 4 0.000000 0.000000 0.000000 -0.069348 0.000000 -0.047198
# 5 -0.000836 -0.000963 0.002069 0.000000 0.025803 0.000000
# 6 0.000000 0.000000 0.000000 -0.047198 0.000000 0.025034
#
#
# Mechanical properties :
#
#
# Convention : Reuss Voigt Hill
#
# Bulk Modulus (GPa) = 27.23130 35.43781 31.33456
# Shear Modulus (GPa) = 101.18878 24.59417 62.89147
#
# Velocity S-wave (km/s) = 6.95555 3.42911 5.48354
# Velocity P-wave (km/s) = 8.80488 5.71154 7.42117
#
# Compressibility (1/GPa) = 0.03672244
#
# Stress axis : x y z
#
# Youngs Moduli (GPa) = 134.08635 45.84450 59.06015
#
# Poissons Ratio (x) = 0.08526 0.11849
# Poissons Ratio (y) = 0.24937 0.05162
# Poissons Ratio (z) = 0.26902 0.04007
#
# Static dielectric constant tensor:
#      x y z
#    x 1.913000 0.000000 0.044510 
#    y 0.000000 1.766140 0.000000 
#    z 0.044510 0.000000 1.804640 
# 
# From -- ./inp_files/201268.got.cif
#   From: 2010.05.17/outbox.cif.g08.bks.cpg/sg12_101_cif.got.tgz:201268.got - 2010.06.03 13:09:07.
