data_PCOD9201687
_publ_section_title
;
Structure prediction by ZEFSAII (Michael W. Deem and Ramdas Pophale) SiO2 
 PCOD9201687
Probable space group: C 2/M
;
_chemical_formula_sum "Si O2"
_cell_formula_units_Z 56
_cell_length_a 17.617434
_cell_length_b 13.853575
_cell_length_c 20.608064
_cell_angle_alpha 90.000000
_cell_angle_beta 31.253474
_cell_angle_gamma 90.000000
_cell_volume 2609.532321
_symmetry_space_group_name_H-M "C 2/M"
_symmetry_group_IT_number 12
_symmetry_cell_setting 'monoclinic'
loop_
_space_group_symop_operation_xyz
x,y,z
-x,y,-z
-x,-y,-z
x,-y,z
1/2+x,1/2+y,z
1/2-x,1/2+y,-z
1/2-x,1/2-y,-z
1/2+x,1/2-y,z
loop_
_atom_site_type_symbol
_atom_site_label
_atom_site_fract_x
_atom_site_fract_y
_atom_site_fract_z
Si Si1 0.924600 0.885765 0.762660
Si Si2 0.495956 0.384784 0.145011
Si Si3 0.214022 0.615216 0.145011
Si Si4 0.415333 0.116774 1.000000
Si Si5 0.945565 0.255779 0.638647
Si Si6 0.550081 0.885765 0.762659
Si Si7 0.277141 0.244221 0.638647
O O1 0.962285 0.866754 0.809975
O O2 0.754358 0.859618 0.877774
O O3 0.998115 0.820761 0.654186
O O4 0.945651 0.000000 0.736021
O O5 0.480917 0.500000 0.147846
O O6 0.342439 0.331801 0.249165
O O7 0.630729 0.353979 0.000000
O O8 0.223391 0.500000 0.147846
O O9 0.159231 0.668199 0.249165
O O10 0.082236 0.633246 0.190025
O O11 0.420454 0.000000 1.000000
O O12 0.500000 0.157125 0.000000
O O13 0.490095 0.140383 0.877773
O O14 0.852403 0.209401 0.647597
O O15 0.089795 0.300426 0.500000
O O16 0.693513 0.820761 0.654185
O O17 0.582307 0.000000 0.736020
#
# Coordination Sequence:
#
# PCOD9201687 Si02
#       7
#     8   8   8   8   8   8   8
#     4  10  20  37  63  93 124 159 198 247 306 369
#     4  10  22  42  67  93 121 155 204 264 316 364
#     4  10  22  42  67  93 121 155 204 264 316 364
#     4   9  16  28  51  86 122 154 189 231 286 352
#     4  11  26  43  59  87 127 169 210 253 306 367
#     4  10  20  37  63  93 124 159 198 247 306 369
#     4  11  26  43  59  87 127 169 210 253 306 367
#
# _framework density 21.459783999999999
#
# number of rings (size 3 to 8) (size 9 to 14) (size 15 to 20)
#    0.000    1.857    1.429    1.714    2.000    7.429 
#    0.000    7.143    0.000    0.000    0.000    0.000 
#    0.000    0.000    0.000    0.000    0.000    0.000 
#
# Total GULP energy -156413.264727 kJ/mol
# GULP energy per Si atom -5586.188026 kJ/mol
# Density = 2.141094 g / cm^3
# Si number density = 21.459784 Si / 1000 Ang^3
#
#
#
# Elastic Constant Matrix: (Units=GPa)
#
#
# Indices 1 2 3 4 5 6 
#
# 1 69.1987 7.4166 43.1501 -0.0002 0.1686 0.0001
# 2 7.4166 68.8089 47.8091 -0.0002 0.3515 0.0002
# 3 43.1501 47.8091 149.3808 -0.0005 0.5290 0.0003
# 4 -0.0002 -0.0002 -0.0005 24.5895 0.0003 -0.0137
# 5 0.1686 0.3515 0.5290 0.0003 22.7184 -0.0001
# 6 0.0001 0.0002 0.0003 -0.0137 -0.0001 26.1301
#
#
#
# Elastic Compliance Matrix: (Units=1/GPa)
#
#
# Indices 1 2 3 4 5 6 
#
# 1 0.017867 0.002135 -0.005844 0.000000 -0.000030 0.000000
# 2 0.002135 0.018945 -0.006679 0.000000 -0.000153 0.000000
# 3 -0.005844 -0.006679 0.010520 0.000000 -0.000098 0.000000
# 4 0.000000 0.000000 0.000000 0.040668 0.000000 0.000021
# 5 -0.000030 -0.000153 -0.000098 0.000000 0.044022 0.000000
# 6 0.000000 0.000000 0.000000 0.000021 0.000000 0.038270
#
#
# Mechanical properties :
#
#
# Convention : Reuss Voigt Hill
#
# Bulk Modulus (GPa) = 37.65824 53.79334 45.72579
# Shear Modulus (GPa) = 25.00997 27.28841 26.14919
#
# Velocity S-wave (km/s) = 3.41755 3.56983 3.49452
# Velocity P-wave (km/s) = 5.75841 6.48946 6.13483
#
# Compressibility (1/GPa) = 0.02655461
#
# Stress axis : x y z
#
# Youngs Moduli (GPa) = 55.97038 52.78564 95.05255
#
# Poissons Ratio (x) = -0.11269 0.55550
# Poissons Ratio (y) = -0.11949 0.63489
# Poissons Ratio (z) = 0.32710 0.35257
#
# Static dielectric constant tensor:
#      x y z
#    x 1.761800 0.000000 0.000090 
#    y 0.000000 1.802140 0.000000 
#    z 0.000090 0.000000 1.771870 
# 
# From -- ./inp_files/316709.got.cif
#   From: 2010.05.17/outbox.cif.g08.bks.cpg/sg12_159_cif.got.tgz:316709.got - 2010.06.03 13:09:07.
