data_PCOD9201673
_publ_section_title
;
Structure prediction by ZEFSAII (Michael W. Deem and Ramdas Pophale) SiO2 
 PCOD9201673
Probable space group: C 2/M
;
_chemical_formula_sum "Si O2"
_cell_formula_units_Z 48
_cell_length_a 13.301468
_cell_length_b 25.593655
_cell_length_c 11.013217
_cell_angle_alpha 90.000000
_cell_angle_beta 145.754595
_cell_angle_gamma 90.000000
_cell_volume 2109.855998
_symmetry_space_group_name_H-M "C 2/M"
_symmetry_group_IT_number 12
_symmetry_cell_setting 'monoclinic'
loop_
_space_group_symop_operation_xyz
x,y,z
-x,y,-z
-x,-y,-z
x,-y,z
1/2+x,1/2+y,z
1/2-x,1/2+y,-z
1/2-x,1/2-y,-z
1/2+x,1/2-y,z
loop_
_atom_site_type_symbol
_atom_site_label
_atom_site_fract_x
_atom_site_fract_y
_atom_site_fract_z
Si Si1 0.047401 0.205437 0.912719
Si Si2 0.408143 0.060868 0.160203
Si Si3 0.201088 0.362500 0.163909
Si Si4 0.091547 0.758543 0.713594
Si Si5 0.201517 0.058766 0.529737
Si Si6 0.430271 0.583333 0.057574
O O1 0.972622 0.231874 0.715139
O O2 0.015344 0.144136 0.880173
O O3 0.257389 0.216403 0.105835
O O4 0.000000 0.225341 0.000000
O O5 0.621414 0.068073 0.376226
O O6 0.378965 0.000000 0.104491
O O7 0.334089 0.096668 0.978491
O O8 0.282234 0.075803 0.146367
O O9 0.315602 0.313590 0.231949
O O10 0.292532 0.395559 0.363856
O O11 0.000000 0.345401 0.000000
O O12 0.000000 0.739784 0.500000
O O13 0.029192 0.059402 0.272548
O O14 0.219587 0.000000 0.602103
O O15 0.500000 0.562195 0.000000
#
# Coordination Sequence:
#
# PCOD9201673 Si02
#       6
#     8   8   8   8   8   8
#     4  10  23  43  61  90 129 164 211 266 317 383
#     4  10  21  38  61  91 125 161 204 257 312 374
#     4  10  20  37  63  92 127 159 199 259 321 381
#     4  11  22  40  66  94 123 164 214 262 321 386
#     4  10  22  39  63  96 126 163 210 259 321 376
#     4  11  23  42  60  86 127 170 215 260 309 374
#
# _framework density 22.750368000000002
#
# number of rings (size 3 to 8) (size 9 to 14) (size 15 to 20)
#    0.000    1.667    1.667    2.500    0.000    4.667 
#    6.000    3.333    0.000    0.000    0.000    0.000 
#    0.000    0.000    0.000    0.000    0.000    0.000 
#
# Total GULP energy -134058.341430 kJ/mol
# GULP energy per Si atom -5585.764226 kJ/mol
# Density = 2.269859 g / cm^3
# Si number density = 22.750368 Si / 1000 Ang^3
#
#
#
# Elastic Constant Matrix: (Units=GPa)
#
#
# Indices 1 2 3 4 5 6 
#
# 1 118.9497 8.7370 10.4322 0.0000 -0.7340 0.0000
# 2 8.7370 44.2650 2.3034 0.0000 -10.9028 0.0000
# 3 10.4322 2.3034 53.7233 0.0000 -6.4434 0.0000
# 4 0.0000 0.0000 0.0000 25.0077 0.0000 1.1592
# 5 -0.7340 -10.9028 -6.4434 0.0000 29.3551 0.0000
# 6 0.0000 0.0000 0.0000 1.1592 0.0000 0.4512
#
#
#
# Elastic Compliance Matrix: (Units=1/GPa)
#
#
# Indices 1 2 3 4 5 6 
#
# 1 0.008686 -0.001832 -0.001709 0.000000 -0.000838 0.000000
# 2 -0.001832 0.025252 0.000403 0.000000 0.009422 0.000000
# 3 -0.001709 0.000403 0.019453 0.000000 0.004377 0.000000
# 4 0.000000 0.000000 0.000000 0.045393 0.000000 -0.116609
# 5 -0.000838 0.009422 0.004377 0.000000 0.038505 0.000000
# 6 0.000000 0.000000 0.000000 -0.116609 0.000000 2.515682
#
#
# Mechanical properties :
#
#
# Convention : Reuss Voigt Hill
#
# Bulk Modulus (GPa) = 21.22394 28.87592 25.04993
# Shear Modulus (GPa) = 1.86919 23.99385 12.93152
#
# Velocity S-wave (km/s) = 0.90741 3.25107 2.38672
# Velocity P-wave (km/s) = 3.23221 5.17810 4.31624
#
# Compressibility (1/GPa) = 0.04711661
#
# Stress axis : x y z
#
# Youngs Moduli (GPa) = 115.12561 39.60010 51.40500
#
# Poissons Ratio (x) = 0.07255 0.08784
# Poissons Ratio (y) = 0.21092 -0.02072
# Poissons Ratio (z) = 0.19672 -0.01596
#
# Static dielectric constant tensor:
#      x y z
#    x 1.928210 0.000000 -0.012270 
#    y 0.000000 1.802110 0.000000 
#    z -0.012270 0.000000 1.871350 
# 
# From -- ./inp_files/149867.got.cif
#   From: 2010.05.17/outbox.cif.g08.bks.cpg/sg12_75_cif.got.tgz:149867.got - 2010.06.03 13:09:07.
