data_PCOD9201180
_publ_section_title
;
Structure prediction by ZEFSAII (Michael W. Deem and Ramdas Pophale) SiO2 
 PCOD9201180
Probable space group: C 2/M
;
_chemical_formula_sum "Si O2"
_cell_formula_units_Z 60
_cell_length_a 23.964761
_cell_length_b 9.807438
_cell_length_c 14.135016
_cell_angle_alpha 90.000000
_cell_angle_beta 69.029000
_cell_angle_gamma 90.000000
_cell_volume 3102.137411
_symmetry_space_group_name_H-M "C 2/M"
_symmetry_group_IT_number 12
_symmetry_cell_setting 'monoclinic'
loop_
_space_group_symop_operation_xyz
x,y,z
-x,y,-z
-x,-y,-z
x,-y,z
1/2+x,1/2+y,z
1/2-x,1/2+y,-z
1/2-x,1/2-y,-z
1/2+x,1/2-y,z
loop_
_atom_site_type_symbol
_atom_site_label
_atom_site_fract_x
_atom_site_fract_y
_atom_site_fract_z
Si Si1 0.945435 0.845088 0.106909
Si Si2 0.000125 0.660823 0.772610
Si Si3 0.267283 0.000000 0.488554
Si Si4 0.706741 0.837899 0.266702
Si Si5 0.678798 0.659629 0.927539
Si Si6 0.966359 0.842984 0.420816
Si Si7 0.138522 0.341516 0.118773
Si Si8 0.172985 0.231571 0.489884
O O1 0.883695 0.825572 0.089308
O O2 0.955826 0.734560 0.181106
O O3 0.945862 0.000000 0.145826
O O4 0.000000 0.835306 0.000000
O O5 0.010857 0.500000 0.758549
O O6 0.932058 0.680539 0.849867
O O7 0.006652 0.737626 0.669986
O O8 0.214529 0.118585 0.512955
O O9 0.317622 0.122431 0.466528
O O10 0.768128 0.802299 0.176020
O O11 0.656699 0.818080 0.216713
O O12 0.695222 0.754113 0.368030
O O13 0.709356 0.000000 0.291642
O O14 0.687237 0.500000 0.946359
O O15 0.674662 0.747766 0.024684
O O16 0.895803 0.813377 0.471117
O O17 0.000000 0.827269 0.500000
O O18 0.975001 0.000000 0.384219
O O19 0.152229 0.500000 0.090578
#
# Coordination Sequence:
#
# PCOD9201180 Si02
#       8
#     8   8   4   8   8   8   8   8
#     4  10  20  37  61  87 124 164 207 255 310 374
#     4  11  24  39  62  95 124 166 208 256 324 377
#     4  10  24  40  72  90 128 168 212 258 328 376
#     4  10  21  39  63  90 121 164 206 249 309 372
#     4  10  21  38  60  89 119 161 209 252 304 365
#     4  11  25  45  68  96 129 168 217 270 324 389
#     4  10  21  39  60  87 128 163 199 253 310 370
#     4  11  22  46  65  96 128 169 210 268 320 382
#
# _framework density 19.341502999999999
#
# number of rings (size 3 to 8) (size 9 to 14) (size 15 to 20)
#    0.000    1.600    2.667    1.600    0.933    3.733 
#    4.800    0.000    0.000    0.000    0.000    0.000 
#    0.000    0.000    0.000    0.000    0.000    0.000 
#
# Total GULP energy -167082.243276 kJ/mol
# GULP energy per Si atom -5569.408109 kJ/mol
# Density = 1.929748 g / cm^3
# Si number density = 19.341503 Si / 1000 Ang^3
#
#
#
# Elastic Constant Matrix: (Units=GPa)
#
#
# Indices 1 2 3 4 5 6 
#
# 1 62.0918 20.1557 -12.5602 0.0000 -3.6683 0.0000
# 2 20.1557 123.2509 38.7587 0.0000 4.3474 0.0000
# 3 -12.5602 38.7587 48.0161 0.0000 -6.0246 0.0000
# 4 0.0000 0.0000 0.0000 28.1669 0.0000 -0.7545
# 5 -3.6683 4.3474 -6.0246 0.0000 11.9135 0.0000
# 6 0.0000 0.0000 0.0000 -0.7545 0.0000 18.1536
#
#
#
# Elastic Compliance Matrix: (Units=1/GPa)
#
#
# Indices 1 2 3 4 5 6 
#
# 1 0.023735 -0.009741 0.016481 0.000000 0.019197 0.000000
# 2 -0.009741 0.015852 -0.017560 0.000000 -0.017664 0.000000
# 3 0.016481 -0.017560 0.043514 0.000000 0.033487 0.000000
# 4 0.000000 0.000000 0.000000 0.035542 0.000000 0.001477
# 5 0.019197 -0.017664 0.033487 0.000000 0.113229 0.000000
# 6 0.000000 0.000000 0.000000 0.001477 0.000000 0.055147
#
#
# Mechanical properties :
#
#
# Convention : Reuss Voigt Hill
#
# Bulk Modulus (GPa) = 16.27096 36.22968 26.25032
# Shear Modulus (GPa) = 15.19078 24.11378 19.65228
#
# Velocity S-wave (km/s) = 2.80554 3.53475 3.19104
# Velocity P-wave (km/s) = 4.35034 5.95244 5.21330
#
# Compressibility (1/GPa) = 0.06145918
#
# Stress axis : x y z
#
# Youngs Moduli (GPa) = 42.13137 63.08460 22.98134
#
# Poissons Ratio (x) = 0.61453 -0.37875
# Poissons Ratio (y) = 0.41042 0.40355
# Poissons Ratio (z) = -0.69435 1.10777
#
# Static dielectric constant tensor:
#      x y z
#    x 1.683730 0.000000 0.010330 
#    y 0.000000 1.655710 0.000000 
#    z 0.010330 0.000000 1.681550 
# 
# From -- ./inp_files/238514.got.cif
#   From: 2010.05.17/outbox.cif.g08.bks.cpg/sg12_120_cif.got.tgz:238514.got - 2010.06.03 13:09:07.
