data_PCOD9201051
_publ_section_title
;
Structure prediction by ZEFSAII (Michael W. Deem and Ramdas Pophale) SiO2 
 PCOD9201051
Probable space group: C 2/M
;
_chemical_formula_sum "Si O2"
_cell_formula_units_Z 40
_cell_length_a 21.656881
_cell_length_b 15.754955
_cell_length_c 18.836973
_cell_angle_alpha 90.000000
_cell_angle_beta 20.429388
_cell_angle_gamma 90.000000
_cell_volume 2243.444117
_symmetry_space_group_name_H-M "C 2/M"
_symmetry_group_IT_number 12
_symmetry_cell_setting 'monoclinic'
loop_
_space_group_symop_operation_xyz
x,y,z
-x,y,-z
-x,-y,-z
x,-y,z
1/2+x,1/2+y,z
1/2-x,1/2+y,-z
1/2-x,1/2-y,-z
1/2+x,1/2-y,z
loop_
_atom_site_type_symbol
_atom_site_label
_atom_site_fract_x
_atom_site_fract_y
_atom_site_fract_z
Si Si1 0.036814 0.687004 0.283209
Si Si2 0.796942 0.258735 0.291633
Si Si3 0.363265 0.793621 0.984245
Si Si4 0.644160 0.093799 0.406425
Si Si5 0.212868 0.901773 0.270624
O O1 0.211611 0.724138 0.132265
O O2 0.877729 0.753966 0.470158
O O3 0.964406 0.605424 0.403033
O O4 0.073591 0.675403 0.161053
O O5 0.775564 0.173760 0.266892
O O6 0.787527 0.340391 0.251474
O O7 0.970396 0.257187 0.152151
O O8 0.282856 0.866933 0.120266
O O9 0.500000 0.105369 0.500000
O O10 0.722501 0.000000 0.316350
O O11 0.000000 0.893517 0.500000
O O12 0.259279 0.000000 0.231828
#
# Coordination Sequence:
#
# PCOD9201051 Si02
#       5
#     8   8   8   8   8
#     4   9  21  36  58  83 114 152 189 233 289 337
#     4  10  20  37  61  81 115 149 191 237 284 344
#     4  11  20  36  60  84 112 155 193 231 289 345
#     4   9  18  35  58  81 113 149 185 234 286 333
#     4  11  22  38  59  86 121 155 192 240 288 343
#
# _framework density 17.829729
#
# number of rings (size 3 to 8) (size 9 to 14) (size 15 to 20)
#    1.200    0.800    2.000    3.000    0.000    2.400 
#    0.000    1.000    0.000    6.000    0.000    0.000 
#    0.000    0.000    0.000    0.000    0.000    0.000 
#
# Total GULP energy -111423.367622 kJ/mol
# GULP energy per Si atom -5571.168381 kJ/mol
# Density = 1.778915 g / cm^3
# Si number density = 17.829729 Si / 1000 Ang^3
#
#
#
# Elastic Constant Matrix: (Units=GPa)
#
#
# Indices 1 2 3 4 5 6 
#
# 1 107.5713 66.5805 56.1118 0.0041 -6.2873 -0.0055
# 2 66.5805 112.7832 29.1135 0.0172 -8.3029 -0.0121
# 3 56.1118 29.1135 83.5429 0.0140 1.1643 -0.0154
# 4 0.0041 0.0172 0.0140 3.1693 -0.0057 8.6483
# 5 -6.2873 -8.3029 1.1643 -0.0057 43.3428 0.0044
# 6 -0.0055 -0.0121 -0.0154 8.6483 0.0044 -5.9288
#
#
#
# Elastic Compliance Matrix: (Units=1/GPa)
#
#
# Indices 1 2 3 4 5 6 
#
# 1 0.020784 -0.009395 -0.010706 -0.000001 0.001503 0.000027
# 2 -0.009395 0.014159 0.001358 -0.000001 0.001313 -0.000024
# 3 -0.010706 0.001358 0.018713 0.000007 -0.001796 -0.000032
# 4 -0.000001 -0.000001 0.000007 0.063354 -0.000002 0.092413
# 5 0.001503 0.001313 -0.001796 -0.000002 0.023590 0.000016
# 6 0.000027 -0.000024 -0.000032 0.092413 0.000016 -0.033866
#
#
# Mechanical properties :
#
#
# Convention : Reuss Voigt Hill
#
# Bulk Modulus (GPa) = 61.85038 67.50102 64.67570
# Shear Modulus (GPa) = 33.42029 18.25609 25.83819
#
# Velocity S-wave (km/s) = 4.33415 3.20334 3.81092
# Velocity P-wave (km/s) = 7.73377 7.18489 7.46438
#
# Compressibility (1/GPa) = 0.01616805
#
# Stress axis : x y z
#
# Youngs Moduli (GPa) = 48.11460 70.62608 53.43966
#
# Poissons Ratio (x) = 0.66354 0.57214
# Poissons Ratio (y) = 0.45204 -0.07256
# Poissons Ratio (z) = 0.51513 -0.09589
#
# Static dielectric constant tensor:
#      x y z
#    x 1.585110 0.000000 0.009330 
#    y 0.000000 1.591130 0.000000 
#    z 0.009330 0.000000 1.637380 
# 
# From -- ./inp_files/284911.got.cif
#   From: 2010.05.17/outbox.cif.g08.bks.cpg/sg12_143_cif.got.tgz:284911.got - 2010.06.03 13:09:07.
