data_PCOD9201076
_publ_section_title
;
Structure prediction by ZEFSAII (Michael W. Deem and Ramdas Pophale) SiO2 
 PCOD9201076
Probable space group: C 2/M
;
_chemical_formula_sum "Si O2"
_cell_formula_units_Z 64
_cell_length_a 27.235881
_cell_length_b 9.047109
_cell_length_c 23.230601
_cell_angle_alpha 90.000000
_cell_angle_beta 145.805438
_cell_angle_gamma 90.000000
_cell_volume 3217.005327
_symmetry_space_group_name_H-M "C 2/M"
_symmetry_group_IT_number 12
_symmetry_cell_setting 'monoclinic'
loop_
_space_group_symop_operation_xyz
x,y,z
-x,y,-z
-x,-y,-z
x,-y,z
1/2+x,1/2+y,z
1/2-x,1/2+y,-z
1/2-x,1/2-y,-z
1/2+x,1/2-y,z
loop_
_atom_site_type_symbol
_atom_site_label
_atom_site_fract_x
_atom_site_fract_y
_atom_site_fract_z
Si Si1 0.373514 0.176853 0.030063
Si Si2 0.020740 0.322809 0.754361
Si Si3 0.702928 0.673811 0.245844
Si Si4 0.057126 0.822533 0.666538
Si Si5 0.159440 0.828382 0.428053
Si Si6 0.026929 0.677401 0.090533
Si Si7 0.365600 0.669790 0.457866
Si Si8 0.736301 0.175555 0.820632
O O1 0.408174 0.208493 0.127457
O O2 0.452843 0.219050 0.064180
O O3 0.359326 0.000000 0.010986
O O4 0.287922 0.260711 0.925391
O O5 0.013366 0.500000 0.740724
O O6 0.048559 0.247867 0.721687
O O7 0.925687 0.256661 0.678317
O O8 0.692695 0.500000 0.243791
O O9 0.621499 0.756415 0.195085
O O10 0.794260 0.727568 0.360053
O O11 0.707059 0.706324 0.181601
O O12 0.143809 0.755599 0.723511
O O13 0.966470 0.787383 0.546132
O O14 0.062145 0.000000 0.675706
O O15 0.250000 0.750000 0.500000
O O16 0.148628 0.826329 0.486926
O O17 0.159636 0.000000 0.409820
O O18 0.033436 0.500000 0.097155
O O19 0.000000 0.725051 0.000000
O O20 0.352987 0.500000 0.426275
O O21 0.723818 0.000000 0.813637
#
# Coordination Sequence:
#
# PCOD9201076 Si02
#       8
#     8   8   8   8   8   8   8   8
#     4  10  22  39  60  88 118 156 200 238 286 351
#     4  10  21  38  60  87 120 153 192 243 297 348
#     4  11  24  38  57  89 122 154 193 240 296 351
#     4  10  22  42  65  87 114 152 199 246 293 349
#     4  10  21  37  57  84 117 155 199 242 289 346
#     4  10  20  37  61  84 115 158 197 239 287 340
#     4   9  21  40  60  83 114 153 196 240 287 347
#     4  11  24  40  60  87 119 154 194 244 298 350
#
# _framework density 19.894279999999998
#
# number of rings (size 3 to 8) (size 9 to 14) (size 15 to 20)
#    0.000    1.875    1.250    2.625    1.750    7.250 
#    0.000    2.500    0.000    0.000    0.000    0.000 
#    0.000    0.000    0.000    0.000    0.000    0.000 
#
# Total GULP energy -178813.888028 kJ/mol
# GULP energy per Si atom -5587.934001 kJ/mol
# Density = 1.984900 g / cm^3
# Si number density = 19.894280 Si / 1000 Ang^3
#
#
#
# Elastic Constant Matrix: (Units=GPa)
#
#
# Indices 1 2 3 4 5 6 
#
# 1 24.8439 9.5806 -1.6175 0.0000 19.3854 0.0000
# 2 9.5806 28.3537 18.4653 0.0000 8.6723 0.0000
# 3 -1.6175 18.4653 73.4605 0.0000 14.5116 0.0000
# 4 0.0000 0.0000 0.0000 27.9455 0.0000 1.5111
# 5 19.3854 8.6723 14.5116 0.0000 33.7510 0.0000
# 6 0.0000 0.0000 0.0000 1.5111 0.0000 26.8982
#
#
#
# Elastic Compliance Matrix: (Units=1/GPa)
#
#
# Indices 1 2 3 4 5 6 
#
# 1 0.097776 -0.028961 0.020825 0.000000 -0.057671 0.000000
# 2 -0.028961 0.052257 -0.015744 0.000000 0.009976 0.000000
# 3 0.020825 -0.015744 0.021411 0.000000 -0.017122 0.000000
# 4 0.000000 0.000000 0.000000 0.035893 0.000000 -0.002016
# 5 -0.057671 0.009976 -0.017122 0.000000 0.067552 0.000000
# 6 0.000000 0.000000 0.000000 -0.002016 0.000000 0.037291
#
#
# Mechanical properties :
#
#
# Convention : Reuss Voigt Hill
#
# Bulk Modulus (GPa) = 8.08512 19.94610 14.01561
# Shear Modulus (GPa) = 12.46368 24.40090 18.43229
#
# Velocity S-wave (km/s) = 2.50570 3.50598 3.04717
# Velocity P-wave (km/s) = 3.52764 5.14169 4.40916
#
# Compressibility (1/GPa) = 0.12368393
#
# Stress axis : x y z
#
# Youngs Moduli (GPa) = 10.22749 19.13637 46.70481
#
# Poissons Ratio (x) = 0.55421 -0.97264
# Poissons Ratio (y) = 0.29620 0.73531
# Poissons Ratio (z) = -0.21299 0.30128
#
# Static dielectric constant tensor:
#      x y z
#    x 1.705640 0.000000 -0.008420 
#    y 0.000000 1.659710 0.000000 
#    z -0.008420 0.000000 1.687600 
# 
# From -- ./inp_files/353500.got.cif
#   From: 2010.05.17/outbox.cif.g08.bks.cpg/sg12_177_cif.got.tgz:353500.got - 2010.06.03 13:09:07.
