data_PCOD9201349
_publ_section_title
;
Structure prediction by ZEFSAII (Michael W. Deem and Ramdas Pophale) SiO2 
 PCOD9201349
Probable space group: C 2/M
;
_chemical_formula_sum "Si O2"
_cell_formula_units_Z 44
_cell_length_a 17.384983
_cell_length_b 14.769869
_cell_length_c 17.142523
_cell_angle_alpha 90.000000
_cell_angle_beta 147.559214
_cell_angle_gamma 90.000000
_cell_volume 2361.222133
_symmetry_space_group_name_H-M "C 2/M"
_symmetry_group_IT_number 12
_symmetry_cell_setting 'monoclinic'
loop_
_space_group_symop_operation_xyz
x,y,z
-x,y,-z
-x,-y,-z
x,-y,z
1/2+x,1/2+y,z
1/2-x,1/2+y,-z
1/2-x,1/2-y,-z
1/2+x,1/2-y,z
loop_
_atom_site_type_symbol
_atom_site_label
_atom_site_fract_x
_atom_site_fract_y
_atom_site_fract_z
Si Si1 0.556470 0.209161 0.819575
Si Si2 0.766214 0.393574 0.531124
Si Si3 0.994803 0.108503 0.405853
Si Si4 0.444152 0.397670 0.782371
Si Si5 0.232954 0.714554 0.113708
Si Si6 0.000000 0.172285 0.000000
O O1 0.407374 0.163583 0.669707
O O2 0.533170 0.314978 0.822049
O O3 0.670188 0.209845 0.847305
O O4 0.630203 0.170182 0.960357
O O5 0.793764 0.500000 0.570184
O O6 0.633740 0.363509 0.473659
O O7 0.708427 0.386892 0.392641
O O8 0.847365 0.145836 0.245708
O O9 0.000000 0.138750 0.500000
O O10 0.994244 0.000000 0.403310
O O11 0.493012 0.500000 0.804403
O O12 0.453924 0.383584 0.883643
O O13 0.132212 0.763520 0.089482
#
# Coordination Sequence:
#
# PCOD9201349 Si02
#       6
#     8   8   8   8   8   4
#     4  10  21  38  60  90 113 155 200 243 293 350
#     4  10  21  38  61  89 119 154 194 244 301 354
#     4  10  22  37  57  87 118 155 198 241 297 356
#     4  10  20  37  62  86 115 155 198 241 293 352
#     4  10  22  37  58  85 118 154 201 238 295 350
#     4  10  23  38  57  88 120 158 197 242 298 344
#
# _framework density 18.634418
#
# number of rings (size 3 to 8) (size 9 to 14) (size 15 to 20)
#    0.000    2.000    1.818    0.818    5.091    0.727 
#    0.000    8.636    0.000    2.182    0.000    0.000 
#    0.000    0.000    0.000    0.000    0.000    0.000 
#
# Total GULP energy -122648.493024 kJ/mol
# GULP energy per Si atom -5574.931501 kJ/mol
# Density = 1.859200 g / cm^3
# Si number density = 18.634418 Si / 1000 Ang^3
#
#
#
# Elastic Constant Matrix: (Units=GPa)
#
#
# Indices 1 2 3 4 5 6 
#
# 1 98.4602 35.9104 59.6975 0.0000 1.4037 0.0000
# 2 35.9104 43.4660 42.0380 -0.0003 9.4045 -0.0002
# 3 59.6975 42.0380 157.4949 -0.0004 -1.5863 -0.0003
# 4 0.0000 -0.0003 -0.0004 12.2744 -0.0002 -7.4242
# 5 1.4037 9.4045 -1.5863 -0.0002 36.0779 -0.0001
# 6 0.0000 -0.0002 -0.0003 -7.4242 -0.0001 10.4600
#
#
#
# Elastic Compliance Matrix: (Units=1/GPa)
#
#
# Indices 1 2 3 4 5 6 
#
# 1 0.015885 -0.010439 -0.003215 -0.000001 0.001962 -0.000001
# 2 -0.010439 0.040681 -0.007008 0.000002 -0.010506 0.000002
# 3 -0.003215 -0.007008 0.009462 0.000000 0.002368 0.000000
# 4 -0.000001 0.000002 0.000000 0.142758 0.000000 0.101326
# 5 0.001962 -0.010506 0.002368 0.000000 0.030484 0.000000
# 6 -0.000001 0.000002 0.000000 0.101326 0.000000 0.167522
#
#
# Mechanical properties :
#
#
# Convention : Reuss Voigt Hill
#
# Bulk Modulus (GPa) = 40.47635 63.85700 52.16667
# Shear Modulus (GPa) = 10.95650 22.54749 16.75199
#
# Velocity S-wave (km/s) = 2.42744 3.48227 3.00155
# Velocity P-wave (km/s) = 5.44289 7.10711 6.32993
#
# Compressibility (1/GPa) = 0.02470579
#
# Stress axis : x y z
#
# Youngs Moduli (GPa) = 62.95266 24.58140 105.68190
#
# Poissons Ratio (x) = 0.25660 0.33978
# Poissons Ratio (y) = 0.65714 0.74058
# Poissons Ratio (z) = 0.20240 0.17226
#
# Static dielectric constant tensor:
#      x y z
#    x 1.665250 0.000000 -0.039260 
#    y 0.000000 1.651760 0.000000 
#    z -0.039260 0.000000 1.657600 
# 
# From -- ./inp_files/277929.got.cif
#   From: 2010.05.17/outbox.cif.g08.bks.cpg/sg12_139_cif.got.tgz:277929.got - 2010.06.03 13:09:07.
