data_PCOD9201500
_publ_section_title
;
Structure prediction by ZEFSAII (Michael W. Deem and Ramdas Pophale) SiO2 
 PCOD9201500
Probable space group: C 2/M
;
_chemical_formula_sum "Si O2"
_cell_formula_units_Z 56
_cell_length_a 23.904831
_cell_length_b 9.005363
_cell_length_c 14.155577
_cell_angle_alpha 90.000000
_cell_angle_beta 74.249896
_cell_angle_gamma 90.000000
_cell_volume 2932.883385
_symmetry_space_group_name_H-M "C 2/M"
_symmetry_group_IT_number 12
_symmetry_cell_setting 'monoclinic'
loop_
_space_group_symop_operation_xyz
x,y,z
-x,y,-z
-x,-y,-z
x,-y,z
1/2+x,1/2+y,z
1/2-x,1/2+y,-z
1/2-x,1/2-y,-z
1/2+x,1/2-y,z
loop_
_atom_site_type_symbol
_atom_site_label
_atom_site_fract_x
_atom_site_fract_y
_atom_site_fract_z
Si Si1 0.161262 0.326488 0.991304
Si Si2 0.686238 0.177660 0.529753
Si Si3 0.939437 0.823058 0.076744
Si Si4 0.211845 0.173953 0.147637
Si Si5 0.918397 0.677810 0.289649
Si Si6 0.487897 0.324303 0.616580
Si Si7 0.642012 0.676638 0.361583
O O1 0.145655 0.500000 0.996615
O O2 0.111287 0.228155 0.969738
O O3 0.220104 0.306101 0.903279
O O4 0.177516 0.274005 0.088844
O O5 0.750000 0.250000 0.500000
O O6 0.644315 0.219888 0.636607
O O7 0.653077 0.232368 0.451005
O O8 0.692235 0.000000 0.527029
O O9 0.929384 0.747337 0.182427
O O10 0.939311 0.000000 0.089247
O O11 0.000000 0.779333 0.000000
O O12 0.192493 0.205074 0.262785
O O13 0.198160 0.000000 0.135038
O O14 0.920081 0.500000 0.282599
O O15 0.968498 0.733915 0.337926
O O16 0.500000 0.299484 0.500000
O O17 0.496444 0.500000 0.631733
O O18 0.419719 0.288680 0.659034
O O19 0.640915 0.500000 0.385195
#
# Coordination Sequence:
#
# PCOD9201500 Si02
#       7
#     8   8   8   8   8   8   8
#     4  10  21  39  62  89 122 157 201 255 307 360
#     4  11  25  42  62  91 127 165 207 252 304 366
#     4  11  26  45  65  88 120 163 209 254 306 370
#     4   9  20  38  61  89 122 160 200 248 304 362
#     4  11  25  43  64  91 125 162 202 257 313 360
#     4  10  20  37  62  90 121 159 201 243 295 359
#     4  10  21  38  62  90 123 161 203 251 300 358
#
# _framework density 19.093837000000001
#
# number of rings (size 3 to 8) (size 9 to 14) (size 15 to 20)
#    0.000    1.714    1.429    1.714    4.000    4.857 
#    0.000    0.000    0.000    0.000    0.000    0.000 
#    0.000    0.000    0.000    0.000    0.000    0.000 
#
# Total GULP energy -156456.770102 kJ/mol
# GULP energy per Si atom -5587.741789 kJ/mol
# Density = 1.905038 g / cm^3
# Si number density = 19.093837 Si / 1000 Ang^3
#
#
#
# Elastic Constant Matrix: (Units=GPa)
#
#
# Indices 1 2 3 4 5 6 
#
# 1 81.5091 38.9275 37.3257 0.0000 -5.9915 0.0000
# 2 38.9275 48.1453 47.8238 0.0000 -12.3728 0.0000
# 3 37.3257 47.8238 104.1196 0.0000 -24.5945 0.0000
# 4 0.0000 0.0000 0.0000 32.4276 0.0000 3.7132
# 5 -5.9915 -12.3728 -24.5945 0.0000 13.2126 0.0000
# 6 0.0000 0.0000 0.0000 3.7132 0.0000 14.3510
#
#
#
# Elastic Compliance Matrix: (Units=1/GPa)
#
#
# Indices 1 2 3 4 5 6 
#
# 1 0.020781 -0.017723 -0.001791 0.000000 -0.010507 0.000000
# 2 -0.017723 0.053544 -0.014804 0.000000 0.014547 0.000000
# 3 -0.001791 -0.014804 0.024236 0.000000 0.030439 0.000000
# 4 0.000000 0.000000 0.000000 0.031780 0.000000 -0.008223
# 5 -0.010507 0.014547 0.030439 0.000000 0.141204 0.000000
# 6 0.000000 0.000000 0.000000 -0.008223 0.000000 0.071809
#
#
# Mechanical properties :
#
#
# Convention : Reuss Voigt Hill
#
# Bulk Modulus (GPa) = 33.41710 53.54757 43.48234
# Shear Modulus (GPa) = 11.84935 19.31138 15.58036
#
# Velocity S-wave (km/s) = 2.49386 3.18369 2.85965
# Velocity P-wave (km/s) = 5.08251 6.45134 5.80740
#
# Compressibility (1/GPa) = 0.02992480
#
# Stress axis : x y z
#
# Youngs Moduli (GPa) = 48.12139 18.67626 41.26071
#
# Poissons Ratio (x) = 0.33101 0.07390
# Poissons Ratio (y) = 0.85287 0.61081
# Poissons Ratio (z) = 0.08619 0.27648
#
# Static dielectric constant tensor:
#      x y z
#    x 1.652710 0.000000 -0.029980 
#    y 0.000000 1.639680 0.000000 
#    z -0.029980 0.000000 1.651970 
# 
# From -- ./inp_files/237472.got.cif
#   From: 2010.05.17/outbox.cif.g08.bks.cpg/sg12_119_cif.got.tgz:237472.got - 2010.06.03 13:09:07.
