data_PCOD9201089
_publ_section_title
;
Structure prediction by ZEFSAII (Michael W. Deem and Ramdas Pophale) SiO2 
 PCOD9201089
Probable space group: C 2/M
;
_chemical_formula_sum "Si O2"
_cell_formula_units_Z 56
_cell_length_a 24.140332
_cell_length_b 7.607853
_cell_length_c 14.582178
_cell_angle_alpha 90.000000
_cell_angle_beta 109.637211
_cell_angle_gamma 90.000000
_cell_volume 2522.345637
_symmetry_space_group_name_H-M "C 2/M"
_symmetry_group_IT_number 12
_symmetry_cell_setting 'monoclinic'
loop_
_space_group_symop_operation_xyz
x,y,z
-x,y,-z
-x,-y,-z
x,-y,z
1/2+x,1/2+y,z
1/2-x,1/2+y,-z
1/2-x,1/2-y,-z
1/2+x,1/2-y,z
loop_
_atom_site_type_symbol
_atom_site_label
_atom_site_fract_x
_atom_site_fract_y
_atom_site_fract_z
Si Si1 0.814286 0.297233 0.994584
Si Si2 0.652176 0.216090 0.187322
Si Si3 0.575951 0.800903 0.304049
Si Si4 0.021940 0.201889 0.610137
Si Si5 0.869895 0.787245 0.208938
Si Si6 0.682503 0.709058 0.484828
Si Si7 0.720142 0.713148 0.695639
O O1 0.807257 0.500000 0.968497
O O2 0.862582 0.272218 0.100874
O O3 0.750000 0.250000 0.000000
O O4 0.837868 0.220375 0.911355
O O5 0.596184 0.273666 0.216548
O O6 0.712736 0.272416 0.271257
O O7 0.649352 0.000000 0.188268
O O8 0.530398 0.703878 0.344594
O O9 0.636464 0.803449 0.395155
O O10 0.553771 0.000000 0.279907
O O11 0.076952 0.278171 0.697608
O O12 0.000000 0.278756 0.500000
O O13 0.039059 0.000000 0.597510
O O14 0.809966 0.734249 0.226959
O O15 0.872964 0.000000 0.208494
O O16 0.672176 0.500000 0.471893
O O17 0.750000 0.750000 0.500000
O O18 0.678874 0.766135 0.588723
O O19 0.721918 0.500000 0.693843
#
# Coordination Sequence:
#
# PCOD9201089 Si02
#       7
#     8   8   8   8   8   8   8
#     4  11  21  36  59  86 118 153 194 239 291 348
#     4   9  18  34  55  80 113 152 188 225 283 351
#     4  11  22  38  58  82 115 154 195 243 290 340
#     4  10  22  42  65  87 114 156 200 236 287 355
#     4  10  20  37  61  85 112 148 194 242 288 341
#     4  11  20  32  52  80 114 150 189 233 288 352
#     4   9  16  31  54  78 110 150 186 223 280 350
#
# _framework density 22.201557999999999
#
# number of rings (size 3 to 8) (size 9 to 14) (size 15 to 20)
#    0.000    1.857    2.857    2.143    0.000    3.143 
#    0.000    7.857    0.000    4.286    0.000    0.000 
#    0.000    0.000    0.000    0.000    0.000    0.000 
#
# Total GULP energy -156191.180547 kJ/mol
# GULP energy per Si atom -5578.256448 kJ/mol
# Density = 2.215103 g / cm^3
# Si number density = 22.201558 Si / 1000 Ang^3
#
#
#
# Elastic Constant Matrix: (Units=GPa)
#
#
# Indices 1 2 3 4 5 6 
#
# 1 86.9063 -5.4631 36.4676 0.0000 -16.5956 0.0000
# 2 -5.4631 50.8555 -4.1438 0.0000 -5.7368 0.0000
# 3 36.4676 -4.1438 133.7042 0.0000 -25.7949 0.0000
# 4 0.0000 0.0000 0.0000 18.3752 0.0000 0.5402
# 5 -16.5956 -5.7368 -25.7949 0.0000 37.7438 0.0000
# 6 0.0000 0.0000 0.0000 0.5402 0.0000 17.0462
#
#
#
# Elastic Compliance Matrix: (Units=1/GPa)
#
#
# Indices 1 2 3 4 5 6 
#
# 1 0.013627 0.001720 -0.002830 0.000000 0.004319 0.000000
# 2 0.001720 0.020451 0.001048 0.000000 0.004581 0.000000
# 3 -0.002830 0.001048 0.009301 0.000000 0.005271 0.000000
# 4 0.000000 0.000000 0.000000 0.054472 0.000000 -0.001726
# 5 0.004319 0.004581 0.005271 0.000000 0.032692 0.000000
# 6 0.000000 0.000000 0.000000 -0.001726 0.000000 0.058719
#
#
# Mechanical properties :
#
#
# Convention : Reuss Voigt Hill
#
# Bulk Modulus (GPa) = 23.11836 36.13194 29.62515
# Shear Modulus (GPa) = 24.53357 30.94006 27.73681
#
# Velocity S-wave (km/s) = 3.32782 3.73714 3.53840
# Velocity P-wave (km/s) = 5.02010 5.91029 5.48329
#
# Compressibility (1/GPa) = 0.04325566
#
# Stress axis : x y z
#
# Youngs Moduli (GPa) = 73.38279 48.89830 107.52047
#
# Poissons Ratio (x) = -0.08413 0.30431
# Poissons Ratio (y) = -0.12625 -0.11272
# Poissons Ratio (z) = 0.20769 -0.05126
#
# Static dielectric constant tensor:
#      x y z
#    x 1.843500 0.000000 -0.056390 
#    y 0.000000 1.809320 0.000000 
#    z -0.056390 0.000000 1.866120 
# 
# From -- ./inp_files/237841.got.cif
#   From: 2010.05.17/outbox.cif.g08.bks.cpg/sg12_119_cif.got.tgz:237841.got - 2010.06.03 13:09:07.
