data_PCOD9201194
_publ_section_title
;
Structure prediction by ZEFSAII (Michael W. Deem and Ramdas Pophale) SiO2 
 PCOD9201194
Probable space group: C 2/M
;
_chemical_formula_sum "Si O2"
_cell_formula_units_Z 48
_cell_length_a 28.738643
_cell_length_b 17.435281
_cell_length_c 5.328583
_cell_angle_alpha 90.000000
_cell_angle_beta 117.385301
_cell_angle_gamma 90.000000
_cell_volume 2370.758656
_symmetry_space_group_name_H-M "C 2/M"
_symmetry_group_IT_number 12
_symmetry_cell_setting 'monoclinic'
loop_
_space_group_symop_operation_xyz
x,y,z
-x,y,-z
-x,-y,-z
x,-y,z
1/2+x,1/2+y,z
1/2-x,1/2+y,-z
1/2-x,1/2-y,-z
1/2+x,1/2-y,z
loop_
_atom_site_type_symbol
_atom_site_label
_atom_site_fract_x
_atom_site_fract_y
_atom_site_fract_z
Si Si1 0.238128 0.648655 0.165641
Si Si2 0.180640 0.409838 0.513330
Si Si3 0.915676 0.835581 0.995561
Si Si4 0.906604 0.294772 0.576102
Si Si5 0.177184 0.207482 0.935687
Si Si6 0.500000 0.768267 0.500000
Si Si7 0.034412 0.000000 0.839153
O O1 0.209425 0.612258 0.847864
O O2 0.221988 0.738317 0.158320
O O3 0.218740 0.608229 0.371010
O O4 0.298243 0.655802 0.222898
O O5 0.168433 0.500000 0.485524
O O6 0.127108 0.358620 0.358094
O O7 0.856157 0.836921 0.945439
O O8 0.958427 0.787264 0.261746
O O9 0.933429 0.922245 0.054966
O O10 0.915889 0.784990 0.745277
O O11 0.865155 0.269257 0.263979
O O12 0.962752 0.316364 0.596429
O O13 0.000000 0.000000 0.500000
O O14 0.000000 0.000000 0.000000
#
# Coordination Sequence:
#
# PCOD9201194 Si02
#       7
#     8   8   8   8   8   4   4
#     4  10  21  40  63  92 124 160 209 250 309 361
#     4  11  23  41  63  91 128 166 205 255 309 366
#     4  11  21  40  61  89 122 161 206 252 307 370
#     4  10  21  37  64  92 118 163 210 254 305 366
#     4   9  21  36  64  90 120 159 208 257 298 361
#     4  10  20  37  61  88 118 156 210 254 303 371
#     4  12  26  42  60  86 126 166 198 250 312 361
#
# _framework density 20.246683999999998
#
# number of rings (size 3 to 8) (size 9 to 14) (size 15 to 20)
#    0.000    1.667    2.500    2.000    4.667    2.000 
#    3.000    0.417    0.000    2.000    0.000    0.000 
#    0.000    0.000    0.000    0.000    0.000    0.000 
#
# Total GULP energy -133665.092233 kJ/mol
# GULP energy per Si atom -5569.378843 kJ/mol
# Density = 2.020060 g / cm^3
# Si number density = 20.246684 Si / 1000 Ang^3
#
#
#
# Elastic Constant Matrix: (Units=GPa)
#
#
# Indices 1 2 3 4 5 6 
#
# 1 150.5439 22.7877 26.7229 0.0000 -24.1929 0.0000
# 2 22.7877 84.4350 12.0783 0.0000 -12.2057 0.0000
# 3 26.7229 12.0783 62.3040 0.0000 -18.2210 0.0000
# 4 0.0000 0.0000 0.0000 17.1616 0.0000 -5.4341
# 5 -24.1929 -12.2057 -18.2210 0.0000 25.2490 0.0000
# 6 0.0000 0.0000 0.0000 -5.4341 0.0000 -11.9062
#
#
#
# Elastic Compliance Matrix: (Units=1/GPa)
#
#
# Indices 1 2 3 4 5 6 
#
# 1 0.008051 -0.001077 -0.001446 0.000000 0.006150 0.000000
# 2 -0.001077 0.012913 -0.000656 0.000000 0.004737 0.000000
# 3 -0.001446 -0.000656 0.020660 0.000000 0.013207 0.000000
# 4 0.000000 0.000000 0.000000 0.050912 0.000000 -0.023237
# 5 0.006150 0.004737 0.013207 0.000000 0.057319 0.000000
# 6 0.000000 0.000000 0.000000 -0.023237 0.000000 -0.073384
#
#
# Mechanical properties :
#
#
# Convention : Reuss Voigt Hill
#
# Bulk Modulus (GPa) = 28.35589 46.71787 37.53688
# Shear Modulus (GPa) = 52.86415 21.81383 37.33899
#
# Velocity S-wave (km/s) = 5.11534 3.28594 4.29908
# Velocity P-wave (km/s) = 6.99461 6.12544 6.57440
#
# Compressibility (1/GPa) = 0.03526604
#
# Stress axis : x y z
#
# Youngs Moduli (GPa) = 124.21571 77.44340 48.40268
#
# Poissons Ratio (x) = 0.08340 0.06997
# Poissons Ratio (y) = 0.13377 0.03176
# Poissons Ratio (z) = 0.17957 0.05081
#
# Static dielectric constant tensor:
#      x y z
#    x 1.778340 0.000000 -0.080400 
#    y 0.000000 1.756610 0.000000 
#    z -0.080400 0.000000 1.646060 
# 
# From -- ./inp_files/25035.got.cif
#   From: 2010.05.17/outbox.cif.g08.bks.cpg/sg12_13_cif.got.tgz:25035.got - 2010.06.03 13:09:07.
