data_PCOD9201347
_publ_section_title
;
Structure prediction by ZEFSAII (Michael W. Deem and Ramdas Pophale) SiO2 
 PCOD9201347
Probable space group: C 2/M
;
_chemical_formula_sum "Si O2"
_cell_formula_units_Z 64
_cell_length_a 10.372344
_cell_length_b 14.365639
_cell_length_c 30.244046
_cell_angle_alpha 90.000000
_cell_angle_beta 134.239912
_cell_angle_gamma 90.000000
_cell_volume 3228.585978
_symmetry_space_group_name_H-M "C 2/M"
_symmetry_group_IT_number 12
_symmetry_cell_setting 'monoclinic'
loop_
_space_group_symop_operation_xyz
x,y,z
-x,y,-z
-x,-y,-z
x,-y,z
1/2+x,1/2+y,z
1/2-x,1/2+y,-z
1/2-x,1/2-y,-z
1/2+x,1/2-y,z
loop_
_atom_site_type_symbol
_atom_site_label
_atom_site_fract_x
_atom_site_fract_y
_atom_site_fract_z
Si Si1 0.540640 0.233455 0.959654
Si Si2 0.421503 0.612698 0.787522
Si Si3 0.763626 0.110862 0.367524
Si Si4 0.821883 0.111464 0.863288
Si Si5 0.100706 0.612539 0.235620
Si Si6 0.539252 0.763513 0.458997
Si Si7 0.925307 0.611342 0.351118
Si Si8 0.195391 0.612647 0.160420
O O1 0.431457 0.328907 0.924680
O O2 0.459216 0.159178 0.905793
O O3 0.500000 0.202847 0.000000
O O4 0.750000 0.250000 0.000000
O O5 0.416778 0.500000 0.785642
O O6 0.395844 0.637847 0.832466
O O7 0.254768 0.642964 0.717409
O O8 0.612822 0.641265 0.813911
O O9 0.705356 0.142488 0.304474
O O10 0.934357 0.167237 0.425133
O O11 0.594900 0.128421 0.359484
O O12 0.796451 0.000000 0.374904
O O13 0.610548 0.134973 0.813485
O O14 0.840406 0.000000 0.873859
O O15 0.109180 0.500000 0.238625
O O16 0.180833 0.642618 0.207987
O O17 0.500000 0.791833 0.500000
O O18 0.458698 0.836648 0.404839
O O19 0.750000 0.750000 0.500000
O O20 0.913025 0.500000 0.355026
O O21 0.181301 0.500000 0.155376
#
# Coordination Sequence:
#
# PCOD9201347 Si02
#       8
#     8   8   8   8   8   8   8   8
#     4  12  26  40  56  82 116 161 209 237 276 357
#     4   9  18  37  64  92 117 147 192 246 316 373
#     4  10  21  41  69  94 124 166 207 257 316 373
#     4  10  20  37  62  86 113 149 192 247 300 353
#     4   9  18  37  64  93 117 144 193 250 311 367
#     4  12  26  42  61  93 130 170 219 256 292 364
#     4  10  21  41  68  94 126 164 205 261 317 369
#     4  10  22  39  60  88 122 151 185 251 313 354
#
# _framework density 19.822918000000001
#
# number of rings (size 3 to 8) (size 9 to 14) (size 15 to 20)
#    0.000    1.750    2.500    1.500    0.000    5.000 
#    0.000    1.250    0.000    0.000    0.000    0.000 
#    0.000    0.000    0.000    0.000    0.000    0.000 
#
# Total GULP energy -178906.903321 kJ/mol
# GULP energy per Si atom -5590.840729 kJ/mol
# Density = 1.977780 g / cm^3
# Si number density = 19.822918 Si / 1000 Ang^3
#
#
#
# Elastic Constant Matrix: (Units=GPa)
#
#
# Indices 1 2 3 4 5 6 
#
# 1 111.2905 6.2662 32.2343 0.0000 -3.9750 0.0000
# 2 6.2662 66.4043 17.4279 0.0000 -2.9252 0.0000
# 3 32.2343 17.4279 99.3246 0.0000 -2.3461 0.0000
# 4 0.0000 0.0000 0.0000 46.6562 0.0000 1.9629
# 5 -3.9750 -2.9252 -2.3461 0.0000 46.6816 0.0000
# 6 0.0000 0.0000 0.0000 1.9629 0.0000 12.1075
#
#
#
# Elastic Compliance Matrix: (Units=1/GPa)
#
#
# Indices 1 2 3 4 5 6 
#
# 1 0.009940 -0.000069 -0.003198 0.000000 0.000681 0.000000
# 2 -0.000069 0.015821 -0.002734 0.000000 0.000848 0.000000
# 3 -0.003198 -0.002734 0.011589 0.000000 0.000139 0.000000
# 4 0.000000 0.000000 0.000000 0.021581 0.000000 -0.003499
# 5 0.000681 0.000848 0.000139 0.000000 0.021540 0.000000
# 6 0.000000 0.000000 0.000000 -0.003499 0.000000 0.083160
#
#
# Mechanical properties :
#
#
# Convention : Reuss Voigt Hill
#
# Bulk Modulus (GPa) = 39.44913 43.20848 41.32881
# Shear Modulus (GPa) = 27.16215 35.82845 31.49530
#
# Velocity S-wave (km/s) = 3.70569 4.25599 3.99034
# Velocity P-wave (km/s) = 6.18494 6.78203 6.49035
#
# Compressibility (1/GPa) = 0.02534910
#
# Stress axis : x y z
#
# Youngs Moduli (GPa) = 100.60481 63.20888 86.29105
#
# Poissons Ratio (x) = 0.00434 0.27593
# Poissons Ratio (y) = 0.00691 0.23589
# Poissons Ratio (z) = 0.32170 0.17279
#
# Static dielectric constant tensor:
#      x y z
#    x 1.675500 0.000000 -0.011410 
#    y 0.000000 1.715350 0.000000 
#    z -0.011410 0.000000 1.657670 
# 
# From -- ./inp_files/372619.got.cif
#   From: 2010.05.17/outbox.cif.g08.bks.cpg/sg12_187_cif.got.tgz:372619.got - 2010.06.03 13:09:07.
