data_PCOD9201719
_publ_section_title
;
Structure prediction by ZEFSAII (Michael W. Deem and Ramdas Pophale) SiO2 
 PCOD9201719
Probable space group: C 2/M
;
_chemical_formula_sum "Si O2"
_cell_formula_units_Z 48
_cell_length_a 19.639232
_cell_length_b 14.711685
_cell_length_c 23.112695
_cell_angle_alpha 90.000000
_cell_angle_beta 158.085717
_cell_angle_gamma 90.000000
_cell_volume 2492.305805
_symmetry_space_group_name_H-M "C 2/M"
_symmetry_group_IT_number 12
_symmetry_cell_setting 'monoclinic'
loop_
_space_group_symop_operation_xyz
x,y,z
-x,y,-z
-x,-y,-z
x,-y,z
1/2+x,1/2+y,z
1/2-x,1/2+y,-z
1/2-x,1/2-y,-z
1/2+x,1/2-y,z
loop_
_atom_site_type_symbol
_atom_site_label
_atom_site_fract_x
_atom_site_fract_y
_atom_site_fract_z
Si Si1 0.211168 0.715791 0.147556
Si Si2 0.701094 0.598350 0.189442
Si Si3 0.080439 0.899117 0.224878
Si Si4 0.176203 0.724294 0.378970
Si Si5 0.478456 0.607495 0.551146
Si Si6 0.277364 0.194344 0.079537
O O1 0.289761 0.809592 0.237111
O O2 0.336736 0.635567 0.269643
O O3 0.227527 0.738066 0.092850
O O4 0.000000 0.704340 0.000000
O O5 0.785013 0.500000 0.241298
O O6 0.683526 0.605814 0.244620
O O7 0.500000 0.598478 0.000000
O O8 0.134000 0.816828 0.309412
O O9 0.107264 0.000000 0.270987
O O10 0.869636 0.885448 0.039171
O O11 0.250000 0.750000 0.500000
O O12 0.316571 0.664480 0.452885
O O13 0.989027 0.670477 0.244984
O O14 0.500000 0.629695 0.500000
O O15 0.445207 0.500000 0.529842
O O16 0.250000 0.250000 0.000000
#
# Coordination Sequence:
#
# PCOD9201719 Si02
#       6
#     8   8   8   8   8   8
#     4  11  20  38  67  93 124 170 208 266 323 377
#     4   9  16  29  56  92 123 150 192 243 305 380
#     4  10  20  37  63  95 126 161 205 258 317 387
#     4  11  23  43  64  91 131 171 218 268 329 387
#     4  11  26  45  65  90 126 175 228 273 317 379
#     4  10  21  37  60  94 124 165 209 258 318 384
#
# _framework density 19.259274000000001
#
# number of rings (size 3 to 8) (size 9 to 14) (size 15 to 20)
#    0.000    1.667    5.000    1.000    2.333    1.667 
#    0.000    0.833    0.000    3.000    0.000    0.000 
#    0.000    0.000    0.000    0.000    0.000    0.000 
#
# Total GULP energy -133813.994054 kJ/mol
# GULP energy per Si atom -5575.583086 kJ/mol
# Density = 1.921544 g / cm^3
# Si number density = 19.259274 Si / 1000 Ang^3
#
#
#
# Elastic Constant Matrix: (Units=GPa)
#
#
# Indices 1 2 3 4 5 6 
#
# 1 143.9807 50.9208 52.5117 -0.0036 -2.3778 0.0023
# 2 50.9208 91.6999 35.0935 -0.0117 -7.1693 -0.0120
# 3 52.5117 35.0935 81.7555 -0.0319 5.5828 -0.0099
# 4 -0.0036 -0.0117 -0.0319 26.1519 -0.0091 -5.9791
# 5 -2.3778 -7.1693 5.5828 -0.0091 30.3700 -0.0013
# 6 0.0023 -0.0120 -0.0099 -5.9791 -0.0013 18.3572
#
#
#
# Elastic Compliance Matrix: (Units=1/GPa)
#
#
# Indices 1 2 3 4 5 6 
#
# 1 0.010046 -0.003615 -0.004959 -0.000008 0.000845 -0.000009
# 2 -0.003615 0.014891 -0.004345 0.000004 0.004031 0.000010
# 3 -0.004959 -0.004345 0.017599 0.000020 -0.004649 0.000014
# 4 -0.000008 0.000004 0.000020 0.041315 0.000010 0.013457
# 5 0.000845 0.004031 -0.004649 0.000010 0.034800 0.000006
# 6 -0.000009 0.000010 0.000014 0.013457 0.000006 0.058857
#
#
# Mechanical properties :
#
#
# Convention : Reuss Voigt Hill
#
# Bulk Modulus (GPa) = 59.88575 66.05424 62.96999
# Shear Modulus (GPa) = 23.93355 26.90315 25.41835
#
# Velocity S-wave (km/s) = 3.52902 3.74156 3.63684
# Velocity P-wave (km/s) = 6.91139 7.28269 7.09947
#
# Compressibility (1/GPa) = 0.01669846
#
# Stress axis : x y z
#
# Youngs Moduli (GPa) = 99.53877 67.15678 56.82072
#
# Poissons Ratio (x) = 0.24277 0.28176
# Poissons Ratio (y) = 0.35983 0.24689
# Poissons Ratio (z) = 0.49359 0.29180
#
# Static dielectric constant tensor:
#      x y z
#    x 1.664450 0.000000 0.025100 
#    y 0.000000 1.684950 -0.000020 
#    z 0.025100 -0.000020 1.725010 
# 
# From -- ./inp_files/347538.got.cif
#   From: 2010.05.17/outbox.cif.g08.bks.cpg/sg12_174_cif.got.tgz:347538.got - 2010.06.03 13:09:07.
