data_PCOD9201041
_publ_section_title
;
Structure prediction by ZEFSAII (Michael W. Deem and Ramdas Pophale) SiO2 
 PCOD9201041
Probable space group: C 2/M
;
_chemical_formula_sum "Si O2"
_cell_formula_units_Z 56
_cell_length_a 12.455116
_cell_length_b 14.762390
_cell_length_c 11.885916
_cell_angle_alpha 90.000000
_cell_angle_beta 91.058726
_cell_angle_gamma 90.000000
_cell_volume 2185.057951
_symmetry_space_group_name_H-M "C 2/M"
_symmetry_group_IT_number 12
_symmetry_cell_setting 'monoclinic'
loop_
_space_group_symop_operation_xyz
x,y,z
-x,y,-z
-x,-y,-z
x,-y,z
1/2+x,1/2+y,z
1/2-x,1/2+y,-z
1/2-x,1/2-y,-z
1/2+x,1/2-y,z
loop_
_atom_site_type_symbol
_atom_site_label
_atom_site_fract_x
_atom_site_fract_y
_atom_site_fract_z
Si Si1 0.325844 0.254282 0.752537
Si Si2 0.583036 0.380054 0.905153
Si Si3 0.727234 0.850744 0.952820
Si Si4 0.663365 0.401421 0.675140
Si Si5 0.655892 0.605063 0.425081
Si Si6 0.969192 0.324639 0.160454
Si Si7 0.588176 0.107711 0.594373
O O1 0.280752 0.335005 0.830871
O O2 0.238026 0.184413 0.704121
O O3 0.380543 0.312303 0.654537
O O4 0.403955 0.188685 0.826095
O O5 0.606598 0.117162 0.924156
O O6 0.564692 0.273497 0.886005
O O7 0.500000 0.406705 0.000000
O O8 0.698518 0.403970 0.959698
O O9 0.750000 0.750000 0.000000
O O10 0.721941 0.500000 0.670500
O O11 0.614117 0.388182 0.551604
O O12 0.580911 0.409803 0.776461
O O13 0.639314 0.500000 0.386372
O O14 0.786882 0.619565 0.436658
O O15 0.933988 0.345373 0.286869
O O16 0.500000 0.136645 0.500000
O O17 0.572122 0.000000 0.610947
#
# Coordination Sequence:
#
# PCOD9201041 Si02
#       7
#     8   8   8   8   8   8   8
#     4  12  21  39  73  96 131 183 218 266 335 399
#     4  11  22  42  69  93 123 174 227 271 325 390
#     4  10  20  39  65  92 130 167 221 275 322 377
#     4  11  24  42  65  99 140 173 216 277 332 393
#     4  10  22  42  66  97 136 173 218 276 330 389
#     4  11  22  36  66  99 125 168 222 270 323 390
#     4  10  20  37  60  92 134 172 212 266 330 398
#
# _framework density 25.628612
#
# number of rings (size 3 to 8) (size 9 to 14) (size 15 to 20)
#    0.000    1.286    5.714    1.286    0.000    3.143 
#    0.000    2.143    0.000    3.000    0.000    0.000 
#    0.000    0.000    0.000    0.000    0.000    0.000 
#
# Total GULP energy -156253.113432 kJ/mol
# GULP energy per Si atom -5580.468337 kJ/mol
# Density = 2.557028 g / cm^3
# Si number density = 25.628612 Si / 1000 Ang^3
#
#
#
# Elastic Constant Matrix: (Units=GPa)
#
#
# Indices 1 2 3 4 5 6 
#
# 1 97.8158 15.4863 49.6782 0.0000 20.0966 0.0000
# 2 15.4863 94.0678 42.6457 0.0000 -3.3464 0.0000
# 3 49.6782 42.6457 160.8761 0.0000 -9.3892 0.0000
# 4 0.0000 0.0000 0.0000 -331.7720 0.0000 -8.8945
# 5 20.0966 -3.3464 -9.3892 0.0000 52.7783 0.0000
# 6 0.0000 0.0000 0.0000 -8.8945 0.0000 -4.6239
#
#
#
# Elastic Compliance Matrix: (Units=1/GPa)
#
#
# Indices 1 2 3 4 5 6 
#
# 1 0.013838 -0.000451 -0.004510 0.000000 -0.006100 0.000000
# 2 -0.000451 0.012099 -0.003045 0.000000 0.000397 0.000000
# 3 -0.004510 -0.003045 0.008594 0.000000 0.003053 0.000000
# 4 0.000000 0.000000 0.000000 -0.003178 0.000000 0.006113
# 5 -0.006100 0.000397 0.003053 0.000000 0.021838 0.000000
# 6 0.000000 0.000000 0.000000 0.006113 0.000000 -0.228027
#
#
# Mechanical properties :
#
#
# Convention : Reuss Voigt Hill
#
# Bulk Modulus (GPa) = 53.99360 63.15334 58.57347
# Shear Modulus (GPa) = -32.75468 -40.39355 -36.57411
#
# Velocity S-wave (km/s) = -3.57886 -3.97433 -3.78177
# Velocity P-wave (km/s) = 2.00892 1.90651 1.95839
#
# Compressibility (1/GPa) = 0.01852071
#
# Stress axis : x y z
#
# Youngs Moduli (GPa) = 72.26280 82.64867 116.36092
#
# Poissons Ratio (x) = 0.03725 0.52477
# Poissons Ratio (y) = 0.03257 0.35432
# Poissons Ratio (z) = 0.32589 0.25167
#
# Static dielectric constant tensor:
#      x y z
#    x 2.172560 0.000000 0.008990 
#    y 0.000000 2.168890 0.000000 
#    z 0.008990 0.000000 2.098830 
# 
# From -- ./inp_files/214343.got.cif
#   From: 2010.05.17/outbox.cif.g08.bks.cpg/sg12_108_cif.got.tgz:214343.got - 2010.06.03 13:09:07.
