data_PCOD9201561
_publ_section_title
;
Structure prediction by ZEFSAII (Michael W. Deem and Ramdas Pophale) SiO2 
 PCOD9201561
Probable space group: C 2/M
;
_chemical_formula_sum "Si O2"
_cell_formula_units_Z 48
_cell_length_a 30.833752
_cell_length_b 12.703186
_cell_length_c 22.256543
_cell_angle_alpha 90.000000
_cell_angle_beta 15.929176
_cell_angle_gamma 90.000000
_cell_volume 2392.534804
_symmetry_space_group_name_H-M "C 2/M"
_symmetry_group_IT_number 12
_symmetry_cell_setting 'monoclinic'
loop_
_space_group_symop_operation_xyz
x,y,z
-x,y,-z
-x,-y,-z
x,-y,z
1/2+x,1/2+y,z
1/2-x,1/2+y,-z
1/2-x,1/2-y,-z
1/2+x,1/2-y,z
loop_
_atom_site_type_symbol
_atom_site_label
_atom_site_fract_x
_atom_site_fract_y
_atom_site_fract_z
Si Si1 0.752033 0.500000 0.382460
Si Si2 0.189184 0.295949 0.909546
Si Si3 0.629881 0.111199 0.379412
Si Si4 0.158277 0.878700 0.178848
Si Si5 0.134012 0.781178 0.599960
Si Si6 0.875617 0.500000 0.084219
Si Si7 0.504581 0.183031 0.320865
O O1 0.675541 0.395703 0.515988
O O2 0.763338 0.500000 0.293628
O O3 0.939195 0.500000 0.146672
O O4 0.257501 0.209331 0.774796
O O5 0.321242 0.331136 0.781984
O O6 0.148481 0.398084 0.925328
O O7 0.043219 0.239007 0.138146
O O8 0.500000 0.117930 0.500000
O O9 0.546948 0.117614 0.553554
O O10 0.715109 0.000000 0.257889
O O11 0.053730 0.799953 0.278591
O O12 0.107823 0.000000 0.245984
O O13 0.337370 0.869564 0.915608
O O14 0.250000 0.750000 0.500000
O O15 0.130712 0.699267 0.548530
#
# Coordination Sequence:
#
# PCOD9201561 Si02
#       7
#     4   8   8   8   8   4   8
#     4  11  24  42  65  98 128 173 220 270 331 374
#     4  11  22  41  66  95 128 168 215 258 323 386
#     4  11  23  41  62  90 130 170 204 256 315 386
#     4  10  20  37  62  92 124 166 206 262 315 387
#     4  11  24  43  66  92 127 167 218 267 314 386
#     4  11  22  42  72  95 133 169 211 276 333 387
#     4  10  22  40  60  91 125 162 215 258 321 382
#
# _framework density 20.062404000000001
#
# number of rings (size 3 to 8) (size 9 to 14) (size 15 to 20)
#    0.000    1.333    4.167    1.500    2.333    0.000 
#    3.000    1.250    0.000    1.000    0.000    0.000 
#    0.000    0.000    0.000    0.000    0.000    0.000 
#
# Total GULP energy -133912.309936 kJ/mol
# GULP energy per Si atom -5579.679581 kJ/mol
# Density = 2.001674 g / cm^3
# Si number density = 20.062404 Si / 1000 Ang^3
#
#
#
# Elastic Constant Matrix: (Units=GPa)
#
#
# Indices 1 2 3 4 5 6 
#
# 1 114.6571 19.4973 22.0549 0.0006 2.9059 -0.0003
# 2 19.4973 139.1611 41.9461 0.0005 8.8235 -0.0003
# 3 22.0549 41.9461 53.9504 0.0014 15.2332 -0.0008
# 4 0.0006 0.0005 0.0014 -10.2826 -0.0007 -11.3668
# 5 2.9059 8.8235 15.2332 -0.0007 34.2291 0.0005
# 6 -0.0003 -0.0003 -0.0008 -11.3668 0.0005 2.8940
#
#
#
# Elastic Compliance Matrix: (Units=1/GPa)
#
#
# Indices 1 2 3 4 5 6 
#
# 1 0.009503 -0.000180 -0.004037 0.000000 0.001036 0.000000
# 2 -0.000180 0.009416 -0.007510 0.000000 0.000930 -0.000001
# 3 -0.004037 -0.007510 0.029029 -0.000001 -0.010640 0.000005
# 4 0.000000 0.000000 -0.000001 -0.018206 0.000001 -0.071506
# 5 0.001036 0.000930 -0.010640 0.000001 0.033623 -0.000004
# 6 0.000000 -0.000001 0.000005 -0.071506 -0.000004 0.064685
#
#
# Mechanical properties :
#
#
# Convention : Reuss Voigt Hill
#
# Bulk Modulus (GPa) = 40.82750 52.75169 46.78959
# Shear Modulus (GPa) = 31.31490 20.31945 25.81718
#
# Velocity S-wave (km/s) = 3.95508 3.18592 3.59115
# Velocity P-wave (km/s) = 6.42272 6.31541 6.36929
#
# Compressibility (1/GPa) = 0.02449330
#
# Stress axis : x y z
#
# Youngs Moduli (GPa) = 105.23420 106.20488 34.44817
#
# Poissons Ratio (x) = 0.01914 0.13907
# Poissons Ratio (y) = 0.01896 0.25870
# Poissons Ratio (z) = 0.42485 0.79757
#
# Static dielectric constant tensor:
#      x y z
#    x 1.737180 0.000000 0.015560 
#    y 0.000000 1.709850 0.000000 
#    z 0.015560 0.000000 1.712800 
# 
# From -- ./inp_files/330039.got.cif
#   From: 2010.05.17/outbox.cif.g08.bks.cpg/sg12_166_cif.got.tgz:330039.got - 2010.06.03 13:09:07.
