data_PCOD9201609
_publ_section_title
;
Structure prediction by ZEFSAII (Michael W. Deem and Ramdas Pophale) SiO2 
 PCOD9201609
Probable space group: C 2/M
;
_chemical_formula_sum "Si O2"
_cell_formula_units_Z 64
_cell_length_a 23.635438
_cell_length_b 17.182667
_cell_length_c 14.548687
_cell_angle_alpha 90.000000
_cell_angle_beta 30.886059
_cell_angle_gamma 90.000000
_cell_volume 3033.030325
_symmetry_space_group_name_H-M "C 2/M"
_symmetry_group_IT_number 12
_symmetry_cell_setting 'monoclinic'
loop_
_space_group_symop_operation_xyz
x,y,z
-x,y,-z
-x,-y,-z
x,-y,z
1/2+x,1/2+y,z
1/2-x,1/2+y,-z
1/2-x,1/2-y,-z
1/2+x,1/2-y,z
loop_
_atom_site_type_symbol
_atom_site_label
_atom_site_fract_x
_atom_site_fract_y
_atom_site_fract_z
Si Si1 0.617682 0.244833 0.824169
Si Si2 0.330097 0.416825 0.930478
Si Si3 0.934352 0.587820 0.222862
Si Si4 0.925247 0.250222 0.780909
Si Si5 0.658983 0.174998 0.481353
Si Si6 0.334579 0.843359 0.068752
Si Si7 0.622609 0.855375 0.320516
Si Si8 0.380475 0.414209 0.650560
O O1 0.599254 0.162409 0.794664
O O2 0.726776 0.289488 0.640579
O O3 0.640004 0.225583 0.898337
O O4 0.500000 0.287269 0.000000
O O5 0.378212 0.500000 0.895092
O O6 0.398248 0.337602 0.846126
O O7 0.324717 0.422376 0.827779
O O8 0.212054 0.404998 0.141261
O O9 0.909277 0.500000 0.224357
O O10 0.877016 0.605184 0.400875
O O11 0.066541 0.595435 0.054396
O O12 0.898102 0.277582 0.714014
O O13 0.051480 0.268594 0.631398
O O14 0.848608 0.306879 0.948769
O O15 0.666519 0.155656 0.362567
O O16 0.214613 0.870437 0.268788
O O17 0.500000 0.890463 0.500000
O O18 0.500000 0.377801 0.500000
O O19 0.401165 0.500000 0.581587
#
# Coordination Sequence:
#
# PCOD9201609 Si02
#       8
#     8   8   8   8   8   8   8   8
#     4  10  22  38  62  88 113 150 202 255 308 358
#     4  11  23  37  54  83 131 168 197 243 291 348
#     4  10  22  41  63  90 120 150 196 260 314 356
#     4  10  21  38  60  89 123 160 204 244 289 358
#     4  10  22  39  66  90 115 161 204 247 300 358
#     4  10  20  37  63  88 115 160 200 247 299 354
#     4  10  21  38  63  91 119 163 213 248 284 353
#     4  10  22  35  52  84 126 166 195 237 299 360
#
# _framework density 21.101009999999999
#
# number of rings (size 3 to 8) (size 9 to 14) (size 15 to 20)
#    0.000    1.875    1.250    1.875    3.500    4.000 
#    0.000    0.625    0.000    0.375    0.000    0.000 
#    0.000    0.000    0.000    0.000    0.000    0.000 
#
# Total GULP energy -178282.327208 kJ/mol
# GULP energy per Si atom -5571.322725 kJ/mol
# Density = 2.105298 g / cm^3
# Si number density = 21.101010 Si / 1000 Ang^3
#
#
#
# Elastic Constant Matrix: (Units=GPa)
#
#
# Indices 1 2 3 4 5 6 
#
# 1 48.7875 0.4997 15.9034 0.0000 1.5352 0.0000
# 2 0.4997 70.3759 28.5068 0.0000 -7.4700 0.0000
# 3 15.9034 28.5068 111.4309 0.0000 -11.5213 0.0000
# 4 0.0000 0.0000 0.0000 64.9704 0.0000 1.1156
# 5 1.5352 -7.4700 -11.5213 0.0000 45.0817 0.0000
# 6 0.0000 0.0000 0.0000 1.1156 0.0000 -5.2669
#
#
#
# Elastic Compliance Matrix: (Units=1/GPa)
#
#
# Indices 1 2 3 4 5 6 
#
# 1 0.021683 0.001122 -0.003532 0.000000 -0.001455 0.000000
# 2 0.001122 0.016028 -0.004098 0.000000 0.001570 0.000000
# 3 -0.003532 -0.004098 0.010753 0.000000 0.002189 0.000000
# 4 0.000000 0.000000 0.000000 0.015336 0.000000 0.003248
# 5 -0.001455 0.001570 0.002189 0.000000 0.023051 0.000000
# 6 0.000000 0.000000 0.000000 0.003248 0.000000 -0.189178
#
#
# Mechanical properties :
#
#
# Convention : Reuss Voigt Hill
#
# Bulk Modulus (GPa) = 28.21045 35.60160 31.90603
# Shear Modulus (GPa) = -64.51992 33.33600 -15.59196
#
# Velocity S-wave (km/s) = -5.53562 3.97902 -2.72126
# Velocity P-wave (km/s) = 5.24015 6.16593 2.29778
#
# Compressibility (1/GPa) = 0.03544786
#
# Stress axis : x y z
#
# Youngs Moduli (GPa) = 46.11970 62.39021 92.99667
#
# Poissons Ratio (x) = -0.07002 0.32848
# Poissons Ratio (y) = -0.05176 0.38112
# Poissons Ratio (z) = 0.16290 0.25569
#
# Static dielectric constant tensor:
#      x y z
#    x 1.817840 0.000000 -0.018890 
#    y 0.000000 1.818480 0.000000 
#    z -0.018890 0.000000 1.833130 
# 
# From -- ./inp_files/241449.got.cif
#   From: 2010.05.17/outbox.cif.g08.bks.cpg/sg12_121_cif.got.tgz:241449.got - 2010.06.03 13:09:07.
