data_PCOD9201854
_publ_section_title
;
Structure prediction by ZEFSAII (Michael W. Deem and Ramdas Pophale) SiO2 
 PCOD9201854
Probable space group: C 2/M
;
_chemical_formula_sum "Si O2"
_cell_formula_units_Z 32
_cell_length_a 20.001693
_cell_length_b 14.824850
_cell_length_c 12.151442
_cell_angle_alpha 90.000000
_cell_angle_beta 26.407638
_cell_angle_gamma 90.000000
_cell_volume 1602.526845
_symmetry_space_group_name_H-M "C 2/M"
_symmetry_group_IT_number 12
_symmetry_cell_setting 'monoclinic'
loop_
_space_group_symop_operation_xyz
x,y,z
-x,y,-z
-x,-y,-z
x,-y,z
1/2+x,1/2+y,z
1/2-x,1/2+y,-z
1/2-x,1/2-y,-z
1/2+x,1/2-y,z
loop_
_atom_site_type_symbol
_atom_site_label
_atom_site_fract_x
_atom_site_fract_y
_atom_site_fract_z
Si Si1 0.620339 0.500000 0.158439
Si Si2 0.776988 0.000000 0.746308
Si Si3 0.407091 0.650403 0.971740
Si Si4 0.040963 0.653112 0.063602
Si Si5 0.726785 0.650640 0.589969
O O1 0.443468 0.500000 0.451274
O O2 0.708048 0.500000 0.143657
O O3 0.652159 0.587739 0.037390
O O4 0.681044 0.913095 0.852759
O O5 0.575153 0.615645 0.755890
O O6 0.611381 0.893205 0.668955
O O7 0.423169 0.756538 0.920927
O O8 0.191093 0.851285 0.772098
O O9 0.000000 0.683544 0.000000
O O10 0.750000 0.750000 0.500000
#
# Coordination Sequence:
#
# PCOD9201854 Si02
#       5
#     4   4   8   8   8
#     4  11  26  44  59  89 126 176 212 247 303 381
#     4  11  27  43  61  86 130 172 214 249 306 375
#     4  10  20  37  65  91 130 156 205 253 319 370
#     4  11  20  38  66  95 121 159 206 264 317 364
#     4   9  17  34  60 100 122 149 197 262 318 364
#
# _framework density 19.968465999999999
#
# number of rings (size 3 to 8) (size 9 to 14) (size 15 to 20)
#    0.000    1.750    5.000    1.875    3.500    5.000 
#    0.000    2.500    0.000    0.000    0.000    0.000 
#    0.000    0.000    0.000    0.000    0.000    0.000 
#
# Total GULP energy -89251.504709 kJ/mol
# GULP energy per Si atom -5578.219044 kJ/mol
# Density = 1.992302 g / cm^3
# Si number density = 19.968466 Si / 1000 Ang^3
#
#
#
# Elastic Constant Matrix: (Units=GPa)
#
#
# Indices 1 2 3 4 5 6 
#
# 1 70.1784 30.2098 5.1205 0.0000 23.5486 0.0000
# 2 30.2098 103.4070 -6.0587 0.0000 6.9514 0.0000
# 3 5.1205 -6.0587 86.1271 0.0000 9.7432 0.0000
# 4 0.0000 0.0000 0.0000 38.1260 0.0000 -7.9949
# 5 23.5486 6.9514 9.7432 0.0000 30.4018 0.0000
# 6 0.0000 0.0000 0.0000 -7.9949 0.0000 29.9992
#
#
#
# Elastic Compliance Matrix: (Units=1/GPa)
#
#
# Indices 1 2 3 4 5 6 
#
# 1 0.021795 -0.005305 0.000107 0.000000 -0.015703 0.000000
# 2 -0.005305 0.011193 0.000962 0.000000 0.001242 0.000000
# 3 0.000107 0.000962 0.012147 0.000000 -0.004196 0.000000
# 4 0.000000 0.000000 0.000000 0.027781 0.000000 0.007404
# 5 -0.015703 0.001242 -0.004196 0.000000 0.046117 0.000000
# 6 0.000000 0.000000 0.000000 0.007404 0.000000 0.035307
#
#
# Mechanical properties :
#
#
# Convention : Reuss Voigt Hill
#
# Bulk Modulus (GPa) = 27.27484 35.36173 31.31828
# Shear Modulus (GPa) = 28.56614 35.06811 31.81713
#
# Velocity S-wave (km/s) = 3.78638 4.19522 3.99603
# Velocity P-wave (km/s) = 5.72749 6.41979 6.08350
#
# Compressibility (1/GPa) = 0.03666382
#
# Stress axis : x y z
#
# Youngs Moduli (GPa) = 45.88312 89.33881 82.32656
#
# Poissons Ratio (x) = 0.47396 -0.00885
# Poissons Ratio (y) = 0.24342 -0.07923
# Poissons Ratio (z) = -0.00493 -0.08598
#
# Static dielectric constant tensor:
#      x y z
#    x 1.659960 0.000000 -0.002460 
#    y 0.000000 1.740050 0.000000 
#    z -0.002460 0.000000 1.758380 
# 
# From -- ./inp_files/155036.got.cif
#   From: 2010.05.17/outbox.cif.g08.bks.cpg/sg12_78_cif.got.tgz:155036.got - 2010.06.03 13:09:07.
