data_PCOD9201167
_publ_section_title
;
Structure prediction by ZEFSAII (Michael W. Deem and Ramdas Pophale) SiO2 
 PCOD9201167
Probable space group: C 2/M
;
_chemical_formula_sum "Si O2"
_cell_formula_units_Z 44
_cell_length_a 14.681527
_cell_length_b 11.181810
_cell_length_c 26.979143
_cell_angle_alpha 90.000000
_cell_angle_beta 29.458633
_cell_angle_gamma 90.000000
_cell_volume 2178.189369
_symmetry_space_group_name_H-M "C 2/M"
_symmetry_group_IT_number 12
_symmetry_cell_setting 'monoclinic'
loop_
_space_group_symop_operation_xyz
x,y,z
-x,y,-z
-x,-y,-z
x,-y,z
1/2+x,1/2+y,z
1/2-x,1/2+y,-z
1/2-x,1/2-y,-z
1/2+x,1/2-y,z
loop_
_atom_site_type_symbol
_atom_site_label
_atom_site_fract_x
_atom_site_fract_y
_atom_site_fract_z
Si Si1 0.260363 0.208452 0.765849
Si Si2 0.786809 0.637153 0.303843
Si Si3 0.643339 0.366504 0.030936
Si Si4 0.797540 0.362992 0.853334
Si Si5 0.862903 0.370166 0.460411
Si Si6 0.500000 0.796728 0.500000
O O1 0.244884 0.323080 0.737768
O O2 0.277166 0.224821 0.816787
O O3 0.442605 0.140315 0.660816
O O4 0.066438 0.140180 0.850813
O O5 0.737529 0.500000 0.334194
O O6 0.658661 0.717065 0.399469
O O7 0.000915 0.652849 0.217388
O O8 0.721055 0.500000 0.005636
O O9 0.750000 0.250000 0.000000
O O10 0.653911 0.354399 0.966385
O O11 0.787337 0.500000 0.838612
O O12 0.775831 0.500000 0.489409
O O13 0.750000 0.250000 0.500000
O O14 0.909171 0.365692 0.496964
#
# Coordination Sequence:
#
# PCOD9201167 Si02
#       6
#     8   8   8   8   8   4
#     4  11  22  38  64  92 121 163 211 258 306 368
#     4  10  21  38  60  90 127 163 207 260 314 371
#     4  11  22  39  63  92 125 163 207 257 307 367
#     4  10  20  37  61  87 119 162 208 251 302 371
#     4  11  24  42  64  93 128 165 211 262 312 373
#     4  10  22  38  62  88 123 166 211 254 317 370
#
# _framework density 20.200263
#
# number of rings (size 3 to 8) (size 9 to 14) (size 15 to 20)
#    0.000    1.455    1.818    3.818    0.000    6.545 
#    0.000    0.909    0.000    2.182    0.000    0.000 
#    0.000    0.000    0.000    0.000    0.000    0.000 
#
# Total GULP energy -122784.102111 kJ/mol
# GULP energy per Si atom -5581.095550 kJ/mol
# Density = 2.015429 g / cm^3
# Si number density = 20.200263 Si / 1000 Ang^3
#
#
#
# Elastic Constant Matrix: (Units=GPa)
#
#
# Indices 1 2 3 4 5 6 
#
# 1 72.1832 44.6559 15.5480 0.0001 8.9548 0.0000
# 2 44.6559 128.9739 41.7408 -0.0001 -7.5091 -0.0001
# 3 15.5480 41.7408 110.8939 0.0013 5.6566 0.0003
# 4 0.0001 -0.0001 0.0013 11.4219 -0.0004 -13.3406
# 5 8.9548 -7.5091 5.6566 -0.0004 30.5686 0.0000
# 6 0.0000 -0.0001 0.0003 -13.3406 0.0000 13.5435
#
#
#
# Elastic Compliance Matrix: (Units=1/GPa)
#
#
# Indices 1 2 3 4 5 6 
#
# 1 0.019139 -0.007191 0.000403 0.000004 -0.007448 0.000004
# 2 -0.007191 0.011777 -0.003715 -0.000006 0.005687 -0.000006
# 3 0.000403 -0.003715 0.010511 0.000011 -0.002976 0.000010
# 4 0.000004 -0.000006 0.000011 -0.581785 -0.000012 -0.573071
# 5 -0.007448 0.005687 -0.002976 -0.000012 0.036843 -0.000012
# 6 0.000004 -0.000006 0.000010 -0.573071 -0.000012 -0.490651
#
#
# Mechanical properties :
#
#
# Convention : Reuss Voigt Hill
#
# Bulk Modulus (GPa) = 48.96620 57.32672 53.14646
# Shear Modulus (GPa) = -5.17409 25.11388 9.96990
#
# Velocity S-wave (km/s) = -1.60217 3.52979 2.22402
# Velocity P-wave (km/s) = 4.56841 6.71218 5.74124
#
# Compressibility (1/GPa) = 0.02042225
#
# Stress axis : x y z
#
# Youngs Moduli (GPa) = 52.24832 84.91444 95.13773
#
# Poissons Ratio (x) = 0.61061 -0.03835
# Poissons Ratio (y) = 0.37571 0.35340
# Poissons Ratio (z) = -0.02106 0.31542
#
# Static dielectric constant tensor:
#      x y z
#    x 1.735470 0.000000 -0.020070 
#    y 0.000000 1.715980 0.000000 
#    z -0.020070 0.000000 1.729980 
# 
# From -- ./inp_files/360692.got.cif
#   From: 2010.05.17/outbox.cif.g08.bks.cpg/sg12_181_cif.got.tgz:360692.got - 2010.06.03 13:09:07.
