data_PCOD9201353
_publ_section_title
;
Structure prediction by ZEFSAII (Michael W. Deem and Ramdas Pophale) SiO2 
 PCOD9201353
Probable space group: C 2/M
;
_chemical_formula_sum "Si O2"
_cell_formula_units_Z 64
_cell_length_a 18.715459
_cell_length_b 16.985229
_cell_length_c 21.225338
_cell_angle_alpha 90.000000
_cell_angle_beta 152.708455
_cell_angle_gamma 90.000000
_cell_volume 3093.736276
_symmetry_space_group_name_H-M "C 2/M"
_symmetry_group_IT_number 12
_symmetry_cell_setting 'monoclinic'
loop_
_space_group_symop_operation_xyz
x,y,z
-x,y,-z
-x,-y,-z
x,-y,z
1/2+x,1/2+y,z
1/2-x,1/2+y,-z
1/2-x,1/2-y,-z
1/2+x,1/2-y,z
loop_
_atom_site_type_symbol
_atom_site_label
_atom_site_fract_x
_atom_site_fract_y
_atom_site_fract_z
Si Si1 0.397075 0.412294 0.182218
Si Si2 0.289806 0.167061 0.067408
Si Si3 0.910248 0.380638 0.991727
Si Si4 0.849892 0.645486 0.620031
Si Si5 0.149104 0.202052 0.087226
Si Si6 0.795266 0.180420 0.612889
Si Si7 0.708039 0.084678 0.298581
Si Si8 0.816965 0.740691 0.346824
O O1 0.462063 0.500000 0.236352
O O2 0.536910 0.350624 0.280287
O O3 0.286030 0.399129 0.035252
O O4 0.271122 0.401144 0.140015
O O5 0.471974 0.158338 0.221696
O O6 0.218465 0.162699 0.080676
O O7 0.250000 0.250000 0.000000
O O8 0.025061 0.408764 0.136589
O O9 0.911211 0.286175 0.987324
O O10 0.000000 0.409874 0.000000
O O11 0.770332 0.728511 0.575450
O O12 0.822911 0.632278 0.524829
O O13 0.778116 0.587058 0.614951
O O14 0.265852 0.218794 0.236128
O O15 0.000000 0.160043 0.000000
O O16 0.771481 0.186585 0.669641
O O17 0.778592 0.166033 0.326849
O O18 0.767540 0.000000 0.321362
O O19 0.000000 0.729356 0.500000
#
# Coordination Sequence:
#
# PCOD9201353 Si02
#       8
#     8   8   8   8   8   8   8   8
#     4  12  25  39  62  95 129 166 211 264 324 381
#     4  12  20  36  64  89 121 164 217 269 313 370
#     4  11  21  38  59  88 128 169 206 244 298 380
#     4  10  20  37  62  86 116 167 217 258 304 362
#     4  11  20  36  61  91 117 160 211 260 314 364
#     4  10  22  41  62  88 124 161 215 275 309 364
#     4  11  22  37  57  90 133 169 203 250 308 381
#     4  11  23  41  64  92 124 163 217 263 315 378
#
# _framework density 20.686961
#
# number of rings (size 3 to 8) (size 9 to 14) (size 15 to 20)
#    0.000    1.000    6.250    1.875    0.000    3.750 
#    0.000    0.000    0.000    3.750    0.000    0.000 
#    0.000    0.000    0.000    0.000    0.000    0.000 
#
# Total GULP energy -178343.133361 kJ/mol
# GULP energy per Si atom -5573.222918 kJ/mol
# Density = 2.063988 g / cm^3
# Si number density = 20.686961 Si / 1000 Ang^3
#
#
#
# Elastic Constant Matrix: (Units=GPa)
#
#
# Indices 1 2 3 4 5 6 
#
# 1 125.6432 20.4932 24.0401 0.0057 -7.2759 0.0021
# 2 20.4932 38.4441 1.5718 0.0066 1.6920 0.0020
# 3 24.0401 1.5718 81.6876 0.0157 -5.8065 0.0025
# 4 0.0057 0.0066 0.0157 3.3944 0.0063 -1.9017
# 5 -7.2759 1.6920 -5.8065 0.0063 31.4283 0.0012
# 6 0.0021 0.0020 0.0025 -1.9017 0.0012 7.4159
#
#
#
# Elastic Compliance Matrix: (Units=1/GPa)
#
#
# Indices 1 2 3 4 5 6 
#
# 1 0.009367 -0.004977 -0.002521 0.000002 0.001971 0.000000
# 2 -0.004977 0.028748 0.000729 -0.000058 -0.002565 -0.000021
# 3 -0.002521 0.000729 0.013097 -0.000074 0.001797 -0.000023
# 4 0.000002 -0.000058 -0.000074 0.344024 -0.000082 0.088218
# 5 0.001971 -0.002565 0.001797 -0.000082 0.032745 -0.000027
# 6 0.000000 -0.000021 -0.000023 0.088218 -0.000027 0.157468
#
#
# Mechanical properties :
#
#
# Convention : Reuss Voigt Hill
#
# Bulk Modulus (GPa) = 26.54266 37.55390 32.04828
# Shear Modulus (GPa) = 8.17602 21.75905 14.96754
#
# Velocity S-wave (km/s) = 1.99019 3.24670 2.69276
# Velocity P-wave (km/s) = 4.25906 5.67870 5.01932
#
# Compressibility (1/GPa) = 0.03767519
#
# Stress axis : x y z
#
# Youngs Moduli (GPa) = 106.75442 34.78512 76.35127
#
# Poissons Ratio (x) = 0.17313 0.19247
# Poissons Ratio (y) = 0.53132 -0.05568
# Poissons Ratio (z) = 0.26911 -0.02537
#
# Static dielectric constant tensor:
#      x y z
#    x 1.836900 0.000000 0.004630 
#    y 0.000000 1.754710 0.000000 
#    z 0.004630 0.000000 1.786210 
# 
# From -- ./inp_files/317379.got.cif
#   From: 2010.05.17/outbox.cif.g08.bks.cpg/sg12_159_cif.got.tgz:317379.got - 2010.06.03 13:09:07.
