data_PCOD9201470
_publ_section_title
;
Structure prediction by ZEFSAII (Michael W. Deem and Ramdas Pophale) SiO2 
 PCOD9201470
Probable space group: C 2/M
;
_chemical_formula_sum "Si O2"
_cell_formula_units_Z 60
_cell_length_a 8.746926
_cell_length_b 25.949598
_cell_length_c 14.013910
_cell_angle_alpha 90.000000
_cell_angle_beta 73.352332
_cell_angle_gamma 90.000000
_cell_volume 3047.538861
_symmetry_space_group_name_H-M "C 2/M"
_symmetry_group_IT_number 12
_symmetry_cell_setting 'monoclinic'
loop_
_space_group_symop_operation_xyz
x,y,z
-x,y,-z
-x,-y,-z
x,-y,z
1/2+x,1/2+y,z
1/2-x,1/2+y,-z
1/2-x,1/2-y,-z
1/2+x,1/2-y,z
loop_
_atom_site_type_symbol
_atom_site_label
_atom_site_fract_x
_atom_site_fract_y
_atom_site_fract_z
Si Si1 0.811918 0.333473 0.033774
Si Si2 0.154852 0.421007 0.530442
Si Si3 0.844954 0.779452 0.093723
Si Si4 0.194431 0.500000 0.700704
Si Si5 0.908076 0.322037 0.336148
Si Si6 0.253722 0.393801 0.779847
Si Si7 0.263693 0.717308 0.317982
Si Si8 0.062151 0.130211 0.595971
O O1 0.775599 0.277797 0.089354
O O2 0.728805 0.375784 0.114056
O O3 0.760974 0.324203 0.933899
O O4 0.000000 0.342473 0.000000
O O5 0.184264 0.455734 0.616977
O O6 0.122191 0.363161 0.574956
O O7 0.312663 0.416931 0.437788
O O8 0.000000 0.437891 0.500000
O O9 0.865285 0.785515 0.201890
O O10 0.000000 0.780450 0.000000
O O11 0.207439 0.453133 0.776700
O O12 0.877621 0.355455 0.245603
O O13 0.783532 0.274912 0.354380
O O14 0.083616 0.298052 0.320817
O O15 0.415092 0.383602 0.690586
O O16 0.341093 0.677502 0.377124
O O17 0.000000 0.140379 0.500000
#
# Coordination Sequence:
#
# PCOD9201470 Si02
#       8
#     8   8   8   4   8   8   8   8
#     4  10  20  37  62  89 125 158 201 256 309 369
#     4  11  23  45  58  90 121 167 216 270 306 375
#     4  10  21  34  57  90 119 163 205 245 309 377
#     4  10  23  39  73  86 125 159 222 265 329 346
#     4  11  23  37  58  85 132 162 213 247 311 372
#     4  11  22  42  63  97 124 164 207 273 309 375
#     4  12  24  37  60  90 127 177 202 255 310 390
#     4  12  24  39  63  88 131 161 211 256 319 372
#
# _framework density 19.688018
#
# number of rings (size 3 to 8) (size 9 to 14) (size 15 to 20)
#    0.000    1.067    5.333    2.600    3.733    2.133 
#    0.000    0.333    0.000    0.000    0.000    1.400 
#    0.000    0.000    0.000    0.000    0.000    0.000 
#
# Total GULP energy -167035.227338 kJ/mol
# GULP energy per Si atom -5567.840911 kJ/mol
# Density = 1.964321 g / cm^3
# Si number density = 19.688018 Si / 1000 Ang^3
#
#
#
# Elastic Constant Matrix: (Units=GPa)
#
#
# Indices 1 2 3 4 5 6 
#
# 1 75.5946 37.6715 14.5950 0.0000 -11.8143 0.0000
# 2 37.6715 128.7188 25.4917 0.0000 4.1716 0.0000
# 3 14.5950 25.4917 84.7835 0.0000 -1.7973 0.0000
# 4 0.0000 0.0000 0.0000 27.3814 0.0000 14.1614
# 5 -11.8143 4.1716 -1.7973 0.0000 26.3616 0.0000
# 6 0.0000 0.0000 0.0000 14.1614 0.0000 4.1638
#
#
#
# Elastic Compliance Matrix: (Units=1/GPa)
#
#
# Indices 1 2 3 4 5 6 
#
# 1 0.017342 -0.005099 -0.001272 0.000000 0.008492 0.000000
# 2 -0.005099 0.009818 -0.002159 0.000000 -0.003986 0.000000
# 3 -0.001272 -0.002159 0.012676 0.000000 0.000636 0.000000
# 4 0.000000 0.000000 0.000000 -0.048117 0.000000 0.163650
# 5 0.008492 -0.003986 0.000636 0.000000 0.042414 0.000000
# 6 0.000000 0.000000 0.000000 0.163650 0.000000 -0.316421
#
#
# Mechanical properties :
#
#
# Convention : Reuss Voigt Hill
#
# Bulk Modulus (GPa) = 43.90424 49.40148 46.65286
# Shear Modulus (GPa) = -19.40722 25.67059 3.13169
#
# Velocity S-wave (km/s) = -3.14305 3.61483 1.26258
# Velocity P-wave (km/s) = 3.02931 6.52451 5.08655
#
# Compressibility (1/GPa) = 0.02277684
#
# Stress axis : x y z
#
# Youngs Moduli (GPa) = 57.66293 101.85624 78.88749
#
# Poissons Ratio (x) = 0.51933 0.10037
# Poissons Ratio (y) = 0.29401 0.17029
# Poissons Ratio (z) = 0.07337 0.21987
#
# Static dielectric constant tensor:
#      x y z
#    x 1.774950 0.000000 -0.005090 
#    y 0.000000 1.705250 0.000000 
#    z -0.005090 0.000000 1.705950 
# 
# From -- ./inp_files/198843.got.cif
#   From: 2010.05.17/outbox.cif.g08.bks.cpg/sg12_100_cif.got.tgz:198843.got - 2010.06.03 13:09:07.
