data_PCOD9201921
_publ_section_title
;
Structure prediction by ZEFSAII (Michael W. Deem and Ramdas Pophale) SiO2 
 PCOD9201921
Probable space group: C 2/M
;
_chemical_formula_sum "Si O2"
_cell_formula_units_Z 48
_cell_length_a 17.352518
_cell_length_b 21.680720
_cell_length_c 7.610997
_cell_angle_alpha 90.000000
_cell_angle_beta 126.841585
_cell_angle_gamma 90.000000
_cell_volume 2291.546180
_symmetry_space_group_name_H-M "C 2/M"
_symmetry_group_IT_number 12
_symmetry_cell_setting 'monoclinic'
loop_
_space_group_symop_operation_xyz
x,y,z
-x,y,-z
-x,-y,-z
x,-y,z
1/2+x,1/2+y,z
1/2-x,1/2+y,-z
1/2-x,1/2-y,-z
1/2+x,1/2-y,z
loop_
_atom_site_type_symbol
_atom_site_label
_atom_site_fract_x
_atom_site_fract_y
_atom_site_fract_z
Si Si1 0.682788 0.569742 0.454298
Si Si2 0.749530 0.194681 0.638110
Si Si3 0.560831 0.265629 0.908149
Si Si4 0.520973 0.397939 0.730194
Si Si5 0.401060 0.156270 0.305492
Si Si6 0.730648 0.429539 0.935046
O O1 0.713731 0.500000 0.446935
O O2 0.727723 0.627802 0.414688
O O3 0.566524 0.573891 0.279250
O O4 0.708016 0.579178 0.696247
O O5 0.750000 0.250000 0.500000
O O6 0.833125 0.212351 0.888939
O O7 0.648138 0.190408 0.597214
O O8 0.500000 0.252542 0.000000
O O9 0.514409 0.324551 0.748701
O O10 0.570764 0.207247 0.798502
O O11 0.500000 0.414949 0.500000
O O12 0.631305 0.417927 0.906172
O O13 0.500000 0.124087 0.500000
O O14 0.317147 0.113429 0.114655
O O15 0.758577 0.500000 0.998992
#
# Coordination Sequence:
#
# PCOD9201921 Si02
#       6
#     8   8   8   8   8   8
#     4  10  22  42  68 101 136 169 208 268 340 406
#     4  12  25  41  65  96 133 176 219 271 326 387
#     4  12  23  41  64  99 129 163 213 272 335 391
#     4  10  20  37  66  99 132 166 202 259 332 404
#     4  12  27  43  64  92 129 177 224 276 317 372
#     4  10  22  42  66  94 131 175 220 264 325 392
#
# _framework density 20.946556000000001
#
# number of rings (size 3 to 8) (size 9 to 14) (size 15 to 20)
#    0.000    1.000    3.333    3.500    4.667    3.000 
#    0.000    0.833    0.000    2.500    0.000    0.000 
#    0.000    0.000    0.000    0.000    0.000    0.000 
#
# Total GULP energy -134230.890468 kJ/mol
# GULP energy per Si atom -5592.953769 kJ/mol
# Density = 2.089888 g / cm^3
# Si number density = 20.946556 Si / 1000 Ang^3
#
#
#
# Elastic Constant Matrix: (Units=GPa)
#
#
# Indices 1 2 3 4 5 6 
#
# 1 114.3849 30.7209 24.5996 0.0000 17.2036 0.0000
# 2 30.7209 114.6442 35.4468 0.0000 8.9142 0.0000
# 3 24.5996 35.4468 82.3398 0.0000 26.6169 0.0000
# 4 0.0000 0.0000 0.0000 30.5377 0.0000 -3.1466
# 5 17.2036 8.9142 26.6169 0.0000 31.3164 0.0000
# 6 0.0000 0.0000 0.0000 -3.1466 0.0000 24.8562
#
#
#
# Elastic Compliance Matrix: (Units=1/GPa)
#
#
# Indices 1 2 3 4 5 6 
#
# 1 0.010127 -0.002163 -0.000683 0.000000 -0.004367 0.000000
# 2 -0.002163 0.010553 -0.004564 0.000000 0.002063 0.000000
# 3 -0.000683 -0.004564 0.018990 0.000000 -0.014466 0.000000
# 4 0.000000 0.000000 0.000000 0.033179 0.000000 0.004200
# 5 -0.004367 0.002063 -0.014466 0.000000 0.046039 0.000000
# 6 0.000000 0.000000 0.000000 0.004200 0.000000 0.040763
#
#
# Mechanical properties :
#
#
# Convention : Reuss Voigt Hill
#
# Bulk Modulus (GPa) = 40.24004 54.76706 47.50355
# Shear Modulus (GPa) = 27.35931 32.04883 29.70407
#
# Velocity S-wave (km/s) = 3.61799 3.91580 3.76984
# Velocity P-wave (km/s) = 6.05852 6.82990 6.45574
#
# Compressibility (1/GPa) = 0.02485087
#
# Stress axis : x y z
#
# Youngs Moduli (GPa) = 98.74586 94.76082 52.66061
#
# Poissons Ratio (x) = 0.20498 0.03594
# Poissons Ratio (y) = 0.21360 0.24033
# Poissons Ratio (z) = 0.06740 0.43246
#
# Static dielectric constant tensor:
#      x y z
#    x 1.749180 0.000000 -0.012270 
#    y 0.000000 1.736360 0.000000 
#    z -0.012270 0.000000 1.787730 
# 
# From -- ./inp_files/63366.got.cif
#   From: 2010.05.17/outbox.cif.g08.bks.cpg/sg12_32_cif.got.tgz:63366.got - 2010.06.03 13:09:07.
