data_PCOD9201979
_publ_section_title
;
Structure prediction by ZEFSAII (Michael W. Deem and Ramdas Pophale) SiO2 
 PCOD9201979
Probable space group: C 2/M
;
_chemical_formula_sum "Si O2"
_cell_formula_units_Z 40
_cell_length_a 5.362550
_cell_length_b 19.166040
_cell_length_c 16.572170
_cell_angle_alpha 90.000000
_cell_angle_beta 103.610847
_cell_angle_gamma 90.000000
_cell_volume 1655.434740
_symmetry_space_group_name_H-M "C 2/M"
_symmetry_group_IT_number 12
_symmetry_cell_setting 'monoclinic'
loop_
_space_group_symop_operation_xyz
x,y,z
-x,y,-z
-x,-y,-z
x,-y,z
1/2+x,1/2+y,z
1/2-x,1/2+y,-z
1/2-x,1/2-y,-z
1/2+x,1/2-y,z
loop_
_atom_site_type_symbol
_atom_site_label
_atom_site_fract_x
_atom_site_fract_y
_atom_site_fract_z
Si Si1 0.411634 0.083616 0.239671
Si Si2 0.157841 0.577630 0.093909
Si Si3 0.161724 0.220497 0.406883
Si Si4 0.638278 0.721748 0.904702
Si Si5 0.011869 0.083407 0.664009
O O1 0.465380 0.100670 0.150432
O O2 0.155906 0.103208 0.268958
O O3 0.686508 0.099777 0.302763
O O4 0.398579 0.000000 0.239242
O O5 0.262837 0.500000 0.121183
O O6 0.359700 0.638529 0.094890
O O7 0.000000 0.573129 0.000000
O O8 0.250000 0.250000 0.500000
O O9 0.394836 0.241404 0.366338
O O10 0.108659 0.137973 0.407871
O O11 0.362747 0.751595 0.864093
O O12 0.750000 0.750000 0.000000
O O13 0.983845 0.000000 0.646150
#
# Coordination Sequence:
#
# PCOD9201979 Si02
#       5
#     8   8   8   8   8
#     4   9  20  37  59  89 119 157 210 259 304 362
#     4  10  20  38  62  87 115 157 210 266 318 362
#     4  10  21  39  63  93 131 162 191 249 298 351
#     4  10  20  38  55  73 109 147 180 243 309 356
#     4  10  20  40  64  86 122 165 204 246 297 365
#
# _framework density 24.162835000000001
#
# number of rings (size 3 to 8) (size 9 to 14) (size 15 to 20)
#    0.000    2.200    2.000    1.200    0.000    1.600 
#    0.000   15.000    0.000    0.000    0.000    0.000 
#    0.000    0.000    0.000    0.000    0.000    0.000 
#
# Total GULP energy -111643.864689 kJ/mol
# GULP energy per Si atom -5582.193234 kJ/mol
# Density = 2.410784 g / cm^3
# Si number density = 24.162835 Si / 1000 Ang^3
#
#
#
# Elastic Constant Matrix: (Units=GPa)
#
#
# Indices 1 2 3 4 5 6 
#
# 1 152.4791 36.1766 -5.0177 0.0000 1.8882 0.0000
# 2 36.1766 153.9844 24.0119 0.0000 6.7219 0.0000
# 3 -5.0177 24.0119 58.4341 0.0000 2.4006 0.0000
# 4 0.0000 0.0000 0.0000 -13.2134 0.0000 5.1521
# 5 1.8882 6.7219 2.4006 0.0000 16.3911 0.0000
# 6 0.0000 0.0000 0.0000 5.1521 0.0000 25.4437
#
#
#
# Elastic Compliance Matrix: (Units=1/GPa)
#
#
# Indices 1 2 3 4 5 6 
#
# 1 0.007048 -0.001860 0.001380 0.000000 -0.000251 0.000000
# 2 -0.001860 0.007528 -0.003154 0.000000 -0.002411 0.000000
# 3 0.001380 -0.003154 0.018593 0.000000 -0.001589 0.000000
# 4 0.000000 0.000000 0.000000 -0.070143 0.000000 0.014203
# 5 -0.000251 -0.002411 -0.001589 0.000000 0.062259 0.000000
# 6 0.000000 0.000000 0.000000 0.014203 0.000000 0.036426
#
#
# Mechanical properties :
#
#
# Convention : Reuss Voigt Hill
#
# Bulk Modulus (GPa) = 38.60892 52.80436 45.70664
# Shear Modulus (GPa) = 64.42111 26.37275 45.39693
#
# Velocity S-wave (km/s) = 5.16905 3.30731 4.33921
# Velocity P-wave (km/s) = 7.18602 6.04031 6.63793
#
# Compressibility (1/GPa) = 0.02590075
#
# Stress axis : x y z
#
# Youngs Moduli (GPa) = 141.88199 132.83256 53.78318
#
# Poissons Ratio (x) = 0.24708 -0.07421
# Poissons Ratio (y) = 0.26391 0.16964
# Poissons Ratio (z) = -0.19578 0.41898
#
# Static dielectric constant tensor:
#      x y z
#    x 1.979950 0.000000 -0.031640 
#    y 0.000000 1.971340 0.000000 
#    z -0.031640 0.000000 1.915120 
# 
# From -- ./inp_files/252577.got.cif
#   From: 2010.05.17/outbox.cif.g08.bks.cpg/sg12_127_cif.got.tgz:252577.got - 2010.06.03 13:09:07.
