data_PCOD9201552
_publ_section_title
;
Structure prediction by ZEFSAII (Michael W. Deem and Ramdas Pophale) SiO2 
 PCOD9201552
Probable space group: C 2/M
;
_chemical_formula_sum "Si O2"
_cell_formula_units_Z 48
_cell_length_a 14.246792
_cell_length_b 18.959979
_cell_length_c 11.921038
_cell_angle_alpha 90.000000
_cell_angle_beta 51.027876
_cell_angle_gamma 90.000000
_cell_volume 2503.471329
_symmetry_space_group_name_H-M "C 2/M"
_symmetry_group_IT_number 12
_symmetry_cell_setting 'monoclinic'
loop_
_space_group_symop_operation_xyz
x,y,z
-x,y,-z
-x,-y,-z
x,-y,z
1/2+x,1/2+y,z
1/2-x,1/2+y,-z
1/2-x,1/2-y,-z
1/2+x,1/2-y,z
loop_
_atom_site_type_symbol
_atom_site_label
_atom_site_fract_x
_atom_site_fract_y
_atom_site_fract_z
Si Si1 0.766236 0.693656 0.829890
Si Si2 0.524296 0.580480 0.608733
Si Si3 0.424637 0.303593 0.843861
Si Si4 0.801125 0.420762 0.364231
Si Si5 0.685658 0.763001 0.668837
Si Si6 0.533403 0.081744 0.350223
O O1 0.831175 0.760182 0.838274
O O2 0.744183 0.712508 0.717431
O O3 0.857697 0.628918 0.775653
O O4 0.641168 0.681805 0.989286
O O5 0.500000 0.607626 0.500000
O O6 0.480216 0.500000 0.643964
O O7 0.460983 0.626954 0.749049
O O8 0.668434 0.580226 0.519329
O O9 0.545645 0.257677 0.765106
O O10 0.810114 0.500000 0.303207
O O11 0.804314 0.345053 0.299855
O O12 0.912936 0.415258 0.365641
O O13 0.750000 0.750000 0.500000
O O14 0.500000 0.106714 0.500000
O O15 0.570636 0.000000 0.329326
#
# Coordination Sequence:
#
# PCOD9201552 Si02
#       6
#     8   8   8   8   8   8
#     4  11  25  40  59  90 130 161 208 260 320 376
#     4  10  21  38  63  94 124 160 208 260 316 380
#     4  11  24  40  59  91 124 167 203 262 320 379
#     4  10  20  37  62  92 120 152 208 265 307 360
#     4  12  22  38  66  93 119 166 211 258 309 378
#     4  10  21  38  62  90 120 160 210 256 306 373
#
# _framework density 19.173376999999999
#
# number of rings (size 3 to 8) (size 9 to 14) (size 15 to 20)
#    0.000    1.333    3.333    2.500    0.000    0.667 
#    0.000    0.000    0.000    5.000    0.000    0.000 
#    0.000    0.000    0.000    0.000    0.000    0.000 
#
# Total GULP energy -133922.336533 kJ/mol
# GULP energy per Si atom -5580.097356 kJ/mol
# Density = 1.912974 g / cm^3
# Si number density = 19.173377 Si / 1000 Ang^3
#
#
#
# Elastic Constant Matrix: (Units=GPa)
#
#
# Indices 1 2 3 4 5 6 
#
# 1 73.4867 17.3554 48.2968 0.0000 -7.6451 0.0000
# 2 17.3554 93.9816 49.6272 0.0000 -5.7388 0.0000
# 3 48.2968 49.6272 124.2726 0.0000 -12.0979 0.0000
# 4 0.0000 0.0000 0.0000 12.8391 0.0000 -1.4194
# 5 -7.6451 -5.7388 -12.0979 0.0000 26.0684 0.0000
# 6 0.0000 0.0000 0.0000 -1.4194 0.0000 28.6397
#
#
#
# Elastic Compliance Matrix: (Units=1/GPa)
#
#
# Indices 1 2 3 4 5 6 
#
# 1 0.018412 0.000506 -0.007144 0.000000 0.002196 0.000000
# 2 0.000506 0.013504 -0.005536 0.000000 0.000552 0.000000
# 3 -0.007144 -0.005536 0.013313 0.000000 0.002864 0.000000
# 4 0.000000 0.000000 0.000000 0.078316 0.000000 0.003882
# 5 0.002196 0.000552 0.002864 0.000000 0.040456 0.000000
# 6 0.000000 0.000000 0.000000 0.003882 0.000000 0.035109
#
#
# Mechanical properties :
#
#
# Convention : Reuss Voigt Hill
#
# Bulk Modulus (GPa) = 47.88852 58.03330 52.96091
# Shear Modulus (GPa) = 21.69990 25.27353 23.48671
#
# Velocity S-wave (km/s) = 3.36783 3.63458 3.50375
# Velocity P-wave (km/s) = 6.33671 6.92437 6.63705
#
# Compressibility (1/GPa) = 0.02088183
#
# Stress axis : x y z
#
# Youngs Moduli (GPa) = 54.31266 74.05388 75.11627
#
# Poissons Ratio (x) = -0.03750 0.53663
# Poissons Ratio (y) = -0.02750 0.41581
# Poissons Ratio (z) = 0.38801 0.40993
#
# Static dielectric constant tensor:
#      x y z
#    x 1.677010 0.000000 0.011110 
#    y 0.000000 1.693420 0.000000 
#    z 0.011110 0.000000 1.648260 
# 
# From -- ./inp_files/147921.got.cif
#   From: 2010.05.17/outbox.cif.g08.bks.cpg/sg12_74_cif.got.tgz:147921.got - 2010.06.03 13:09:07.
