data_PCOD9201934
_publ_section_title
;
Structure prediction by ZEFSAII (Michael W. Deem and Ramdas Pophale) SiO2 
 PCOD9201934
Probable space group: C 2/M
;
_chemical_formula_sum "Si O2"
_cell_formula_units_Z 44
_cell_length_a 8.833716
_cell_length_b 24.183307
_cell_length_c 10.932856
_cell_angle_alpha 90.000000
_cell_angle_beta 113.836635
_cell_angle_gamma 90.000000
_cell_volume 2136.348593
_symmetry_space_group_name_H-M "C 2/M"
_symmetry_group_IT_number 12
_symmetry_cell_setting 'monoclinic'
loop_
_space_group_symop_operation_xyz
x,y,z
-x,y,-z
-x,-y,-z
x,-y,z
1/2+x,1/2+y,z
1/2-x,1/2+y,-z
1/2-x,1/2-y,-z
1/2+x,1/2-y,z
loop_
_atom_site_type_symbol
_atom_site_label
_atom_site_fract_x
_atom_site_fract_y
_atom_site_fract_z
Si Si1 0.000000 0.315303 0.000000
Si Si2 0.378977 0.117360 0.194958
Si Si3 0.324252 0.314733 0.702835
Si Si4 0.801781 0.000000 0.418576
Si Si5 0.186443 0.792518 0.749940
Si Si6 0.715708 0.875404 0.425220
Si Si7 0.997564 0.500000 0.146197
O O1 0.841294 0.285485 0.891827
O O2 0.073347 0.351478 0.913527
O O3 0.214691 0.142081 0.201115
O O4 0.520249 0.131115 0.341365
O O5 0.403529 0.053340 0.169756
O O6 0.204082 0.261876 0.673682
O O7 0.513610 0.295146 0.762354
O O8 0.288787 0.343656 0.562941
O O9 0.749727 0.940426 0.454166
O O10 0.000000 0.000000 0.500000
O O11 0.689540 0.000000 0.256670
O O12 0.208427 0.847576 0.673604
O O13 0.000000 0.500000 0.000000
#
# Coordination Sequence:
#
# PCOD9201934 Si02
#       7
#     4   8   8   4   8   8   4
#     4  10  22  43  64  90 122 165 224 254 330 382
#     4  10  22  39  66  94 126 168 209 268 316 385
#     4  12  24  40  62  94 130 166 219 266 325 381
#     4  10  20  37  67  97 132 169 212 267 326 386
#     4  11  24  40  65  90 129 175 212 269 317 389
#     4  10  22  41  63  97 129 169 212 262 325 382
#     4  10  20  41  69  98 128 176 219 263 331 392
#
# _framework density 20.595890000000001
#
# number of rings (size 3 to 8) (size 9 to 14) (size 15 to 20)
#    0.000    1.455    0.909    4.909    0.000    5.818 
#    0.000    3.636    0.000    1.091    0.000    0.000 
#    0.000    0.000    0.000    0.000    0.000    0.000 
#
# Total GULP energy -122805.214836 kJ/mol
# GULP energy per Si atom -5582.055220 kJ/mol
# Density = 2.054901 g / cm^3
# Si number density = 20.595890 Si / 1000 Ang^3
#
#
#
# Elastic Constant Matrix: (Units=GPa)
#
#
# Indices 1 2 3 4 5 6 
#
# 1 140.6639 48.0722 39.3500 0.0000 -0.7023 0.0000
# 2 48.0722 101.0961 26.6115 0.0000 12.0895 0.0000
# 3 39.3500 26.6115 94.4909 0.0000 7.2993 0.0000
# 4 0.0000 0.0000 0.0000 25.2922 0.0000 -3.6132
# 5 -0.7023 12.0895 7.2993 0.0000 13.4780 0.0000
# 6 0.0000 0.0000 0.0000 -3.6132 0.0000 9.2915
#
#
#
# Elastic Compliance Matrix: (Units=1/GPa)
#
#
# Indices 1 2 3 4 5 6 
#
# 1 0.009556 -0.004444 -0.003209 0.000000 0.006222 0.000000
# 2 -0.004444 0.013720 -0.001091 0.000000 -0.011948 0.000000
# 3 -0.003209 -0.001091 0.012695 0.000000 -0.006064 0.000000
# 4 0.000000 0.000000 0.000000 0.041864 0.000000 0.016280
# 5 0.006222 -0.011948 -0.006064 0.000000 0.088520 0.000000
# 6 0.000000 0.000000 0.000000 0.016280 0.000000 0.113956
#
#
# Mechanical properties :
#
#
# Convention : Reuss Voigt Hill
#
# Bulk Modulus (GPa) = 54.09596 62.70203 58.39900
# Shear Modulus (GPa) = 16.44954 24.42682 20.43818
#
# Velocity S-wave (km/s) = 2.82916 3.44758 3.15356
# Velocity P-wave (km/s) = 6.08232 6.80865 6.45571
#
# Compressibility (1/GPa) = 0.01848567
#
# Stress axis : x y z
#
# Youngs Moduli (GPa) = 104.64124 72.88437 78.77147
#
# Poissons Ratio (x) = 0.32386 0.25277
# Poissons Ratio (y) = 0.46497 0.08591
# Poissons Ratio (z) = 0.33578 0.07949
#
# Static dielectric constant tensor:
#      x y z
#    x 1.747030 0.000000 0.008620 
#    y 0.000000 1.753790 0.000000 
#    z 0.008620 0.000000 1.757470 
# 
# From -- ./inp_files/122136.got.cif
#   From: 2010.05.17/outbox.cif.g08.bks.cpg/sg12_62_cif.got.tgz:122136.got - 2010.06.03 13:09:07.
