data_PCOD9201107
_publ_section_title
;
Structure prediction by ZEFSAII (Michael W. Deem and Ramdas Pophale) SiO2 
 PCOD9201107
Probable space group: C 2/M
;
_chemical_formula_sum "Si O2"
_cell_formula_units_Z 64
_cell_length_a 16.652300
_cell_length_b 8.582703
_cell_length_c 33.801666
_cell_angle_alpha 90.000000
_cell_angle_beta 41.495966
_cell_angle_gamma 90.000000
_cell_volume 3200.858124
_symmetry_space_group_name_H-M "C 2/M"
_symmetry_group_IT_number 12
_symmetry_cell_setting 'monoclinic'
loop_
_space_group_symop_operation_xyz
x,y,z
-x,y,-z
-x,-y,-z
x,-y,z
1/2+x,1/2+y,z
1/2-x,1/2+y,-z
1/2-x,1/2-y,-z
1/2+x,1/2-y,z
loop_
_atom_site_type_symbol
_atom_site_label
_atom_site_fract_x
_atom_site_fract_y
_atom_site_fract_z
Si Si1 0.731780 0.814837 0.623425
Si Si2 0.367074 0.310043 0.862154
Si Si3 0.536004 0.686360 0.868121
Si Si4 0.340349 0.685788 0.499501
Si Si5 0.482853 0.683923 0.738760
Si Si6 0.601410 0.812006 0.930676
Si Si7 0.698044 0.813205 0.254313
Si Si8 0.594080 0.815428 0.376758
O O1 0.794385 0.761775 0.559553
O O2 0.590292 0.775843 0.677733
O O3 0.794785 0.726760 0.636119
O O4 0.750360 0.000000 0.620492
O O5 0.363358 0.500000 0.864742
O O6 0.421736 0.257026 0.884084
O O7 0.459887 0.268839 0.792567
O O8 0.233376 0.257056 0.897802
O O9 0.523968 0.500000 0.877056
O O10 0.561354 0.754539 0.902126
O O11 0.658576 0.715399 0.797674
O O12 0.334914 0.500000 0.501409
O O13 0.250000 0.750000 0.500000
O O14 0.474953 0.737790 0.438768
O O15 0.508929 0.500000 0.727803
O O16 0.360293 0.721857 0.760500
O O17 0.606775 0.000000 0.927056
O O18 0.500000 0.766360 0.000000
O O19 0.629014 0.764881 0.319652
O O20 0.681319 0.000000 0.255086
O O21 0.574496 0.000000 0.383014
#
# Coordination Sequence:
#
# PCOD9201107 Si02
#       8
#     8   8   8   8   8   8   8   8
#     4  11  24  40  57  82 117 151 190 244 300 353
#     4   9  19  37  59  86 121 160 198 244 303 358
#     4  10  20  37  61  85 118 160 200 243 296 358
#     4  11  24  41  59  81 112 151 193 242 301 360
#     4  11  21  36  61  87 115 154 200 242 294 362
#     4  10  21  39  61  87 123 161 199 247 299 351
#     4  10  21  37  57  85 119 151 190 245 303 350
#     4  11  23  39  60  85 114 151 196 243 296 361
#
# _framework density 19.994637999999998
#
# number of rings (size 3 to 8) (size 9 to 14) (size 15 to 20)
#    0.000    1.625    1.250    3.375    0.000   10.250 
#    0.000    3.125    0.000    0.000    0.000    0.000 
#    0.000    0.000    0.000    0.000    0.000    0.000 
#
# Total GULP energy -178750.143093 kJ/mol
# GULP energy per Si atom -5585.941972 kJ/mol
# Density = 1.994913 g / cm^3
# Si number density = 19.994638 Si / 1000 Ang^3
#
#
#
# Elastic Constant Matrix: (Units=GPa)
#
#
# Indices 1 2 3 4 5 6 
#
# 1 122.7752 10.0545 42.3344 0.0022 15.3428 0.0026
# 2 10.0545 6.9193 18.3026 0.0045 1.6305 0.0026
# 3 42.3344 18.3026 113.0281 0.0009 6.5989 0.0012
# 4 0.0022 0.0045 0.0009 14.5199 -0.0002 1.7699
# 5 15.3428 1.6305 6.5989 -0.0002 21.9377 0.0000
# 6 0.0026 0.0026 0.0012 1.7699 0.0000 31.4762
#
#
#
# Elastic Compliance Matrix: (Units=1/GPa)
#
#
# Indices 1 2 3 4 5 6 
#
# 1 0.010293 -0.007480 -0.002297 0.000001 -0.005952 0.000000
# 2 -0.007480 0.259185 -0.039034 -0.000075 -0.002291 -0.000015
# 3 -0.002297 -0.039034 0.016047 0.000011 -0.000320 0.000002
# 4 0.000001 -0.000075 0.000011 0.069346 0.000002 -0.003899
# 5 -0.005952 -0.002291 -0.000320 0.000002 0.050013 0.000001
# 6 0.000000 -0.000015 0.000002 -0.003899 0.000001 0.031989
#
#
# Mechanical properties :
#
#
# Convention : Reuss Voigt Hill
#
# Bulk Modulus (GPa) = 5.32189 42.67840 24.00014
# Shear Modulus (GPa) = 8.37340 25.05551 16.71446
#
# Velocity S-wave (km/s) = 2.04864 3.54377 2.89441
# Velocity P-wave (km/s) = 2.87460 6.17541 4.81659
#
# Compressibility (1/GPa) = 0.18790323
#
# Stress axis : x y z
#
# Youngs Moduli (GPa) = 97.15129 3.85826 62.31681
#
# Poissons Ratio (x) = 0.02886 0.14312
# Poissons Ratio (y) = 0.72667 2.43250
# Poissons Ratio (z) = 0.22312 0.15060
#
# Static dielectric constant tensor:
#      x y z
#    x 1.635230 0.000000 0.066780 
#    y 0.000000 1.678550 0.000000 
#    z 0.066780 0.000000 1.634930 
# 
# From -- ./inp_files/375366.got.cif
#   From: 2010.05.17/outbox.cif.g08.bks.cpg/sg12_188_cif.got.tgz:375366.got - 2010.06.03 13:09:07.
