data_PCOD9201233
_publ_section_title
;
Structure prediction by ZEFSAII (Michael W. Deem and Ramdas Pophale) SiO2 
 PCOD9201233
Probable space group: C 2/M
;
_chemical_formula_sum "Si O2"
_cell_formula_units_Z 48
_cell_length_a 24.149945
_cell_length_b 7.935985
_cell_length_c 11.890357
_cell_angle_alpha 90.000000
_cell_angle_beta 110.034125
_cell_angle_gamma 90.000000
_cell_volume 2140.934901
_symmetry_space_group_name_H-M "C 2/M"
_symmetry_group_IT_number 12
_symmetry_cell_setting 'monoclinic'
loop_
_space_group_symop_operation_xyz
x,y,z
-x,y,-z
-x,-y,-z
x,-y,z
1/2+x,1/2+y,z
1/2-x,1/2+y,-z
1/2-x,1/2-y,-z
1/2+x,1/2-y,z
loop_
_atom_site_type_symbol
_atom_site_label
_atom_site_fract_x
_atom_site_fract_y
_atom_site_fract_z
Si Si1 0.871822 0.292945 0.639870
Si Si2 0.921996 0.188176 0.192274
Si Si3 0.763073 0.702972 0.700007
Si Si4 0.809575 0.700344 0.977063
Si Si5 0.026252 0.307663 0.132002
Si Si6 0.871833 0.303234 0.391523
O O1 0.873022 0.500000 0.640038
O O2 0.805625 0.243517 0.628104
O O3 0.889045 0.237323 0.526920
O O4 0.917340 0.232985 0.766208
O O5 0.973583 0.308116 0.185392
O O6 0.900905 0.216472 0.304740
O O7 0.945111 0.000000 0.195243
O O8 0.865123 0.213241 0.073558
O O9 0.754750 0.500000 0.689929
O O10 0.798615 0.740872 0.839324
O O11 0.699042 0.784344 0.661931
O O12 0.818470 0.500000 0.993484
O O13 0.750000 0.750000 0.000000
O O14 0.043511 0.500000 0.113150
O O15 0.000000 0.228374 0.000000
O O16 0.886974 0.500000 0.394722
#
# Coordination Sequence:
#
# PCOD9201233 Si02
#       6
#     8   8   8   8   8   8
#     4   9  20  38  61  89 118 155 201 245 298 364
#     4  12  25  40  59  87 124 161 201 250 298 353
#     4  10  20  37  61  89 122 155 194 246 301 361
#     4  11  21  35  59  89 121 155 195 243 297 355
#     4  10  21  42  69  91 115 153 199 248 303 364
#     4  11  22  37  59  87 121 159 201 247 297 358
#
# _framework density 22.420112
#
# number of rings (size 3 to 8) (size 9 to 14) (size 15 to 20)
#    0.000    1.500    1.667    4.000    0.000    4.333 
#    0.000    6.667    0.000    0.000    0.000    0.000 
#    0.000    0.000    0.000    0.000    0.000    0.000 
#
# Total GULP energy -134206.913587 kJ/mol
# GULP energy per Si atom -5591.954733 kJ/mol
# Density = 2.236908 g / cm^3
# Si number density = 22.420112 Si / 1000 Ang^3
#
#
#
# Elastic Constant Matrix: (Units=GPa)
#
#
# Indices 1 2 3 4 5 6 
#
# 1 79.2883 -13.3471 16.1599 0.0000 -1.4920 0.0000
# 2 -13.3471 37.2987 13.8419 0.0000 -3.3234 0.0000
# 3 16.1599 13.8419 114.6245 0.0000 -6.1406 0.0000
# 4 0.0000 0.0000 0.0000 7.1135 0.0000 3.1288
# 5 -1.4920 -3.3234 -6.1406 0.0000 26.5245 0.0000
# 6 0.0000 0.0000 0.0000 3.1288 0.0000 18.0563
#
#
#
# Elastic Compliance Matrix: (Units=1/GPa)
#
#
# Indices 1 2 3 4 5 6 
#
# 1 0.014220 0.006175 -0.002700 0.000000 0.000949 0.000000
# 2 0.006175 0.030952 -0.004437 0.000000 0.003198 0.000000
# 3 -0.002700 -0.004437 0.009723 0.000000 0.001543 0.000000
# 4 0.000000 0.000000 0.000000 0.152177 0.000000 -0.026370
# 5 0.000949 0.003198 0.001543 0.000000 0.038512 0.000000
# 6 0.000000 0.000000 0.000000 -0.026370 0.000000 0.059952
#
#
# Mechanical properties :
#
#
# Convention : Reuss Voigt Hill
#
# Bulk Modulus (GPa) = 18.87816 29.39123 24.13470
# Shear Modulus (GPa) = 15.37912 24.64263 20.01088
#
# Velocity S-wave (km/s) = 2.62191 3.31891 2.99078
# Velocity P-wave (km/s) = 4.19575 5.27491 4.76597
#
# Compressibility (1/GPa) = 0.05297126
#
# Stress axis : x y z
#
# Youngs Moduli (GPa) = 70.32503 32.30837 102.84687
#
# Poissons Ratio (x) = -0.19950 0.27764
# Poissons Ratio (y) = -0.43424 0.45632
# Poissons Ratio (z) = 0.18985 0.14335
#
# Static dielectric constant tensor:
#      x y z
#    x 1.752640 0.000000 -0.009390 
#    y 0.000000 1.854670 0.000000 
#    z -0.009390 0.000000 1.840380 
# 
# From -- ./inp_files/173037.got.cif
#   From: 2010.05.17/outbox.cif.g08.bks.cpg/sg12_87_cif.got.tgz:173037.got - 2010.06.03 13:09:07.
