data_PCOD9201844
_publ_section_title
;
Structure prediction by ZEFSAII (Michael W. Deem and Ramdas Pophale) SiO2 
 PCOD9201844
Probable space group: C 2/M
;
_chemical_formula_sum "Si O2"
_cell_formula_units_Z 48
_cell_length_a 14.792780
_cell_length_b 28.888783
_cell_length_c 8.010851
_cell_angle_alpha 90.000000
_cell_angle_beta 138.831485
_cell_angle_gamma 90.000000
_cell_volume 2253.541976
_symmetry_space_group_name_H-M "C 2/M"
_symmetry_group_IT_number 12
_symmetry_cell_setting 'monoclinic'
loop_
_space_group_symop_operation_xyz
x,y,z
-x,y,-z
-x,-y,-z
x,-y,z
1/2+x,1/2+y,z
1/2-x,1/2+y,-z
1/2-x,1/2-y,-z
1/2+x,1/2-y,z
loop_
_atom_site_type_symbol
_atom_site_label
_atom_site_fract_x
_atom_site_fract_y
_atom_site_fract_z
Si Si1 0.154060 0.817421 0.374201
Si Si2 0.867653 0.272237 0.885475
Si Si3 0.600378 0.695916 0.798683
Si Si4 0.667507 0.118830 0.919746
Si Si5 0.834209 0.447954 0.776567
Si Si6 0.157998 0.608801 0.533409
O O1 0.137211 0.770130 0.250859
O O2 0.241817 0.804223 0.659575
O O3 0.243105 0.849709 0.381449
O O4 0.003825 0.832589 0.223804
O O5 0.873684 0.245251 0.069946
O O6 0.000000 0.299344 0.000000
O O7 0.500000 0.704654 0.500000
O O8 0.736638 0.664492 0.965696
O O9 0.679208 0.094585 0.754660
O O10 0.501737 0.125604 0.706815
O O11 0.708639 0.087463 0.135883
O O12 0.784336 0.500000 0.738924
O O13 0.802599 0.429698 0.547779
O O14 0.000000 0.449031 0.000000
#
# Coordination Sequence:
#
# PCOD9201844 Si02
#       6
#     8   8   8   8   8   8
#     4  10  20  38  60  80 114 162 200 246 295 354
#     4   9  20  37  57  81 113 159 203 245 301 347
#     4  11  22  37  58  87 119 153 201 249 304 358
#     4  10  21  37  60  95 121 151 201 251 297 352
#     4   9  19  36  59  91 126 156 191 240 302 364
#     4  10  20  37  65  88 119 161 198 245 298 359
#
# _framework density 21.299802
#
# number of rings (size 3 to 8) (size 9 to 14) (size 15 to 20)
#    0.000    2.167    1.667    1.000    0.000    4.667 
#    0.000    6.667    0.000    4.500    0.000    5.833 
#    0.000    0.000    0.000    0.000    0.000    0.000 
#
# Total GULP energy -133720.104963 kJ/mol
# GULP energy per Si atom -5571.671040 kJ/mol
# Density = 2.125132 g / cm^3
# Si number density = 21.299802 Si / 1000 Ang^3
#
#
#
# Elastic Constant Matrix: (Units=GPa)
#
#
# Indices 1 2 3 4 5 6 
#
# 1 140.3130 53.0089 46.1612 0.0000 -13.1440 0.0000
# 2 53.0089 69.5037 31.1102 0.0000 -7.0963 0.0000
# 3 46.1612 31.1102 90.0674 0.0000 -19.0687 0.0000
# 4 0.0000 0.0000 0.0000 2.9993 0.0000 4.2327
# 5 -13.1440 -7.0963 -19.0687 0.0000 52.6002 0.0000
# 6 0.0000 0.0000 0.0000 4.2327 0.0000 22.5762
#
#
#
# Elastic Compliance Matrix: (Units=1/GPa)
#
#
# Indices 1 2 3 4 5 6 
#
# 1 0.010743 -0.006771 -0.003024 0.000000 0.000675 0.000000
# 2 -0.006771 0.021288 -0.003935 0.000000 -0.000247 0.000000
# 3 -0.003024 -0.003935 0.014882 0.000000 0.004108 0.000000
# 4 0.000000 0.000000 0.000000 0.453367 0.000000 -0.084999
# 5 0.000675 -0.000247 0.004108 0.000000 0.020636 0.000000
# 6 0.000000 0.000000 0.000000 -0.084999 0.000000 0.060230
#
#
# Mechanical properties :
#
#
# Convention : Reuss Voigt Hill
#
# Bulk Modulus (GPa) = 51.40832 62.27163 56.83998
# Shear Modulus (GPa) = 8.12888 26.94204 17.53546
#
# Velocity S-wave (km/s) = 1.95568 3.56040 2.87238
# Velocity P-wave (km/s) = 5.41180 6.79714 6.14364
#
# Compressibility (1/GPa) = 0.01945211
#
# Stress axis : x y z
#
# Youngs Moduli (GPa) = 93.08287 46.97498 67.19561
#
# Poissons Ratio (x) = 0.31806 0.20323
# Poissons Ratio (y) = 0.63025 0.26442
# Poissons Ratio (z) = 0.28153 0.18485
#
# Static dielectric constant tensor:
#      x y z
#    x 1.905710 0.000000 0.026730 
#    y 0.000000 1.768200 0.000000 
#    z 0.026730 0.000000 1.906040 
# 
# From -- ./inp_files/68386.got.cif
#   From: 2010.05.17/outbox.cif.g08.bks.cpg/sg12_35_cif.got.tgz:68386.got - 2010.06.03 13:09:07.
