data_PCOD9201195
_publ_section_title
;
Structure prediction by ZEFSAII (Michael W. Deem and Ramdas Pophale) SiO2 
 PCOD9201195
Probable space group: C 2/M
;
_chemical_formula_sum "Si O2"
_cell_formula_units_Z 64
_cell_length_a 32.835372
_cell_length_b 8.957993
_cell_length_c 15.217966
_cell_angle_alpha 90.000000
_cell_angle_beta 46.643862
_cell_angle_gamma 90.000000
_cell_volume 3254.645425
_symmetry_space_group_name_H-M "C 2/M"
_symmetry_group_IT_number 12
_symmetry_cell_setting 'monoclinic'
loop_
_space_group_symop_operation_xyz
x,y,z
-x,y,-z
-x,-y,-z
x,-y,z
1/2+x,1/2+y,z
1/2-x,1/2+y,-z
1/2-x,1/2-y,-z
1/2+x,1/2-y,z
loop_
_atom_site_type_symbol
_atom_site_label
_atom_site_fract_x
_atom_site_fract_y
_atom_site_fract_z
Si Si1 0.856822 0.677588 0.192299
Si Si2 0.050061 0.179594 0.070994
Si Si3 0.125367 0.823169 0.488902
Si Si4 0.402196 0.325179 0.817770
Si Si5 0.743740 0.180118 0.290292
Si Si6 0.566374 0.176661 0.408625
Si Si7 0.922495 0.176787 0.248626
Si Si8 0.773582 0.174607 0.051556
O O1 0.851845 0.500000 0.193657
O O2 0.797234 0.753757 0.261079
O O3 0.881058 0.728754 0.250074
O O4 0.902498 0.738038 0.054645
O O5 0.055994 0.217013 0.165575
O O6 0.987260 0.213782 0.133358
O O7 0.058895 0.000000 0.050346
O O8 0.184878 0.741668 0.411080
O O9 0.093689 0.759576 0.450743
O O10 0.089998 0.800734 0.630125
O O11 0.134330 0.000000 0.464436
O O12 0.410950 0.500000 0.782908
O O13 0.407522 0.231317 0.721741
O O14 0.340506 0.309578 0.950348
O O15 0.745538 0.000000 0.290717
O O16 0.749570 0.229933 0.179470
O O17 0.500000 0.206805 0.500000
O O18 0.575031 0.000000 0.406522
O O19 0.914733 0.000000 0.240824
O O20 0.760110 0.000000 0.066291
O O21 0.750000 0.250000 0.000000
#
# Coordination Sequence:
#
# PCOD9201195 Si02
#       8
#     8   8   8   8   8   8   8   8
#     4  12  25  40  63  95 128 163 206 259 315 373
#     4  10  20  40  66  92 124 163 208 257 316 377
#     4  11  24  43  66  94 124 162 215 264 311 368
#     4  10  20  37  61  88 118 158 207 254 303 365
#     4  11  23  43  66  89 125 168 207 254 313 374
#     4  11  24  40  59  89 129 170 210 254 309 370
#     4  10  23  42  66  91 121 164 210 260 316 377
#     4  10  21  36  57  85 117 154 197 244 297 359
#
# _framework density 19.664199
#
# number of rings (size 3 to 8) (size 9 to 14) (size 15 to 20)
#    0.000    1.375    1.250    4.125    0.000    9.500 
#    0.000    0.000    0.000    0.000    0.000    0.000 
#    0.000    0.000    0.000    0.000    0.000    0.000 
#
# Total GULP energy -178942.049968 kJ/mol
# GULP energy per Si atom -5591.939061 kJ/mol
# Density = 1.961944 g / cm^3
# Si number density = 19.664199 Si / 1000 Ang^3
#
#
#
# Elastic Constant Matrix: (Units=GPa)
#
#
# Indices 1 2 3 4 5 6 
#
# 1 109.4979 52.1062 23.5420 0.0000 -3.0475 -0.0001
# 2 52.1062 71.1328 40.1558 0.0000 -9.2464 -0.0003
# 3 23.5420 40.1558 56.3870 0.0000 -0.4552 0.0000
# 4 0.0000 0.0000 0.0000 21.5250 0.0000 -3.9290
# 5 -3.0475 -9.2464 -0.4552 0.0000 27.3826 0.0000
# 6 -0.0001 -0.0003 0.0000 -3.9290 0.0000 26.2586
#
#
#
# Elastic Compliance Matrix: (Units=1/GPa)
#
#
# Indices 1 2 3 4 5 6 
#
# 1 0.014390 -0.012495 0.002870 0.000000 -0.002570 0.000000
# 2 -0.012495 0.036084 -0.020396 0.000000 0.010455 0.000000
# 3 0.002870 -0.020396 0.031013 0.000000 -0.006052 0.000000
# 4 0.000000 0.000000 0.000000 0.047762 0.000000 0.007146
# 5 -0.002570 0.010455 -0.006052 0.000000 0.039663 0.000000
# 6 0.000000 0.000000 0.000000 0.007146 0.000000 0.039152
#
#
# Mechanical properties :
#
#
# Convention : Reuss Voigt Hill
#
# Bulk Modulus (GPa) = 46.63341 52.06954 49.35148
# Shear Modulus (GPa) = 18.16499 23.11414 20.63957
#
# Velocity S-wave (km/s) = 3.04264 3.43219 3.24327
# Velocity P-wave (km/s) = 6.00915 6.49950 6.25913
#
# Compressibility (1/GPa) = 0.02144385
#
# Stress axis : x y z
#
# Youngs Moduli (GPa) = 69.49242 27.71313 32.24503
#
# Poissons Ratio (x) = 0.34628 -0.09253
# Poissons Ratio (y) = 0.86831 0.65767
# Poissons Ratio (z) = -0.19941 0.56523
#
# Static dielectric constant tensor:
#      x y z
#    x 1.689720 0.000000 0.002030 
#    y 0.000000 1.663420 0.000000 
#    z 0.002030 0.000000 1.698900 
# 
# From -- ./inp_files/249816.got.cif
#   From: 2010.05.17/outbox.cif.g08.bks.cpg/sg12_125_cif.got.tgz:249816.got - 2010.06.03 13:09:07.
