data_PCOD9201828
_publ_section_title
;
Structure prediction by ZEFSAII (Michael W. Deem and Ramdas Pophale) SiO2 
 PCOD9201828
Probable space group: C 2/M
;
_chemical_formula_sum "Si O2"
_cell_formula_units_Z 52
_cell_length_a 10.371695
_cell_length_b 27.654673
_cell_length_c 9.242254
_cell_angle_alpha 90.000000
_cell_angle_beta 116.454341
_cell_angle_gamma 90.000000
_cell_volume 2373.338746
_symmetry_space_group_name_H-M "C 2/M"
_symmetry_group_IT_number 12
_symmetry_cell_setting 'monoclinic'
loop_
_space_group_symop_operation_xyz
x,y,z
-x,y,-z
-x,-y,-z
x,-y,z
1/2+x,1/2+y,z
1/2-x,1/2+y,-z
1/2-x,1/2-y,-z
1/2+x,1/2-y,z
loop_
_atom_site_type_symbol
_atom_site_label
_atom_site_fract_x
_atom_site_fract_y
_atom_site_fract_z
Si Si1 0.750219 0.801610 0.924130
Si Si2 0.000000 0.124853 0.000000
Si Si3 0.705019 0.111482 0.387843
Si Si4 0.656629 0.884469 0.041178
Si Si5 0.355576 0.444341 0.690970
Si Si6 0.831722 0.290524 0.447926
Si Si7 0.095575 0.554598 0.768993
O O1 0.885233 0.837471 0.011843
O O2 0.733355 0.796080 0.744796
O O3 0.750000 0.750000 0.000000
O O4 0.630306 0.834189 0.943473
O O5 0.057420 0.091030 0.158660
O O6 0.734765 0.121146 0.232617
O O7 0.829542 0.079006 0.521406
O O8 0.687946 0.160164 0.472244
O O9 0.549364 0.085183 0.319845
O O10 0.500000 0.904988 0.000000
O O11 0.703074 0.922937 0.944063
O O12 0.407572 0.500000 0.716015
O O13 0.192989 0.444944 0.675268
O O14 0.750000 0.250000 0.500000
O O15 0.000000 0.279966 0.500000
O O16 0.056906 0.500000 0.786653
#
# Coordination Sequence:
#
# PCOD9201828 Si02
#       7
#     8   4   8   8   8   8   8
#     4  12  27  45  70  96 132 181 230 276 347 419
#     4  12  25  46  68  94 134 180 229 280 338 416
#     4  11  21  39  64  99 134 175 224 289 345 408
#     4  10  21  39  64  94 136 171 218 279 337 401
#     4  11  22  40  67  96 133 181 231 283 342 415
#     4  12  26  45  71 102 140 178 232 294 355 416
#     4  10  20  37  64  97 132 175 223 277 343 410
#
# _framework density 21.910062
#
# number of rings (size 3 to 8) (size 9 to 14) (size 15 to 20)
#    0.000    0.923    3.077    4.846    3.231    4.615 
#    0.000    0.769    0.000    0.923    0.000    0.000 
#    0.000    0.000    0.000    0.000    0.000    0.000 
#
# Total GULP energy -145162.588737 kJ/mol
# GULP energy per Si atom -5583.176490 kJ/mol
# Density = 2.186019 g / cm^3
# Si number density = 21.910062 Si / 1000 Ang^3
#
#
#
# Elastic Constant Matrix: (Units=GPa)
#
#
# Indices 1 2 3 4 5 6 
#
# 1 40.2463 32.9280 20.3324 0.0000 -3.0902 0.0000
# 2 32.9280 200.6610 93.1122 0.0000 -2.6598 0.0000
# 3 20.3324 93.1122 191.8228 0.0000 -27.2109 0.0000
# 4 0.0000 0.0000 0.0000 29.3419 0.0000 3.3204
# 5 -3.0902 -2.6598 -27.2109 0.0000 35.9571 0.0000
# 6 0.0000 0.0000 0.0000 3.3204 0.0000 29.3817
#
#
#
# Elastic Compliance Matrix: (Units=1/GPa)
#
#
# Indices 1 2 3 4 5 6 
#
# 1 0.028926 -0.004401 -0.000698 0.000000 0.001632 0.000000
# 2 -0.004401 0.007249 -0.003394 0.000000 -0.002410 0.000000
# 3 -0.000698 -0.003394 0.007719 0.000000 0.005530 0.000000
# 4 0.000000 0.000000 0.000000 0.034522 0.000000 -0.003901
# 5 0.001632 -0.002410 0.005530 0.000000 0.031958 0.000000
# 6 0.000000 0.000000 0.000000 -0.003901 0.000000 0.034476
#
#
# Mechanical properties :
#
#
# Convention : Reuss Voigt Hill
#
# Bulk Modulus (GPa) = 37.16489 80.60837 58.88663
# Shear Modulus (GPa) = 29.27307 38.02663 33.64985
#
# Velocity S-wave (km/s) = 3.65918 4.17055 3.92320
# Velocity P-wave (km/s) = 5.90356 7.74995 6.88890
#
# Compressibility (1/GPa) = 0.02690711
#
# Stress axis : x y z
#
# Youngs Moduli (GPa) = 34.57123 137.95591 129.54781
#
# Poissons Ratio (x) = 0.60715 0.09045
# Poissons Ratio (y) = 0.15215 0.43969
# Poissons Ratio (z) = 0.02414 0.46822
#
# Static dielectric constant tensor:
#      x y z
#    x 2.014910 0.000000 -0.033870 
#    y 0.000000 1.794090 0.000000 
#    z -0.033870 0.000000 1.855260 
# 
# From -- ./inp_files/53373.got.cif
#   From: 2010.05.17/outbox.cif.g08.bks.cpg/sg12_27_cif.got.tgz:53373.got - 2010.06.03 13:09:07.
