data_PCOD9201373
_publ_section_title
;
Structure prediction by ZEFSAII (Michael W. Deem and Ramdas Pophale) SiO2 
 PCOD9201373
Probable space group: C 2/M
;
_chemical_formula_sum "Si O2"
_cell_formula_units_Z 64
_cell_length_a 31.148197
_cell_length_b 8.484235
_cell_length_c 12.658760
_cell_angle_alpha 90.000000
_cell_angle_beta 92.530308
_cell_angle_gamma 90.000000
_cell_volume 3342.051424
_symmetry_space_group_name_H-M "C 2/M"
_symmetry_group_IT_number 12
_symmetry_cell_setting 'monoclinic'
loop_
_space_group_symop_operation_xyz
x,y,z
-x,y,-z
-x,-y,-z
x,-y,z
1/2+x,1/2+y,z
1/2-x,1/2+y,-z
1/2-x,1/2-y,-z
1/2+x,1/2-y,z
loop_
_atom_site_type_symbol
_atom_site_label
_atom_site_fract_x
_atom_site_fract_y
_atom_site_fract_z
Si Si1 0.280979 0.188937 0.595621
Si Si2 0.621500 0.189575 0.398417
Si Si3 0.525525 0.187975 0.774114
Si Si4 0.453051 0.191818 0.453952
Si Si5 0.314693 0.309516 0.036645
Si Si6 0.761024 0.188305 0.827290
Si Si7 0.430761 0.687827 0.799657
Si Si8 0.086826 0.190447 0.962137
O O1 0.250000 0.250000 0.500000
O O2 0.329909 0.246529 0.581535
O O3 0.267317 0.240510 0.712124
O O4 0.280868 0.000000 0.592236
O O5 0.586412 0.249383 0.479329
O O6 0.603475 0.235628 0.282242
O O7 0.622251 0.000000 0.406301
O O8 0.549692 0.234902 0.668976
O O9 0.478618 0.264889 0.770729
O O10 0.553212 0.238100 0.877210
O O11 0.519568 0.000000 0.771822
O O12 0.500000 0.243611 0.500000
O O13 0.452940 0.000000 0.460972
O O14 0.311781 0.500000 0.041562
O O15 0.283427 0.238463 0.121542
O O16 0.364095 0.263530 0.056491
O O17 0.297047 0.262804 0.918255
O O18 0.762713 0.000000 0.817861
O O19 0.425745 0.500000 0.794153
O O20 0.423939 0.738398 0.919573
O O21 0.083893 0.000000 0.956185
#
# Coordination Sequence:
#
# PCOD9201373 Si02
#       8
#     8   8   8   8   8   8   8   8
#     4  11  24  40  60  87 121 156 196 245 298 354
#     4  10  21  39  63  88 112 148 195 241 288 342
#     4  11  22  36  57  83 112 151 196 240 286 341
#     4   9  17  35  60  81 109 144 183 236 289 331
#     4   9  19  37  60  85 114 151 193 240 295 354
#     4  10  20  37  62  87 115 151 195 240 291 354
#     4  11  22  37  58  83 116 154 190 233 289 348
#     4  10  22  38  54  79 118 155 187 232 294 350
#
# _framework density 19.149913999999999
#
# number of rings (size 3 to 8) (size 9 to 14) (size 15 to 20)
#    0.000    1.875    1.250    2.625    0.000    6.500 
#    0.000    3.125    0.000    0.000    0.000    0.000 
#    0.000    0.000    0.000    0.000    0.000    0.000 
#
# Total GULP energy -178742.989389 kJ/mol
# GULP energy per Si atom -5585.718418 kJ/mol
# Density = 1.910633 g / cm^3
# Si number density = 19.149914 Si / 1000 Ang^3
#
#
#
# Elastic Constant Matrix: (Units=GPa)
#
#
# Indices 1 2 3 4 5 6 
#
# 1 109.9204 21.3509 94.0760 0.0000 12.2210 0.0000
# 2 21.3509 4.4360 1.1378 0.0000 -7.0739 0.0000
# 3 94.0760 1.1378 103.3043 0.0000 -11.1822 0.0000
# 4 0.0000 0.0000 0.0000 20.3896 0.0000 -4.2757
# 5 12.2210 -7.0739 -11.1822 0.0000 24.5327 0.0000
# 6 0.0000 0.0000 0.0000 -4.2757 0.0000 16.9462
#
#
#
# Elastic Compliance Matrix: (Units=1/GPa)
#
#
# Indices 1 2 3 4 5 6 
#
# 1 -0.003257 0.037377 0.004099 0.000000 0.014268 0.000000
# 2 0.037377 -0.003775 -0.038005 0.000000 -0.037031 0.000000
# 3 0.004099 -0.038005 0.005216 0.000000 -0.010623 0.000000
# 4 0.000000 0.000000 0.000000 0.051784 0.000000 0.013066
# 5 0.014268 -0.037031 -0.010623 0.000000 0.018135 0.000000
# 6 0.000000 0.000000 0.000000 0.013066 0.000000 0.062307
#
#
# Mechanical properties :
#
#
# Convention : Reuss Voigt Hill
#
# Bulk Modulus (GPa) = 195.06532 50.08779 122.57655
# Shear Modulus (GPa) = 39.94303 19.11343 29.52823
#
# Velocity S-wave (km/s) = 4.57202 3.16269 3.93103
# Velocity P-wave (km/s) = 11.39976 6.28882 9.20608
#
# Compressibility (1/GPa) = 0.00512649
#
# Stress axis : x y z
#
# Youngs Moduli (GPa) = -307.04892 -264.92995 191.70473
#
# Poissons Ratio (x) = 9.90229 -0.78573
# Poissons Ratio (y) = 11.47658 7.28572
# Poissons Ratio (z) = 1.25849 -10.06864
#
# Static dielectric constant tensor:
#      x y z
#    x 1.653960 0.000000 -0.013980 
#    y 0.000000 1.657880 0.000000 
#    z -0.013980 0.000000 1.646790 
# 
# From -- ./inp_files/187430.got.cif
#   From: 2010.05.17/outbox.cif.g08.bks.cpg/sg12_94_cif.got.tgz:187430.got - 2010.06.03 13:09:07.
