data_PCOD9201080
_publ_section_title
;
Structure prediction by ZEFSAII (Michael W. Deem and Ramdas Pophale) SiO2 
 PCOD9201080
Probable space group: C 2/M
;
_chemical_formula_sum "Si O2"
_cell_formula_units_Z 64
_cell_length_a 20.048751
_cell_length_b 27.332373
_cell_length_c 11.519520
_cell_angle_alpha 90.000000
_cell_angle_beta 26.042624
_cell_angle_gamma 90.000000
_cell_volume 2771.422904
_symmetry_space_group_name_H-M "C 2/M"
_symmetry_group_IT_number 12
_symmetry_cell_setting 'monoclinic'
loop_
_space_group_symop_operation_xyz
x,y,z
-x,y,-z
-x,-y,-z
x,-y,z
1/2+x,1/2+y,z
1/2-x,1/2+y,-z
1/2-x,1/2-y,-z
1/2+x,1/2-y,z
loop_
_atom_site_type_symbol
_atom_site_label
_atom_site_fract_x
_atom_site_fract_y
_atom_site_fract_z
Si Si1 0.906510 0.912353 0.241990
Si Si2 0.758140 0.824767 0.314595
Si Si3 0.073040 0.295637 0.201409
Si Si4 0.330983 0.782558 0.212945
Si Si5 0.947696 0.915113 0.741679
Si Si6 0.169789 0.611445 0.773601
Si Si7 0.375225 0.311368 0.871867
Si Si8 0.753732 0.946101 0.851802
O O1 0.839983 0.865894 0.266472
O O2 0.757475 0.925080 0.550130
O O3 0.026881 0.913831 0.161159
O O4 0.000000 0.941738 0.000000
O O5 0.577025 0.829301 0.571805
O O6 0.762622 0.769262 0.357584
O O7 0.847844 0.818935 0.052587
O O8 0.037421 0.238967 0.290930
O O9 0.147919 0.288505 0.958139
O O10 0.206664 0.310806 0.079539
O O11 0.256155 0.834722 0.361491
O O12 0.500000 0.781816 0.000000
O O13 0.960163 0.858176 0.689603
O O14 0.793857 0.933574 0.921929
O O15 0.084318 0.944487 0.469069
O O16 0.169286 0.594285 0.907422
O O17 0.000000 0.615480 0.000000
O O18 0.686174 0.000000 0.948209
#
# Coordination Sequence:
#
# PCOD9201080 Si02
#       8
#     8   8   8   8   8   8   8   8
#     4  11  22  36  57  90 127 169 215 255 309 367
#     4  11  21  32  55  77 121 170 218 256 296 364
#     4  10  22  35  49  76 119 162 221 265 301 356
#     4  10  21  33  51  81 119 163 212 258 302 355
#     4  10  20  37  61  84 122 153 206 259 311 383
#     4  10  22  39  63  97 128 162 206 264 322 385
#     4  10  21  37  50  78 113 163 211 260 316 358
#     4  10  22  41  69  98 118 153 204 268 336 390
#
# _framework density 23.092832000000001
#
# number of rings (size 3 to 8) (size 9 to 14) (size 15 to 20)
#    0.000    1.750    1.250    3.750    5.250    1.250 
#    4.500    0.000    0.000    9.375    0.000    0.875 
#    0.000    0.000    0.000    0.000    0.000    0.000 
#
# Total GULP energy -178215.179785 kJ/mol
# GULP energy per Si atom -5569.224368 kJ/mol
# Density = 2.304027 g / cm^3
# Si number density = 23.092832 Si / 1000 Ang^3
#
#
#
# Elastic Constant Matrix: (Units=GPa)
#
#
# Indices 1 2 3 4 5 6 
#
# 1 163.9393 27.7537 10.0886 0.0010 8.0885 0.0114
# 2 27.7537 73.0763 -0.5168 -0.0064 -8.8903 -0.0044
# 3 10.0886 -0.5168 43.2320 0.0072 7.4410 0.0065
# 4 0.0010 -0.0064 0.0072 6.7305 -0.0115 0.5578
# 5 8.0885 -8.8903 7.4410 -0.0115 39.2922 -0.0125
# 6 0.0114 -0.0044 0.0065 0.5578 -0.0125 14.3668
#
#
#
# Elastic Compliance Matrix: (Units=1/GPa)
#
#
# Indices 1 2 3 4 5 6 
#
# 1 0.006739 -0.002784 -0.001301 -0.000005 -0.001771 -0.000007
# 2 -0.002784 0.015228 0.000145 0.000021 0.003991 0.000009
# 3 -0.001301 0.000145 0.024173 -0.000032 -0.004277 -0.000012
# 4 -0.000005 0.000021 -0.000032 0.149056 0.000053 -0.005787
# 5 -0.001771 0.003991 -0.004277 0.000053 0.027528 0.000026
# 6 -0.000007 0.000009 -0.000012 -0.005787 0.000026 0.069830
#
#
# Mechanical properties :
#
#
# Convention : Reuss Voigt Hill
#
# Bulk Modulus (GPa) = 26.13768 39.43319 32.78543
# Shear Modulus (GPa) = 15.96492 28.27269 22.11880
#
# Velocity S-wave (km/s) = 2.63218 3.50280 3.09823
# Velocity P-wave (km/s) = 4.53662 5.78554 5.19872
#
# Compressibility (1/GPa) = 0.03825895
#
# Stress axis : x y z
#
# Youngs Moduli (GPa) = 148.40040 65.66769 41.36923
#
# Poissons Ratio (x) = 0.18281 0.05382
# Poissons Ratio (y) = 0.41312 -0.00599
# Poissons Ratio (z) = 0.19307 -0.00950
#
# Static dielectric constant tensor:
#      x y z
#    x 1.919970 0.000000 0.005410 
#    y 0.000000 1.962490 0.000050 
#    z 0.005410 0.000050 1.880050 
# 
# From -- ./inp_files/170580.got.cif
#   From: 2010.05.17/outbox.cif.g08.bks.cpg/sg12_86_cif.got.tgz:170580.got - 2010.06.03 13:09:07.
