data_PCOD9201821
_publ_section_title
;
Structure prediction by ZEFSAII (Michael W. Deem and Ramdas Pophale) SiO2 
 PCOD9201821
Probable space group: C 2/M
;
_chemical_formula_sum "Si O2"
_cell_formula_units_Z 32
_cell_length_a 9.929698
_cell_length_b 15.481958
_cell_length_c 9.112881
_cell_angle_alpha 90.000000
_cell_angle_beta 95.230703
_cell_angle_gamma 90.000000
_cell_volume 1395.099910
_symmetry_space_group_name_H-M "C 2/M"
_symmetry_group_IT_number 12
_symmetry_cell_setting 'monoclinic'
loop_
_space_group_symop_operation_xyz
x,y,z
-x,y,-z
-x,-y,-z
x,-y,z
1/2+x,1/2+y,z
1/2-x,1/2+y,-z
1/2-x,1/2-y,-z
1/2+x,1/2-y,z
loop_
_atom_site_type_symbol
_atom_site_label
_atom_site_fract_x
_atom_site_fract_y
_atom_site_fract_z
Si Si1 0.868868 0.103515 0.384889
Si Si2 0.387579 0.097115 0.099145
Si Si3 0.147362 0.172050 0.940856
Si Si4 0.353502 0.900528 0.415162
O O1 0.872626 0.154873 0.233331
O O2 0.746865 0.136672 0.474709
O O3 0.000000 0.112929 0.500000
O O4 0.851952 0.000000 0.351527
O O5 0.368220 0.140086 0.255946
O O6 0.439305 0.000000 0.135734
O O7 0.500000 0.134890 0.000000
O O8 0.241773 0.094975 0.010198
O O9 0.250000 0.250000 0.000000
O O10 0.000000 0.175134 0.000000
O O11 0.500000 0.903180 0.500000
O O12 0.303617 0.000000 0.387364
#
# Coordination Sequence:
#
# PCOD9201821 Si02
#       4
#     8   8   8   8
#     4  10  21  40  67  96 124 159 210 268 322 378
#     4  10  20  37  64  96 128 166 213 265 320 378
#     4  12  26  43  61  88 127 171 216 265 323 386
#     4   9  17  31  55  89 124 157 198 250 308 369
#
# _framework density 22.937424
#
# number of rings (size 3 to 8) (size 9 to 14) (size 15 to 20)
#    0.000    1.750    0.000    4.500    0.000    8.000 
#    0.000    6.250    0.000    0.000    0.000    0.000 
#    0.000    0.000    0.000    0.000    0.000    0.000 
#
# Total GULP energy -89289.350699 kJ/mol
# GULP energy per Si atom -5580.584419 kJ/mol
# Density = 2.288522 g / cm^3
# Si number density = 22.937424 Si / 1000 Ang^3
#
#
#
# Elastic Constant Matrix: (Units=GPa)
#
#
# Indices 1 2 3 4 5 6 
#
# 1 203.5471 28.7692 100.9892 0.0000 -42.4480 0.0000
# 2 28.7692 83.8755 46.3646 0.0000 -5.8949 0.0000
# 3 100.9892 46.3646 246.7207 0.0000 -38.7210 0.0000
# 4 0.0000 0.0000 0.0000 8.8181 0.0000 5.9450
# 5 -42.4480 -5.8949 -38.7210 0.0000 53.6623 0.0000
# 6 0.0000 0.0000 0.0000 5.9450 0.0000 -22.8559
#
#
#
# Elastic Compliance Matrix: (Units=1/GPa)
#
#
# Indices 1 2 3 4 5 6 
#
# 1 0.006856 -0.000964 -0.002019 0.000000 0.003860 0.000000
# 2 -0.000964 0.013447 -0.002278 0.000000 -0.000929 0.000000
# 3 -0.002019 -0.002278 0.005659 0.000000 0.002236 0.000000
# 4 0.000000 0.000000 0.000000 0.096484 0.000000 0.025096
# 5 0.003860 -0.000929 0.002236 0.000000 0.023200 0.000000
# 6 0.000000 0.000000 0.000000 0.025096 0.000000 -0.037225
#
#
# Mechanical properties :
#
#
# Convention : Reuss Voigt Hill
#
# Bulk Modulus (GPa) = 64.77272 98.48768 81.63020
# Shear Modulus (GPa) = 40.29333 31.79293 36.04313
#
# Velocity S-wave (km/s) = 4.19580 3.72704 3.96835
# Velocity P-wave (km/s) = 7.19536 7.84550 7.52745
#
# Compressibility (1/GPa) = 0.01543860
#
# Stress axis : x y z
#
# Youngs Moduli (GPa) = 145.85670 74.36504 176.71807
#
# Poissons Ratio (x) = 0.07169 0.35686
# Poissons Ratio (y) = 0.14061 0.40261
# Poissons Ratio (z) = 0.29454 0.16942
#
# Static dielectric constant tensor:
#      x y z
#    x 1.789060 0.000000 -0.044550 
#    y 0.000000 2.045410 0.000000 
#    z -0.044550 0.000000 1.842700 
# 
# From -- ./inp_files/37760.got.cif
#   From: 2010.05.17/outbox.cif.g08.bks.cpg/sg12_19_cif.got.tgz:37760.got - 2010.06.03 13:09:07.
