data_PCOD9201224
_publ_section_title
;
Structure prediction by ZEFSAII (Michael W. Deem and Ramdas Pophale) SiO2 
 PCOD9201224
Probable space group: C 2/M
;
_chemical_formula_sum "Si O2"
_cell_formula_units_Z 64
_cell_length_a 14.200481
_cell_length_b 7.942615
_cell_length_c 25.145219
_cell_angle_alpha 90.000000
_cell_angle_beta 90.752595
_cell_angle_gamma 90.000000
_cell_volume 2835.858274
_symmetry_space_group_name_H-M "C 2/M"
_symmetry_group_IT_number 12
_symmetry_cell_setting 'monoclinic'
loop_
_space_group_symop_operation_xyz
x,y,z
-x,y,-z
-x,-y,-z
x,-y,z
1/2+x,1/2+y,z
1/2-x,1/2+y,-z
1/2-x,1/2-y,-z
1/2+x,1/2-y,z
loop_
_atom_site_type_symbol
_atom_site_label
_atom_site_fract_x
_atom_site_fract_y
_atom_site_fract_z
Si Si1 0.110820 0.803951 0.733385
Si Si2 0.335453 0.804527 0.642681
Si Si3 0.897989 0.703232 0.754840
Si Si4 0.455017 0.303084 0.375926
Si Si5 0.781316 0.702989 0.941589
Si Si6 0.559863 0.202440 0.129733
Si Si7 0.150235 0.199012 0.846577
Si Si8 0.801992 0.309846 0.447593
O O1 0.111036 0.736949 0.673315
O O2 0.158255 0.728322 0.786651
O O3 0.998915 0.789034 0.745291
O O4 0.139655 0.000000 0.731230
O O5 0.331889 0.749270 0.704774
O O6 0.445155 0.788981 0.626457
O O7 0.273682 0.705105 0.600371
O O8 0.306063 0.000000 0.639392
O O9 0.909758 0.500000 0.750122
O O10 0.877720 0.737082 0.816553
O O11 0.474145 0.500000 0.365897
O O12 0.394880 0.286955 0.428796
O O13 0.780341 0.500000 0.939237
O O14 0.884423 0.757249 0.922214
O O15 0.711084 0.769101 0.895390
O O16 0.750000 0.750000 0.000000
O O17 0.458587 0.282892 0.137256
O O18 0.546556 0.000000 0.128101
O O19 0.172578 0.000000 0.842117
O O20 0.832206 0.500000 0.455672
O O21 0.750000 0.250000 0.500000
#
# Coordination Sequence:
#
# PCOD9201224 Si02
#       8
#     8   8   8   8   8   8   8   8
#     4   8  15  29  53  82 111 139 172 213 264 325
#     4  10  20  37  61  89 118 149 182 224 278 335
#     4   8  15  29  53  82 111 139 172 213 264 325
#     4  10  20  37  61  89 118 149 182 224 278 335
#     4  10  22  37  52  72 102 139 183 226 267 316
#     4   9  18  34  55  79 106 139 175 217 267 321
#     4   9  18  34  55  79 106 139 175 217 267 321
#     4  12  26  43  60  82 112 149 195 240 277 324
#
# _framework density 22.568124999999998
#
# number of rings (size 3 to 8) (size 9 to 14) (size 15 to 20)
#    0.000    2.500    0.000    1.875    0.000    4.000 
#    0.000    8.750    0.000    1.500    0.000    0.000 
#    0.000    0.000    0.000    0.000    0.000    0.000 
#
# Total GULP energy -178605.072798 kJ/mol
# GULP energy per Si atom -5581.408525 kJ/mol
# Density = 2.251676 g / cm^3
# Si number density = 22.568125 Si / 1000 Ang^3
#
#
#
# Elastic Constant Matrix: (Units=GPa)
#
#
# Indices 1 2 3 4 5 6 
#
# 1 51.3126 -3.2497 26.4775 0.0000 -10.6208 0.0000
# 2 -3.2497 33.5847 8.9289 0.0000 -0.9610 0.0000
# 3 26.4775 8.9289 103.6880 0.0000 -32.5497 0.0000
# 4 0.0000 0.0000 0.0000 23.4668 0.0000 0.3030
# 5 -10.6208 -0.9610 -32.5497 0.0000 36.7600 0.0000
# 6 0.0000 0.0000 0.0000 0.3030 0.0000 19.9294
#
#
#
# Elastic Compliance Matrix: (Units=1/GPa)
#
#
# Indices 1 2 3 4 5 6 
#
# 1 0.023005 0.003779 -0.005654 0.000000 0.001739 0.000000
# 2 0.003779 0.031213 -0.004230 0.000000 -0.001837 0.000000
# 3 -0.005654 -0.004230 0.015103 0.000000 0.011629 0.000000
# 4 0.000000 0.000000 0.000000 0.042622 0.000000 -0.000648
# 5 0.001739 -0.001837 0.011629 0.000000 0.037955 0.000000
# 6 0.000000 0.000000 0.000000 -0.000648 0.000000 0.050187
#
#
# Mechanical properties :
#
#
# Convention : Reuss Voigt Hill
#
# Bulk Modulus (GPa) = 17.50954 28.09986 22.80470
# Shear Modulus (GPa) = 21.61402 26.45981 24.03691
#
# Velocity S-wave (km/s) = 3.09807 3.42781 3.26710
# Velocity P-wave (km/s) = 4.53572 5.30515 4.93545
#
# Compressibility (1/GPa) = 0.05711171
#
# Stress axis : x y z
#
# Youngs Moduli (GPa) = 43.46848 32.03790 66.21255
#
# Poissons Ratio (x) = -0.12107 0.37437
# Poissons Ratio (y) = -0.16426 0.28005
# Poissons Ratio (z) = 0.24577 0.13551
#
# Static dielectric constant tensor:
#      x y z
#    x 1.770000 0.000000 0.088220 
#    y 0.000000 1.845370 0.000000 
#    z 0.088220 0.000000 1.789490 
# 
# From -- ./inp_files/338928.got.cif
#   From: 2010.05.17/outbox.cif.g08.bks.cpg/sg12_170_cif.got.tgz:338928.got - 2010.06.03 13:09:07.
