data_PCOD9201659
_publ_section_title
;
Structure prediction by ZEFSAII (Michael W. Deem and Ramdas Pophale) SiO2 
 PCOD9201659
Probable space group: C 2/M
;
_chemical_formula_sum "Si O2"
_cell_formula_units_Z 56
_cell_length_a 23.137276
_cell_length_b 14.560332
_cell_length_c 9.191608
_cell_angle_alpha 90.000000
_cell_angle_beta 118.459997
_cell_angle_gamma 90.000000
_cell_volume 2722.312649
_symmetry_space_group_name_H-M "C 2/M"
_symmetry_group_IT_number 12
_symmetry_cell_setting 'monoclinic'
loop_
_space_group_symop_operation_xyz
x,y,z
-x,y,-z
-x,-y,-z
x,-y,z
1/2+x,1/2+y,z
1/2-x,1/2+y,-z
1/2-x,1/2-y,-z
1/2+x,1/2-y,z
loop_
_atom_site_type_symbol
_atom_site_label
_atom_site_fract_x
_atom_site_fract_y
_atom_site_fract_z
Si Si1 0.056231 0.607992 0.684165
Si Si2 0.680610 0.600137 0.525220
Si Si3 0.779776 0.278420 0.806048
Si Si4 0.467276 0.269540 0.166907
Si Si5 0.709667 0.889693 0.878296
Si Si6 0.573404 0.402986 0.649442
Si Si7 0.602118 0.694897 0.202113
O O1 0.046097 0.500000 0.692237
O O2 0.045585 0.662772 0.821624
O O3 0.133272 0.620399 0.735216
O O4 0.000000 0.639635 0.500000
O O5 0.713063 0.500000 0.566372
O O6 0.728107 0.680681 0.630603
O O7 0.624497 0.600934 0.581229
O O8 0.645917 0.617916 0.330099
O O9 0.755845 0.178709 0.838502
O O10 0.846996 0.270078 0.796659
O O11 0.785019 0.347038 0.951426
O O12 0.427453 0.315884 0.249871
O O13 0.545831 0.280112 0.251690
O O14 0.438268 0.321275 0.993033
O O15 0.725403 0.000000 0.895172
O O16 0.500000 0.405859 0.500000
O O17 0.585092 0.500000 0.744099
#
# Coordination Sequence:
#
# PCOD9201659 Si02
#       7
#     8   8   8   8   8   8   8
#     4  10  21  39  67  98 122 156 214 275 318 363
#     4  11  24  42  65  96 130 169 213 261 314 379
#     4  11  23  43  63  92 130 175 210 259 318 385
#     4  11  22  41  65  92 126 169 204 263 323 371
#     4  10  22  41  68  98 125 162 218 269 315 377
#     4  10  20  37  63  92 121 160 211 257 305 372
#     4  11  25  40  61  92 129 168 211 253 318 381
#
# _framework density 20.570746
#
# number of rings (size 3 to 8) (size 9 to 14) (size 15 to 20)
#    0.000    1.429    2.857    2.143    4.000    1.143 
#    0.000    4.286    0.000    0.857    0.000    0.000 
#    0.000    0.000    0.000    0.000    0.000    0.000 
#
# Total GULP energy -155973.279342 kJ/mol
# GULP energy per Si atom -5570.474262 kJ/mol
# Density = 2.052393 g / cm^3
# Si number density = 20.570746 Si / 1000 Ang^3
#
#
#
# Elastic Constant Matrix: (Units=GPa)
#
#
# Indices 1 2 3 4 5 6 
#
# 1 45.8554 24.7240 18.8873 0.0000 7.0647 0.0000
# 2 24.7240 107.8734 38.2695 0.0000 -3.9683 0.0000
# 3 18.8873 38.2695 69.7786 0.0000 4.0672 0.0000
# 4 0.0000 0.0000 0.0000 31.3467 0.0000 2.8800
# 5 7.0647 -3.9683 4.0672 0.0000 26.8840 0.0000
# 6 0.0000 0.0000 0.0000 2.8800 0.0000 14.5338
#
#
#
# Elastic Compliance Matrix: (Units=1/GPa)
#
#
# Indices 1 2 3 4 5 6 
#
# 1 0.027394 -0.005051 -0.004219 0.000000 -0.007306 0.000000
# 2 -0.005051 0.012635 -0.005800 0.000000 0.004070 0.000000
# 3 -0.004219 -0.005800 0.018805 0.000000 -0.002592 0.000000
# 4 0.000000 0.000000 0.000000 0.032493 0.000000 -0.006439
# 5 -0.007306 0.004070 -0.002592 0.000000 0.040110 0.000000
# 6 0.000000 0.000000 0.000000 -0.006439 0.000000 0.070081
#
#
# Mechanical properties :
#
#
# Convention : Reuss Voigt Hill
#
# Bulk Modulus (GPa) = 34.84888 43.02991 38.93939
# Shear Modulus (GPa) = 20.72783 23.99467 22.36125
#
# Velocity S-wave (km/s) = 3.17777 3.41903 3.30061
# Velocity P-wave (km/s) = 5.51743 6.04564 5.78757
#
# Compressibility (1/GPa) = 0.02869533
#
# Stress axis : x y z
#
# Youngs Moduli (GPa) = 36.50401 79.14582 53.17760
#
# Poissons Ratio (x) = 0.39973 0.22436
# Poissons Ratio (y) = 0.18437 0.30841
# Poissons Ratio (z) = 0.15401 0.45902
#
# Static dielectric constant tensor:
#      x y z
#    x 1.561370 0.000000 -0.010590 
#    y 0.000000 1.762590 0.000000 
#    z -0.010590 0.000000 1.775430 
# 
# From -- ./inp_files/96997.got.cif
#   From: 2010.05.17/outbox.cif.g08.bks.cpg/sg12_49_cif.got.tgz:96997.got - 2010.06.03 13:09:07.
