data_PCOD9201692
_publ_section_title
;
Structure prediction by ZEFSAII (Michael W. Deem and Ramdas Pophale) SiO2 
 PCOD9201692
Probable space group: C 2/M
;
_chemical_formula_sum "Si O2"
_cell_formula_units_Z 40
_cell_length_a 26.375953
_cell_length_b 11.665065
_cell_length_c 23.583152
_cell_angle_alpha 90.000000
_cell_angle_beta 15.546024
_cell_angle_gamma 90.000000
_cell_volume 1944.697129
_symmetry_space_group_name_H-M "C 2/M"
_symmetry_group_IT_number 12
_symmetry_cell_setting 'monoclinic'
loop_
_space_group_symop_operation_xyz
x,y,z
-x,y,-z
-x,-y,-z
x,-y,z
1/2+x,1/2+y,z
1/2-x,1/2+y,-z
1/2-x,1/2-y,-z
1/2+x,1/2-y,z
loop_
_atom_site_type_symbol
_atom_site_label
_atom_site_fract_x
_atom_site_fract_y
_atom_site_fract_z
Si Si1 0.876367 0.632847 0.369046
Si Si2 0.129520 0.284507 0.995817
Si Si3 0.634346 0.675375 0.805260
Si Si4 0.035996 0.624993 0.323486
Si Si5 0.795472 0.870699 0.705036
O O1 0.795515 0.500000 0.452691
O O2 0.750000 0.750000 0.500000
O O3 0.977750 0.640144 0.320767
O O4 0.026023 0.648190 0.157031
O O5 0.317781 0.221432 0.814716
O O6 0.183265 0.363345 0.884638
O O7 0.987513 0.191420 0.120246
O O8 0.837892 0.624060 0.571260
O O9 0.693843 0.798396 0.766743
O O10 0.500000 0.625797 0.000000
O O11 0.127219 0.500000 0.232452
O O12 0.000000 0.819446 0.500000
O O13 0.821693 0.000000 0.657550
#
# Coordination Sequence:
#
# PCOD9201692 Si02
#       5
#     8   8   8   8   8
#     4  11  24  44  70 100 134 173 223 275 332 395
#     4  11  22  41  66  92 128 169 217 266 332 392
#     4  10  22  39  63  94 128 165 215 267 326 394
#     4  11  24  43  64  93 132 172 221 274 322 390
#     4  10  20  37  63  93 126 164 209 269 327 385
#
# _framework density 20.568754999999999
#
# number of rings (size 3 to 8) (size 9 to 14) (size 15 to 20)
#    0.000    1.400    4.000    1.200    0.000    6.400 
#    0.000    9.000    0.000    0.000    0.000    0.000 
#    0.000    0.000    0.000    0.000    0.000    0.000 
#
# Total GULP energy -111494.526937 kJ/mol
# GULP energy per Si atom -5574.726347 kJ/mol
# Density = 2.052194 g / cm^3
# Si number density = 20.568755 Si / 1000 Ang^3
#
#
#
# Elastic Constant Matrix: (Units=GPa)
#
#
# Indices 1 2 3 4 5 6 
#
# 1 92.2974 37.3763 34.0417 -0.0027 4.2558 0.0014
# 2 37.3763 101.1312 21.7018 0.0062 -11.4161 -0.0022
# 3 34.0417 21.7018 90.5622 -0.0031 1.1836 0.0025
# 4 -0.0027 0.0062 -0.0031 -7.9867 0.0022 7.2460
# 5 4.2558 -11.4161 1.1836 0.0022 39.6030 -0.0009
# 6 0.0014 -0.0022 0.0025 7.2460 -0.0009 7.1848
#
#
#
# Elastic Compliance Matrix: (Units=1/GPa)
#
#
# Indices 1 2 3 4 5 6 
#
# 1 0.014456 -0.004744 -0.004261 -0.000006 -0.002794 0.000002
# 2 -0.004744 0.012371 -0.001235 0.000009 0.004113 -0.000004
# 3 -0.004261 -0.001235 0.012943 -0.000004 -0.000285 0.000000
# 4 -0.000006 0.000009 -0.000004 -0.065383 0.000008 0.065940
# 5 -0.002794 0.004113 -0.000285 0.000008 0.026745 -0.000003
# 6 0.000002 -0.000004 0.000000 0.065940 -0.000003 0.072681
#
#
# Mechanical properties :
#
#
# Convention : Reuss Voigt Hill
#
# Bulk Modulus (GPa) = 51.83732 52.24782 52.04257
# Shear Modulus (GPa) = 49.64174 20.48495 35.06335
#
# Velocity S-wave (km/s) = 4.91802 3.15925 4.13327
# Velocity P-wave (km/s) = 7.58327 6.22612 6.93796
#
# Compressibility (1/GPa) = 0.01929112
#
# Stress axis : x y z
#
# Youngs Moduli (GPa) = 69.17681 80.83690 77.25984
#
# Poissons Ratio (x) = 0.38346 0.32917
# Poissons Ratio (y) = 0.32815 0.09542
# Poissons Ratio (z) = 0.29473 0.09984
#
# Static dielectric constant tensor:
#      x y z
#    x 1.689220 0.000000 -0.002190 
#    y 0.000000 1.760350 0.000010 
#    z -0.002190 0.000010 1.771640 
# 
# From -- ./inp_files/325055.got.cif
#   From: 2010.05.17/outbox.cif.g08.bks.cpg/sg12_163_cif.got.tgz:325055.got - 2010.06.03 13:09:07.
