data_PCOD9201284
_publ_section_title
;
Structure prediction by ZEFSAII (Michael W. Deem and Ramdas Pophale) SiO2 
 PCOD9201284
Probable space group: C 2/M
;
_chemical_formula_sum "Si O2"
_cell_formula_units_Z 64
_cell_length_a 25.397216
_cell_length_b 8.171548
_cell_length_c 14.809169
_cell_angle_alpha 90.000000
_cell_angle_beta 90.159526
_cell_angle_gamma 90.000000
_cell_volume 3073.402602
_symmetry_space_group_name_H-M "C 2/M"
_symmetry_group_IT_number 12
_symmetry_cell_setting 'monoclinic'
loop_
_space_group_symop_operation_xyz
x,y,z
-x,y,-z
-x,-y,-z
x,-y,z
1/2+x,1/2+y,z
1/2-x,1/2+y,-z
1/2-x,1/2-y,-z
1/2+x,1/2-y,z
loop_
_atom_site_type_symbol
_atom_site_label
_atom_site_fract_x
_atom_site_fract_y
_atom_site_fract_z
Si Si1 0.937269 0.192209 0.791427
Si Si2 0.807480 0.313801 0.975070
Si Si3 0.918356 0.810137 0.995109
Si Si4 0.151284 0.306605 0.343846
Si Si5 0.949697 0.693216 0.186084
Si Si6 0.227793 0.190297 0.202541
Si Si7 0.839133 0.300115 0.270043
Si Si8 0.308320 0.196611 0.469517
O O1 0.900520 0.270287 0.714978
O O2 0.998926 0.218983 0.774955
O O3 0.923723 0.000000 0.793724
O O4 0.927935 0.256517 0.893978
O O5 0.815115 0.500000 0.004569
O O6 0.805614 0.297000 0.866948
O O7 0.750000 0.250000 0.000000
O O8 0.855865 0.208697 0.010377
O O9 0.946454 0.722982 0.078386
O O10 0.933957 0.000000 0.996639
O O11 0.162590 0.500000 0.338674
O O12 0.199472 0.210373 0.297861
O O13 0.151675 0.259958 0.449152
O O14 0.954594 0.500000 0.202938
O O15 0.894858 0.752816 0.229775
O O16 0.288199 0.244351 0.209991
O O17 0.225306 0.000000 0.174350
O O18 0.839583 0.500000 0.270185
O O19 0.826903 0.241848 0.371703
O O20 0.250000 0.250000 0.500000
O O21 0.307081 0.000000 0.462278
#
# Coordination Sequence:
#
# PCOD9201284 Si02
#       8
#     8   8   8   8   8   8   8   8
#     4  11  24  42  63  85 119 163 205 252 306 360
#     4  12  24  37  55  83 122 161 204 249 300 360
#     4  11  23  40  61  86 118 159 205 250 304 361
#     4  11  22  36  60  92 120 151 199 251 297 355
#     4  11  23  40  63  89 119 159 206 255 303 357
#     4  11  20  35  59  85 120 160 196 240 301 363
#     4   9  20  38  60  87 122 160 195 240 304 367
#     4  10  20  37  61  91 123 156 197 244 300 365
#
# _framework density 20.823824999999999
#
# number of rings (size 3 to 8) (size 9 to 14) (size 15 to 20)
#    0.000    1.250    2.500    4.125    0.000    4.500 
#    0.000    3.750    0.000    3.750    0.000    0.000 
#    0.000    0.000    0.000    0.000    0.000    0.000 
#
# Total GULP energy -178860.660038 kJ/mol
# GULP energy per Si atom -5589.395626 kJ/mol
# Density = 2.077643 g / cm^3
# Si number density = 20.823825 Si / 1000 Ang^3
#
#
#
# Elastic Constant Matrix: (Units=GPa)
#
#
# Indices 1 2 3 4 5 6 
#
# 1 125.0262 -1.9031 31.1238 0.0000 11.2977 0.0000
# 2 -1.9031 29.4931 5.9354 0.0000 0.9270 0.0000
# 3 31.1238 5.9354 90.9314 0.0000 10.4636 0.0000
# 4 0.0000 0.0000 0.0000 20.8810 0.0000 -1.2024
# 5 11.2977 0.9270 10.4636 0.0000 24.3816 0.0000
# 6 0.0000 0.0000 0.0000 -1.2024 0.0000 24.4828
#
#
#
# Elastic Compliance Matrix: (Units=1/GPa)
#
#
# Indices 1 2 3 4 5 6 
#
# 1 0.008989 0.001240 -0.002812 0.000000 -0.003006 0.000000
# 2 0.001240 0.034532 -0.002589 0.000000 -0.000776 0.000000
# 3 -0.002812 -0.002589 0.012589 0.000000 -0.004001 0.000000
# 4 0.000000 0.000000 0.000000 0.048026 0.000000 0.002359
# 5 -0.003006 -0.000776 -0.004001 0.000000 0.044154 0.000000
# 6 0.000000 0.000000 0.000000 0.002359 0.000000 0.040961
#
#
# Mechanical properties :
#
#
# Convention : Reuss Voigt Hill
#
# Bulk Modulus (GPa) = 20.92554 35.08475 28.00514
# Shear Modulus (GPa) = 23.41906 27.96874 25.69390
#
# Velocity S-wave (km/s) = 3.35719 3.66883 3.51646
# Velocity P-wave (km/s) = 5.00982 5.90186 5.47404
#
# Compressibility (1/GPa) = 0.04778849
#
# Stress axis : x y z
#
# Youngs Moduli (GPa) = 111.25019 28.95882 79.43342
#
# Poissons Ratio (x) = -0.03592 0.22335
# Poissons Ratio (y) = -0.13799 0.20567
# Poissons Ratio (z) = 0.31281 0.07498
#
# Static dielectric constant tensor:
#      x y z
#    x 1.741080 0.000000 -0.023230 
#    y 0.000000 1.730380 0.000000 
#    z -0.023230 0.000000 1.804600 
# 
# From -- ./inp_files/238751.got.cif
#   From: 2010.05.17/outbox.cif.g08.bks.cpg/sg12_120_cif.got.tgz:238751.got - 2010.06.03 13:09:07.
