data_PCOD9201957
_publ_section_title
;
Structure prediction by ZEFSAII (Michael W. Deem and Ramdas Pophale) SiO2 
 PCOD9201957
Probable space group: C 2/M
;
_chemical_formula_sum "Si O2"
_cell_formula_units_Z 64
_cell_length_a 8.660856
_cell_length_b 22.672935
_cell_length_c 15.942500
_cell_angle_alpha 90.000000
_cell_angle_beta 90.459957
_cell_angle_gamma 90.000000
_cell_volume 3130.480424
_symmetry_space_group_name_H-M "C 2/M"
_symmetry_group_IT_number 12
_symmetry_cell_setting 'monoclinic'
loop_
_space_group_symop_operation_xyz
x,y,z
-x,y,-z
-x,-y,-z
x,-y,z
1/2+x,1/2+y,z
1/2-x,1/2+y,-z
1/2-x,1/2-y,-z
1/2+x,1/2-y,z
loop_
_atom_site_type_symbol
_atom_site_label
_atom_site_fract_x
_atom_site_fract_y
_atom_site_fract_z
Si Si1 0.797162 0.068853 0.682786
Si Si2 0.353601 0.598804 0.956102
Si Si3 0.105795 0.711250 0.391645
Si Si4 0.919243 0.564061 0.162556
Si Si5 0.924409 0.836276 0.793551
Si Si6 0.737038 0.268801 0.777686
Si Si7 0.384863 0.835497 0.927200
Si Si8 0.266457 0.828620 0.439170
O O1 0.647442 0.070791 0.743976
O O2 0.924955 0.105202 0.736824
O O3 0.769500 0.108024 0.600148
O O4 0.832909 0.000000 0.668888
O O5 0.232055 0.563818 0.898279
O O6 0.422685 0.645546 0.890071
O O7 0.749174 0.630651 0.974651
O O8 0.500000 0.568514 0.000000
O O9 0.173452 0.702597 0.299991
O O10 0.137384 0.779797 0.416217
O O11 0.200012 0.673998 0.461562
O O12 0.926799 0.695660 0.400013
O O13 0.997104 0.500000 0.155138
O O14 0.023166 0.616798 0.128725
O O15 0.766344 0.801053 0.772737
O O16 0.063806 0.792272 0.775036
O O17 0.814268 0.287676 0.865329
O O18 0.500000 0.812245 0.000000
#
# Coordination Sequence:
#
# PCOD9201957 Si02
#       8
#     8   8   8   8   8   8   8   8
#     4  10  21  41  65  89 126 166 207 250 303 372
#     4  10  20  38  50  81 123 156 200 249 311 362
#     4  10  21  35  62  98 128 153 202 256 303 366
#     4   9  20  37  60  85 113 160 216 256 294 358
#     4  11  25  37  62  90 120 163 208 251 318 363
#     4  12  23  38  60  91 122 161 199 261 308 371
#     4  10  22  36  58  83 123 162 200 252 310 372
#     4  10  20  38  62  98 124 163 199 251 312 359
#
# _framework density 20.444146
#
# number of rings (size 3 to 8) (size 9 to 14) (size 15 to 20)
#    0.000    1.750    2.500    1.500    5.250    3.500 
#    0.000    1.875    0.000    3.000    0.000    0.000 
#    0.000    0.000    0.000    0.000    0.000    0.000 
#
# Total GULP energy -178710.630910 kJ/mol
# GULP energy per Si atom -5584.707216 kJ/mol
# Density = 2.039761 g / cm^3
# Si number density = 20.444146 Si / 1000 Ang^3
#
#
#
# Elastic Constant Matrix: (Units=GPa)
#
#
# Indices 1 2 3 4 5 6 
#
# 1 65.4994 29.2325 5.8180 0.0000 8.1172 0.0000
# 2 29.2325 122.9796 31.5732 0.0000 11.8566 0.0000
# 3 5.8180 31.5732 86.4911 0.0000 3.0420 0.0000
# 4 0.0000 0.0000 0.0000 4.8008 0.0000 -2.7590
# 5 8.1172 11.8566 3.0420 0.0000 24.6195 0.0000
# 6 0.0000 0.0000 0.0000 -2.7590 0.0000 9.9292
#
#
#
# Elastic Compliance Matrix: (Units=1/GPa)
#
#
# Indices 1 2 3 4 5 6 
#
# 1 0.017446 -0.003864 0.000375 0.000000 -0.003938 0.000000
# 2 -0.003864 0.010224 -0.003359 0.000000 -0.003235 0.000000
# 3 0.000375 -0.003359 0.012766 0.000000 -0.000084 0.000000
# 4 0.000000 0.000000 0.000000 0.247882 0.000000 0.068878
# 5 -0.003938 -0.003235 -0.000084 0.000000 0.043485 0.000000
# 6 0.000000 0.000000 0.000000 0.068878 0.000000 0.119851
#
#
# Mechanical properties :
#
#
# Convention : Reuss Voigt Hill
#
# Bulk Modulus (GPa) = 37.39422 45.35750 41.37586
# Shear Modulus (GPa) = 10.54270 21.75969 16.15119
#
# Velocity S-wave (km/s) = 2.27333 3.26597 2.81377
# Velocity P-wave (km/s) = 5.02208 6.03791 5.55327
#
# Compressibility (1/GPa) = 0.02674210
#
# Stress axis : x y z
#
# Youngs Moduli (GPa) = 57.31852 97.80920 78.33561
#
# Poissons Ratio (x) = 0.37791 -0.02941
# Poissons Ratio (y) = 0.22147 0.26309
# Poissons Ratio (z) = -0.02152 0.32850
#
# Static dielectric constant tensor:
#      x y z
#    x 1.746650 0.000000 0.007530 
#    y 0.000000 1.718970 0.000000 
#    z 0.007530 0.000000 1.758590 
# 
# From -- ./inp_files/258078.got.cif
#   From: 2010.05.17/outbox.cif.g08.bks.cpg/sg12_130_cif.got.tgz:258078.got - 2010.06.03 13:09:07.
