data_PCOD9201153
_publ_section_title
;
Structure prediction by ZEFSAII (Michael W. Deem and Ramdas Pophale) SiO2 
 PCOD9201153
Probable space group: C 2/M
;
_chemical_formula_sum "Si O2"
_cell_formula_units_Z 64
_cell_length_a 15.057425
_cell_length_b 8.439787
_cell_length_c 25.241852
_cell_angle_alpha 90.000000
_cell_angle_beta 83.181567
_cell_angle_gamma 90.000000
_cell_volume 3185.084001
_symmetry_space_group_name_H-M "C 2/M"
_symmetry_group_IT_number 12
_symmetry_cell_setting 'monoclinic'
loop_
_space_group_symop_operation_xyz
x,y,z
-x,y,-z
-x,-y,-z
x,-y,z
1/2+x,1/2+y,z
1/2-x,1/2+y,-z
1/2-x,1/2-y,-z
1/2+x,1/2-y,z
loop_
_atom_site_type_symbol
_atom_site_label
_atom_site_fract_x
_atom_site_fract_y
_atom_site_fract_z
Si Si1 0.464781 0.808863 0.061048
Si Si2 0.597326 0.311371 0.139600
Si Si3 0.263434 0.190746 0.058636
Si Si4 0.250361 0.812547 0.319068
Si Si5 0.192627 0.192038 0.436290
Si Si6 0.111880 0.812440 0.544262
Si Si7 0.443191 0.689628 0.340098
Si Si8 0.896172 0.686452 0.743482
O O1 0.519520 0.729599 0.103933
O O2 0.361369 0.763911 0.071057
O O3 0.473633 0.000000 0.064694
O O4 0.500000 0.764104 0.000000
O O5 0.603168 0.500000 0.146493
O O6 0.686984 0.252604 0.103721
O O7 0.585784 0.234039 0.197415
O O8 0.259211 0.000000 0.057214
O O9 0.250000 0.250000 0.000000
O O10 0.186161 0.776814 0.374399
O O11 0.345655 0.730039 0.322435
O O12 0.195299 0.764040 0.271544
O O13 0.267051 0.000000 0.317725
O O14 0.114096 0.241679 0.482607
O O15 0.284692 0.278789 0.446376
O O16 0.203918 0.000000 0.441564
O O17 0.057533 0.748616 0.598629
O O18 0.093413 0.000000 0.544065
O O19 0.453201 0.500000 0.340971
O O20 0.521516 0.758492 0.298882
O O21 0.886491 0.500000 0.739584
#
# Coordination Sequence:
#
# PCOD9201153 Si02
#       8
#     8   8   8   8   8   8   8   8
#     4  10  20  37  62  91 125 160 191 227 278 346
#     4  11  24  41  61  88 120 154 197 248 296 348
#     4  10  21  37  61  91 123 156 188 227 277 336
#     4  10  20  37  61  87 118 156 198 247 301 362
#     4   8  14  26  48  79 112 147 187 233 292 357
#     4   8  14  26  48  79 112 146 186 235 293 358
#     4  10  20  37  61  87 117 154 198 249 305 363
#     4  12  26  43  61  82 115 159 208 257 303 354
#
# _framework density 20.093661999999998
#
# number of rings (size 3 to 8) (size 9 to 14) (size 15 to 20)
#    0.000    2.125    1.250    2.250    0.000    3.250 
#    0.000    4.375    0.000    3.750    0.000    0.000 
#    0.000    0.000    0.000    0.000    0.000    0.000 
#
# Total GULP energy -178596.538801 kJ/mol
# GULP energy per Si atom -5581.141838 kJ/mol
# Density = 2.004793 g / cm^3
# Si number density = 20.093662 Si / 1000 Ang^3
#
#
#
# Elastic Constant Matrix: (Units=GPa)
#
#
# Indices 1 2 3 4 5 6 
#
# 1 70.4407 -3.5902 22.5822 0.0000 -10.8612 0.0000
# 2 -3.5902 14.6963 3.5766 0.0000 -5.3256 0.0000
# 3 22.5822 3.5766 85.2246 0.0000 -7.0065 0.0000
# 4 0.0000 0.0000 0.0000 25.1935 0.0000 0.7627
# 5 -10.8612 -5.3256 -7.0065 0.0000 31.3438 0.0000
# 6 0.0000 0.0000 0.0000 0.7627 0.0000 23.3875
#
#
#
# Elastic Compliance Matrix: (Units=1/GPa)
#
#
# Indices 1 2 3 4 5 6 
#
# 1 0.016895 0.007400 -0.004281 0.000000 0.006155 0.000000
# 2 0.007400 0.076109 -0.003953 0.000000 0.014612 0.000000
# 3 -0.004281 -0.003953 0.013098 0.000000 0.000773 0.000000
# 4 0.000000 0.000000 0.000000 0.039732 0.000000 -0.001296
# 5 0.006155 0.014612 0.000773 0.000000 0.036692 0.000000
# 6 0.000000 0.000000 0.000000 -0.001296 0.000000 0.042800
#
#
# Mechanical properties :
#
#
# Convention : Reuss Voigt Hill
#
# Bulk Modulus (GPa) = 9.57566 23.94431 16.75999
# Shear Modulus (GPa) = 19.09804 25.83783 22.46793
#
# Velocity S-wave (km/s) = 3.08628 3.58979 3.34752
# Velocity P-wave (km/s) = 4.18044 5.39670 4.82703
#
# Compressibility (1/GPa) = 0.10443139
#
# Stress axis : x y z
#
# Youngs Moduli (GPa) = 59.18930 13.13901 76.35024
#
# Poissons Ratio (x) = -0.09722 0.32687
# Poissons Ratio (y) = -0.43797 0.30185
# Poissons Ratio (z) = 0.25340 0.05194
#
# Static dielectric constant tensor:
#      x y z
#    x 1.702370 0.000000 -0.016210 
#    y 0.000000 1.717030 0.000000 
#    z -0.016210 0.000000 1.721350 
# 
# From -- ./inp_files/338900.got.cif
#   From: 2010.05.17/outbox.cif.g08.bks.cpg/sg12_170_cif.got.tgz:338900.got - 2010.06.03 13:09:07.
