data_PCOD9201998
_publ_section_title
;
Structure prediction by ZEFSAII (Michael W. Deem and Ramdas Pophale) SiO2 
 PCOD9201998
Probable space group: C 2/M
;
_chemical_formula_sum "Si O2"
_cell_formula_units_Z 56
_cell_length_a 20.580420
_cell_length_b 19.024637
_cell_length_c 9.056292
_cell_angle_alpha 90.000000
_cell_angle_beta 126.206240
_cell_angle_gamma 90.000000
_cell_volume 2861.136541
_symmetry_space_group_name_H-M "C 2/M"
_symmetry_group_IT_number 12
_symmetry_cell_setting 'monoclinic'
loop_
_space_group_symop_operation_xyz
x,y,z
-x,y,-z
-x,-y,-z
x,-y,z
1/2+x,1/2+y,z
1/2-x,1/2+y,-z
1/2-x,1/2-y,-z
1/2+x,1/2-y,z
loop_
_atom_site_type_symbol
_atom_site_label
_atom_site_fract_x
_atom_site_fract_y
_atom_site_fract_z
Si Si1 0.063624 0.855846 0.438402
Si Si2 0.750429 0.693347 0.364318
Si Si3 0.592642 0.579233 0.856008
Si Si4 0.627535 0.417358 0.243326
Si Si5 0.588673 0.203094 0.610587
Si Si6 0.780897 0.080006 0.201658
Si Si7 0.185380 0.717174 0.025926
O O1 0.075341 0.868579 0.279421
O O2 0.077312 0.778577 0.516982
O O3 0.138277 0.903564 0.596459
O O4 0.969201 0.874679 0.320558
O O5 0.750000 0.750000 0.500000
O O6 0.715144 0.618757 0.367383
O O7 0.833672 0.678951 0.384179
O O8 0.687268 0.728852 0.163785
O O9 0.565399 0.500000 0.786091
O O10 0.682876 0.586396 0.915398
O O11 0.595538 0.586884 0.033804
O O12 0.626054 0.500000 0.282584
O O13 0.500000 0.167772 0.500000
O O14 0.611927 0.209299 0.815088
O O15 0.716893 0.142300 0.129773
O O16 0.753896 0.000000 0.191152
O O17 0.250000 0.750000 0.000000
#
# Coordination Sequence:
#
# PCOD9201998 Si02
#       7
#     8   8   8   8   8   8   8
#     4  12  21  33  54  83 120 154 192 228 284 352
#     4  11  21  40  61  87 115 156 199 245 285 348
#     4  10  21  33  49  80 122 155 187 228 282 353
#     4  11  23  38  56  82 118 160 194 239 294 346
#     4  11  23  38  60  84 117 156 195 242 295 341
#     4  11  20  34  57  82 109 154 197 236 287 348
#     4  10  20  38  56  78 117 154 192 248 285 337
#
# _framework density 19.572641999999998
#
# number of rings (size 3 to 8) (size 9 to 14) (size 15 to 20)
#    0.000    1.143    4.286    4.714    2.000    2.286 
#    0.000    0.714    0.000    1.714    0.000    0.000 
#    0.000    4.571    0.000    0.000    0.000    0.000 
#
# Total GULP energy -155960.488557 kJ/mol
# GULP energy per Si atom -5570.017448 kJ/mol
# Density = 1.952809 g / cm^3
# Si number density = 19.572642 Si / 1000 Ang^3
#
#
#
# Elastic Constant Matrix: (Units=GPa)
#
#
# Indices 1 2 3 4 5 6 
#
# 1 55.9598 6.3606 2.2449 0.0000 10.8453 0.0000
# 2 6.3606 71.4272 -21.5900 0.0000 9.4208 0.0000
# 3 2.2449 -21.5900 49.8228 0.0000 1.1939 0.0000
# 4 0.0000 0.0000 0.0000 19.9294 0.0000 -1.3960
# 5 10.8453 9.4208 1.1939 0.0000 32.7200 0.0000
# 6 0.0000 0.0000 0.0000 -1.3960 0.0000 14.8702
#
#
#
# Elastic Compliance Matrix: (Units=1/GPa)
#
#
# Indices 1 2 3 4 5 6 
#
# 1 0.019224 -0.001319 -0.001296 0.000000 -0.005945 0.000000
# 2 -0.001319 0.017025 0.007551 0.000000 -0.004740 0.000000
# 3 -0.001296 0.007551 0.023464 0.000000 -0.002601 0.000000
# 4 0.000000 0.000000 0.000000 0.050509 0.000000 0.004742
# 5 -0.005945 -0.004740 -0.002601 0.000000 0.033993 0.000000
# 6 0.000000 0.000000 0.000000 0.004742 0.000000 0.067694
#
#
# Mechanical properties :
#
#
# Convention : Reuss Voigt Hill
#
# Bulk Modulus (GPa) = 14.37096 16.80454 15.58775
# Shear Modulus (GPa) = 22.19930 26.18352 24.19141
#
# Velocity S-wave (km/s) = 3.37144 3.66151 3.51947
# Velocity P-wave (km/s) = 4.74487 5.14586 4.94943
#
# Compressibility (1/GPa) = 0.06958475
#
# Stress axis : x y z
#
# Youngs Moduli (GPa) = 52.01811 58.73619 42.61883
#
# Poissons Ratio (x) = 0.07750 0.05521
# Poissons Ratio (y) = 0.06863 -0.32180
# Poissons Ratio (z) = 0.06739 -0.44350
#
# Static dielectric constant tensor:
#      x y z
#    x 1.841650 0.000000 -0.048090 
#    y 0.000000 1.693790 0.000000 
#    z -0.048090 0.000000 1.745530 
# 
# From -- ./inp_files/88089.got.cif
#   From: 2010.05.17/outbox.cif.g08.bks.cpg/sg12_45_cif.got.tgz:88089.got - 2010.06.03 13:09:07.
