data_PCOD9201443
_publ_section_title
;
Structure prediction by ZEFSAII (Michael W. Deem and Ramdas Pophale) SiO2 
 PCOD9201443
Probable space group: C 2/M
;
_chemical_formula_sum "Si O2"
_cell_formula_units_Z 56
_cell_length_a 22.688783
_cell_length_b 7.817348
_cell_length_c 15.044189
_cell_angle_alpha 90.000000
_cell_angle_beta 113.196585
_cell_angle_gamma 90.000000
_cell_volume 2452.618421
_symmetry_space_group_name_H-M "C 2/M"
_symmetry_group_IT_number 12
_symmetry_cell_setting 'monoclinic'
loop_
_space_group_symop_operation_xyz
x,y,z
-x,y,-z
-x,-y,-z
x,-y,z
1/2+x,1/2+y,z
1/2-x,1/2+y,-z
1/2-x,1/2-y,-z
1/2+x,1/2-y,z
loop_
_atom_site_type_symbol
_atom_site_label
_atom_site_fract_x
_atom_site_fract_y
_atom_site_fract_z
Si Si1 0.161064 0.694947 0.437842
Si Si2 0.897622 0.292818 0.266461
Si Si3 0.340001 0.303841 0.760922
Si Si4 0.174574 0.294146 0.955338
Si Si5 0.427985 0.801943 0.959984
Si Si6 0.296469 0.209289 0.349744
Si Si7 0.026505 0.199928 0.420193
O O1 0.180362 0.500000 0.430791
O O2 0.158579 0.795989 0.344767
O O3 0.200381 0.765581 0.545803
O O4 0.088572 0.696377 0.430695
O O5 0.900577 0.500000 0.269002
O O6 0.858906 0.239012 0.156398
O O7 0.857550 0.236480 0.329401
O O8 0.969073 0.223207 0.316430
O O9 0.344850 0.500000 0.792652
O O10 0.396159 0.206277 0.843772
O O11 0.268474 0.236337 0.738209
O O12 0.173113 0.500000 0.957661
O O13 0.250000 0.250000 0.000000
O O14 0.127488 0.230712 0.006863
O O15 0.436469 0.000000 0.992449
O O16 0.500000 0.725532 0.000000
O O17 0.295753 0.000000 0.351876
O O18 0.000000 0.257014 0.500000
O O19 0.043982 0.000000 0.436699
#
# Coordination Sequence:
#
# PCOD9201443 Si02
#       7
#     8   8   8   8   8   8   8
#     4  11  22  38  61  87 119 164 206 240 292 365
#     4  10  20  37  62  89 117 160 207 243 296 367
#     4  11  23  40  62  90 122 156 200 255 308 356
#     4  10  22  40  65  94 124 161 207 262 314 368
#     4  10  23  43  63  89 124 164 212 258 309 375
#     4   9  19  36  59  88 122 157 197 242 294 362
#     4  11  23  38  56  87 125 158 197 253 306 349
#
# _framework density 22.832742
#
# number of rings (size 3 to 8) (size 9 to 14) (size 15 to 20)
#    0.000    1.714    1.429    2.571    2.000    3.143 
#    0.000    3.571    0.000    0.000    0.000    0.000 
#    0.000    0.000    0.000    0.000    0.000    0.000 
#
# Total GULP energy -156465.145654 kJ/mol
# GULP energy per Si atom -5588.040916 kJ/mol
# Density = 2.278077 g / cm^3
# Si number density = 22.832742 Si / 1000 Ang^3
#
#
#
# Elastic Constant Matrix: (Units=GPa)
#
#
# Indices 1 2 3 4 5 6 
#
# 1 119.9449 15.9246 43.4062 0.0000 20.4134 0.0000
# 2 15.9246 42.1057 2.2674 0.0000 -0.7955 0.0000
# 3 43.4062 2.2674 123.1434 0.0000 20.0599 0.0000
# 4 0.0000 0.0000 0.0000 10.3080 0.0000 4.0582
# 5 20.4134 -0.7955 20.0599 0.0000 44.2503 0.0000
# 6 0.0000 0.0000 0.0000 4.0582 0.0000 19.9013
#
#
#
# Elastic Compliance Matrix: (Units=1/GPa)
#
#
# Indices 1 2 3 4 5 6 
#
# 1 0.010573 -0.003900 -0.003076 0.000000 -0.003553 0.000000
# 2 -0.003900 0.025231 0.000587 0.000000 0.001987 0.000000
# 3 -0.003076 0.000587 0.009676 0.000000 -0.002957 0.000000
# 4 0.000000 0.000000 0.000000 0.105480 0.000000 -0.021509
# 5 -0.003553 0.001987 -0.002957 0.000000 0.025614 0.000000
# 6 0.000000 0.000000 0.000000 -0.021509 0.000000 0.054634
#
#
# Mechanical properties :
#
#
# Convention : Reuss Voigt Hill
#
# Bulk Modulus (GPa) = 30.58130 45.37670 37.97900
# Shear Modulus (GPa) = 19.61652 29.79831 24.70741
#
# Velocity S-wave (km/s) = 2.93429 3.61649 3.29310
# Velocity P-wave (km/s) = 4.99027 6.11190 5.57934
#
# Compressibility (1/GPa) = 0.03269973
#
# Stress axis : x y z
#
# Youngs Moduli (GPa) = 94.58156 39.63414 103.35110
#
# Poissons Ratio (x) = 0.15458 0.31793
# Poissons Ratio (y) = 0.36889 -0.06062
# Poissons Ratio (z) = 0.29095 -0.02325
#
# Static dielectric constant tensor:
#      x y z
#    x 1.873050 0.000000 -0.012650 
#    y 0.000000 1.842560 0.000000 
#    z -0.012650 0.000000 1.837970 
# 
# From -- ./inp_files/238939.got.cif
#   From: 2010.05.17/outbox.cif.g08.bks.cpg/sg12_120_cif.got.tgz:238939.got - 2010.06.03 13:09:07.
