data_PCOD9201516
_publ_section_title
;
Structure prediction by ZEFSAII (Michael W. Deem and Ramdas Pophale) SiO2 
 PCOD9201516
Probable space group: C 2/M
;
_chemical_formula_sum "Si O2"
_cell_formula_units_Z 58
_cell_length_a 19.455573
_cell_length_b 7.713250
_cell_length_c 23.013475
_cell_angle_alpha 90.000000
_cell_angle_beta 136.528356
_cell_angle_gamma 90.000000
_cell_volume 2376.015299
_symmetry_space_group_name_H-M "C 2/M"
_symmetry_group_IT_number 12
_symmetry_cell_setting 'monoclinic'
loop_
_space_group_symop_operation_xyz
x,y,z
-x,y,-z
-x,-y,-z
x,-y,z
1/2+x,1/2+y,z
1/2-x,1/2+y,-z
1/2-x,1/2-y,-z
1/2+x,1/2-y,z
loop_
_atom_site_type_symbol
_atom_site_label
_atom_site_fract_x
_atom_site_fract_y
_atom_site_fract_z
Si Si1 0.420010 0.694089 0.036843
Si Si2 0.485171 0.196098 0.298689
Si Si3 0.157148 0.708449 0.483198
Si Si4 0.445034 0.295558 0.778193
Si Si5 0.887241 0.711147 0.419513
Si Si6 0.500000 0.000000 0.000000
Si Si7 0.264151 0.307893 0.131250
Si Si8 0.224861 0.209722 0.233405
O O1 0.460667 0.500000 0.047809
O O2 0.301972 0.692883 0.951707
O O3 0.466494 0.845826 0.026391
O O4 0.452179 0.725734 0.123045
O O5 0.554519 0.276310 0.391290
O O6 0.550908 0.200610 0.280366
O O7 0.379368 0.273630 0.215796
O O8 0.461933 0.000000 0.302498
O O9 0.147211 0.500000 0.478407
O O10 0.250000 0.750000 0.500000
O O11 0.171141 0.764637 0.558058
O O12 0.430216 0.500000 0.756090
O O13 0.359587 0.244430 0.771566
O O14 0.888180 0.500000 0.417316
O O15 0.829719 0.765865 0.326595
O O16 0.000000 0.767944 0.500000
O O17 0.255395 0.500000 0.102721
O O18 0.211879 0.292833 0.162754
O O19 0.223945 0.000000 0.225562
#
# Coordination Sequence:
#
# PCOD9201516 Si02
#       8
#     8   8   8   8   8   2   8   8
#     4  11  24  42  66  98 137 177 222 278 331 396
#     4  11  24  41  65  92 129 172 219 274 335 397
#     4  10  21  38  62  92 122 164 213 265 327 393
#     4  10  23  41  64  93 127 172 216 270 329 390
#     4   9  17  32  57  86 119 159 206 256 315 390
#     4  12  22  40  68 102 132 172 224 266 330 394
#     4  12  25  42  64  93 129 174 223 274 334 405
#     4  10  20  37  62  90 124 164 211 268 329 393
#
# _framework density 24.410617999999999
#
# number of rings (size 3 to 8) (size 9 to 14) (size 15 to 20)
#    0.000    1.517    0.690    4.345    0.966    6.621 
#    0.000    0.690    0.000    1.655    0.000    0.000 
#    0.000    0.000    0.000    0.000    0.000    0.000 
#
# Total GULP energy -161978.946060 kJ/mol
# GULP energy per Si atom -5585.480899 kJ/mol
# Density = 2.435506 g / cm^3
# Si number density = 24.410618 Si / 1000 Ang^3
#
#
#
# Elastic Constant Matrix: (Units=GPa)
#
#
# Indices 1 2 3 4 5 6 
#
# 1 48.1037 -9.8492 -7.0529 0.0000 6.9121 0.0000
# 2 -9.8492 84.6344 2.0814 0.0000 -3.3831 0.0000
# 3 -7.0529 2.0814 117.9117 0.0000 5.2767 0.0000
# 4 0.0000 0.0000 0.0000 6.5978 0.0000 1.5632
# 5 6.9121 -3.3831 5.2767 0.0000 34.3571 0.0000
# 6 0.0000 0.0000 0.0000 1.5632 0.0000 28.3711
#
#
#
# Elastic Compliance Matrix: (Units=1/GPa)
#
#
# Indices 1 2 3 4 5 6 
#
# 1 0.022128 0.002361 0.001481 0.000000 -0.004447 0.000000
# 2 0.002361 0.012122 -0.000106 0.000000 0.000735 0.000000
# 3 0.001481 -0.000106 0.008645 0.000000 -0.001636 0.000000
# 4 0.000000 0.000000 0.000000 0.153570 0.000000 -0.008461
# 5 -0.004447 0.000735 -0.001636 0.000000 0.030324 0.000000
# 6 0.000000 0.000000 0.000000 -0.008461 0.000000 0.035713
#
#
# Mechanical properties :
#
#
# Convention : Reuss Voigt Hill
#
# Bulk Modulus (GPa) = 19.85424 24.55649 22.20537
# Shear Modulus (GPa) = 18.39458 31.56325 24.97892
#
# Velocity S-wave (km/s) = 2.74806 3.59975 3.20235
# Velocity P-wave (km/s) = 4.26852 5.23060 4.77386
#
# Compressibility (1/GPa) = 0.05036707
#
# Stress axis : x y z
#
# Youngs Moduli (GPa) = 45.19185 82.49291 115.67942
#
# Poissons Ratio (x) = -0.19476 -0.17131
# Poissons Ratio (y) = -0.10669 0.01222
# Poissons Ratio (z) = -0.06692 0.00872
#
# Static dielectric constant tensor:
#      x y z
#    x 1.956290 0.000000 0.061930 
#    y 0.000000 1.903750 0.000000 
#    z 0.061930 0.000000 1.949540 
# 
# From -- ./inp_files/346550.got.cif
#   From: 2010.05.17/outbox.cif.g08.bks.cpg/sg12_174_cif.got.tgz:346550.got - 2010.06.03 13:09:07.
