data_PCOD9201517
_publ_section_title
;
Structure prediction by ZEFSAII (Michael W. Deem and Ramdas Pophale) SiO2 
 PCOD9201517
Probable space group: C 2/M
;
_chemical_formula_sum "Si O2"
_cell_formula_units_Z 56
_cell_length_a 23.862380
_cell_length_b 9.739178
_cell_length_c 11.262449
_cell_angle_alpha 90.000000
_cell_angle_beta 78.973955
_cell_angle_gamma 90.000000
_cell_volume 2569.076603
_symmetry_space_group_name_H-M "C 2/M"
_symmetry_group_IT_number 12
_symmetry_cell_setting 'monoclinic'
loop_
_space_group_symop_operation_xyz
x,y,z
-x,y,-z
-x,-y,-z
x,-y,z
1/2+x,1/2+y,z
1/2-x,1/2+y,-z
1/2-x,1/2-y,-z
1/2+x,1/2-y,z
loop_
_atom_site_type_symbol
_atom_site_label
_atom_site_fract_x
_atom_site_fract_y
_atom_site_fract_z
Si Si1 0.622976 0.841515 0.972511
Si Si2 0.376637 0.341013 0.803011
Si Si3 0.541240 0.342623 0.599161
Si Si4 0.042730 0.840615 0.870401
Si Si5 0.754551 0.650168 0.607566
Si Si6 0.240869 0.651018 0.815040
Si Si7 0.389954 0.153635 0.576284
O O1 0.593156 0.768185 0.872996
O O2 0.691837 0.842325 0.933239
O O3 0.604694 0.000000 0.992355
O O4 0.607233 0.746971 0.089648
O O5 0.395529 0.500000 0.798572
O O6 0.306954 0.342356 0.826329
O O7 0.399570 0.259631 0.679918
O O8 0.500000 0.329405 0.500000
O O9 0.563207 0.500000 0.584761
O O10 0.519902 0.324039 0.743994
O O11 0.588110 0.227419 0.551095
O O12 0.062246 0.000000 0.871275
O O13 0.000000 0.820558 0.000000
O O14 0.729814 0.500000 0.596267
O O15 0.750000 0.750000 0.500000
O O16 0.729039 0.725253 0.731322
O O17 0.822042 0.638813 0.602028
O O18 0.233918 0.500000 0.758840
O O19 0.414681 0.000000 0.582458
#
# Coordination Sequence:
#
# PCOD9201517 Si02
#       7
#     8   8   8   8   8   8   8
#     4  11  23  38  61  92 128 163 203 258 316 368
#     4  10  20  37  62  90 125 170 212 250 299 366
#     4  10  23  43  68  95 122 160 209 261 314 377
#     4  10  24  45  66  92 124 162 211 260 314 381
#     4  10  21  35  55  82 120 163 204 250 301 363
#     4   9  20  37  56  85 123 164 207 250 299 360
#     4  10  22  39  60  91 125 160 204 256 314 369
#
# _framework density 21.797715
#
# number of rings (size 3 to 8) (size 9 to 14) (size 15 to 20)
#    0.000    2.000    0.000    2.143    4.000    4.571 
#    0.000    0.000    0.000    0.000    0.000    0.000 
#    0.000    0.000    0.000    0.000    0.000    0.000 
#
# Total GULP energy -156206.772895 kJ/mol
# GULP energy per Si atom -5578.813318 kJ/mol
# Density = 2.174810 g / cm^3
# Si number density = 21.797715 Si / 1000 Ang^3
#
#
#
# Elastic Constant Matrix: (Units=GPa)
#
#
# Indices 1 2 3 4 5 6 
#
# 1 40.3208 36.7706 25.0708 0.0000 0.2588 0.0000
# 2 36.7706 178.6249 79.2703 0.0000 5.0903 0.0000
# 3 25.0708 79.2703 126.8612 0.0000 6.4470 0.0000
# 4 0.0000 0.0000 0.0000 23.8252 0.0000 6.5348
# 5 0.2588 5.0903 6.4470 0.0000 29.5378 0.0000
# 6 0.0000 0.0000 0.0000 6.5348 0.0000 23.5131
#
#
#
# Elastic Compliance Matrix: (Units=1/GPa)
#
#
# Indices 1 2 3 4 5 6 
#
# 1 0.031380 -0.005141 -0.003054 0.000000 0.001278 0.000000
# 2 -0.005141 0.008591 -0.004327 0.000000 -0.000491 0.000000
# 3 -0.003054 -0.004327 0.011276 0.000000 -0.001689 0.000000
# 4 0.000000 0.000000 0.000000 0.045436 0.000000 -0.012628
# 5 0.001278 -0.000491 -0.001689 0.000000 0.034297 0.000000
# 6 0.000000 0.000000 0.000000 -0.012628 0.000000 0.046039
#
#
# Mechanical properties :
#
#
# Convention : Reuss Voigt Hill
#
# Bulk Modulus (GPa) = 38.16412 69.78118 53.97265
# Shear Modulus (GPa) = 23.71952 29.02157 26.37055
#
# Velocity S-wave (km/s) = 3.30231 3.65280 3.48197
# Velocity P-wave (km/s) = 5.66451 7.06209 6.40156
#
# Compressibility (1/GPa) = 0.02620262
#
# Stress axis : x y z
#
# Youngs Moduli (GPa) = 31.86746 116.40240 88.68466
#
# Poissons Ratio (x) = 0.59839 0.27085
# Poissons Ratio (y) = 0.16382 0.38376
# Poissons Ratio (z) = 0.09733 0.50370
#
# Static dielectric constant tensor:
#      x y z
#    x 1.866650 0.000000 -0.006260 
#    y 0.000000 1.793640 0.000000 
#    z -0.006260 0.000000 1.798590 
# 
# From -- ./inp_files/180727.got.cif
#   From: 2010.05.17/outbox.cif.g08.bks.cpg/sg12_91_cif.got.tgz:180727.got - 2010.06.03 13:09:07.
