data_PCOD9201818
_publ_section_title
;
Structure prediction by ZEFSAII (Michael W. Deem and Ramdas Pophale) SiO2 
 PCOD9201818
Probable space group: C 2/M
;
_chemical_formula_sum "Si O2"
_cell_formula_units_Z 32
_cell_length_a 11.981750
_cell_length_b 13.748761
_cell_length_c 13.521123
_cell_angle_alpha 90.000000
_cell_angle_beta 33.274223
_cell_angle_gamma 90.000000
_cell_volume 1222.051142
_symmetry_space_group_name_H-M "C 2/M"
_symmetry_group_IT_number 12
_symmetry_cell_setting 'monoclinic'
loop_
_space_group_symop_operation_xyz
x,y,z
-x,y,-z
-x,-y,-z
x,-y,z
1/2+x,1/2+y,z
1/2-x,1/2+y,-z
1/2-x,1/2-y,-z
1/2+x,1/2-y,z
loop_
_atom_site_type_symbol
_atom_site_label
_atom_site_fract_x
_atom_site_fract_y
_atom_site_fract_z
Si Si1 0.245122 0.608421 0.329957
Si Si2 0.126253 0.889760 0.536840
Si Si3 0.261998 0.748151 0.825748
Si Si4 0.571576 0.886902 0.126179
O O1 0.313387 0.500000 0.249486
O O2 0.306562 0.621896 0.398118
O O3 0.331293 0.691654 0.195889
O O4 0.000000 0.609595 0.500000
O O5 0.329571 0.881784 0.321751
O O6 0.962468 0.807740 0.638873
O O7 0.045474 0.000000 0.585166
O O8 0.328588 0.829095 0.856709
O O9 0.146058 0.664725 0.971993
O O10 0.630686 0.000000 0.084184
#
# Coordination Sequence:
#
# PCOD9201818 Si02
#       4
#     8   8   8   8
#     4  10  20  37  64  96 126 157 205 267 314 359
#     4  10  21  40  66  93 123 162 208 259 314 367
#     4  11  21  37  65  93 121 168 208 251 314 378
#     4  10  21  37  59  91 127 161 205 260 309 366
#
# _framework density 26.185483000000001
#
# number of rings (size 3 to 8) (size 9 to 14) (size 15 to 20)
#    0.000    1.750    2.500    2.250    0.000    0.000 
#    0.000    7.500    0.000   30.000    0.000    0.000 
#    0.000    0.000    0.000    0.000    0.000    0.000 
#
# Total GULP energy -89904.047038 kJ/mol
# GULP energy per Si atom -5619.002940 kJ/mol
# Density = 2.612588 g / cm^3
# Si number density = 26.185483 Si / 1000 Ang^3
#
#
#
# Elastic Constant Matrix: (Units=GPa)
#
#
# Indices 1 2 3 4 5 6 
#
# 1 96.9242 56.4521 19.7998 -0.0034 13.5287 0.0032
# 2 56.4521 246.6317 97.7085 -0.0021 9.0431 0.0021
# 3 19.7998 97.7085 136.9594 -0.0051 11.1341 0.0069
# 4 -0.0034 -0.0021 -0.0051 50.1584 0.0030 -4.1911
# 5 13.5287 9.0431 11.1341 0.0030 27.9827 -0.0043
# 6 0.0032 0.0021 0.0069 -4.1911 -0.0043 10.3912
#
#
#
# Elastic Compliance Matrix: (Units=1/GPa)
#
#
# Indices 1 2 3 4 5 6 
#
# 1 0.012672 -0.002998 0.000750 0.000001 -0.005456 -0.000006
# 2 -0.002998 0.006363 -0.004192 0.000000 0.001061 0.000003
# 3 0.000750 -0.004192 0.010441 0.000001 -0.003162 -0.000007
# 4 0.000001 0.000000 0.000001 0.020632 -0.000001 0.008322
# 5 -0.005456 0.001061 -0.003162 -0.000001 0.039289 0.000019
# 6 -0.000006 0.000003 -0.000007 0.008322 0.000019 0.099592
#
#
# Mechanical properties :
#
#
# Convention : Reuss Voigt Hill
#
# Bulk Modulus (GPa) = 60.25572 92.04846 76.15209
# Shear Modulus (GPa) = 24.10810 38.14346 31.12578
#
# Velocity S-wave (km/s) = 3.03754 3.82077 3.45144
# Velocity P-wave (km/s) = 5.94670 7.39548 6.71031
#
# Compressibility (1/GPa) = 0.01659594
#
# Stress axis : x y z
#
# Youngs Moduli (GPa) = 78.91702 157.16784 95.77865
#
# Poissons Ratio (x) = 0.47112 -0.07185
# Poissons Ratio (y) = 0.23656 0.40151
# Poissons Ratio (z) = -0.05920 0.65886
#
# Static dielectric constant tensor:
#      x y z
#    x 2.078300 0.000000 -0.069300 
#    y 0.000000 1.985750 0.000000 
#    z -0.069300 0.000000 2.070970 
# 
# From -- ./inp_files/224547.got.cif
#   From: 2010.05.17/outbox.cif.g08.bks.cpg/sg12_113_cif.got.tgz:224547.got - 2010.06.03 13:09:07.
