data_PCOD9201161
_publ_section_title
;
Structure prediction by ZEFSAII (Michael W. Deem and Ramdas Pophale) SiO2 
 PCOD9201161
Probable space group: C 2/M
;
_chemical_formula_sum "Si O2"
_cell_formula_units_Z 48
_cell_length_a 25.480243
_cell_length_b 8.825018
_cell_length_c 11.846326
_cell_angle_alpha 90.000000
_cell_angle_beta 91.077385
_cell_angle_gamma 90.000000
_cell_volume 2663.336618
_symmetry_space_group_name_H-M "C 2/M"
_symmetry_group_IT_number 12
_symmetry_cell_setting 'monoclinic'
loop_
_space_group_symop_operation_xyz
x,y,z
-x,y,-z
-x,-y,-z
x,-y,z
1/2+x,1/2+y,z
1/2-x,1/2+y,-z
1/2-x,1/2-y,-z
1/2+x,1/2-y,z
loop_
_atom_site_type_symbol
_atom_site_label
_atom_site_fract_x
_atom_site_fract_y
_atom_site_fract_z
Si Si1 0.682621 0.819029 0.401011
Si Si2 0.062301 0.818564 0.999092
Si Si3 0.084749 0.681688 0.237007
Si Si4 0.802157 0.820263 0.356259
Si Si5 0.512803 0.680628 0.631340
Si Si6 0.893642 0.319873 0.229648
O O1 0.635853 0.781902 0.313898
O O2 0.740018 0.785816 0.351723
O O3 0.678604 0.731728 0.518964
O O4 0.680819 0.000000 0.424377
O O5 0.087840 0.747087 0.111455
O O6 0.067458 0.000000 0.000382
O O7 0.087553 0.752174 0.887044
O O8 0.000000 0.782262 0.000000
O O9 0.078770 0.500000 0.233048
O O10 0.034289 0.754980 0.294868
O O11 0.836243 0.734674 0.264764
O O12 0.809411 0.000000 0.344175
O O13 0.500000 0.709822 0.500000
O O14 0.517376 0.500000 0.648550
O O15 0.566003 0.759578 0.673839
O O16 0.896304 0.500000 0.223169
#
# Coordination Sequence:
#
# PCOD9201161 Si02
#       6
#     8   8   8   8   8   8
#     4   9  20  38  60  88 120 154 192 236 286 341
#     4  11  23  40  61  83 113 152 195 238 286 345
#     4  11  22  37  59  86 116 149 191 237 286 341
#     4  10  20  37  61  87 119 156 193 235 286 342
#     4  11  23  37  55  83 117 151 188 232 286 344
#     4  12  24  38  59  85 115 150 194 240 287 341
#
# _framework density 18.022507000000001
#
# number of rings (size 3 to 8) (size 9 to 14) (size 15 to 20)
#    0.000    1.333    1.667    4.500    0.000    6.667 
#    0.000    0.833    0.000    0.000    0.000    0.000 
#    0.000    0.000    0.000    0.000    0.000    0.000 
#
# Total GULP energy -134191.555017 kJ/mol
# GULP energy per Si atom -5591.314792 kJ/mol
# Density = 1.798149 g / cm^3
# Si number density = 18.022507 Si / 1000 Ang^3
#
#
#
# Elastic Constant Matrix: (Units=GPa)
#
#
# Indices 1 2 3 4 5 6 
#
# 1 45.8602 9.8922 7.3578 0.0000 -11.6844 0.0000
# 2 9.8922 45.2993 22.7492 0.0000 -11.1555 0.0000
# 3 7.3578 22.7492 55.5522 0.0000 -21.4999 0.0000
# 4 0.0000 0.0000 0.0000 32.0188 0.0000 1.9369
# 5 -11.6844 -11.1555 -21.4999 0.0000 29.9752 0.0000
# 6 0.0000 0.0000 0.0000 1.9369 0.0000 22.1776
#
#
#
# Elastic Compliance Matrix: (Units=1/GPa)
#
#
# Indices 1 2 3 4 5 6 
#
# 1 0.024815 -0.004111 0.002143 0.000000 0.009680 0.000000
# 2 -0.004111 0.028670 -0.010641 0.000000 0.001435 0.000000
# 3 0.002143 -0.010641 0.028883 0.000000 0.017592 0.000000
# 4 0.000000 0.000000 0.000000 0.031398 0.000000 -0.002742
# 5 0.009680 0.001435 0.017592 0.000000 0.050286 0.000000
# 6 0.000000 0.000000 0.000000 -0.002742 0.000000 0.045330
#
#
# Mechanical properties :
#
#
# Convention : Reuss Voigt Hill
#
# Bulk Modulus (GPa) = 17.49765 25.19002 21.34384
# Shear Modulus (GPa) = 19.71217 23.94849 21.83033
#
# Velocity S-wave (km/s) = 3.31078 3.64924 3.48412
# Velocity P-wave (km/s) = 4.93405 5.63589 5.29661
#
# Compressibility (1/GPa) = 0.05715054
#
# Stress axis : x y z
#
# Youngs Moduli (GPa) = 40.29872 34.87910 34.62208
#
# Poissons Ratio (x) = 0.14340 -0.07421
# Poissons Ratio (y) = 0.16569 0.36841
# Poissons Ratio (z) = -0.08638 0.37115
#
# Static dielectric constant tensor:
#      x y z
#    x 1.607050 0.000000 -0.002520 
#    y 0.000000 1.599460 0.000000 
#    z -0.002520 0.000000 1.590580 
# 
# From -- ./inp_files/172165.got.cif
#   From: 2010.05.17/outbox.cif.g08.bks.cpg/sg12_87_cif.got.tgz:172165.got - 2010.06.03 13:09:07.
