data_PCOD9201017
_publ_section_title
;
Structure prediction by ZEFSAII (Michael W. Deem and Ramdas Pophale) SiO2 
 PCOD9201017
Probable space group: C 2/M
;
_chemical_formula_sum "Si O2"
_cell_formula_units_Z 58
_cell_length_a 17.671837
_cell_length_b 12.518294
_cell_length_c 22.619798
_cell_angle_alpha 90.000000
_cell_angle_beta 140.643173
_cell_angle_gamma 90.000000
_cell_volume 3173.264267
_symmetry_space_group_name_H-M "C 2/M"
_symmetry_group_IT_number 12
_symmetry_cell_setting 'monoclinic'
loop_
_space_group_symop_operation_xyz
x,y,z
-x,y,-z
-x,-y,-z
x,-y,z
1/2+x,1/2+y,z
1/2-x,1/2+y,-z
1/2-x,1/2-y,-z
1/2+x,1/2-y,z
loop_
_atom_site_type_symbol
_atom_site_label
_atom_site_fract_x
_atom_site_fract_y
_atom_site_fract_z
Si Si1 0.057275 0.623389 0.469839
Si Si2 0.433650 0.774184 0.820107
Si Si3 0.000000 0.000000 0.000000
Si Si4 0.215622 0.625015 0.167085
Si Si5 0.659837 0.624515 0.341054
Si Si6 0.884259 0.375962 0.156280
Si Si7 0.367391 0.695223 0.973382
Si Si8 0.528764 0.725687 0.686163
O O1 0.031024 0.500000 0.435295
O O2 0.200118 0.634352 0.560755
O O3 0.000000 0.637521 0.500000
O O4 0.008003 0.710819 0.394695
O O5 0.340790 0.835917 0.805240
O O6 0.373365 0.696211 0.735804
O O7 0.520618 0.853169 0.837229
O O8 0.521899 0.708953 0.916058
O O9 0.899668 0.094461 0.952192
O O10 0.193274 0.500000 0.143377
O O11 0.156666 0.699599 0.080644
O O12 0.356924 0.649754 0.253534
O O13 0.633565 0.500000 0.312912
O O14 0.580132 0.664008 0.348120
O O15 0.875335 0.500000 0.162315
O O16 0.753209 0.330113 0.063831
O O17 0.928797 0.313868 0.240898
#
# Coordination Sequence:
#
# PCOD9201017 Si02
#       8
#     8   8   2   8   8   8   8   8
#     4  10  20  37  60  90 116 147 189 241 295 346
#     4  11  22  37  55  85 113 154 194 236 289 338
#     4  12  20  40  58  84 116 146 206 238 292 340
#     4  11  23  39  59  85 118 155 198 236 288 348
#     4  10  22  37  59  85 116 151 193 241 292 344
#     4  10  21  36  55  80 113 148 191 239 289 341
#     4  11  23  38  58  85 114 155 194 244 289 340
#     4  10  21  38  59  83 114 152 191 235 287 345
#
# _framework density 18.277709000000002
#
# number of rings (size 3 to 8) (size 9 to 14) (size 15 to 20)
#    0.000    1.517    2.069    2.897    0.966    1.655 
#    0.000    0.000    0.000    9.931    0.000    0.000 
#    0.000    0.000    0.000    0.000    0.000    0.000 
#
# Total GULP energy -161663.106078 kJ/mol
# GULP energy per Si atom -5574.589865 kJ/mol
# Density = 1.823611 g / cm^3
# Si number density = 18.277709 Si / 1000 Ang^3
#
#
#
# Elastic Constant Matrix: (Units=GPa)
#
#
# Indices 1 2 3 4 5 6 
#
# 1 88.6501 11.3558 -2.5222 0.0000 9.9154 0.0000
# 2 11.3558 100.4789 3.7852 0.0000 -0.0919 0.0000
# 3 -2.5222 3.7852 32.6417 0.0000 5.5011 0.0000
# 4 0.0000 0.0000 0.0000 17.3308 0.0000 11.1403
# 5 9.9154 -0.0919 5.5011 0.0000 18.0069 0.0000
# 6 0.0000 0.0000 0.0000 11.1403 0.0000 16.1243
#
#
#
# Elastic Compliance Matrix: (Units=1/GPa)
#
#
# Indices 1 2 3 4 5 6 
#
# 1 0.012386 -0.001497 0.002405 0.000000 -0.007563 0.000000
# 2 -0.001497 0.010180 -0.001522 0.000000 0.001342 0.000000
# 3 0.002405 -0.001522 0.032917 0.000000 -0.011388 0.000000
# 4 0.000000 0.000000 0.000000 0.103800 0.000000 -0.071716
# 5 -0.007563 0.001342 -0.011388 0.000000 0.063185 0.000000
# 6 0.000000 0.000000 0.000000 -0.071716 0.000000 0.111567
#
#
# Mechanical properties :
#
#
# Convention : Reuss Voigt Hill
#
# Bulk Modulus (GPa) = 18.43142 27.44537 22.93839
# Shear Modulus (GPa) = 14.15030 24.23584 19.19307
#
# Velocity S-wave (km/s) = 2.78543 3.64535 3.24401
# Velocity P-wave (km/s) = 4.52226 5.72420 5.15836
#
# Compressibility (1/GPa) = 0.05425519
#
# Stress axis : x y z
#
# Youngs Moduli (GPa) = 80.73323 98.23045 30.37912
#
# Poissons Ratio (x) = 0.14709 -0.07307
# Poissons Ratio (y) = 0.12089 0.04625
# Poissons Ratio (z) = -0.19419 0.14954
#
# Static dielectric constant tensor:
#      x y z
#    x 1.652560 0.000000 0.005810 
#    y 0.000000 1.605490 0.000000 
#    z 0.005810 0.000000 1.606880 
# 
# From -- ./inp_files/315960.got.cif
#   From: 2010.05.17/outbox.cif.g08.bks.cpg/sg12_158_cif.got.tgz:315960.got - 2010.06.03 13:09:07.
