data_PCOD9201266
_publ_section_title
;
Structure prediction by ZEFSAII (Michael W. Deem and Ramdas Pophale) SiO2 
 PCOD9201266
Probable space group: C 2/M
;
_chemical_formula_sum "Si O2"
_cell_formula_units_Z 64
_cell_length_a 14.673606
_cell_length_b 8.463222
_cell_length_c 22.542964
_cell_angle_alpha 90.000000
_cell_angle_beta 94.308576
_cell_angle_gamma 90.000000
_cell_volume 2791.608467
_symmetry_space_group_name_H-M "C 2/M"
_symmetry_group_IT_number 12
_symmetry_cell_setting 'monoclinic'
loop_
_space_group_symop_operation_xyz
x,y,z
-x,y,-z
-x,-y,-z
x,-y,z
1/2+x,1/2+y,z
1/2-x,1/2+y,-z
1/2-x,1/2-y,-z
1/2+x,1/2-y,z
loop_
_atom_site_type_symbol
_atom_site_label
_atom_site_fract_x
_atom_site_fract_y
_atom_site_fract_z
Si Si1 0.008126 0.817878 0.385874
Si Si2 0.055604 0.320485 0.266210
Si Si3 0.182838 0.316532 0.446822
Si Si4 0.237540 0.184718 0.899899
Si Si5 0.407968 0.685135 0.852009
Si Si6 0.342050 0.182587 0.221781
Si Si7 0.309369 0.186403 0.354547
Si Si8 0.440868 0.693046 0.052793
O O1 0.055410 0.789186 0.323780
O O2 0.084621 0.766931 0.436666
O O3 0.913885 0.719952 0.380059
O O4 0.984035 0.000000 0.391861
O O5 0.076631 0.500000 0.285238
O O6 0.111540 0.269013 0.211165
O O7 0.950604 0.315039 0.238293
O O8 0.167077 0.500000 0.456064
O O9 0.250000 0.250000 0.500000
O O10 0.239238 0.286359 0.389351
O O11 0.329580 0.282471 0.896356
O O12 0.188175 0.207775 0.833495
O O13 0.163670 0.243363 0.944318
O O14 0.257774 0.000000 0.910260
O O15 0.416024 0.500000 0.840551
O O16 0.501264 0.742301 0.886837
O O17 0.302611 0.224790 0.284490
O O18 0.315534 0.000000 0.206485
O O19 0.290632 0.000000 0.361365
O O20 0.439660 0.500000 0.051666
O O21 0.500000 0.747647 0.000000
#
# Coordination Sequence:
#
# PCOD9201266 Si02
#       8
#     8   8   8   8   8   8   8   8
#     4  11  23  41  65  95 129 167 210 258 315 377
#     4  10  20  37  61  90 125 161 202 255 309 368
#     4  12  26  45  67  94 128 169 216 264 313 373
#     4  11  22  36  58  88 120 158 203 249 304 367
#     4  11  22  37  59  88 120 159 202 250 309 369
#     4   9  19  36  60  88 124 159 197 250 308 365
#     4  10  22  42  65  94 128 167 210 261 316 372
#     4   9  20  40  62  84 117 161 206 253 305 366
#
# _framework density 22.925851999999999
#
# number of rings (size 3 to 8) (size 9 to 14) (size 15 to 20)
#    0.000    1.625    1.250    4.500    1.750    3.500 
#    0.000    2.500    0.000    5.250    0.000    0.000 
#    0.000    0.000    0.000    0.000    0.000    0.000 
#
# Total GULP energy -178998.618196 kJ/mol
# GULP energy per Si atom -5593.706819 kJ/mol
# Density = 2.287367 g / cm^3
# Si number density = 22.925852 Si / 1000 Ang^3
#
#
#
# Elastic Constant Matrix: (Units=GPa)
#
#
# Indices 1 2 3 4 5 6 
#
# 1 71.3758 -18.2977 -0.5244 0.0000 4.0674 0.0000
# 2 -18.2977 46.8372 -2.0199 0.0000 6.1577 0.0000
# 3 -0.5244 -2.0199 12.6615 0.0000 6.9430 0.0000
# 4 0.0000 0.0000 0.0000 20.6486 0.0000 -3.1379
# 5 4.0674 6.1577 6.9430 0.0000 30.5646 0.0000
# 6 0.0000 0.0000 0.0000 -3.1379 0.0000 28.7601
#
#
#
# Elastic Compliance Matrix: (Units=1/GPa)
#
#
# Indices 1 2 3 4 5 6 
#
# 1 0.016115 0.007078 0.004289 0.000000 -0.004545 0.000000
# 2 0.007078 0.025560 0.008808 0.000000 -0.008092 0.000000
# 3 0.004289 0.008808 0.093494 0.000000 -0.023583 0.000000
# 4 0.000000 0.000000 0.000000 0.049246 0.000000 0.005373
# 5 -0.004545 -0.008092 -0.023583 0.000000 0.040310 0.000000
# 6 0.000000 0.000000 0.000000 0.005373 0.000000 0.035357
#
#
# Mechanical properties :
#
#
# Convention : Reuss Voigt Hill
#
# Bulk Modulus (GPa) = 5.69740 9.91006 7.80373
# Shear Modulus (GPa) = 17.97025 26.10908 22.03966
#
# Velocity S-wave (km/s) = 2.80276 3.37834 3.10392
# Velocity P-wave (km/s) = 3.60062 4.42150 4.03200
#
# Compressibility (1/GPa) = 0.17551880
#
# Stress axis : x y z
#
# Youngs Moduli (GPa) = 62.05248 39.12437 10.69587
#
# Poissons Ratio (x) = -0.27693 -0.04587
# Poissons Ratio (y) = -0.43922 -0.09421
# Poissons Ratio (z) = -0.26613 -0.34461
#
# Static dielectric constant tensor:
#      x y z
#    x 1.939240 0.000000 -0.024760 
#    y 0.000000 1.769840 0.000000 
#    z -0.024760 0.000000 1.887810 
# 
# From -- ./inp_files/338894.got.cif
#   From: 2010.05.17/outbox.cif.g08.bks.cpg/sg12_170_cif.got.tgz:338894.got - 2010.06.03 13:09:07.
