data_PCOD9201332
_publ_section_title
;
Structure prediction by ZEFSAII (Michael W. Deem and Ramdas Pophale) SiO2 
 PCOD9201332
Probable space group: C 2/M
;
_chemical_formula_sum "Si O2"
_cell_formula_units_Z 60
_cell_length_a 29.637925
_cell_length_b 9.641877
_cell_length_c 11.240210
_cell_angle_alpha 90.000000
_cell_angle_beta 93.845062
_cell_angle_gamma 90.000000
_cell_volume 3204.830934
_symmetry_space_group_name_H-M "C 2/M"
_symmetry_group_IT_number 12
_symmetry_cell_setting 'monoclinic'
loop_
_space_group_symop_operation_xyz
x,y,z
-x,y,-z
-x,-y,-z
x,-y,z
1/2+x,1/2+y,z
1/2-x,1/2+y,-z
1/2-x,1/2-y,-z
1/2+x,1/2-y,z
loop_
_atom_site_type_symbol
_atom_site_label
_atom_site_fract_x
_atom_site_fract_y
_atom_site_fract_z
Si Si1 0.099993 0.334586 0.795398
Si Si2 0.211030 0.664999 0.426160
Si Si3 0.111757 0.337839 0.520077
Si Si4 0.190730 0.753849 0.944559
Si Si5 0.073138 0.163580 0.305443
Si Si6 0.251141 0.500000 0.048513
Si Si7 0.671035 0.660772 0.210743
Si Si8 0.986095 0.835050 0.134100
O O1 0.094238 0.500000 0.808559
O O2 0.104603 0.303696 0.656109
O O3 0.145554 0.288417 0.869142
O O4 0.057579 0.252712 0.840408
O O5 0.220572 0.500000 0.417553
O O6 0.250000 0.750000 0.500000
O O7 0.164088 0.681496 0.491026
O O8 0.200268 0.734747 0.296364
O O9 0.101366 0.500000 0.500159
O O10 0.081175 0.247831 0.426892
O O11 0.221404 0.620645 0.974401
O O12 0.217935 0.876327 0.886002
O O13 0.178518 0.815644 0.072940
O O14 0.118485 0.184508 0.234509
O O15 0.028543 0.203278 0.225137
O O16 0.070562 0.000000 0.330891
O O17 0.682314 0.500000 0.241102
O O18 0.977290 0.000000 0.147239
O O19 0.000000 0.812616 0.000000
#
# Coordination Sequence:
#
# PCOD9201332 Si02
#       8
#     8   8   8   8   8   4   8   8
#     4  11  24  41  62  88 125 163 201 251 307 362
#     4  10  21  37  58  88 117 155 207 256 307 361
#     4   9  21  41  59  82 119 165 201 246 306 358
#     4  11  22  42  58  89 119 158 205 251 305 373
#     4   9  19  38  62  89 118 154 202 249 295 360
#     4  10  24  38  60  82 120 160 202 244 306 368
#     4  10  20  37  62  83 117 157 196 249 308 361
#     4  10  22  40  64  95 125 158 199 247 305 366
#
# _framework density 18.721734999999999
#
# number of rings (size 3 to 8) (size 9 to 14) (size 15 to 20)
#    0.000    2.000    1.333    1.200    1.867    5.600 
#    2.400    2.667    0.000    0.000    0.000    0.000 
#    0.000    0.000    0.000    0.000    0.000    0.000 
#
# Total GULP energy -167027.900265 kJ/mol
# GULP energy per Si atom -5567.596676 kJ/mol
# Density = 1.867912 g / cm^3
# Si number density = 18.721735 Si / 1000 Ang^3
#
#
#
# Elastic Constant Matrix: (Units=GPa)
#
#
# Indices 1 2 3 4 5 6 
#
# 1 89.0006 62.1283 63.2016 0.0000 23.9437 0.0000
# 2 62.1283 104.6288 45.6305 0.0000 16.4990 0.0000
# 3 63.2016 45.6305 95.9791 0.0000 21.3223 0.0000
# 4 0.0000 0.0000 0.0000 33.6803 0.0000 3.0892
# 5 23.9437 16.4990 21.3223 0.0000 34.1494 0.0000
# 6 0.0000 0.0000 0.0000 3.0892 0.0000 16.3924
#
#
#
# Elastic Compliance Matrix: (Units=1/GPa)
#
#
# Indices 1 2 3 4 5 6 
#
# 1 0.030249 -0.011104 -0.012911 0.000000 -0.007783 0.000000
# 2 -0.011104 0.016337 -0.000501 0.000000 0.000205 0.000000
# 3 -0.012911 -0.000501 0.019847 0.000000 -0.003098 0.000000
# 4 0.000000 0.000000 0.000000 0.030213 0.000000 -0.005694
# 5 -0.007783 0.000205 -0.003098 0.000000 0.036575 0.000000
# 6 0.000000 0.000000 0.000000 -0.005694 0.000000 0.062077
#
#
# Mechanical properties :
#
#
# Convention : Reuss Voigt Hill
#
# Bulk Modulus (GPa) = 57.46356 70.16991 63.81674
# Shear Modulus (GPa) = 19.98955 24.75430 22.37193
#
# Velocity S-wave (km/s) = 3.27114 3.64018 3.46059
# Velocity P-wave (km/s) = 6.71024 7.43167 7.08015
#
# Compressibility (1/GPa) = 0.01740233
#
# Stress axis : x y z
#
# Youngs Moduli (GPa) = 33.05841 61.21017 50.38576
#
# Poissons Ratio (x) = 0.67968 0.65053
# Poissons Ratio (y) = 0.36708 0.02522
# Poissons Ratio (z) = 0.42681 0.03064
#
# Static dielectric constant tensor:
#      x y z
#    x 1.659500 0.000000 -0.029910 
#    y 0.000000 1.630790 0.000000 
#    z -0.029910 0.000000 1.634890 
# 
# From -- ./inp_files/180980.got.cif
#   From: 2010.05.17/outbox.cif.g08.bks.cpg/sg12_91_cif.got.tgz:180980.got - 2010.06.03 13:09:07.
