data_PCOD9201207
_publ_section_title
;
Structure prediction by ZEFSAII (Michael W. Deem and Ramdas Pophale) SiO2 
 PCOD9201207
Probable space group: C 2/M
;
_chemical_formula_sum "Si O2"
_cell_formula_units_Z 40
_cell_length_a 11.837996
_cell_length_b 18.054701
_cell_length_c 9.568260
_cell_angle_alpha 90.000000
_cell_angle_beta 128.191656
_cell_angle_gamma 90.000000
_cell_volume 1607.291644
_symmetry_space_group_name_H-M "C 2/M"
_symmetry_group_IT_number 12
_symmetry_cell_setting 'monoclinic'
loop_
_space_group_symop_operation_xyz
x,y,z
-x,y,-z
-x,-y,-z
x,-y,z
1/2+x,1/2+y,z
1/2-x,1/2+y,-z
1/2-x,1/2-y,-z
1/2+x,1/2-y,z
loop_
_atom_site_type_symbol
_atom_site_label
_atom_site_fract_x
_atom_site_fract_y
_atom_site_fract_z
Si Si1 0.465334 0.582526 0.128594
Si Si2 0.778482 0.585649 0.851540
Si Si3 0.048605 0.619262 0.752403
Si Si4 0.106342 0.726330 0.211729
Si Si5 0.732349 0.121695 0.627427
O O1 0.408831 0.500000 0.061194
O O2 0.356097 0.614405 0.157369
O O3 0.624862 0.581243 0.312168
O O4 0.500000 0.612766 0.000000
O O5 0.756582 0.500000 0.787605
O O6 0.810655 0.649989 0.764458
O O7 0.906777 0.585403 0.065469
O O8 0.179395 0.608997 0.746004
O O9 0.005392 0.704752 0.750833
O O10 0.903771 0.594791 0.565101
O O11 0.214949 0.792102 0.332295
O O12 0.000000 0.740570 0.000000
#
# Coordination Sequence:
#
# PCOD9201207 Si02
#       5
#     8   8   8   8   8
#     4  10  20  37  61  88 120 162 204 251 300 361
#     4  10  22  42  65  90 121 163 211 248 299 368
#     4  10  23  38  58  91 120 164 197 252 314 350
#     4  10  23  38  62  90 120 167 202 252 304 359
#     4  11  22  38  60  90 127 155 207 252 308 368
#
# _framework density 24.886583000000002
#
# number of rings (size 3 to 8) (size 9 to 14) (size 15 to 20)
#    0.000    1.800    2.000    1.200    2.800    6.000 
#    0.000    2.000    0.000    2.400    0.000    0.000 
#    0.000    0.000    0.000    0.000    0.000    0.000 
#
# Total GULP energy -111528.856494 kJ/mol
# GULP energy per Si atom -5576.442825 kJ/mol
# Density = 2.482994 g / cm^3
# Si number density = 24.886583 Si / 1000 Ang^3
#
#
#
# Elastic Constant Matrix: (Units=GPa)
#
#
# Indices 1 2 3 4 5 6 
#
# 1 129.9283 34.7180 18.3802 0.0000 18.1897 0.0000
# 2 34.7180 137.3805 6.6309 0.0000 3.7857 0.0000
# 3 18.3802 6.6309 53.9873 0.0000 23.1290 0.0000
# 4 0.0000 0.0000 0.0000 10.7739 0.0000 1.5559
# 5 18.1897 3.7857 23.1290 0.0000 40.7116 0.0000
# 6 0.0000 0.0000 0.0000 1.5559 0.0000 26.3785
#
#
#
# Elastic Compliance Matrix: (Units=1/GPa)
#
#
# Indices 1 2 3 4 5 6 
#
# 1 0.008877 -0.002090 -0.001519 0.000000 -0.002909 0.000000
# 2 -0.002090 0.007816 -0.000446 0.000000 0.000460 0.000000
# 3 -0.001519 -0.000446 0.024830 0.000000 -0.013386 0.000000
# 4 0.000000 0.000000 0.000000 0.093614 0.000000 -0.005522
# 5 -0.002909 0.000460 -0.013386 0.000000 0.033425 0.000000
# 6 0.000000 0.000000 0.000000 -0.005522 0.000000 0.038235
#
#
# Mechanical properties :
#
#
# Convention : Reuss Voigt Hill
#
# Bulk Modulus (GPa) = 29.92851 48.97270 39.45061
# Shear Modulus (GPa) = 22.11957 33.01061 27.56509
#
# Velocity S-wave (km/s) = 2.98453 3.64599 3.33172
# Velocity P-wave (km/s) = 4.89169 6.11926 5.53959
#
# Compressibility (1/GPa) = 0.03341296
#
# Stress axis : x y z
#
# Youngs Moduli (GPa) = 112.64881 127.94219 40.27448
#
# Poissons Ratio (x) = 0.26739 0.06119
# Poissons Ratio (y) = 0.23542 0.01795
# Poissons Ratio (z) = 0.17116 0.05701
#
# Static dielectric constant tensor:
#      x y z
#    x 1.975480 0.000000 -0.018370 
#    y 0.000000 2.000070 0.000000 
#    z -0.018370 0.000000 2.085750 
# 
# From -- ./inp_files/132773.got.cif
#   From: 2010.05.17/outbox.cif.g08.bks.cpg/sg12_67_cif.got.tgz:132773.got - 2010.06.03 13:09:07.
