data_PCOD9201264
_publ_section_title
;
Structure prediction by ZEFSAII (Michael W. Deem and Ramdas Pophale) SiO2 
 PCOD9201264
Probable space group: C 2/M
;
_chemical_formula_sum "Si O2"
_cell_formula_units_Z 56
_cell_length_a 30.608947
_cell_length_b 8.238635
_cell_length_c 12.065589
_cell_angle_alpha 90.000000
_cell_angle_beta 118.032186
_cell_angle_gamma 90.000000
_cell_volume 2685.698766
_symmetry_space_group_name_H-M "C 2/M"
_symmetry_group_IT_number 12
_symmetry_cell_setting 'monoclinic'
loop_
_space_group_symop_operation_xyz
x,y,z
-x,y,-z
-x,-y,-z
x,-y,z
1/2+x,1/2+y,z
1/2-x,1/2+y,-z
1/2-x,1/2-y,-z
1/2+x,1/2-y,z
loop_
_atom_site_type_symbol
_atom_site_label
_atom_site_fract_x
_atom_site_fract_y
_atom_site_fract_z
Si Si1 0.759987 0.686761 0.388378
Si Si2 0.390221 0.689937 0.006245
Si Si3 0.999231 0.196473 0.128523
Si Si4 0.404914 0.696858 0.622340
Si Si5 0.306889 0.811503 0.070887
Si Si6 0.339956 0.185197 0.743636
Si Si7 0.653840 0.312062 0.652880
O O1 0.776147 0.500000 0.405680
O O2 0.750000 0.750000 0.500000
O O3 0.705671 0.704994 0.271397
O O4 0.798689 0.797008 0.370731
O O5 0.391411 0.500000 0.977178
O O6 0.445122 0.732202 0.114246
O O7 0.345017 0.722491 0.034547
O O8 0.381555 0.791643 0.885017
O O9 0.043957 0.253822 0.260365
O O10 0.004692 0.000000 0.130855
O O11 0.000000 0.250767 0.000000
O O12 0.403448 0.500000 0.621940
O O13 0.362143 0.760044 0.653284
O O14 0.391285 0.744798 0.480100
O O15 0.330688 0.787350 0.220810
O O16 0.305961 0.000000 0.038850
O O17 0.250000 0.750000 0.000000
O O18 0.323215 0.000000 0.718055
O O19 0.645880 0.500000 0.675371
#
# Coordination Sequence:
#
# PCOD9201264 Si02
#       7
#     8   8   8   8   8   8   8
#     4  12  23  36  55  84 121 159 201 249 309 372
#     4  11  22  40  66  92 124 163 212 262 314 370
#     4   9  17  34  63  96 126 163 209 259 311 370
#     4  10  20  37  61  90 124 162 205 255 308 368
#     4  12  26  46  68  91 124 162 212 262 316 377
#     4  12  23  35  55  87 126 163 204 251 311 374
#     4  11  23  40  63  90 124 164 210 257 313 373
#
# _framework density 20.851185000000001
#
# number of rings (size 3 to 8) (size 9 to 14) (size 15 to 20)
#    0.000    1.000    2.857    5.571    0.000    0.571 
#    0.000    2.857    0.000    4.286    0.000    0.000 
#    0.000    0.000    0.000    0.000    0.000    0.000 
#
# Total GULP energy -156406.120806 kJ/mol
# GULP energy per Si atom -5585.932886 kJ/mol
# Density = 2.080373 g / cm^3
# Si number density = 20.851185 Si / 1000 Ang^3
#
#
#
# Elastic Constant Matrix: (Units=GPa)
#
#
# Indices 1 2 3 4 5 6 
#
# 1 75.0253 1.1987 27.3430 0.0000 17.8092 0.0000
# 2 1.1987 47.4322 5.9406 0.0000 5.7421 0.0000
# 3 27.3430 5.9406 116.5751 0.0000 18.9127 0.0000
# 4 0.0000 0.0000 0.0000 24.7132 0.0000 -6.2614
# 5 17.8092 5.7421 18.9127 0.0000 38.7557 0.0000
# 6 0.0000 0.0000 0.0000 -6.2614 0.0000 20.5582
#
#
#
# Elastic Compliance Matrix: (Units=1/GPa)
#
#
# Indices 1 2 3 4 5 6 
#
# 1 0.015744 0.000672 -0.002755 0.000000 -0.005990 0.000000
# 2 0.000672 0.021539 -0.000747 0.000000 -0.003136 0.000000
# 3 -0.002755 -0.000747 0.009816 0.000000 -0.003414 0.000000
# 4 0.000000 0.000000 0.000000 0.043848 0.000000 0.013355
# 5 -0.005990 -0.003136 -0.003414 0.000000 0.030686 0.000000
# 6 0.000000 0.000000 0.000000 0.013355 0.000000 0.052710
#
#
# Mechanical properties :
#
#
# Convention : Reuss Voigt Hill
#
# Bulk Modulus (GPa) = 24.13119 34.22191 29.17655
# Shear Modulus (GPa) = 25.79780 30.44210 28.11995
#
# Velocity S-wave (km/s) = 3.52125 3.82510 3.67632
# Velocity P-wave (km/s) = 5.30381 5.99638 5.66070
#
# Compressibility (1/GPa) = 0.04144015
#
# Stress axis : x y z
#
# Youngs Moduli (GPa) = 63.51580 46.42771 101.87164
#
# Poissons Ratio (x) = -0.03121 0.28069
# Poissons Ratio (y) = -0.04270 0.07605
# Poissons Ratio (z) = 0.17501 0.03466
#
# Static dielectric constant tensor:
#      x y z
#    x 1.735290 0.000000 0.043930 
#    y 0.000000 1.577690 0.000000 
#    z 0.043930 0.000000 1.838160 
# 
# From -- ./inp_files/187728.got.cif
#   From: 2010.05.17/outbox.cif.g08.bks.cpg/sg12_94_cif.got.tgz:187728.got - 2010.06.03 13:09:07.
