data_PCOD9201536
_publ_section_title
;
Structure prediction by ZEFSAII (Michael W. Deem and Ramdas Pophale) SiO2 
 PCOD9201536
Probable space group: C 2/M
;
_chemical_formula_sum "Si O2"
_cell_formula_units_Z 42
_cell_length_a 16.027740
_cell_length_b 9.692931
_cell_length_c 15.176017
_cell_angle_alpha 90.000000
_cell_angle_beta 129.242504
_cell_angle_gamma 90.000000
_cell_volume 1825.966687
_symmetry_space_group_name_H-M "C 2/M"
_symmetry_group_IT_number 12
_symmetry_cell_setting 'monoclinic'
loop_
_space_group_symop_operation_xyz
x,y,z
-x,y,-z
-x,-y,-z
x,-y,z
1/2+x,1/2+y,z
1/2-x,1/2+y,-z
1/2-x,1/2-y,-z
1/2+x,1/2-y,z
loop_
_atom_site_type_symbol
_atom_site_label
_atom_site_fract_x
_atom_site_fract_y
_atom_site_fract_z
Si Si1 0.898960 0.241422 0.525906
Si Si2 0.382187 0.345765 0.260098
Si Si3 0.332287 0.842871 0.675411
Si Si4 0.000000 0.500000 0.500000
Si Si5 0.325158 0.334870 0.837769
Si Si6 0.145953 0.160322 0.951770
O O1 0.798251 0.161573 0.418103
O O2 0.869369 0.285690 0.606032
O O3 0.920577 0.380027 0.486798
O O4 0.012315 0.164052 0.610464
O O5 0.333289 0.500000 0.234360
O O6 0.294751 0.228038 0.223556
O O7 0.419335 0.327205 0.182545
O O8 0.365014 0.746164 0.778827
O O9 0.369528 0.000000 0.712406
O O10 0.323025 0.500000 0.821017
O O11 0.388815 0.305970 0.971995
O O12 0.177430 0.000000 0.978907
O O13 0.250000 0.250000 0.000000
#
# Coordination Sequence:
#
# PCOD9201536 Si02
#       6
#     8   8   8   2   8   8
#     4  11  25  39  65  87 122 156 211 255 315 364
#     4  10  20  37  62  91 123 160 209 264 301 359
#     4  11  24  42  60  88 126 166 202 253 314 376
#     4  12  24  44  62  92 118 158 204 264 300 370
#     4  10  21  35  61  91 123 165 208 251 305 371
#     4   8  16  33  55  86 121 157 204 254 303 354
#
# _framework density 23.001517
#
# number of rings (size 3 to 8) (size 9 to 14) (size 15 to 20)
#    0.000    1.905    0.952    2.286    5.333    2.286 
#    0.000    3.810    0.000    4.571    0.000    0.000 
#    0.000    0.000    0.000    0.000    0.000    0.000 
#
# Total GULP energy -117023.379901 kJ/mol
# GULP energy per Si atom -5572.541900 kJ/mol
# Density = 2.294916 g / cm^3
# Si number density = 23.001517 Si / 1000 Ang^3
#
#
#
# Elastic Constant Matrix: (Units=GPa)
#
#
# Indices 1 2 3 4 5 6 
#
# 1 67.7443 9.1206 10.6580 0.0000 -23.7440 0.0000
# 2 9.1206 86.9397 38.3448 0.0000 -22.3229 0.0000
# 3 10.6580 38.3448 117.2999 0.0000 -29.0081 0.0000
# 4 0.0000 0.0000 0.0000 0.6633 0.0000 0.6971
# 5 -23.7440 -22.3229 -29.0081 0.0000 46.2541 0.0000
# 6 0.0000 0.0000 0.0000 0.6971 0.0000 6.6499
#
#
#
# Elastic Compliance Matrix: (Units=1/GPa)
#
#
# Indices 1 2 3 4 5 6 
#
# 1 0.018067 0.000334 0.000690 0.000000 0.009868 0.000000
# 2 0.000334 0.014254 -0.003487 0.000000 0.004864 0.000000
# 3 0.000690 -0.003487 0.010976 0.000000 0.005555 0.000000
# 4 0.000000 0.000000 0.000000 1.694297 0.000000 -0.177602
# 5 0.009868 0.004864 0.005555 0.000000 0.032516 0.000000
# 6 0.000000 0.000000 0.000000 -0.177602 0.000000 0.168995
#
#
# Mechanical properties :
#
#
# Convention : Reuss Voigt Hill
#
# Bulk Modulus (GPa) = 26.06192 43.13675 34.59933
# Shear Modulus (GPa) = 2.55516 24.97082 13.76299
#
# Velocity S-wave (km/s) = 1.05512 3.29844 2.44878
# Velocity P-wave (km/s) = 3.58322 5.77069 4.80314
#
# Compressibility (1/GPa) = 0.03837016
#
# Stress axis : x y z
#
# Youngs Moduli (GPa) = 55.35070 70.15567 91.10721
#
# Poissons Ratio (x) = -0.02346 -0.06282
# Poissons Ratio (y) = -0.01851 0.31770
# Poissons Ratio (z) = -0.03816 0.24464
#
# Static dielectric constant tensor:
#      x y z
#    x 1.906980 0.000000 -0.034610 
#    y 0.000000 1.789520 0.000000 
#    z -0.034610 0.000000 1.916900 
# 
# From -- ./inp_files/221852.got.cif
#   From: 2010.05.17/outbox.cif.g08.bks.cpg/sg12_111_cif.got.tgz:221852.got - 2010.06.03 13:09:07.
