data_PCOD9201193
_publ_section_title
;
Structure prediction by ZEFSAII (Michael W. Deem and Ramdas Pophale) SiO2 
 PCOD9201193
Probable space group: C 2/M
;
_chemical_formula_sum "Si O2"
_cell_formula_units_Z 40
_cell_length_a 22.219790
_cell_length_b 8.439961
_cell_length_c 31.775765
_cell_angle_alpha 90.000000
_cell_angle_beta 19.483330
_cell_angle_gamma 90.000000
_cell_volume 1987.534504
_symmetry_space_group_name_H-M "C 2/M"
_symmetry_group_IT_number 12
_symmetry_cell_setting 'monoclinic'
loop_
_space_group_symop_operation_xyz
x,y,z
-x,y,-z
-x,-y,-z
x,-y,z
1/2+x,1/2+y,z
1/2-x,1/2+y,-z
1/2-x,1/2-y,-z
1/2+x,1/2-y,z
loop_
_atom_site_type_symbol
_atom_site_label
_atom_site_fract_x
_atom_site_fract_y
_atom_site_fract_z
Si Si1 0.784495 0.184179 0.305042
Si Si2 0.045352 0.813325 0.528035
Si Si3 0.638759 0.815086 0.033656
Si Si4 0.549407 0.313892 0.624274
Si Si5 0.324882 0.805577 0.086944
O O1 0.734238 0.254501 0.383897
O O2 0.606538 0.210290 0.394529
O O3 0.935463 0.282514 0.181751
O O4 0.833036 0.000000 0.276148
O O5 0.023715 0.793676 0.591514
O O6 0.023161 0.000000 0.532854
O O7 0.679216 0.000000 0.004420
O O8 0.750000 0.750000 0.000000
O O9 0.663935 0.752188 0.969340
O O10 0.555798 0.500000 0.630158
O O11 0.750000 0.250000 0.500000
O O12 0.368784 0.251611 0.766522
O O13 0.327270 0.000000 0.085972
O O14 0.500000 0.757790 0.000000
#
# Coordination Sequence:
#
# PCOD9201193 Si02
#       5
#     8   8   8   8   8
#     4  11  22  37  59  87 119 157 200 247 300 362
#     4  10  20  37  61  88 118 155 198 247 300 360
#     4  11  23  39  61  89 123 159 202 253 305 367
#     4  10  22  38  60  90 121 156 198 248 308 366
#     4   9  19  39  65  89 116 158 208 252 300 363
#
# _framework density 20.125437999999999
#
# number of rings (size 3 to 8) (size 9 to 14) (size 15 to 20)
#    0.000    1.800    0.000    5.400    2.800    4.800 
#    0.000    1.000    0.000    4.200    0.000    0.000 
#    0.000    0.000    0.000    0.000    0.000    0.000 
#
# Total GULP energy -111518.570381 kJ/mol
# GULP energy per Si atom -5575.928519 kJ/mol
# Density = 2.007963 g / cm^3
# Si number density = 20.125438 Si / 1000 Ang^3
#
#
#
# Elastic Constant Matrix: (Units=GPa)
#
#
# Indices 1 2 3 4 5 6 
#
# 1 121.5260 24.3702 84.7419 -0.0238 13.6001 -0.0145
# 2 24.3702 21.6863 -3.0738 0.0311 2.9645 0.0328
# 3 84.7419 -3.0738 151.8467 -0.0043 15.8606 0.0720
# 4 -0.0238 0.0311 -0.0043 26.0875 -0.0167 -11.6401
# 5 13.6001 2.9645 15.8606 -0.0167 35.4681 0.0184
# 6 -0.0145 0.0328 0.0720 -11.6401 0.0184 11.9585
#
#
#
# Elastic Compliance Matrix: (Units=1/GPa)
#
#
# Indices 1 2 3 4 5 6 
#
# 1 0.023394 -0.028138 -0.013568 0.000241 -0.000551 0.000422
# 2 -0.028138 0.080783 0.017746 -0.000496 -0.003898 -0.000839
# 3 -0.013568 0.017746 0.014821 -0.000176 -0.002908 -0.000321
# 4 0.000241 -0.000496 -0.000176 0.067766 0.000026 0.065964
# 5 -0.000551 -0.003898 -0.002908 0.000026 0.030032 0.000006
# 6 0.000422 -0.000839 -0.000321 0.065964 0.000006 0.147835
#
#
# Mechanical properties :
#
#
# Convention : Reuss Voigt Hill
#
# Bulk Modulus (GPa) = 14.06918 56.34840 35.20879
# Shear Modulus (GPa) = 11.46148 27.30423 19.38285
#
# Velocity S-wave (km/s) = 2.38901 3.68734 3.10676
# Velocity P-wave (km/s) = 3.82306 6.79618 5.51379
#
# Compressibility (1/GPa) = 0.07107737
#
# Stress axis : x y z
#
# Youngs Moduli (GPa) = 42.74528 12.37888 67.47316
#
# Poissons Ratio (x) = 0.34832 0.91548
# Poissons Ratio (y) = 1.20278 -1.19739
# Poissons Ratio (z) = 0.57997 -0.21968
#
# Static dielectric constant tensor:
#      x y z
#    x 2.309730 0.000160 -0.095750 
#    y 0.000160 1.711370 0.000000 
#    z -0.095750 0.000000 1.817150 
# 
# From -- ./inp_files/380517.got.cif
#   From: 2010.05.17/outbox.cif.g08.bks.cpg/sg12_191_cif.got.tgz:380517.got - 2010.06.03 13:09:07.
