data_PCOD9201376
_publ_section_title
;
Structure prediction by ZEFSAII (Michael W. Deem and Ramdas Pophale) SiO2 
 PCOD9201376
Probable space group: C 2/M
;
_chemical_formula_sum "Si O2"
_cell_formula_units_Z 56
_cell_length_a 13.165810
_cell_length_b 25.538499
_cell_length_c 12.289322
_cell_angle_alpha 90.000000
_cell_angle_beta 46.107502
_cell_angle_gamma 90.000000
_cell_volume 2977.764735
_symmetry_space_group_name_H-M "C 2/M"
_symmetry_group_IT_number 12
_symmetry_cell_setting 'monoclinic'
loop_
_space_group_symop_operation_xyz
x,y,z
-x,y,-z
-x,-y,-z
x,-y,z
1/2+x,1/2+y,z
1/2-x,1/2+y,-z
1/2-x,1/2-y,-z
1/2+x,1/2-y,z
loop_
_atom_site_type_symbol
_atom_site_label
_atom_site_fract_x
_atom_site_fract_y
_atom_site_fract_z
Si Si1 0.582319 0.440413 0.606658
Si Si2 0.668525 0.308346 0.674573
Si Si3 0.376904 0.415077 0.174894
Si Si4 0.644034 0.796562 0.826756
Si Si5 0.069308 0.558043 0.329293
Si Si6 0.059036 0.834535 0.334970
Si Si7 0.143944 0.629291 0.626308
O O1 0.563398 0.500000 0.582572
O O2 0.595929 0.440653 0.727724
O O3 0.463663 0.397420 0.663597
O O4 0.728911 0.413159 0.459953
O O5 0.637163 0.353749 0.785256
O O6 0.683748 0.254554 0.726498
O O7 0.540806 0.308449 0.682052
O O8 0.800853 0.328952 0.505059
O O9 0.233015 0.433969 0.228201
O O10 0.500000 0.425301 0.000000
O O11 0.781610 0.814392 0.792350
O O12 0.621491 0.842373 0.756046
O O13 0.500000 0.787557 0.000000
O O14 0.040351 0.500000 0.307035
O O15 0.000000 0.561554 0.500000
O O16 0.995312 0.601094 0.311286
O O17 0.000000 0.822311 0.500000
#
# Coordination Sequence:
#
# PCOD9201376 Si02
#       7
#     8   8   8   8   8   8   8
#     4  10  20  37  62  87 115 157 207 241 284 349
#     4  10  22  40  64  87 116 155 202 236 288 360
#     4  10  21  37  58  91 128 154 191 247 300 349
#     4  12  25  42  61  88 123 154 190 248 302 340
#     4  11  20  35  60  92 122 156 197 241 298 350
#     4  10  21  41  62  88 115 153 197 243 283 350
#     4  10  21  38  59  92 117 154 198 248 283 353
#
# _framework density 18.806052000000001
#
# number of rings (size 3 to 8) (size 9 to 14) (size 15 to 20)
#    0.000    1.857    5.714    1.714    0.000    5.429 
#    0.000    0.000    0.000    3.000    0.000    0.000 
#    0.000    0.000    0.000    0.000    0.000    0.000 
#
# Total GULP energy -156307.588458 kJ/mol
# GULP energy per Si atom -5582.413874 kJ/mol
# Density = 1.876325 g / cm^3
# Si number density = 18.806052 Si / 1000 Ang^3
#
#
#
# Elastic Constant Matrix: (Units=GPa)
#
#
# Indices 1 2 3 4 5 6 
#
# 1 65.4413 34.4317 19.1150 0.0000 -7.6570 0.0000
# 2 34.4317 91.3426 10.3526 0.0000 6.0192 0.0000
# 3 19.1150 10.3526 60.6197 0.0000 -13.5755 0.0000
# 4 0.0000 0.0000 0.0000 -13.4914 0.0000 3.3255
# 5 -7.6570 6.0192 -13.5755 0.0000 22.4219 0.0000
# 6 0.0000 0.0000 0.0000 3.3255 0.0000 7.8515
#
#
#
# Elastic Compliance Matrix: (Units=1/GPa)
#
#
# Indices 1 2 3 4 5 6 
#
# 1 0.021528 -0.008167 -0.003767 0.000000 0.007263 0.000000
# 2 -0.008167 0.014728 -0.001677 0.000000 -0.007758 0.000000
# 3 -0.003767 -0.001677 0.020573 0.000000 0.011620 0.000000
# 4 0.000000 0.000000 0.000000 -0.067114 0.000000 0.028426
# 5 0.007263 -0.007758 0.011620 0.000000 0.056198 0.000000
# 6 0.000000 0.000000 0.000000 0.028426 0.000000 0.115325
#
#
# Mechanical properties :
#
#
# Convention : Reuss Voigt Hill
#
# Bulk Modulus (GPa) = 33.77685 38.35580 36.06632
# Shear Modulus (GPa) = 25.21085 13.59001 19.40043
#
# Velocity S-wave (km/s) = 3.66535 2.69111 3.21535
# Velocity P-wave (km/s) = 5.99272 5.48597 5.74493
#
# Compressibility (1/GPa) = 0.02960608
#
# Stress axis : x y z
#
# Youngs Moduli (GPa) = 46.45140 67.89980 48.60789
#
# Poissons Ratio (x) = 0.55451 0.18311
# Poissons Ratio (y) = 0.37935 0.08153
# Poissons Ratio (z) = 0.17498 0.11390
#
# Static dielectric constant tensor:
#      x y z
#    x 1.650500 0.000000 -0.001020 
#    y 0.000000 1.680950 0.000000 
#    z -0.001020 0.000000 1.625610 
# 
# From -- ./inp_files/136931.got.cif
#   From: 2010.05.17/outbox.cif.g08.bks.cpg/sg12_69_cif.got.tgz:136931.got - 2010.06.03 13:09:07.
