data_PCOD9201540
_publ_section_title
;
Structure prediction by ZEFSAII (Michael W. Deem and Ramdas Pophale) SiO2 
 PCOD9201540
Probable space group: C 2/M
;
_chemical_formula_sum "Si O2"
_cell_formula_units_Z 56
_cell_length_a 19.168861
_cell_length_b 18.436064
_cell_length_c 13.389094
_cell_angle_alpha 90.000000
_cell_angle_beta 149.373020
_cell_angle_gamma 90.000000
_cell_volume 2410.540525
_symmetry_space_group_name_H-M "C 2/M"
_symmetry_group_IT_number 12
_symmetry_cell_setting 'monoclinic'
loop_
_space_group_symop_operation_xyz
x,y,z
-x,y,-z
-x,-y,-z
x,-y,z
1/2+x,1/2+y,z
1/2-x,1/2+y,-z
1/2-x,1/2-y,-z
1/2+x,1/2-y,z
loop_
_atom_site_type_symbol
_atom_site_label
_atom_site_fract_x
_atom_site_fract_y
_atom_site_fract_z
Si Si1 0.197712 0.132657 0.420673
Si Si2 0.363388 0.158873 0.270720
Si Si3 0.475246 0.421115 0.616233
Si Si4 0.376539 0.776672 0.771252
Si Si5 0.698818 0.916011 0.007243
Si Si6 0.654592 0.584117 0.158680
Si Si7 0.193383 0.192871 0.715973
O O1 0.093414 0.087831 0.360281
O O2 0.329837 0.154278 0.649076
O O3 0.120876 0.208422 0.299168
O O4 0.232808 0.094530 0.360198
O O5 0.500000 0.140173 0.500000
O O6 0.230953 0.126738 0.165303
O O7 0.351138 0.246606 0.258990
O O8 0.372050 0.123258 0.172990
O O9 0.434431 0.500000 0.525420
O O10 0.638346 0.416953 0.818783
O O11 0.413619 0.359242 0.470744
O O12 0.252247 0.762317 0.695076
O O13 0.500000 0.784530 0.000000
O O14 0.696930 0.861962 0.099470
O O15 0.657116 0.000000 0.971525
O O16 0.648420 0.500000 0.122412
O O17 0.500000 0.607241 0.000000
#
# Coordination Sequence:
#
# PCOD9201540 Si02
#       7
#     8   8   8   8   8   8   8
#     4  10  20  37  62  91 124 161 205 265 326 378
#     4  12  26  42  61  96 136 173 213 267 328 397
#     4  10  21  39  67  98 125 159 215 275 325 382
#     4  10  22  38  60  92 125 162 210 270 321 381
#     4  11  24  42  64  92 126 171 218 267 322 382
#     4  11  23  41  67  96 127 170 222 273 326 387
#     4  11  23  41  65  93 128 171 212 267 326 388
#
# _framework density 23.231303
#
# number of rings (size 3 to 8) (size 9 to 14) (size 15 to 20)
#    0.000    1.286    1.429    4.286    2.000    5.714 
#    0.000    0.000    0.000   14.571    0.000    0.000 
#    0.000    0.000    0.000    0.000    0.000    0.000 
#
# Total GULP energy -156517.595677 kJ/mol
# GULP energy per Si atom -5589.914131 kJ/mol
# Density = 2.317843 g / cm^3
# Si number density = 23.231303 Si / 1000 Ang^3
#
#
#
# Elastic Constant Matrix: (Units=GPa)
#
#
# Indices 1 2 3 4 5 6 
#
# 1 63.2614 23.5588 -7.9282 0.0000 -12.0708 0.0000
# 2 23.5588 111.3924 25.4176 0.0000 -3.9182 0.0000
# 3 -7.9282 25.4176 105.6002 0.0000 -19.0176 0.0000
# 4 0.0000 0.0000 0.0000 -5.1759 0.0000 6.9908
# 5 -12.0708 -3.9182 -19.0176 0.0000 36.2522 0.0000
# 6 0.0000 0.0000 0.0000 6.9908 0.0000 24.0552
#
#
#
# Elastic Compliance Matrix: (Units=1/GPa)
#
#
# Indices 1 2 3 4 5 6 
#
# 1 0.019677 -0.004811 0.004110 0.000000 0.008188 0.000000
# 2 -0.004811 0.010677 -0.003326 0.000000 -0.002193 0.000000
# 3 0.004110 -0.003326 0.011883 0.000000 0.007243 0.000000
# 4 0.000000 0.000000 0.000000 -0.138744 0.000000 0.040321
# 5 0.008188 -0.002193 0.007243 0.000000 0.033873 0.000000
# 6 0.000000 0.000000 0.000000 0.040321 0.000000 0.029853
#
#
# Mechanical properties :
#
#
# Convention : Reuss Voigt Hill
#
# Bulk Modulus (GPa) = 29.25557 40.26114 34.75836
# Shear Modulus (GPa) = -375.02352 26.97335 -174.02509
#
# Velocity S-wave (km/s) = -12.71930 3.41116 -8.66443
# Velocity P-wave (km/s) = 14.25086 5.73435 9.22508
#
# Compressibility (1/GPa) = 0.03418152
#
# Stress axis : x y z
#
# Youngs Moduli (GPa) = 50.82203 93.66266 84.15288
#
# Poissons Ratio (x) = 0.45063 -0.34585
# Poissons Ratio (y) = 0.24452 0.27989
# Poissons Ratio (z) = -0.20887 0.31152
#
# Static dielectric constant tensor:
#      x y z
#    x 1.881910 0.000000 0.016590 
#    y 0.000000 1.883920 0.000000 
#    z 0.016590 0.000000 1.922520 
# 
# From -- ./inp_files/234728.got.cif
#   From: 2010.05.17/outbox.cif.g08.bks.cpg/sg12_118_cif.got.tgz:234728.got - 2010.06.03 13:09:07.
