data_PCOD9201875
_publ_section_title
;
Structure prediction by ZEFSAII (Michael W. Deem and Ramdas Pophale) SiO2 
 PCOD9201875
Probable space group: C 2/M
;
_chemical_formula_sum "Si O2"
_cell_formula_units_Z 52
_cell_length_a 17.045140
_cell_length_b 10.671336
_cell_length_c 22.338479
_cell_angle_alpha 90.000000
_cell_angle_beta 40.988446
_cell_angle_gamma 90.000000
_cell_volume 2665.109859
_symmetry_space_group_name_H-M "C 2/M"
_symmetry_group_IT_number 12
_symmetry_cell_setting 'monoclinic'
loop_
_space_group_symop_operation_xyz
x,y,z
-x,y,-z
-x,-y,-z
x,-y,z
1/2+x,1/2+y,z
1/2-x,1/2+y,-z
1/2-x,1/2-y,-z
1/2+x,1/2-y,z
loop_
_atom_site_type_symbol
_atom_site_label
_atom_site_fract_x
_atom_site_fract_y
_atom_site_fract_z
Si Si1 0.045404 0.500000 0.807678
Si Si2 0.164671 0.259265 0.684161
Si Si3 0.372754 0.786288 0.961068
Si Si4 0.011228 0.145740 0.308605
Si Si5 0.101197 0.861139 0.838708
Si Si6 0.409180 0.350800 0.497615
Si Si7 0.202672 0.641275 0.862815
O O1 0.138308 0.390107 0.731792
O O2 0.947988 0.390183 0.882562
O O3 0.160174 0.157306 0.739620
O O4 0.289773 0.272029 0.577952
O O5 0.059320 0.229058 0.698167
O O6 0.459893 0.666126 0.914396
O O7 0.250000 0.750000 0.000000
O O8 0.346057 0.839436 0.042495
O O9 0.154128 0.152968 0.219757
O O10 0.971977 0.179584 0.398462
O O11 0.978171 0.000000 0.317310
O O12 0.149133 0.750111 0.853037
O O13 0.124405 0.000000 0.848918
O O14 0.500000 0.330229 0.500000
O O15 0.381085 0.500000 0.512357
O O16 0.169202 0.500000 0.859332
#
# Coordination Sequence:
#
# PCOD9201875 Si02
#       7
#     4   8   8   8   8   8   8
#     4  10  22  38  60  96 118 162 217 254 322 362
#     4  11  21  40  65  90 131 164 213 269 311 383
#     4  11  24  41  66  90 124 166 216 271 321 381
#     4  10  22  40  65  96 123 168 214 260 323 375
#     4  11  26  42  61  94 129 172 211 263 332 382
#     4  10  20  37  65  96 127 163 213 264 315 380
#     4  11  23  42  67  91 128 169 218 266 315 387
#
# _framework density 19.511392000000001
#
# number of rings (size 3 to 8) (size 9 to 14) (size 15 to 20)
#    0.000    1.385    1.538    4.154    5.385    4.308 
#    4.154    0.000    0.000    2.769    0.000    0.000 
#    0.000    0.000    0.000    0.000    0.000    0.000 
#
# Total GULP energy -144828.401931 kJ/mol
# GULP energy per Si atom -5570.323151 kJ/mol
# Density = 1.946698 g / cm^3
# Si number density = 19.511392 Si / 1000 Ang^3
#
#
#
# Elastic Constant Matrix: (Units=GPa)
#
#
# Indices 1 2 3 4 5 6 
#
# 1 45.9959 24.7727 -16.6751 0.0000 2.5018 0.0000
# 2 24.7727 103.8569 3.9403 0.0000 1.4752 0.0000
# 3 -16.6751 3.9403 73.1575 0.0000 -5.6210 0.0000
# 4 0.0000 0.0000 0.0000 10.0766 0.0000 4.7256
# 5 2.5018 1.4752 -5.6210 0.0000 30.9486 0.0000
# 6 0.0000 0.0000 0.0000 4.7256 0.0000 10.4231
#
#
#
# Elastic Compliance Matrix: (Units=1/GPa)
#
#
# Indices 1 2 3 4 5 6 
#
# 1 0.027920 -0.006903 0.006681 0.000000 -0.000715 0.000000
# 2 -0.006903 0.011365 -0.002215 0.000000 -0.000386 0.000000
# 3 0.006681 -0.002215 0.015494 0.000000 0.002380 0.000000
# 4 0.000000 0.000000 0.000000 0.126037 0.000000 -0.057142
# 5 -0.000715 -0.000386 0.002380 0.000000 0.032820 0.000000
# 6 0.000000 0.000000 0.000000 -0.057142 0.000000 0.121848
#
#
# Mechanical properties :
#
#
# Convention : Reuss Voigt Hill
#
# Bulk Modulus (GPa) = 20.03852 27.45399 23.74626
# Shear Modulus (GPa) = 14.00587 24.35449 19.18018
#
# Velocity S-wave (km/s) = 2.68214 3.53685 3.13872
# Velocity P-wave (km/s) = 4.45918 5.54800 5.03312
#
# Compressibility (1/GPa) = 0.04990387
#
# Stress axis : x y z
#
# Youngs Moduli (GPa) = 35.81688 87.99173 64.54082
#
# Poissons Ratio (x) = 0.60740 -0.43118
# Poissons Ratio (y) = 0.24724 0.14297
# Poissons Ratio (z) = -0.23928 0.19492
#
# Static dielectric constant tensor:
#      x y z
#    x 1.705990 0.000000 0.041620 
#    y 0.000000 1.670740 0.000000 
#    z 0.041620 0.000000 1.698760 
# 
# From -- ./inp_files/309753.got.cif
#   From: 2010.05.17/outbox.cif.g08.bks.cpg/sg12_155_cif.got.tgz:309753.got - 2010.06.03 13:09:07.
