data_PCOD9201777
_publ_section_title
;
Structure prediction by ZEFSAII (Michael W. Deem and Ramdas Pophale) SiO2 
 PCOD9201777
Probable space group: C 2/M
;
_chemical_formula_sum "Si O2"
_cell_formula_units_Z 64
_cell_length_a 24.337215
_cell_length_b 21.495257
_cell_length_c 9.263050
_cell_angle_alpha 90.000000
_cell_angle_beta 136.029984
_cell_angle_gamma 90.000000
_cell_volume 3364.366725
_symmetry_space_group_name_H-M "C 2/M"
_symmetry_group_IT_number 12
_symmetry_cell_setting 'monoclinic'
loop_
_space_group_symop_operation_xyz
x,y,z
-x,y,-z
-x,-y,-z
x,-y,z
1/2+x,1/2+y,z
1/2-x,1/2+y,-z
1/2-x,1/2-y,-z
1/2+x,1/2-y,z
loop_
_atom_site_type_symbol
_atom_site_label
_atom_site_fract_x
_atom_site_fract_y
_atom_site_fract_z
Si Si1 0.090017 0.643478 0.961715
Si Si2 0.143838 0.428148 0.324343
Si Si3 0.037724 0.266197 0.413383
Si Si4 0.695335 0.159080 0.683629
Si Si5 0.800602 0.572447 0.037540
Si Si6 0.195678 0.069349 0.561900
Si Si7 0.067168 0.168835 0.226123
Si Si8 0.684447 0.258230 0.251999
O O1 0.084848 0.603955 0.098610
O O2 0.121664 0.597662 0.897744
O O3 0.157839 0.695584 0.121766
O O4 0.013712 0.680369 0.763452
O O5 0.123418 0.500000 0.318843
O O6 0.158252 0.384570 0.488686
O O7 0.227964 0.428499 0.398234
O O8 0.128057 0.290195 0.595009
O O9 0.036154 0.206241 0.306549
O O10 0.000000 0.255860 0.500000
O O11 0.774411 0.193113 0.777464
O O12 0.713233 0.115513 0.852267
O O13 0.809212 0.500000 0.091832
O O14 0.730540 0.578033 0.787915
O O15 0.133508 0.120896 0.400875
O O16 0.161314 0.000000 0.486328
O O17 0.108393 0.217608 0.194758
O O18 0.000000 0.138290 0.000000
O O19 0.750000 0.250000 0.500000
#
# Coordination Sequence:
#
# PCOD9201777 Si02
#       8
#     8   8   8   8   8   8   8   8
#     4  11  21  40  59  86 126 168 210 249 318 367
#     4  10  20  37  64  92 121 160 212 262 304 364
#     4  12  26  41  57  90 133 169 202 259 314 374
#     4  12  23  38  65  92 129 158 214 259 309 367
#     4  10  22  41  64  90 127 169 210 256 306 368
#     4   9  20  41  66  92 125 164 209 258 312 376
#     4  12  23  41  66  94 128 164 206 260 320 370
#     4  12  21  37  64  96 119 160 206 264 309 364
#
# _framework density 19.022895999999999
#
# number of rings (size 3 to 8) (size 9 to 14) (size 15 to 20)
#    0.000    1.000    6.250    2.250    0.000    1.750 
#    0.000    3.750    0.000    0.375    0.000    0.000 
#    0.000    0.000    0.000    0.000    0.000    0.000 
#
# Total GULP energy -178805.468357 kJ/mol
# GULP energy per Si atom -5587.670886 kJ/mol
# Density = 1.897960 g / cm^3
# Si number density = 19.022896 Si / 1000 Ang^3
#
#
#
# Elastic Constant Matrix: (Units=GPa)
#
#
# Indices 1 2 3 4 5 6 
#
# 1 74.4426 23.1209 23.6322 0.0000 -22.1816 0.0000
# 2 23.1209 82.3802 18.5873 0.0000 -11.9577 0.0000
# 3 23.6322 18.5873 43.0978 0.0000 -6.1525 0.0000
# 4 0.0000 0.0000 0.0000 33.2992 0.0000 -2.8883
# 5 -22.1816 -11.9577 -6.1525 0.0000 29.1836 0.0000
# 6 0.0000 0.0000 0.0000 -2.8883 0.0000 25.5537
#
#
#
# Elastic Compliance Matrix: (Units=1/GPa)
#
#
# Indices 1 2 3 4 5 6 
#
# 1 0.020683 -0.001957 -0.008627 0.000000 0.013100 0.000000
# 2 -0.001957 0.014209 -0.004574 0.000000 0.003370 0.000000
# 3 -0.008627 -0.004574 0.029593 0.000000 -0.002193 0.000000
# 4 0.000000 0.000000 0.000000 0.030328 0.000000 0.003428
# 5 0.013100 0.003370 -0.002193 0.000000 0.045141 0.000000
# 6 0.000000 0.000000 0.000000 0.003428 0.000000 0.039521
#
#
# Mechanical properties :
#
#
# Convention : Reuss Voigt Hill
#
# Bulk Modulus (GPa) = 29.26594 36.73349 32.99972
# Shear Modulus (GPa) = 22.60580 26.57932 24.59256
#
# Velocity S-wave (km/s) = 3.45098 3.74201 3.59944
# Velocity P-wave (km/s) = 5.59437 6.16622 5.88724
#
# Compressibility (1/GPa) = 0.03416942
#
# Stress axis : x y z
#
# Youngs Moduli (GPa) = 48.34865 70.37633 33.79130
#
# Poissons Ratio (x) = 0.13772 0.29153
# Poissons Ratio (y) = 0.09461 0.15456
# Poissons Ratio (z) = 0.41712 0.32190
#
# Static dielectric constant tensor:
#      x y z
#    x 1.686120 0.000000 0.029390 
#    y 0.000000 1.652420 0.000000 
#    z 0.029390 0.000000 1.685060 
# 
# From -- ./inp_files/77503.got.cif
#   From: 2010.05.17/outbox.cif.g08.bks.cpg/sg12_39_cif.got.tgz:77503.got - 2010.06.03 13:09:07.
