data_PCOD9201487
_publ_section_title
;
Structure prediction by ZEFSAII (Michael W. Deem and Ramdas Pophale) SiO2 
 PCOD9201487
Probable space group: C 2/M
;
_chemical_formula_sum "Si O2"
_cell_formula_units_Z 48
_cell_length_a 26.940693
_cell_length_b 8.736494
_cell_length_c 15.301945
_cell_angle_alpha 90.000000
_cell_angle_beta 139.234723
_cell_angle_gamma 90.000000
_cell_volume 2351.691260
_symmetry_space_group_name_H-M "C 2/M"
_symmetry_group_IT_number 12
_symmetry_cell_setting 'monoclinic'
loop_
_space_group_symop_operation_xyz
x,y,z
-x,y,-z
-x,-y,-z
x,-y,z
1/2+x,1/2+y,z
1/2-x,1/2+y,-z
1/2-x,1/2-y,-z
1/2+x,1/2-y,z
loop_
_atom_site_type_symbol
_atom_site_label
_atom_site_fract_x
_atom_site_fract_y
_atom_site_fract_z
Si Si1 0.580439 0.318424 0.963395
Si Si2 0.329447 0.184006 0.072344
Si Si3 0.680526 0.184726 0.606365
Si Si4 0.920237 0.316287 0.694451
Si Si5 0.156633 0.317547 0.227504
Si Si6 0.416854 0.186161 0.359821
O O1 0.584707 0.500000 0.971550
O O2 0.645376 0.252772 0.986107
O O3 0.500124 0.263621 0.818327
O O4 0.595280 0.252018 0.079263
O O5 0.391914 0.227979 0.229170
O O6 0.326019 0.000000 0.062364
O O7 0.250000 0.250000 0.000000
O O8 0.619839 0.224119 0.449895
O O9 0.761287 0.255163 0.690316
O O10 0.646242 0.234437 0.653631
O O11 0.688455 0.000000 0.618005
O O12 0.932902 0.500000 0.711155
O O13 0.864948 0.278314 0.701774
O O14 0.155540 0.500000 0.217790
O O15 0.500000 0.240351 0.500000
O O16 0.418681 0.000000 0.364770
#
# Coordination Sequence:
#
# PCOD9201487 Si02
#       6
#     8   8   8   8   8   8
#     4  12  25  40  60  86 117 157 204 251 299 350
#     4  11  22  38  61  88 120 156 195 242 295 352
#     4  10  20  37  62  90 120 154 194 239 293 360
#     4  10  22  40  62  88 119 156 195 241 300 360
#     4  11  23  39  60  87 120 156 196 245 301 358
#     4   9  18  34  58  85 112 148 192 233 279 340
#
# _framework density 20.410841000000001
#
# number of rings (size 3 to 8) (size 9 to 14) (size 15 to 20)
#    0.000    1.500    0.000    5.500    0.000    8.000 
#    0.000    0.833    0.000    3.500    0.000    0.000 
#    0.000    0.000    0.000    0.000    0.000    0.000 
#
# Total GULP energy -134260.509636 kJ/mol
# GULP energy per Si atom -5594.187902 kJ/mol
# Density = 2.036439 g / cm^3
# Si number density = 20.410841 Si / 1000 Ang^3
#
#
#
# Elastic Constant Matrix: (Units=GPa)
#
#
# Indices 1 2 3 4 5 6 
#
# 1 51.3622 10.3652 -24.3966 0.0000 -2.4007 0.0000
# 2 10.3652 24.7143 9.7471 0.0000 -1.9037 0.0000
# 3 -24.3966 9.7471 49.6281 0.0000 -2.6397 0.0000
# 4 0.0000 0.0000 0.0000 26.8052 0.0000 11.6072
# 5 -2.4007 -1.9037 -2.6397 0.0000 42.8745 0.0000
# 6 0.0000 0.0000 0.0000 11.6072 0.0000 28.5928
#
#
#
# Elastic Compliance Matrix: (Units=1/GPa)
#
#
# Indices 1 2 3 4 5 6 
#
# 1 0.034350 -0.022699 0.021463 0.000000 0.002237 0.000000
# 2 -0.022699 0.058946 -0.022738 0.000000 -0.000054 0.000000
# 3 0.021463 -0.022738 0.035292 0.000000 0.002365 0.000000
# 4 0.000000 0.000000 0.000000 0.045263 0.000000 -0.018374
# 5 0.002237 -0.000054 0.002365 0.000000 0.023592 0.000000
# 6 0.000000 0.000000 0.000000 -0.018374 0.000000 0.042433
#
#
# Mechanical properties :
#
#
# Convention : Reuss Voigt Hill
#
# Bulk Modulus (GPa) = 12.40085 13.01510 12.70797
# Shear Modulus (GPa) = 15.88796 28.32043 22.10419
#
# Velocity S-wave (km/s) = 2.79302 3.72898 3.29441
# Velocity P-wave (km/s) = 4.06080 4.99308 4.55088
#
# Compressibility (1/GPa) = 0.08063962
#
# Stress axis : x y z
#
# Youngs Moduli (GPa) = 29.11249 16.96472 28.33469
#
# Poissons Ratio (x) = 0.38508 -0.60814
# Poissons Ratio (y) = 0.66081 0.64428
# Poissons Ratio (z) = -0.62484 0.38575
#
# Static dielectric constant tensor:
#      x y z
#    x 1.710960 0.000000 -0.002570 
#    y 0.000000 1.683680 0.000000 
#    z -0.002570 0.000000 1.709350 
# 
# From -- ./inp_files/244837.got.cif
#   From: 2010.05.17/outbox.cif.g08.bks.cpg/sg12_123_cif.got.tgz:244837.got - 2010.06.03 13:09:07.
