data_PCOD9201909
_publ_section_title
;
Structure prediction by ZEFSAII (Michael W. Deem and Ramdas Pophale) SiO2 
 PCOD9201909
Probable space group: C 2/M
;
_chemical_formula_sum "Si O2"
_cell_formula_units_Z 48
_cell_length_a 15.237605
_cell_length_b 18.371754
_cell_length_c 19.070163
_cell_angle_alpha 90.000000
_cell_angle_beta 29.015462
_cell_angle_gamma 90.000000
_cell_volume 2589.430947
_symmetry_space_group_name_H-M "C 2/M"
_symmetry_group_IT_number 12
_symmetry_cell_setting 'monoclinic'
loop_
_space_group_symop_operation_xyz
x,y,z
-x,y,-z
-x,-y,-z
x,-y,z
1/2+x,1/2+y,z
1/2-x,1/2+y,-z
1/2-x,1/2-y,-z
1/2+x,1/2-y,z
loop_
_atom_site_type_symbol
_atom_site_label
_atom_site_fract_x
_atom_site_fract_y
_atom_site_fract_z
Si Si1 0.050160 0.086314 0.669980
Si Si2 0.855038 0.587673 0.043226
Si Si3 0.477707 0.586946 0.147025
Si Si4 0.864048 0.676597 0.408225
Si Si5 0.910939 0.415815 0.639436
Si Si6 0.672546 0.173107 0.079371
O O1 0.070841 0.107648 0.737977
O O2 0.203828 0.118131 0.513789
O O3 0.062220 0.000000 0.660372
O O4 0.847444 0.108315 0.791324
O O5 0.859638 0.500000 0.030842
O O6 0.883281 0.625951 0.949282
O O7 0.000000 0.608488 0.000000
O O8 0.512669 0.500000 0.122218
O O9 0.302081 0.600042 0.222221
O O10 0.660694 0.629593 0.001049
O O11 0.750000 0.750000 0.500000
O O12 0.986830 0.643409 0.385160
O O13 0.001362 0.684136 0.248444
O O14 0.931294 0.500000 0.651953
O O15 0.000000 0.415688 0.500000
O O16 0.750000 0.250000 0.000000
#
# Coordination Sequence:
#
# PCOD9201909 Si02
#       6
#     8   8   8   8   8   8
#     4   9  17  34  61  88 117 152 193 240 294 353
#     4   9  19  40  67  88 111 153 203 248 294 350
#     4   9  18  37  63  90 120 156 196 245 301 357
#     4  12  24  38  56  87 126 164 200 238 299 362
#     4  10  20  37  66  96 122 155 199 248 301 362
#     4  11  24  41  57  85 124 163 201 243 303 359
#
# _framework density 18.53689
#
# number of rings (size 3 to 8) (size 9 to 14) (size 15 to 20)
#    0.000    2.000    1.667    4.000    0.000    3.333 
#    6.000    2.500    0.000    3.000    0.000    0.000 
#    0.000    0.000    0.000    0.000    0.000    0.000 
#
# Total GULP energy -133895.486317 kJ/mol
# GULP energy per Si atom -5578.978597 kJ/mol
# Density = 1.849470 g / cm^3
# Si number density = 18.536890 Si / 1000 Ang^3
#
#
#
# Elastic Constant Matrix: (Units=GPa)
#
#
# Indices 1 2 3 4 5 6 
#
# 1 108.8329 54.9697 56.6500 -0.0024 -30.6132 -0.0001
# 2 54.9697 63.2645 57.8706 -0.0006 -16.0107 0.0008
# 3 56.6500 57.8706 178.4398 -0.0047 -15.8800 -0.0016
# 4 -0.0024 -0.0006 -0.0047 35.9039 0.0029 -4.0347
# 5 -30.6132 -16.0107 -15.8800 0.0029 26.5788 -0.0001
# 6 -0.0001 0.0008 -0.0016 -4.0347 -0.0001 19.8333
#
#
#
# Elastic Compliance Matrix: (Units=1/GPa)
#
#
# Indices 1 2 3 4 5 6 
#
# 1 0.020640 -0.013253 -0.000897 0.000000 0.015253 0.000001
# 2 -0.013253 0.033629 -0.006606 -0.000002 0.001047 -0.000002
# 3 -0.000897 -0.006606 0.008011 0.000001 -0.000226 0.000001
# 4 0.000000 -0.000002 0.000001 0.028504 -0.000004 0.005799
# 5 0.015253 0.001047 -0.000226 -0.000004 0.055688 -0.000001
# 6 0.000001 -0.000002 0.000001 0.005799 -0.000001 0.051600
#
#
# Mechanical properties :
#
#
# Convention : Reuss Voigt Hill
#
# Bulk Modulus (GPa) = 48.14911 76.61308 62.38110
# Shear Modulus (GPa) = 20.28346 28.53297 24.40821
#
# Velocity S-wave (km/s) = 3.31149 3.92759 3.63262
# Velocity P-wave (km/s) = 6.37593 7.87323 7.16380
#
# Compressibility (1/GPa) = 0.02076882
#
# Stress axis : x y z
#
# Youngs Moduli (GPa) = 48.45061 29.73593 124.82502
#
# Poissons Ratio (x) = 0.39408 0.11198
# Poissons Ratio (y) = 0.64210 0.82459
# Poissons Ratio (z) = 0.04346 0.19643
#
# Static dielectric constant tensor:
#      x y z
#    x 1.642080 0.000000 -0.008540 
#    y 0.000000 1.663370 0.000000 
#    z -0.008540 0.000000 1.653700 
# 
# From -- ./inp_files/271624.got.cif
#   From: 2010.05.17/outbox.cif.g08.bks.cpg/sg12_136_cif.got.tgz:271624.got - 2010.06.03 13:09:07.
