data_PCOD9201594
_publ_section_title
;
Structure prediction by ZEFSAII (Michael W. Deem and Ramdas Pophale) SiO2 
 PCOD9201594
Probable space group: C 2/M
;
_chemical_formula_sum "Si O2"
_cell_formula_units_Z 56
_cell_length_a 15.276303
_cell_length_b 17.132562
_cell_length_c 20.318126
_cell_angle_alpha 90.000000
_cell_angle_beta 151.653937
_cell_angle_gamma 90.000000
_cell_volume 2524.824526
_symmetry_space_group_name_H-M "C 2/M"
_symmetry_group_IT_number 12
_symmetry_cell_setting 'monoclinic'
loop_
_space_group_symop_operation_xyz
x,y,z
-x,y,-z
-x,-y,-z
x,-y,z
1/2+x,1/2+y,z
1/2-x,1/2+y,-z
1/2-x,1/2-y,-z
1/2+x,1/2-y,z
loop_
_atom_site_type_symbol
_atom_site_label
_atom_site_fract_x
_atom_site_fract_y
_atom_site_fract_z
Si Si1 0.308364 0.250041 0.910184
Si Si2 0.789207 0.089031 0.523738
Si Si3 0.071568 0.413307 0.954313
Si Si4 0.883731 0.251776 0.351392
Si Si5 0.520734 0.844307 0.780839
Si Si6 0.664604 0.585022 0.687408
Si Si7 0.208069 0.193605 0.349472
O O1 0.163935 0.242227 0.755531
O O2 0.229744 0.323906 0.897705
O O3 0.500000 0.264822 0.000000
O O4 0.327028 0.167089 0.959733
O O5 0.624553 0.127774 0.371397
O O6 0.825297 0.127819 0.618696
O O7 0.982631 0.089131 0.611838
O O8 0.733692 0.000000 0.497100
O O9 0.155253 0.500000 0.019769
O O10 0.868527 0.413224 0.854644
O O11 0.024608 0.401986 0.845489
O O12 0.838077 0.166843 0.352399
O O13 0.760612 0.316707 0.307203
O O14 0.096134 0.271207 0.497370
O O15 0.449075 0.758125 0.752981
O O16 0.659912 0.500000 0.650184
#
# Coordination Sequence:
#
# PCOD9201594 Si02
#       7
#     8   8   8   8   8   8   8
#     4  12  24  40  65  94 124 174 223 264 313 373
#     4  11  23  39  66 101 136 167 206 269 335 388
#     4  11  25  42  64  98 138 173 209 259 322 389
#     4  11  21  40  62  96 131 167 213 269 320 381
#     4  12  22  41  67  96 129 171 219 265 314 385
#     4  10  20  37  62  99 137 166 201 259 335 397
#     4  11  22  39  66  95 129 166 214 268 322 389
#
# _framework density 22.179758
#
# number of rings (size 3 to 8) (size 9 to 14) (size 15 to 20)
#    0.000    0.857    5.714    2.143    0.000    1.429 
#    0.000    5.714    0.000    1.714    0.000    0.000 
#    0.000    0.000    0.000    0.000    0.000    0.000 
#
# Total GULP energy -156207.929196 kJ/mol
# GULP energy per Si atom -5578.854614 kJ/mol
# Density = 2.212928 g / cm^3
# Si number density = 22.179758 Si / 1000 Ang^3
#
#
#
# Elastic Constant Matrix: (Units=GPa)
#
#
# Indices 1 2 3 4 5 6 
#
# 1 76.3459 47.2124 17.6468 0.0022 4.0636 -0.0001
# 2 47.2124 90.4874 17.3201 0.0212 7.1592 0.0010
# 3 17.6468 17.3201 49.3178 0.0521 2.8264 0.0076
# 4 0.0022 0.0212 0.0521 27.7358 0.0008 -1.1825
# 5 4.0636 7.1592 2.8264 0.0008 39.8339 -0.0039
# 6 -0.0001 0.0010 0.0076 -1.1825 -0.0039 32.2103
#
#
#
# Elastic Compliance Matrix: (Units=1/GPa)
#
#
# Indices 1 2 3 4 5 6 
#
# 1 0.019960 -0.009697 -0.003735 0.000013 -0.000028 0.000002
# 2 -0.009697 0.016695 -0.002287 -0.000008 -0.001849 -0.000001
# 3 -0.003735 -0.002287 0.022462 -0.000040 -0.000802 -0.000007
# 4 0.000013 -0.000008 -0.000040 0.036111 0.000002 0.001326
# 5 -0.000028 -0.001849 -0.000802 0.000002 0.025496 0.000003
# 6 0.000002 -0.000001 -0.000007 0.001326 0.000003 0.031095
#
#
# Mechanical properties :
#
#
# Convention : Reuss Voigt Hill
#
# Bulk Modulus (GPa) = 36.12911 42.27885 39.20398
# Shear Modulus (GPa) = 25.97626 28.88746 27.43186
#
# Velocity S-wave (km/s) = 3.42595 3.61283 3.52063
# Velocity P-wave (km/s) = 5.65456 6.04207 5.85153
#
# Compressibility (1/GPa) = 0.02767851
#
# Stress axis : x y z
#
# Youngs Moduli (GPa) = 50.10103 59.89871 44.51895
#
# Poissons Ratio (x) = 0.58084 0.16627
# Poissons Ratio (y) = 0.48583 0.10183
# Poissons Ratio (z) = 0.18712 0.13701
#
# Static dielectric constant tensor:
#      x y z
#    x 1.957620 -0.000010 -0.026840 
#    y -0.000010 1.809170 -0.000010 
#    z -0.026840 -0.000010 1.889420 
# 
# From -- ./inp_files/311737.got.cif
#   From: 2010.05.17/outbox.cif.g08.bks.cpg/sg12_156_cif.got.tgz:311737.got - 2010.06.03 13:09:07.
