data_PCOD9201529
_publ_section_title
;
Structure prediction by ZEFSAII (Michael W. Deem and Ramdas Pophale) SiO2 
 PCOD9201529
Probable space group: C 2/M
;
_chemical_formula_sum "Si O2"
_cell_formula_units_Z 44
_cell_length_a 18.334541
_cell_length_b 17.974199
_cell_length_c 6.758187
_cell_angle_alpha 90.000000
_cell_angle_beta 111.671001
_cell_angle_gamma 90.000000
_cell_volume 2069.735674
_symmetry_space_group_name_H-M "C 2/M"
_symmetry_group_IT_number 12
_symmetry_cell_setting 'monoclinic'
loop_
_space_group_symop_operation_xyz
x,y,z
-x,y,-z
-x,-y,-z
x,-y,z
1/2+x,1/2+y,z
1/2-x,1/2+y,-z
1/2-x,1/2-y,-z
1/2+x,1/2-y,z
loop_
_atom_site_type_symbol
_atom_site_label
_atom_site_fract_x
_atom_site_fract_y
_atom_site_fract_z
Si Si1 0.184365 0.916114 0.143006
Si Si2 0.998614 0.415553 0.265123
Si Si3 0.615322 0.714387 0.822461
Si Si4 0.179590 0.372672 0.985873
Si Si5 0.500000 0.791547 0.000000
Si Si6 0.709089 0.676811 0.555279
O O1 0.270946 0.913292 0.133728
O O2 0.185612 0.877665 0.356291
O O3 0.155339 0.000000 0.119791
O O4 0.138014 0.861794 0.950833
O O5 0.025749 0.500000 0.255524
O O6 0.907364 0.407057 0.109071
O O7 0.000000 0.401034 0.500000
O O8 0.043793 0.351245 0.189727
O O9 0.670450 0.785790 0.919469
O O10 0.632496 0.700139 0.608435
O O11 0.540550 0.741697 0.873523
O O12 0.230148 0.366478 0.237741
O O13 0.750000 0.750000 0.500000
#
# Coordination Sequence:
#
# PCOD9201529 Si02
#       6
#     8   8   8   8   4   8
#     4  11  22  36  60  94 125 152 196 263 322 362
#     4  10  22  39  59  88 128 167 207 253 300 361
#     4  10  21  39  61  87 119 159 207 250 300 372
#     4  10  20  37  62  91 121 162 202 246 304 377
#     4  10  23  40  63  86 112 170 218 248 295 372
#     4  11  19  36  64  90 121 159 204 254 309 362
#
# _framework density 21.258752999999999
#
# number of rings (size 3 to 8) (size 9 to 14) (size 15 to 20)
#    0.000    1.636    3.636    1.909    0.000    9.455 
#    0.000    0.455    0.000    1.091    0.000    0.000 
#    0.000    0.000    0.000    0.000    0.000    0.000 
#
# Total GULP energy -122533.780453 kJ/mol
# GULP energy per Si atom -5569.717293 kJ/mol
# Density = 2.121037 g / cm^3
# Si number density = 21.258753 Si / 1000 Ang^3
#
#
#
# Elastic Constant Matrix: (Units=GPa)
#
#
# Indices 1 2 3 4 5 6 
#
# 1 76.5770 16.7343 35.3691 0.0000 -32.5838 0.0000
# 2 16.7343 157.8419 46.7243 0.0000 -18.5966 0.0000
# 3 35.3691 46.7243 133.0089 0.0000 -43.9869 0.0000
# 4 0.0000 0.0000 0.0000 -30.6561 0.0000 -6.8497
# 5 -32.5838 -18.5966 -43.9869 0.0000 31.7024 0.0000
# 6 0.0000 0.0000 0.0000 -6.8497 0.0000 18.7242
#
#
#
# Elastic Compliance Matrix: (Units=1/GPa)
#
#
# Indices 1 2 3 4 5 6 
#
# 1 0.023958 -0.000082 0.003299 0.000000 0.029154 0.000000
# 2 -0.000082 0.007100 -0.002075 0.000000 0.001202 0.000000
# 3 0.003299 -0.002075 0.014947 0.000000 0.022913 0.000000
# 4 0.000000 0.000000 0.000000 -0.030155 0.000000 -0.011031
# 5 0.029154 0.001202 0.022913 0.000000 0.094004 0.000000
# 6 0.000000 0.000000 0.000000 -0.011031 0.000000 0.049371
#
#
# Mechanical properties :
#
#
# Convention : Reuss Voigt Hill
#
# Bulk Modulus (GPa) = 20.70816 62.78701 41.74759
# Shear Modulus (GPa) = 28.89550 21.86079 25.37814
#
# Velocity S-wave (km/s) = 3.69077 3.21022 3.45885
# Velocity P-wave (km/s) = 5.28437 6.58327 5.96926
#
# Compressibility (1/GPa) = 0.04829014
#
# Stress axis : x y z
#
# Youngs Moduli (GPa) = 41.74020 140.84633 66.90115
#
# Poissons Ratio (x) = 0.01152 -0.22072
# Poissons Ratio (y) = 0.00342 0.13881
# Poissons Ratio (z) = -0.13771 0.29224
#
# Static dielectric constant tensor:
#      x y z
#    x 1.912290 0.000000 -0.033000 
#    y 0.000000 1.762870 0.000000 
#    z -0.033000 0.000000 1.795390 
# 
# From -- ./inp_files/20477.got.cif
#   From: 2010.05.17/outbox.cif.g08.bks.cpg/sg12_11_cif.got.tgz:20477.got - 2010.06.03 13:09:07.
