data_PCOD9201260
_publ_section_title
;
Structure prediction by ZEFSAII (Michael W. Deem and Ramdas Pophale) SiO2 
 PCOD9201260
Probable space group: C 2/M
;
_chemical_formula_sum "Si O2"
_cell_formula_units_Z 64
_cell_length_a 9.258601
_cell_length_b 18.214655
_cell_length_c 27.391150
_cell_angle_alpha 90.000000
_cell_angle_beta 40.948361
_cell_angle_gamma 90.000000
_cell_volume 3027.393107
_symmetry_space_group_name_H-M "C 2/M"
_symmetry_group_IT_number 12
_symmetry_cell_setting 'monoclinic'
loop_
_space_group_symop_operation_xyz
x,y,z
-x,y,-z
-x,-y,-z
x,-y,z
1/2+x,1/2+y,z
1/2-x,1/2+y,-z
1/2-x,1/2-y,-z
1/2+x,1/2-y,z
loop_
_atom_site_type_symbol
_atom_site_label
_atom_site_fract_x
_atom_site_fract_y
_atom_site_fract_z
Si Si1 0.244044 0.133167 0.414560
Si Si2 0.057655 0.670978 0.792756
Si Si3 0.703624 0.414362 0.834766
Si Si4 0.238837 0.414880 0.916281
Si Si5 0.288509 0.086314 0.698150
Si Si6 0.102083 0.183952 0.213148
Si Si7 0.743355 0.788620 0.448187
Si Si8 0.094820 0.082278 0.351731
O O1 0.465936 0.104418 0.383397
O O2 0.282437 0.220821 0.401006
O O3 0.222905 0.088711 0.370298
O O4 0.000000 0.124898 0.500000
O O5 0.186392 0.698791 0.807274
O O6 0.224201 0.607849 0.732719
O O7 0.821589 0.632313 0.846600
O O8 0.026202 0.741694 0.766813
O O9 0.762682 0.500000 0.824772
O O10 0.439839 0.407569 0.902931
O O11 0.772537 0.393268 0.760734
O O12 0.249369 0.500000 0.895408
O O13 0.295245 0.357653 0.859688
O O14 0.000000 0.403135 0.000000
O O15 0.095340 0.129611 0.719642
O O16 0.248416 0.000000 0.705363
O O17 0.500000 0.816732 0.500000
O O18 0.750000 0.750000 0.500000
O O19 0.913434 0.854098 0.400942
O O20 0.012331 0.000000 0.365187
#
# Coordination Sequence:
#
# PCOD9201260 Si02
#       8
#     8   8   8   8   8   8   8   8
#     4  11  22  41  66  91 125 169 219 266 341 408
#     4  12  25  41  63  91 129 171 224 273 325 386
#     4   9  18  36  62  90 126 168 206 254 320 381
#     4   9  19  40  70 102 137 173 211 261 322 387
#     4  10  20  37  61  90 122 160 211 268 324 389
#     4  11  24  41  64  94 128 173 221 265 322 393
#     4  11  23  44  64  88 122 170 211 267 339 416
#     4  12  26  42  66  98 128 166 220 284 339 393
#
# _framework density 21.1403
#
# number of rings (size 3 to 8) (size 9 to 14) (size 15 to 20)
#    0.000    1.375    3.750    4.125    1.750    4.250 
#    0.000    3.125    0.000    2.250    0.000    0.000 
#    0.000    0.000    0.000    0.000    0.000    0.000 
#
# Total GULP energy -178564.628622 kJ/mol
# GULP energy per Si atom -5580.144644 kJ/mol
# Density = 2.109218 g / cm^3
# Si number density = 21.140300 Si / 1000 Ang^3
#
#
#
# Elastic Constant Matrix: (Units=GPa)
#
#
# Indices 1 2 3 4 5 6 
#
# 1 113.0904 27.0555 24.0412 -0.0020 -33.1522 0.0012
# 2 27.0555 92.9037 20.5945 -0.0006 -17.1841 0.0000
# 3 24.0412 20.5945 67.6013 0.0053 -35.2720 0.0007
# 4 -0.0020 -0.0006 0.0053 30.5384 0.0019 -15.3759
# 5 -33.1522 -17.1841 -35.2720 0.0019 31.2358 -0.0019
# 6 0.0012 0.0000 0.0007 -15.3759 -0.0019 37.8777
#
#
#
# Elastic Compliance Matrix: (Units=1/GPa)
#
#
# Indices 1 2 3 4 5 6 
#
# 1 0.014207 -0.001600 0.006921 -0.000002 0.022014 0.000000
# 2 -0.001600 0.012171 -0.001293 0.000000 0.003537 0.000000
# 3 0.006921 -0.001293 0.039402 -0.000011 0.051128 -0.000003
# 4 -0.000002 0.000000 -0.000011 0.041158 -0.000016 0.016707
# 5 0.022014 0.003537 0.051128 -0.000016 0.115060 -0.000002
# 6 0.000000 0.000000 -0.000003 0.016707 -0.000002 0.033183
#
#
# Mechanical properties :
#
#
# Convention : Reuss Voigt Hill
#
# Bulk Modulus (GPa) = 13.54349 46.33086 29.93718
# Shear Modulus (GPa) = 18.40022 33.39064 25.89543
#
# Velocity S-wave (km/s) = 2.95343 3.97858 3.50370
# Velocity P-wave (km/s) = 4.24861 6.56269 5.52809
#
# Compressibility (1/GPa) = 0.07383622
#
# Stress axis : x y z
#
# Youngs Moduli (GPa) = 70.38617 82.16460 25.37953
#
# Poissons Ratio (x) = 0.13145 -0.17565
# Poissons Ratio (y) = 0.11260 0.03282
# Poissons Ratio (z) = -0.48715 0.10625
#
# Static dielectric constant tensor:
#      x y z
#    x 1.821890 0.000000 0.016280 
#    y 0.000000 1.777570 0.000000 
#    z 0.016280 0.000000 1.785200 
# 
# From -- ./inp_files/372912.got.cif
#   From: 2010.05.17/outbox.cif.g08.bks.cpg/sg12_187_cif.got.tgz:372912.got - 2010.06.03 13:09:07.
