data_PCOD9201956
_publ_section_title
;
Structure prediction by ZEFSAII (Michael W. Deem and Ramdas Pophale) SiO2 
 PCOD9201956
Probable space group: C 2/M
;
_chemical_formula_sum "Si O2"
_cell_formula_units_Z 48
_cell_length_a 9.633844
_cell_length_b 28.114538
_cell_length_c 21.792674
_cell_angle_alpha 90.000000
_cell_angle_beta 27.873304
_cell_angle_gamma 90.000000
_cell_volume 2759.557248
_symmetry_space_group_name_H-M "C 2/M"
_symmetry_group_IT_number 12
_symmetry_cell_setting 'monoclinic'
loop_
_space_group_symop_operation_xyz
x,y,z
-x,y,-z
-x,-y,-z
x,-y,z
1/2+x,1/2+y,z
1/2-x,1/2+y,-z
1/2-x,1/2-y,-z
1/2+x,1/2-y,z
loop_
_atom_site_type_symbol
_atom_site_label
_atom_site_fract_x
_atom_site_fract_y
_atom_site_fract_z
Si Si1 0.675982 0.443161 0.990888
Si Si2 0.201890 0.619741 0.815802
Si Si3 0.722806 0.784917 0.326920
Si Si4 0.138666 0.053984 0.142939
Si Si5 0.082352 0.194851 0.610933
Si Si6 0.712933 0.794856 0.970453
O O1 0.697520 0.500000 0.979225
O O2 0.542724 0.433256 0.111052
O O3 0.500000 0.425791 0.000000
O O4 0.000481 0.420543 0.864749
O O5 0.399739 0.595181 0.791869
O O6 0.412053 0.646099 0.686492
O O7 0.965904 0.659564 0.933082
O O8 0.856893 0.785799 0.343322
O O9 0.403900 0.810660 0.454519
O O10 0.624809 0.732201 0.343735
O O11 0.967542 0.805347 0.184810
O O12 0.036178 0.000000 0.198237
O O13 0.500000 0.051474 0.000000
O O14 0.500000 0.776965 0.000000
O O15 0.750000 0.750000 0.000000
#
# Coordination Sequence:
#
# PCOD9201956 Si02
#       6
#     8   8   8   8   8   8
#     4   9  18  32  49  76 110 136 165 216 275 323
#     4  11  19  31  50  79 100 136 175 212 260 311
#     4  10  20  38  49  72 100 145 177 214 255 305
#     4   8  15  28  48  72 100 133 166 209 262 314
#     4  10  21  35  55  67 102 145 180 213 254 308
#     4  12  21  32  49  75 105 134 170 221 261 296
#
# _framework density 17.394095
#
# number of rings (size 3 to 8) (size 9 to 14) (size 15 to 20)
#    0.000    2.000    3.333    3.000    0.000    0.667 
#    3.000    0.000    0.000    0.000    0.000   14.000 
#    0.000    2.667    0.000    0.000    0.000    0.000 
#
# Total GULP energy -133652.692084 kJ/mol
# GULP energy per Si atom -5568.862170 kJ/mol
# Density = 1.735451 g / cm^3
# Si number density = 17.394095 Si / 1000 Ang^3
#
#
#
# Elastic Constant Matrix: (Units=GPa)
#
#
# Indices 1 2 3 4 5 6 
#
# 1 76.1456 13.3527 0.2428 0.0164 -5.6166 -0.0063
# 2 13.3527 49.4445 21.2331 0.0107 4.1189 -0.0050
# 3 0.2428 21.2331 86.8797 0.0470 7.7020 -0.0182
# 4 0.0164 0.0107 0.0470 23.1618 -0.0171 7.9729
# 5 -5.6166 4.1189 7.7020 -0.0171 13.5926 0.0080
# 6 -0.0063 -0.0050 -0.0182 7.9729 0.0080 23.1700
#
#
#
# Elastic Compliance Matrix: (Units=1/GPa)
#
#
# Indices 1 2 3 4 5 6 
#
# 1 0.014484 -0.004712 0.000478 -0.000005 0.007142 0.000002
# 2 -0.004712 0.024329 -0.005377 -0.000003 -0.006273 0.000003
# 3 0.000478 -0.005377 0.013331 -0.000038 -0.005727 0.000024
# 4 -0.000005 -0.000003 -0.000038 0.048976 0.000092 -0.016853
# 5 0.007142 -0.006273 -0.005727 0.000092 0.081666 -0.000064
# 6 0.000002 0.000003 0.000024 -0.016853 -0.000064 0.048958
#
#
# Mechanical properties :
#
#
# Convention : Reuss Voigt Hill
#
# Bulk Modulus (GPa) = 30.37427 31.34744 30.86086
# Shear Modulus (GPa) = 19.08842 23.82764 21.45803
#
# Velocity S-wave (km/s) = 3.31631 3.70519 3.51613
# Velocity P-wave (km/s) = 5.67135 6.03039 5.85362
#
# Compressibility (1/GPa) = 0.03292260
#
# Stress axis : x y z
#
# Youngs Moduli (GPa) = 69.04051 41.10403 75.01556
#
# Poissons Ratio (x) = 0.19367 -0.03585
# Poissons Ratio (y) = 0.32530 0.40333
# Poissons Ratio (z) = -0.03299 0.22100
#
# Static dielectric constant tensor:
#      x y z
#    x 1.644370 0.000000 0.022930 
#    y 0.000000 1.626460 0.000000 
#    z 0.022930 0.000000 1.618470 
# 
# From -- ./inp_files/302722.got.cif
#   From: 2010.05.17/outbox.cif.g08.bks.cpg/sg12_152_cif.got.tgz:302722.got - 2010.06.03 13:09:07.
