data_PCOD9201955
_publ_section_title
;
Structure prediction by ZEFSAII (Michael W. Deem and Ramdas Pophale) SiO2 
 PCOD9201955
Probable space group: C 2/M
;
_chemical_formula_sum "Si O2"
_cell_formula_units_Z 64
_cell_length_a 17.575738
_cell_length_b 28.426928
_cell_length_c 14.851214
_cell_angle_alpha 90.000000
_cell_angle_beta 149.262692
_cell_angle_gamma 90.000000
_cell_volume 3792.395574
_symmetry_space_group_name_H-M "C 2/M"
_symmetry_group_IT_number 12
_symmetry_cell_setting 'monoclinic'
loop_
_space_group_symop_operation_xyz
x,y,z
-x,y,-z
-x,-y,-z
x,-y,z
1/2+x,1/2+y,z
1/2-x,1/2+y,-z
1/2-x,1/2-y,-z
1/2+x,1/2-y,z
loop_
_atom_site_type_symbol
_atom_site_label
_atom_site_fract_x
_atom_site_fract_y
_atom_site_fract_z
Si Si1 0.121145 0.348869 0.351395
Si Si2 0.637047 0.944948 0.267681
Si Si3 0.289465 0.052995 0.864748
Si Si4 0.892760 0.685507 0.972201
Si Si5 0.905515 0.130710 0.320208
Si Si6 0.826248 0.222111 0.993878
Si Si7 0.986493 0.304584 0.378741
Si Si8 0.581327 0.295302 0.383723
O O1 0.170163 0.401055 0.367835
O O2 0.076091 0.342484 0.409831
O O3 0.248113 0.309774 0.458614
O O4 0.975307 0.334042 0.144938
O O5 0.703953 0.935580 0.235823
O O6 0.673805 0.000000 0.329446
O O7 0.458369 0.943629 0.070866
O O8 0.179446 0.086475 0.806809
O O9 0.238561 0.000000 0.820817
O O10 0.732764 0.663367 0.792560
O O11 0.865555 0.740463 0.957446
O O12 0.000000 0.673836 0.000000
O O13 0.000000 0.113691 0.500000
O O14 0.010736 0.162266 0.367955
O O15 0.689916 0.190337 0.822869
O O16 0.750000 0.250000 0.000000
O O17 0.982098 0.204506 0.191978
O O18 0.046884 0.253598 0.401856
O O19 0.000000 0.306340 0.500000
#
# Coordination Sequence:
#
# PCOD9201955 Si02
#       8
#     8   8   8   8   8   8   8   8
#     4  12  22  36  56  79 104 142 186 220 259 329
#     4   9  18  33  53  77 106 138 176 225 271 317
#     4   9  18  32  50  76 108 141 179 219 266 321
#     4  12  22  32  53  76 103 143 188 216 261 316
#     4  12  21  32  48  74 109 146 183 218 260 310
#     4  10  20  38  49  70 109 146 172 224 263 298
#     4  11  23  37  56  77 112 143 178 222 268 308
#     4  11  22  36  52  78 111 144 179 222 260 313
#
# _framework density 16.875876999999999
#
# number of rings (size 3 to 8) (size 9 to 14) (size 15 to 20)
#    0.000    1.250    6.250    3.750    1.750    0.250 
#    0.000    0.625    0.000    0.375    0.000    0.000 
#    0.000    1.000    0.000    0.000    0.000    0.000 
#
# Total GULP energy -178337.705985 kJ/mol
# GULP energy per Si atom -5573.053312 kJ/mol
# Density = 1.683747 g / cm^3
# Si number density = 16.875877 Si / 1000 Ang^3
#
#
#
# Elastic Constant Matrix: (Units=GPa)
#
#
# Indices 1 2 3 4 5 6 
#
# 1 58.9697 12.9193 13.1062 0.0000 -4.9855 0.0000
# 2 12.9193 66.6497 -2.5696 0.0000 -3.9088 0.0000
# 3 13.1062 -2.5696 55.4394 0.0000 3.4290 0.0000
# 4 0.0000 0.0000 0.0000 19.5541 0.0000 13.1324
# 5 -4.9855 -3.9088 3.4290 0.0000 20.2272 0.0000
# 6 0.0000 0.0000 0.0000 13.1324 0.0000 166.4070
#
#
#
# Elastic Compliance Matrix: (Units=1/GPa)
#
#
# Indices 1 2 3 4 5 6 
#
# 1 0.019290 -0.003646 -0.005032 0.000000 0.004903 0.000000
# 2 -0.003646 0.015880 0.001479 0.000000 0.001919 0.000000
# 3 -0.005032 0.001479 0.019560 0.000000 -0.004270 0.000000
# 4 0.000000 0.000000 0.000000 0.054002 0.000000 -0.004262
# 5 0.004903 0.001919 -0.004270 0.000000 0.051742 0.000000
# 6 0.000000 0.000000 0.000000 -0.004262 0.000000 0.006346
#
#
# Mechanical properties :
#
#
# Convention : Reuss Voigt Hill
#
# Bulk Modulus (GPa) = 24.79413 25.33007 25.06210
# Shear Modulus (GPa) = 25.68571 51.74453 38.71512
#
# Velocity S-wave (km/s) = 3.90556 5.54332 4.79488
# Velocity P-wave (km/s) = 5.92130 7.48421 6.74816
#
# Compressibility (1/GPa) = 0.04033213
#
# Stress axis : x y z
#
# Youngs Moduli (GPa) = 51.84159 62.97207 51.12452
#
# Poissons Ratio (x) = 0.22957 0.25728
# Poissons Ratio (y) = 0.18899 -0.07562
# Poissons Ratio (z) = 0.26089 -0.09314
#
# Static dielectric constant tensor:
#      x y z
#    x 1.580390 0.000000 -0.001090 
#    y 0.000000 1.629670 0.000000 
#    z -0.001090 0.000000 1.599550 
# 
# From -- ./inp_files/228523.got.cif
#   From: 2010.05.17/outbox.cif.g08.bks.cpg/sg12_115_cif.got.tgz:228523.got - 2010.06.03 13:09:07.
