data_PCOD9201411
_publ_section_title
;
Structure prediction by ZEFSAII (Michael W. Deem and Ramdas Pophale) SiO2 
 PCOD9201411
Probable space group: C 2/M
;
_chemical_formula_sum "Si O2"
_cell_formula_units_Z 60
_cell_length_a 11.688420
_cell_length_b 14.623923
_cell_length_c 13.897028
_cell_angle_alpha 90.000000
_cell_angle_beta 65.912811
_cell_angle_gamma 90.000000
_cell_volume 2168.587497
_symmetry_space_group_name_H-M "C 2/M"
_symmetry_group_IT_number 12
_symmetry_cell_setting 'monoclinic'
loop_
_space_group_symop_operation_xyz
x,y,z
-x,y,-z
-x,-y,-z
x,-y,z
1/2+x,1/2+y,z
1/2-x,1/2+y,-z
1/2-x,1/2-y,-z
1/2+x,1/2-y,z
loop_
_atom_site_type_symbol
_atom_site_label
_atom_site_fract_x
_atom_site_fract_y
_atom_site_fract_z
Si Si1 0.091276 0.823298 0.834303
Si Si2 0.131976 0.394183 0.915919
Si Si3 0.280610 0.605469 0.033371
Si Si4 0.314184 0.246157 0.627250
Si Si5 0.147616 0.611032 0.558316
Si Si6 0.068371 0.000000 0.726661
Si Si7 0.989498 0.645869 0.788938
Si Si8 0.014616 0.099655 0.382819
O O1 0.129797 0.832810 0.932419
O O2 0.221184 0.795299 0.736980
O O3 0.996998 0.749274 0.823525
O O4 0.046817 0.920166 0.813003
O O5 0.134270 0.500000 0.942668
O O6 0.109995 0.392129 0.809905
O O7 0.249127 0.358902 0.936254
O O8 0.000000 0.356083 0.000000
O O9 0.323570 0.500000 0.019537
O O10 0.142838 0.606112 0.132302
O O11 0.247833 0.327108 0.585723
O O12 0.362228 0.168993 0.537076
O O13 0.416508 0.306476 0.650163
O O14 0.166882 0.500000 0.545678
O O15 0.023344 0.623909 0.667953
O O16 0.111156 0.083759 0.632016
O O17 0.000000 0.087644 0.500000
O O18 0.066742 0.000000 0.316715
#
# Coordination Sequence:
#
# PCOD9201411 Si02
#       8
#     8   8   8   8   8   4   8   8
#     4  11  24  37  57  88 119 154 197 248 294 343
#     4   8  15  32  59  87 115 152 191 235 293 357
#     4  10  20  37  62  88 117 153 194 238 297 360
#     4  10  23  35  55  85 115 159 203 239 287 356
#     4  10  21  34  56  84 125 153 192 249 302 338
#     4  10  23  40  58  80 113 156 200 247 291 348
#     4  10  21  36  59  88 121 151 193 248 294 353
#     4   9  21  35  62  78 106 152 205 241 288 343
#
# _framework density 27.667777999999998
#
# number of rings (size 3 to 8) (size 9 to 14) (size 15 to 20)
#    0.400    1.867    0.667    2.400    8.400    0.533 
#    0.000    0.000    0.000    2.000    0.000    4.200 
#    0.000    0.000    0.000    0.000    0.000    0.000 
#
# Total GULP energy -167159.207436 kJ/mol
# GULP energy per Si atom -5571.973581 kJ/mol
# Density = 2.760480 g / cm^3
# Si number density = 27.667778 Si / 1000 Ang^3
#
#
#
# Elastic Constant Matrix: (Units=GPa)
#
#
# Indices 1 2 3 4 5 6 
#
# 1 103.9381 64.8197 65.6634 0.0000 9.1423 0.0000
# 2 64.8197 233.2638 43.7627 0.0000 1.4534 0.0000
# 3 65.6634 43.7627 100.5324 0.0000 19.5342 0.0000
# 4 0.0000 0.0000 0.0000 48.4012 0.0000 7.7906
# 5 9.1423 1.4534 19.5342 0.0000 54.9042 0.0000
# 6 0.0000 0.0000 0.0000 7.7906 0.0000 30.4602
#
#
#
# Elastic Compliance Matrix: (Units=1/GPa)
#
#
# Indices 1 2 3 4 5 6 
#
# 1 0.018247 -0.003058 -0.010756 0.000000 0.000869 0.000000
# 2 -0.003058 0.005202 -0.000365 0.000000 0.000501 0.000000
# 3 -0.010756 -0.000365 0.018027 0.000000 -0.004613 0.000000
# 4 0.000000 0.000000 0.000000 0.021548 0.000000 -0.005511
# 5 0.000869 0.000501 -0.004613 0.000000 0.019697 0.000000
# 6 0.000000 0.000000 0.000000 -0.005511 0.000000 0.034239
#
#
# Mechanical properties :
#
#
# Convention : Reuss Voigt Hill
#
# Bulk Modulus (GPa) = 76.22208 87.35844 81.79026
# Shear Modulus (GPa) = 33.40252 44.31904 38.86078
#
# Velocity S-wave (km/s) = 3.47835 4.00663 3.75180
# Velocity P-wave (km/s) = 6.61368 7.28332 6.95656
#
# Compressibility (1/GPa) = 0.01311956
#
# Stress axis : x y z
#
# Youngs Moduli (GPa) = 54.80458 192.23344 55.47143
#
# Poissons Ratio (x) = 0.58784 0.59663
# Poissons Ratio (y) = 0.16759 0.02022
# Poissons Ratio (z) = 0.58946 0.07008
#
# Static dielectric constant tensor:
#      x y z
#    x 2.262880 0.000000 -0.013280 
#    y 0.000000 2.193400 0.000000 
#    z -0.013280 0.000000 2.251230 
# 
# From -- ./inp_files/214832.got.cif
#   From: 2010.05.17/outbox.cif.g08.bks.cpg/sg12_108_cif.got.tgz:214832.got - 2010.06.03 13:09:07.
