data_PCOD9201138
_publ_section_title
;
Structure prediction by ZEFSAII (Michael W. Deem and Ramdas Pophale) SiO2 
 PCOD9201138
Probable space group: C 2/M
;
_chemical_formula_sum "Si O2"
_cell_formula_units_Z 40
_cell_length_a 30.523503
_cell_length_b 12.941223
_cell_length_c 8.031286
_cell_angle_alpha 90.000000
_cell_angle_beta 33.023097
_cell_angle_gamma 90.000000
_cell_volume 1728.912521
_symmetry_space_group_name_H-M "C 2/M"
_symmetry_group_IT_number 12
_symmetry_cell_setting 'monoclinic'
loop_
_space_group_symop_operation_xyz
x,y,z
-x,y,-z
-x,-y,-z
x,-y,z
1/2+x,1/2+y,z
1/2-x,1/2+y,-z
1/2-x,1/2-y,-z
1/2+x,1/2-y,z
loop_
_atom_site_type_symbol
_atom_site_label
_atom_site_fract_x
_atom_site_fract_y
_atom_site_fract_z
Si Si1 0.839411 0.794428 0.721148
Si Si2 0.496130 0.182388 0.198640
Si Si3 0.155183 0.385176 0.844717
Si Si4 0.098044 0.115161 0.822579
Si Si5 0.702447 0.336710 0.809126
O O1 0.904553 0.702444 0.538821
O O2 0.795326 0.631843 0.487323
O O3 0.750000 0.750000 0.000000
O O4 0.837816 0.866731 0.889544
O O5 0.531720 0.298863 0.072465
O O6 0.500000 0.137082 0.000000
O O7 0.560240 0.126882 0.112598
O O8 0.172338 0.500000 0.854055
O O9 0.188365 0.287388 0.841043
O O10 0.139434 0.148910 0.518211
O O11 0.066324 0.000000 0.912588
O O12 0.158502 0.120096 0.786125
#
# Coordination Sequence:
#
# PCOD9201138 Si02
#       5
#     8   8   8   8   8
#     4  11  22  39  61  84 116 157 200 245 296 350
#     4   9  20  38  58  84 120 156 196 249 296 347
#     4  10  20  37  61  86 119 161 197 239 300 358
#     4  10  22  40  62  88 119 156 197 243 297 354
#     4  10  21  39  61  89 122 156 197 246 294 350
#
# _framework density 23.135929999999998
#
# number of rings (size 3 to 8) (size 9 to 14) (size 15 to 20)
#    0.000    2.000    0.000    5.400    0.000    8.800 
#    0.000    4.000    0.000    4.800    0.000    0.000 
#    0.000    0.000    0.000    0.000    0.000    0.000 
#
# Total GULP energy -111711.817249 kJ/mol
# GULP energy per Si atom -5585.590862 kJ/mol
# Density = 2.308327 g / cm^3
# Si number density = 23.135930 Si / 1000 Ang^3
#
#
#
# Elastic Constant Matrix: (Units=GPa)
#
#
# Indices 1 2 3 4 5 6 
#
# 1 102.6708 6.0980 39.6356 0.0000 -1.7505 0.0000
# 2 6.0980 133.3249 -2.3503 0.0000 -4.7759 0.0000
# 3 39.6356 -2.3503 120.8547 0.0000 -4.3991 0.0000
# 4 0.0000 0.0000 0.0000 0.6126 0.0000 0.8964
# 5 -1.7505 -4.7759 -4.3991 0.0000 48.2452 0.0000
# 6 0.0000 0.0000 0.0000 0.8964 0.0000 -1.5086
#
#
#
# Elastic Compliance Matrix: (Units=1/GPa)
#
#
# Indices 1 2 3 4 5 6 
#
# 1 0.011196 -0.000577 -0.003683 0.000000 0.000013 0.000000
# 2 -0.000577 0.007561 0.000364 0.000000 0.000761 0.000000
# 3 -0.003683 0.000364 0.009517 0.000000 0.000770 0.000000
# 4 0.000000 0.000000 0.000000 0.873106 0.000000 0.518825
# 5 0.000013 0.000761 0.000770 0.000000 0.020873 0.000000
# 6 0.000000 0.000000 0.000000 0.518825 0.000000 -0.354578
#
#
# Mechanical properties :
#
#
# Convention : Reuss Voigt Hill
#
# Bulk Modulus (GPa) = 48.82063 49.29079 49.05571
# Shear Modulus (GPa) = 8.58674 30.36765 19.47719
#
# Velocity S-wave (km/s) = 1.92860 3.62688 2.90463
# Velocity P-wave (km/s) = 5.10948 6.23619 5.70074
#
# Compressibility (1/GPa) = 0.02048314
#
# Stress axis : x y z
#
# Youngs Moduli (GPa) = 89.31780 132.26630 105.07240
#
# Poissons Ratio (x) = 0.07625 0.38694
# Poissons Ratio (y) = 0.05149 -0.03822
# Poissons Ratio (z) = 0.32892 -0.04812
#
# Static dielectric constant tensor:
#      x y z
#    x 1.957140 0.000000 -0.010240 
#    y 0.000000 1.861490 0.000000 
#    z -0.010240 0.000000 1.924580 
# 
# From -- ./inp_files/109683.got.cif
#   From: 2010.05.17/outbox.cif.g08.bks.cpg/sg12_55_cif.got.tgz:109683.got - 2010.06.03 13:09:07.
