data_PCOD9201028
_publ_section_title
;
Structure prediction by ZEFSAII (Michael W. Deem and Ramdas Pophale) SiO2 
 PCOD9201028
Probable space group: C 2/M
;
_chemical_formula_sum "Si O2"
_cell_formula_units_Z 56
_cell_length_a 24.019215
_cell_length_b 20.523748
_cell_length_c 13.845107
_cell_angle_alpha 90.000000
_cell_angle_beta 23.704304
_cell_angle_gamma 90.000000
_cell_volume 2743.820786
_symmetry_space_group_name_H-M "C 2/M"
_symmetry_group_IT_number 12
_symmetry_cell_setting 'monoclinic'
loop_
_space_group_symop_operation_xyz
x,y,z
-x,y,-z
-x,-y,-z
x,-y,z
1/2+x,1/2+y,z
1/2-x,1/2+y,-z
1/2-x,1/2-y,-z
1/2+x,1/2-y,z
loop_
_atom_site_type_symbol
_atom_site_label
_atom_site_fract_x
_atom_site_fract_y
_atom_site_fract_z
Si Si1 0.102133 0.572032 0.214296
Si Si2 0.134769 0.802617 0.716546
Si Si3 0.137684 0.925036 0.342137
Si Si4 0.062816 0.702935 0.504948
Si Si5 0.223015 0.889839 0.883794
Si Si6 0.336194 0.569146 0.233703
Si Si7 0.445404 0.664279 0.370936
O O1 0.038375 0.500000 0.303575
O O2 0.165209 0.578635 0.222220
O O3 0.007907 0.635431 0.348206
O O4 0.231283 0.576466 0.936706
O O5 0.250000 0.750000 0.500000
O O6 0.213147 0.862504 0.644628
O O7 0.078662 0.831034 0.704638
O O8 0.000000 0.783912 0.000000
O O9 0.160626 0.875943 0.394518
O O10 0.000000 0.906588 0.500000
O O11 0.118231 0.000000 0.406117
O O12 0.220160 0.681417 0.236889
O O13 0.044460 0.763062 0.604107
O O14 0.000000 0.720049 0.500000
O O15 0.189240 0.927644 0.840139
O O16 0.084870 0.877070 0.162094
O O17 0.278947 0.500000 0.361783
O O18 0.500000 0.569277 0.000000
#
# Coordination Sequence:
#
# PCOD9201028 Si02
#       7
#     8   8   8   8   8   8   8
#     4  10  22  40  59  86 126 164 200 241 297 365
#     4  11  24  43  64  92 124 161 204 256 314 368
#     4  10  21  36  57  87 120 158 197 243 300 357
#     4  10  25  37  57  88 123 164 200 242 296 360
#     4  11  21  37  59  90 116 161 201 248 304 352
#     4  10  20  37  60  91 119 149 203 260 306 355
#     4  12  23  37  62  84 124 155 206 246 302 359
#
# _framework density 20.409496000000001
#
# number of rings (size 3 to 8) (size 9 to 14) (size 15 to 20)
#    0.000    1.429    4.286    1.714    2.000    5.429 
#    0.000    0.000    0.000    0.429    0.000    0.000 
#    0.000    0.000    0.000    0.000    0.000    0.000 
#
# Total GULP energy -156195.312555 kJ/mol
# GULP energy per Si atom -5578.404020 kJ/mol
# Density = 2.036304 g / cm^3
# Si number density = 20.409496 Si / 1000 Ang^3
#
#
#
# Elastic Constant Matrix: (Units=GPa)
#
#
# Indices 1 2 3 4 5 6 
#
# 1 85.8962 31.4348 21.2179 -0.0009 23.2185 0.0002
# 2 31.4348 127.8420 36.9186 -0.0028 27.5162 0.0013
# 3 21.2179 36.9186 76.4721 -0.0018 21.9722 0.0005
# 4 -0.0009 -0.0028 -0.0018 20.6802 0.0016 8.2348
# 5 23.2185 27.5162 21.9722 0.0016 26.6358 -0.0006
# 6 0.0002 0.0013 0.0005 8.2348 -0.0006 6.2481
#
#
#
# Elastic Compliance Matrix: (Units=1/GPa)
#
#
# Indices 1 2 3 4 5 6 
#
# 1 0.015366 -0.001112 -0.000273 0.000004 -0.012020 -0.000007
# 2 -0.001112 0.010503 -0.002520 0.000006 -0.007801 -0.000011
# 3 -0.000273 -0.002520 0.017763 0.000006 -0.011811 -0.000011
# 4 0.000004 0.000006 0.000006 0.101760 -0.000024 -0.134115
# 5 -0.012020 -0.007801 -0.011811 -0.000024 0.065824 0.000042
# 6 -0.000007 -0.000011 -0.000011 -0.134115 0.000042 0.336806
#
#
# Mechanical properties :
#
#
# Convention : Reuss Voigt Hill
#
# Bulk Modulus (GPa) = 27.91711 52.15034 40.03372
# Shear Modulus (GPa) = 8.80637 24.08876 16.44756
#
# Velocity S-wave (km/s) = 2.07947 3.43924 2.84188
# Velocity P-wave (km/s) = 4.41291 6.43262 5.51599
#
# Compressibility (1/GPa) = 0.03582033
#
# Stress axis : x y z
#
# Youngs Moduli (GPa) = 65.08077 95.21501 56.29760
#
# Poissons Ratio (x) = 0.10591 0.01535
# Poissons Ratio (y) = 0.07239 0.14189
# Poissons Ratio (z) = 0.01775 0.23997
#
# Static dielectric constant tensor:
#      x y z
#    x 1.738900 0.000000 -0.017620 
#    y 0.000000 1.753720 0.000000 
#    z -0.017620 0.000000 1.753520 
# 
# From -- ./inp_files/170281.got.cif
#   From: 2010.05.17/outbox.cif.g08.bks.cpg/sg12_86_cif.got.tgz:170281.got - 2010.06.03 13:09:07.
