data_PCOD9201295
_publ_section_title
;
Structure prediction by ZEFSAII (Michael W. Deem and Ramdas Pophale) SiO2 
 PCOD9201295
Probable space group: C 2/M
;
_chemical_formula_sum "Si O2"
_cell_formula_units_Z 40
_cell_length_a 7.456981
_cell_length_b 16.994494
_cell_length_c 15.995937
_cell_angle_alpha 90.000000
_cell_angle_beta 75.898199
_cell_angle_gamma 90.000000
_cell_volume 1966.038232
_symmetry_space_group_name_H-M "C 2/M"
_symmetry_group_IT_number 12
_symmetry_cell_setting 'monoclinic'
loop_
_space_group_symop_operation_xyz
x,y,z
-x,y,-z
-x,-y,-z
x,-y,z
1/2+x,1/2+y,z
1/2-x,1/2+y,-z
1/2-x,1/2-y,-z
1/2+x,1/2-y,z
loop_
_atom_site_type_symbol
_atom_site_label
_atom_site_fract_x
_atom_site_fract_y
_atom_site_fract_z
Si Si1 0.941505 0.908925 0.097610
Si Si2 0.598045 0.823891 0.222730
Si Si3 0.463953 0.188968 0.410568
Si Si4 0.938906 0.867362 0.593010
Si Si5 0.680316 0.361077 0.217830
O O1 0.769327 0.862348 0.156320
O O2 0.113356 0.902874 0.141839
O O3 0.887371 0.000000 0.094341
O O4 0.000000 0.877854 0.000000
O O5 0.604801 0.837694 0.322473
O O6 0.610333 0.729263 0.215829
O O7 0.400698 0.854844 0.209949
O O8 0.500000 0.161145 0.500000
O O9 0.269615 0.158109 0.402085
O O10 0.452641 0.284051 0.414307
O O11 0.000000 0.909185 0.500000
O O12 0.922821 0.898704 0.689152
#
# Coordination Sequence:
#
# PCOD9201295 Si02
#       5
#     8   8   8   8   8
#     4  11  26  44  62  85 115 157 199 240 303 361
#     4  10  20  37  61  92 122 151 196 247 291 342
#     4   9  16  24  45  81 117 150 183 229 284 334
#     4   9  16  24  45  81 117 150 183 229 284 334
#     4  10  20  37  61  92 122 151 196 247 291 342
#
# _framework density 20.345483999999999
#
# number of rings (size 3 to 8) (size 9 to 14) (size 15 to 20)
#    0.000    2.200    2.000    2.400    5.600    2.400 
#    0.000    2.000    0.000    1.200    0.000    0.000 
#    0.000    0.000    0.000    0.000    0.000    0.000 
#
# Total GULP energy -111497.821079 kJ/mol
# GULP energy per Si atom -5574.891054 kJ/mol
# Density = 2.029918 g / cm^3
# Si number density = 20.345484 Si / 1000 Ang^3
#
#
#
# Elastic Constant Matrix: (Units=GPa)
#
#
# Indices 1 2 3 4 5 6 
#
# 1 82.0305 4.0573 54.9478 0.0000 6.5542 0.0000
# 2 4.0573 36.5932 32.9599 0.0000 -10.2060 0.0000
# 3 54.9478 32.9599 196.3383 0.0000 7.0142 0.0000
# 4 0.0000 0.0000 0.0000 77.5731 0.0000 7.6276
# 5 6.5542 -10.2060 7.0142 0.0000 36.8544 0.0000
# 6 0.0000 0.0000 0.0000 7.6276 0.0000 12.2932
#
#
#
# Elastic Compliance Matrix: (Units=1/GPa)
#
#
# Indices 1 2 3 4 5 6 
#
# 1 0.015251 0.002072 -0.004571 0.000000 -0.001268 0.000000
# 2 0.002072 0.036619 -0.007125 0.000000 0.011128 0.000000
# 3 -0.004571 -0.007125 0.007662 0.000000 -0.002618 0.000000
# 4 0.000000 0.000000 0.000000 0.013729 0.000000 -0.008518
# 5 -0.001268 0.011128 -0.002618 0.000000 0.030939 0.000000
# 6 0.000000 0.000000 0.000000 -0.008518 0.000000 0.086631
#
#
# Mechanical properties :
#
#
# Convention : Reuss Voigt Hill
#
# Bulk Modulus (GPa) = 24.82297 55.43243 40.12770
# Shear Modulus (GPa) = 22.37071 40.21060 31.29066
#
# Velocity S-wave (km/s) = 3.31953 4.45048 3.92595
# Velocity P-wave (km/s) = 5.18841 7.32897 6.34954
#
# Compressibility (1/GPa) = 0.04028527
#
# Stress axis : x y z
#
# Youngs Moduli (GPa) = 65.56875 27.30833 130.51341
#
# Poissons Ratio (x) = -0.05659 0.59655
# Poissons Ratio (y) = -0.13587 0.92988
# Poissons Ratio (z) = 0.29970 0.19457
#
# Static dielectric constant tensor:
#      x y z
#    x 1.733290 0.000000 0.006450 
#    y 0.000000 1.703320 0.000000 
#    z 0.006450 0.000000 1.793420 
# 
# From -- ./inp_files/195301.got.cif
#   From: 2010.05.17/outbox.cif.g08.bks.cpg/sg12_98_cif.got.tgz:195301.got - 2010.06.03 13:09:07.
