data_PCOD9201745
_publ_section_title
;
Structure prediction by ZEFSAII (Michael W. Deem and Ramdas Pophale) SiO2 
 PCOD9201745
Probable space group: C 2/M
;
_chemical_formula_sum "Si O2"
_cell_formula_units_Z 52
_cell_length_a 10.715238
_cell_length_b 23.452293
_cell_length_c 11.598642
_cell_angle_alpha 90.000000
_cell_angle_beta 129.861765
_cell_angle_gamma 90.000000
_cell_volume 2237.305569
_symmetry_space_group_name_H-M "C 2/M"
_symmetry_group_IT_number 12
_symmetry_cell_setting 'monoclinic'
loop_
_space_group_symop_operation_xyz
x,y,z
-x,y,-z
-x,-y,-z
x,-y,z
1/2+x,1/2+y,z
1/2-x,1/2+y,-z
1/2-x,1/2-y,-z
1/2+x,1/2-y,z
loop_
_atom_site_type_symbol
_atom_site_label
_atom_site_fract_x
_atom_site_fract_y
_atom_site_fract_z
Si Si1 0.743940 0.175616 0.830602
Si Si2 0.752424 0.500000 0.236010
Si Si3 0.325619 0.888893 0.412520
Si Si4 0.102982 0.376726 0.295087
Si Si5 0.500000 0.107729 0.000000
Si Si6 0.358778 0.293689 0.328803
Si Si7 0.624101 0.500000 0.913986
Si Si8 0.657000 0.368918 0.876814
O O1 0.794256 0.148424 0.736781
O O2 0.570679 0.147865 0.766728
O O3 0.714252 0.241520 0.787550
O O4 0.857475 0.157202 0.004175
O O5 0.831907 0.446142 0.342057
O O6 0.562338 0.500000 0.155787
O O7 0.748388 0.500000 0.095833
O O8 0.500000 0.859092 0.500000
O O9 0.309482 0.900694 0.538207
O O10 0.218917 0.326113 0.318252
O O11 0.066029 0.417453 0.161637
O O12 0.654998 0.142666 0.048883
O O13 0.500000 0.274967 0.500000
O O14 0.434733 0.338215 0.281502
O O15 0.643791 0.437904 0.867466
#
# Coordination Sequence:
#
# PCOD9201745 Si02
#       8
#     8   4   8   8   4   8   4   8
#     4  10  20  39  63  88 118 158 205 259 297 355
#     4  11  23  40  59  91 124 156 203 253 308 364
#     4  10  20  37  64  89 118 155 203 256 311 349
#     4   9  20  37  57  88 120 156 200 253 291 359
#     4   8  18  39  64  80 116 154 208 245 290 350
#     4  11  23  37  60  91 126 163 200 241 311 368
#     4  11  24  41  62  87 126 163 200 256 301 366
#     4  10  21  42  63  87 121 163 205 254 299 359
#
# _framework density 23.242243999999999
#
# number of rings (size 3 to 8) (size 9 to 14) (size 15 to 20)
#    0.000    2.000    1.538    2.077    2.154    2.769 
#    0.000    3.462    0.000    0.000    0.000    0.000 
#    0.000    0.000    0.000    0.000    0.000    0.000 
#
# Total GULP energy -144795.646223 kJ/mol
# GULP energy per Si atom -5569.063316 kJ/mol
# Density = 2.318934 g / cm^3
# Si number density = 23.242244 Si / 1000 Ang^3
#
#
#
# Elastic Constant Matrix: (Units=GPa)
#
#
# Indices 1 2 3 4 5 6 
#
# 1 64.3048 6.9163 28.4124 0.0000 -11.1615 0.0000
# 2 6.9163 144.9363 48.5904 0.0000 -23.4174 0.0000
# 3 28.4124 48.5904 146.9085 0.0000 -29.1879 0.0000
# 4 0.0000 0.0000 0.0000 9.7478 0.0000 16.6065
# 5 -11.1615 -23.4174 -29.1879 0.0000 48.9832 0.0000
# 6 0.0000 0.0000 0.0000 16.6065 0.0000 -38.1318
#
#
#
# Elastic Compliance Matrix: (Units=1/GPa)
#
#
# Indices 1 2 3 4 5 6 
#
# 1 0.017253 0.000588 -0.003056 0.000000 0.002391 0.000000
# 2 0.000588 0.008054 -0.002252 0.000000 0.002642 0.000000
# 3 -0.003056 -0.002252 0.008837 0.000000 0.003492 0.000000
# 4 0.000000 0.000000 0.000000 0.058893 0.000000 0.025648
# 5 0.002391 0.002642 0.003492 0.000000 0.024304 0.000000
# 6 0.000000 0.000000 0.000000 0.025648 0.000000 -0.015055
#
#
# Mechanical properties :
#
#
# Convention : Reuss Voigt Hill
#
# Bulk Modulus (GPa) = 40.48308 58.22086 49.35197
# Shear Modulus (GPa) = 41.68015 22.26853 31.97434
#
# Velocity S-wave (km/s) = 4.23932 3.09869 3.71307
# Velocity P-wave (km/s) = 6.43570 6.15682 6.29780
#
# Compressibility (1/GPa) = 0.02470168
#
# Stress axis : x y z
#
# Youngs Moduli (GPa) = 57.96064 124.16898 113.16170
#
# Poissons Ratio (x) = -0.07296 0.34583
# Poissons Ratio (y) = -0.03406 0.25490
# Poissons Ratio (z) = 0.17713 0.27969
#
# Static dielectric constant tensor:
#      x y z
#    x 1.921140 0.000000 -0.014380 
#    y 0.000000 1.900330 0.000000 
#    z -0.014380 0.000000 2.019050 
# 
# From -- ./inp_files/136042.got.cif
#   From: 2010.05.17/outbox.cif.g08.bks.cpg/sg12_69_cif.got.tgz:136042.got - 2010.06.03 13:09:07.
