data_PCOD9201238
_publ_section_title
;
Structure prediction by ZEFSAII (Michael W. Deem and Ramdas Pophale) SiO2 
 PCOD9201238
Probable space group: C 2/M
;
_chemical_formula_sum "Si O2"
_cell_formula_units_Z 40
_cell_length_a 10.488938
_cell_length_b 13.966082
_cell_length_c 16.840726
_cell_angle_alpha 90.000000
_cell_angle_beta 134.745299
_cell_angle_gamma 90.000000
_cell_volume 1752.160805
_symmetry_space_group_name_H-M "C 2/M"
_symmetry_group_IT_number 12
_symmetry_cell_setting 'monoclinic'
loop_
_space_group_symop_operation_xyz
x,y,z
-x,y,-z
-x,-y,-z
x,-y,z
1/2+x,1/2+y,z
1/2-x,1/2+y,-z
1/2-x,1/2-y,-z
1/2+x,1/2-y,z
loop_
_atom_site_type_symbol
_atom_site_label
_atom_site_fract_x
_atom_site_fract_y
_atom_site_fract_z
Si Si1 0.721396 0.139890 0.506887
Si Si2 0.878695 0.105348 0.338403
Si Si3 0.496915 0.384772 0.091657
Si Si4 0.295659 0.886313 0.912888
Si Si5 0.670207 0.174978 0.662735
O O1 0.750000 0.250000 0.500000
O O2 0.714985 0.126095 0.598730
O O3 0.516287 0.127449 0.388948
O O4 0.906425 0.095393 0.559393
O O5 0.811392 0.121440 0.217621
O O6 0.839508 0.209932 0.358714
O O7 0.801812 0.000000 0.329364
O O8 0.505035 0.500000 0.105085
O O9 0.326997 0.349434 0.068744
O O10 0.673705 0.341281 0.207458
O O11 0.500000 0.365472 0.000000
O O12 0.313718 0.000000 0.935157
O O13 0.500000 0.848439 0.000000
#
# Coordination Sequence:
#
# PCOD9201238 Si02
#       5
#     8   8   8   8   8
#     4   9  19  37  59  85 122 160 203 258 314 373
#     4  10  20  37  61  89 123 165 208 256 314 381
#     4  10  21  39  63  94 130 165 208 264 319 377
#     4   9  18  36  59  86 121 162 206 252 306 374
#     4  10  20  37  61  91 123 160 207 264 317 373
#
# _framework density 22.828955000000001
#
# number of rings (size 3 to 8) (size 9 to 14) (size 15 to 20)
#    0.000    2.400    2.000    0.000    0.000    1.600 
#    7.200   12.000    0.000    0.000    0.000    0.000 
#    0.000    0.800    0.000    0.000    0.000    0.000 
#
# Total GULP energy -111505.107736 kJ/mol
# GULP energy per Si atom -5575.255387 kJ/mol
# Density = 2.277700 g / cm^3
# Si number density = 22.828955 Si / 1000 Ang^3
#
#
#
# Elastic Constant Matrix: (Units=GPa)
#
#
# Indices 1 2 3 4 5 6 
#
# 1 85.6335 2.0717 71.9930 0.0000 16.4322 0.0000
# 2 2.0717 99.6336 28.2882 0.0000 1.1859 0.0000
# 3 71.9930 28.2882 146.7814 0.0000 24.4360 0.0000
# 4 0.0000 0.0000 0.0000 40.9246 0.0000 -6.7020
# 5 16.4322 1.1859 24.4360 0.0000 29.5827 0.0000
# 6 0.0000 0.0000 0.0000 -6.7020 0.0000 19.7006
#
#
#
# Elastic Compliance Matrix: (Units=1/GPa)
#
#
# Indices 1 2 3 4 5 6 
#
# 1 0.020742 0.002477 -0.010106 0.000000 -0.003273 0.000000
# 2 0.002477 0.010969 -0.003509 0.000000 0.001083 0.000000
# 3 -0.010106 -0.003509 0.013320 0.000000 -0.005248 0.000000
# 4 0.000000 0.000000 0.000000 0.025877 0.000000 0.008803
# 5 -0.003273 0.001083 -0.005248 0.000000 0.039913 0.000000
# 6 0.000000 0.000000 0.000000 0.008803 0.000000 0.053754
#
#
# Mechanical properties :
#
#
# Convention : Reuss Voigt Hill
#
# Bulk Modulus (GPa) = 43.94818 59.63937 51.79378
# Shear Modulus (GPa) = 25.71540 33.35460 29.53500
#
# Velocity S-wave (km/s) = 3.35989 3.82654 3.60078
# Velocity P-wave (km/s) = 5.86043 6.76050 6.32649
#
# Compressibility (1/GPa) = 0.02275407
#
# Stress axis : x y z
#
# Youngs Moduli (GPa) = 48.21124 91.16849 75.07726
#
# Poissons Ratio (x) = -0.22582 0.75873
# Poissons Ratio (y) = -0.11942 0.26346
# Poissons Ratio (z) = 0.48722 0.31992
#
# Static dielectric constant tensor:
#      x y z
#    x 1.892020 0.000000 0.001000 
#    y 0.000000 1.896790 0.000000 
#    z 0.001000 0.000000 1.834400 
# 
# From -- ./inp_files/129815.got.cif
#   From: 2010.05.17/outbox.cif.g08.bks.cpg/sg12_65_cif.got.tgz:129815.got - 2010.06.03 13:09:07.
