data_PCOD9201843
_publ_section_title
;
Structure prediction by ZEFSAII (Michael W. Deem and Ramdas Pophale) SiO2 
 PCOD9201843
Probable space group: C 2/M
;
_chemical_formula_sum "Si O2"
_cell_formula_units_Z 64
_cell_length_a 18.317850
_cell_length_b 17.100564
_cell_length_c 21.428488
_cell_angle_alpha 90.000000
_cell_angle_beta 149.351961
_cell_angle_gamma 90.000000
_cell_volume 3421.721821
_symmetry_space_group_name_H-M "C 2/M"
_symmetry_group_IT_number 12
_symmetry_cell_setting 'monoclinic'
loop_
_space_group_symop_operation_xyz
x,y,z
-x,y,-z
-x,-y,-z
x,-y,z
1/2+x,1/2+y,z
1/2-x,1/2+y,-z
1/2-x,1/2-y,-z
1/2+x,1/2-y,z
loop_
_atom_site_type_symbol
_atom_site_label
_atom_site_fract_x
_atom_site_fract_y
_atom_site_fract_z
Si Si1 0.114811 0.408892 0.271887
Si Si2 0.121988 0.738671 0.712901
Si Si3 0.498446 0.914076 0.424780
Si Si4 0.958570 0.808061 0.116412
Si Si5 0.831928 0.908176 0.644019
Si Si6 0.907529 0.686031 0.873036
Si Si7 0.853510 0.670804 0.131341
Si Si8 0.831073 0.818682 0.521021
O O1 0.153682 0.500000 0.298462
O O2 0.099769 0.373368 0.190938
O O3 0.228729 0.357323 0.394481
O O4 0.967175 0.397307 0.202206
O O5 0.251466 0.789831 0.782687
O O6 0.135296 0.715895 0.795139
O O7 0.108788 0.654410 0.671176
O O8 0.972274 0.783166 0.594164
O O9 0.500000 0.919102 0.500000
O O10 0.660649 0.895026 0.523046
O O11 0.460566 0.000000 0.371156
O O12 0.904977 0.735912 0.119608
O O13 0.079230 0.856735 0.241335
O O14 0.019681 0.765667 0.100104
O O15 0.811098 0.854533 0.997147
O O16 0.873683 0.881401 0.605245
O O17 0.857088 0.000000 0.672828
O O18 0.000000 0.656968 0.000000
O O19 0.750000 0.750000 0.500000
#
# Coordination Sequence:
#
# PCOD9201843 Si02
#       8
#     8   8   8   8   8   8   8   8
#     4  11  25  43  64  96 134 166 208 264 322 378
#     4  12  22  37  64  94 117 167 217 257 311 380
#     4  10  22  36  55  85 122 159 198 250 313 380
#     4  10  20  39  60  91 123 157 212 262 299 366
#     4  11  21  36  59  89 126 159 194 255 330 376
#     4  11  24  42  66  90 125 174 214 262 311 371
#     4  10  20  37  65  87 117 161 217 259 299 360
#     4  12  21  38  63  93 122 158 211 265 309 373
#
# _framework density 18.704034
#
# number of rings (size 3 to 8) (size 9 to 14) (size 15 to 20)
#    0.000    1.125    5.000    1.875    1.750    2.250 
#    0.000    1.875    0.000    0.750    0.000    0.000 
#    0.000    0.000    0.000    0.000    0.000    0.000 
#
# Total GULP energy -178604.071207 kJ/mol
# GULP energy per Si atom -5581.377225 kJ/mol
# Density = 1.866146 g / cm^3
# Si number density = 18.704034 Si / 1000 Ang^3
#
#
#
# Elastic Constant Matrix: (Units=GPa)
#
#
# Indices 1 2 3 4 5 6 
#
# 1 80.9418 25.5265 21.1940 -0.0001 -0.9205 -0.0001
# 2 25.5265 76.2586 36.6269 0.0009 4.6963 0.0002
# 3 21.1940 36.6269 81.2012 0.0014 -5.9282 0.0005
# 4 -0.0001 0.0009 0.0014 12.4840 0.0006 -6.0157
# 5 -0.9205 4.6963 -5.9282 0.0006 31.9358 0.0000
# 6 -0.0001 0.0002 0.0005 -6.0157 0.0000 19.1704
#
#
#
# Elastic Compliance Matrix: (Units=1/GPa)
#
#
# Indices 1 2 3 4 5 6 
#
# 1 0.014068 -0.003836 -0.001896 0.000001 0.000618 0.000000
# 2 -0.003836 0.018284 -0.007552 0.000000 -0.004201 0.000000
# 3 -0.001896 -0.007552 0.016518 -0.000002 0.004122 -0.000001
# 4 0.000001 0.000000 -0.000002 0.094373 -0.000002 0.029614
# 5 0.000618 -0.004201 0.004122 -0.000002 0.032714 -0.000001
# 6 0.000000 0.000000 -0.000001 0.029614 -0.000001 0.061456
#
#
# Mechanical properties :
#
#
# Convention : Reuss Voigt Hill
#
# Bulk Modulus (GPa) = 44.84506 45.01070 44.92788
# Shear Modulus (GPa) = 18.42197 23.05499 20.73848
#
# Velocity S-wave (km/s) = 3.14175 3.51468 3.33343
# Velocity P-wave (km/s) = 6.09828 6.37084 6.23605
#
# Compressibility (1/GPa) = 0.02229900
#
# Stress axis : x y z
#
# Youngs Moduli (GPa) = 71.08345 54.69378 60.54134
#
# Poissons Ratio (x) = 0.20982 0.11481
# Poissons Ratio (y) = 0.27270 0.45724
# Poissons Ratio (z) = 0.13480 0.41307
#
# Static dielectric constant tensor:
#      x y z
#    x 1.736190 0.000000 -0.025740 
#    y 0.000000 1.656640 0.000000 
#    z -0.025740 0.000000 1.686310 
# 
# From -- ./inp_files/317398.got.cif
#   From: 2010.05.17/outbox.cif.g08.bks.cpg/sg12_159_cif.got.tgz:317398.got - 2010.06.03 13:09:07.
