data_PCOD9201588
_publ_section_title
;
Structure prediction by ZEFSAII (Michael W. Deem and Ramdas Pophale) SiO2 
 PCOD9201588
Probable space group: C 2/M
;
_chemical_formula_sum "Si O2"
_cell_formula_units_Z 50
_cell_length_a 15.216667
_cell_length_b 15.060424
_cell_length_c 11.994110
_cell_angle_alpha 90.000000
_cell_angle_beta 121.454218
_cell_angle_gamma 90.000000
_cell_volume 2344.784929
_symmetry_space_group_name_H-M "C 2/M"
_symmetry_group_IT_number 12
_symmetry_cell_setting 'monoclinic'
loop_
_space_group_symop_operation_xyz
x,y,z
-x,y,-z
-x,-y,-z
x,-y,z
1/2+x,1/2+y,z
1/2-x,1/2+y,-z
1/2-x,1/2-y,-z
1/2+x,1/2-y,z
loop_
_atom_site_type_symbol
_atom_site_label
_atom_site_fract_x
_atom_site_fract_y
_atom_site_fract_z
Si Si1 0.185439 0.403930 0.655549
Si Si2 0.833573 0.322809 0.587154
Si Si3 0.294081 0.342155 0.080945
Si Si4 0.383404 0.358988 0.911450
Si Si5 0.000000 0.500000 0.000000
Si Si6 0.455617 0.256386 0.349889
Si Si7 0.864454 0.351413 0.848191
O O1 0.149255 0.500000 0.670683
O O2 0.169545 0.394167 0.513095
O O3 0.305628 0.392522 0.765529
O O4 0.120567 0.325176 0.669352
O O5 0.750000 0.250000 0.500000
O O6 0.805869 0.351647 0.692741
O O7 0.947177 0.278797 0.656672
O O8 0.387151 0.320891 0.227943
O O9 0.204017 0.386100 0.093872
O O10 0.250000 0.250000 0.000000
O O11 0.331895 0.387354 0.994089
O O12 0.387595 0.251362 0.893888
O O13 0.500000 0.389550 0.000000
O O14 0.043873 0.419908 0.109130
O O15 0.500000 0.288623 0.500000
#
# Coordination Sequence:
#
# PCOD9201588 Si02
#       7
#     8   8   8   8   2   8   8
#     4  11  24  41  61  97 131 167 220 277 328 386
#     4  11  22  39  67  93 126 174 219 268 322 397
#     4  10  20  38  64  91 124 173 217 258 317 398
#     4  11  21  41  68  90 125 175 219 269 324 392
#     4  12  28  36  64 104 132 180 198 280 340 386
#     4  10  20  37  62  96 121 165 216 265 334 377
#     4  11  22  41  58  94 134 162 218 256 329 395
#
# _framework density 21.323917000000002
#
# number of rings (size 3 to 8) (size 9 to 14) (size 15 to 20)
#    0.000    1.280    5.600    1.920    3.360    3.200 
#    4.320    0.000    0.000    0.000    0.000    2.800 
#    0.000    0.000    0.000    0.000    0.000    0.000 
#
# Total GULP energy -139227.507880 kJ/mol
# GULP energy per Si atom -5569.100315 kJ/mol
# Density = 2.127538 g / cm^3
# Si number density = 21.323917 Si / 1000 Ang^3
#
#
#
# Elastic Constant Matrix: (Units=GPa)
#
#
# Indices 1 2 3 4 5 6 
#
# 1 71.6691 -20.4510 4.6876 0.0000 -3.5413 0.0000
# 2 -20.4510 57.7142 1.5739 0.0000 1.6989 0.0000
# 3 4.6876 1.5739 102.4778 0.0000 3.6304 0.0000
# 4 0.0000 0.0000 0.0000 10.1328 0.0000 1.6687
# 5 -3.5413 1.6989 3.6304 0.0000 42.5181 0.0000
# 6 0.0000 0.0000 0.0000 1.6687 0.0000 0.8355
#
#
#
# Elastic Compliance Matrix: (Units=1/GPa)
#
#
# Indices 1 2 3 4 5 6 
#
# 1 0.015644 0.005532 -0.000841 0.000000 0.001154 0.000000
# 2 0.005532 0.019310 -0.000540 0.000000 -0.000265 0.000000
# 3 -0.000841 -0.000540 0.009836 0.000000 -0.000888 0.000000
# 4 0.000000 0.000000 0.000000 0.147057 0.000000 -0.293698
# 5 0.001154 -0.000265 -0.000888 0.000000 0.023702 0.000000
# 6 0.000000 0.000000 0.000000 -0.293698 0.000000 1.783409
#
#
# Mechanical properties :
#
#
# Convention : Reuss Voigt Hill
#
# Bulk Modulus (GPa) = 18.83554 22.60914 20.72234
# Shear Modulus (GPa) = 2.48960 27.10067 14.79514
#
# Velocity S-wave (km/s) = 1.08169 3.56884 2.63692
# Velocity P-wave (km/s) = 3.22681 5.25432 4.36006
#
# Compressibility (1/GPa) = 0.05309112
#
# Stress axis : x y z
#
# Youngs Moduli (GPa) = 63.92345 51.78755 101.66254
#
# Poissons Ratio (x) = -0.28651 0.08554
# Poissons Ratio (y) = -0.35365 0.05492
# Poissons Ratio (z) = 0.05379 0.02798
#
# Static dielectric constant tensor:
#      x y z
#    x 1.844990 0.000000 0.013560 
#    y 0.000000 1.832840 0.000000 
#    z 0.013560 0.000000 1.649250 
# 
# From -- ./inp_files/145741.got.cif
#   From: 2010.05.17/outbox.cif.g08.bks.cpg/sg12_73_cif.got.tgz:145741.got - 2010.06.03 13:09:07.
