data_PCOD9201620
_publ_section_title
;
Structure prediction by ZEFSAII (Michael W. Deem and Ramdas Pophale) SiO2 
 PCOD9201620
Probable space group: C 2/M
;
_chemical_formula_sum "Si O2"
_cell_formula_units_Z 56
_cell_length_a 28.457327
_cell_length_b 13.619816
_cell_length_c 11.084676
_cell_angle_alpha 90.000000
_cell_angle_beta 138.937090
_cell_angle_gamma 90.000000
_cell_volume 2822.144260
_symmetry_space_group_name_H-M "C 2/M"
_symmetry_group_IT_number 12
_symmetry_cell_setting 'monoclinic'
loop_
_space_group_symop_operation_xyz
x,y,z
-x,y,-z
-x,-y,-z
x,-y,z
1/2+x,1/2+y,z
1/2-x,1/2+y,-z
1/2-x,1/2-y,-z
1/2+x,1/2-y,z
loop_
_atom_site_type_symbol
_atom_site_label
_atom_site_fract_x
_atom_site_fract_y
_atom_site_fract_z
Si Si1 0.870047 0.712748 0.203706
Si Si2 0.766294 0.892810 0.950180
Si Si3 0.275648 0.185480 0.370848
Si Si4 0.849623 0.293766 0.746652
Si Si5 0.922599 0.753430 0.557944
Si Si6 0.929914 0.889015 0.780695
Si Si7 0.047027 0.382984 0.861634
O O1 0.808178 0.638103 0.130060
O O2 0.923579 0.740418 0.416490
O O3 0.910936 0.666124 0.169718
O O4 0.826023 0.810910 0.087747
O O5 0.751907 0.891406 0.779073
O O6 0.788622 0.000000 0.035360
O O7 0.212140 0.259171 0.282091
O O8 0.310918 0.148497 0.563186
O O9 0.338806 0.242995 0.425218
O O10 0.879737 0.193424 0.744596
O O11 0.911195 0.350222 0.936817
O O12 0.947209 0.849749 0.678996
O O13 0.968484 0.665321 0.705233
O O14 0.900622 0.000000 0.720766
O O15 0.000000 0.890044 0.000000
O O16 0.044732 0.500000 0.846194
#
# Coordination Sequence:
#
# PCOD9201620 Si02
#       7
#     8   8   8   8   8   8   8
#     4  10  22  40  59  88 128 162 205 260 301 365
#     4  10  20  37  63  89 119 164 206 253 312 362
#     4   9  20  38  62  85 128 156 200 256 306 363
#     4  10  20  40  62  92 124 161 203 258 306 366
#     4  10  22  40  61  89 125 162 205 259 308 364
#     4  10  20  38  64  88 116 157 200 248 312 371
#     4  12  24  40  64  92 126 167 208 254 313 372
#
# _framework density 19.843067999999999
#
# number of rings (size 3 to 8) (size 9 to 14) (size 15 to 20)
#    0.000    1.857    2.857    0.857    0.000    5.143 
#    0.000   11.429    0.000    1.714    0.000    0.000 
#    0.000    0.000    0.000    0.000    0.000    0.000 
#
# Total GULP energy -156138.204570 kJ/mol
# GULP energy per Si atom -5576.364449 kJ/mol
# Density = 1.979790 g / cm^3
# Si number density = 19.843068 Si / 1000 Ang^3
#
#
#
# Elastic Constant Matrix: (Units=GPa)
#
#
# Indices 1 2 3 4 5 6 
#
# 1 44.6654 25.7680 -4.0542 0.0000 3.3850 0.0000
# 2 25.7680 118.9409 35.0519 0.0000 -4.5415 0.0000
# 3 -4.0542 35.0519 96.1367 0.0000 -11.8637 0.0000
# 4 0.0000 0.0000 0.0000 0.0251 0.0000 -2.0657
# 5 3.3850 -4.5415 -11.8637 0.0000 30.7171 0.0000
# 6 0.0000 0.0000 0.0000 -2.0657 0.0000 13.4482
#
#
#
# Elastic Compliance Matrix: (Units=1/GPa)
#
#
# Indices 1 2 3 4 5 6 
#
# 1 0.026877 -0.006904 0.003317 0.000000 -0.002701 0.000000
# 2 -0.006904 0.011193 -0.004278 0.000000 0.000763 0.000000
# 3 0.003317 -0.004278 0.012578 0.000000 0.003860 0.000000
# 4 0.000000 0.000000 0.000000 -3.422105 0.000000 -0.525647
# 5 -0.002701 0.000763 0.003860 0.000000 0.034456 0.000000
# 6 0.000000 0.000000 0.000000 -0.525647 0.000000 -0.006382
#
#
# Mechanical properties :
#
#
# Convention : Reuss Voigt Hill
#
# Bulk Modulus (GPa) = 28.63740 41.47494 35.05617
# Shear Modulus (GPa) = -1.50783 22.36991 10.43104
#
# Velocity S-wave (km/s) = -0.87266 3.36123 2.29525
# Velocity P-wave (km/s) = 3.66714 6.00089 4.97286
#
# Compressibility (1/GPa) = 0.03491937
#
# Stress axis : x y z
#
# Youngs Moduli (GPa) = 37.20624 89.34145 79.50497
#
# Poissons Ratio (x) = 0.61677 -0.26373
# Poissons Ratio (y) = 0.25685 0.34012
# Poissons Ratio (z) = -0.12342 0.38220
#
# Static dielectric constant tensor:
#      x y z
#    x 1.735780 0.000000 -0.027920 
#    y 0.000000 1.671750 0.000000 
#    z -0.027920 0.000000 1.722360 
# 
# From -- ./inp_files/189241.got.cif
#   From: 2010.05.17/outbox.cif.g08.bks.cpg/sg12_95_cif.got.tgz:189241.got - 2010.06.03 13:09:07.
