data_PCOD9201183
_publ_section_title
;
Structure prediction by ZEFSAII (Michael W. Deem and Ramdas Pophale) SiO2 
 PCOD9201183
Probable space group: C 2/M
;
_chemical_formula_sum "Si O2"
_cell_formula_units_Z 48
_cell_length_a 30.391787
_cell_length_b 8.511368
_cell_length_c 15.567271
_cell_angle_alpha 90.000000
_cell_angle_beta 140.063759
_cell_angle_gamma 90.000000
_cell_volume 2584.990669
_symmetry_space_group_name_H-M "C 2/M"
_symmetry_group_IT_number 12
_symmetry_cell_setting 'monoclinic'
loop_
_space_group_symop_operation_xyz
x,y,z
-x,y,-z
-x,-y,-z
x,-y,z
1/2+x,1/2+y,z
1/2-x,1/2+y,-z
1/2-x,1/2-y,-z
1/2+x,1/2-y,z
loop_
_atom_site_type_symbol
_atom_site_label
_atom_site_fract_x
_atom_site_fract_y
_atom_site_fract_z
Si Si1 0.827094 0.688011 0.617698
Si Si2 0.923871 0.188571 0.109906
Si Si3 0.076304 0.691404 0.586040
Si Si4 0.926265 0.309665 0.612756
Si Si5 0.672997 0.188501 0.885787
Si Si6 0.922951 0.810232 0.911576
O O1 0.825557 0.500000 0.614003
O O2 0.750000 0.750000 0.500000
O O3 0.870670 0.742188 0.599696
O O4 0.868103 0.743610 0.763082
O O5 0.868352 0.254054 0.092913
O O6 0.998945 0.248075 0.249522
O O7 0.923309 0.000000 0.112266
O O8 0.910399 0.237242 0.991263
O O9 0.076340 0.500000 0.586822
O O10 0.090314 0.740921 0.509356
O O11 0.131208 0.743420 0.738742
O O12 0.000000 0.741346 0.500000
O O13 0.928832 0.500000 0.617457
O O14 0.673357 0.000000 0.885853
O O15 0.750000 0.250000 0.000000
O O16 0.920529 0.000000 0.903415
O O17 0.000000 0.761315 0.000000
#
# Coordination Sequence:
#
# PCOD9201183 Si02
#       6
#     8   8   8   8   8   8
#     4  11  24  39  60  89 124 159 198 250 305 359
#     4  11  22  37  61  90 119 155 197 246 303 355
#     4   9  17  34  61  86 111 151 194 235 287 350
#     4  10  20  37  61  88 114 151 200 244 292 354
#     4  11  23  40  61  87 123 158 198 245 296 356
#     4  10  21  39  62  87 119 159 202 248 302 363
#
# _framework density 18.568731
#
# number of rings (size 3 to 8) (size 9 to 14) (size 15 to 20)
#    0.000    1.667    3.333    1.500    0.000    3.667 
#    0.000    5.833    0.000    0.000    0.000    0.000 
#    0.000    0.000    0.000    0.000    0.000    0.000 
#
# Total GULP energy -134079.413739 kJ/mol
# GULP energy per Si atom -5586.642239 kJ/mol
# Density = 1.852647 g / cm^3
# Si number density = 18.568731 Si / 1000 Ang^3
#
#
#
# Elastic Constant Matrix: (Units=GPa)
#
#
# Indices 1 2 3 4 5 6 
#
# 1 208.1567 39.7388 134.2231 0.0000 -8.7993 0.0000
# 2 39.7388 25.4605 34.3126 0.0000 -2.4917 0.0000
# 3 134.2231 34.3126 201.3947 0.0000 -4.9933 0.0000
# 4 0.0000 0.0000 0.0000 32.7793 0.0000 3.8751
# 5 -8.7993 -2.4917 -4.9933 0.0000 42.8971 0.0000
# 6 0.0000 0.0000 0.0000 3.8751 0.0000 27.8489
#
#
#
# Elastic Compliance Matrix: (Units=1/GPa)
#
#
# Indices 1 2 3 4 5 6 
#
# 1 0.009634 -0.008209 -0.004999 0.000000 0.000917 0.000000
# 2 -0.008209 0.058142 -0.004406 0.000000 0.001181 0.000000
# 3 -0.004999 -0.004406 0.009042 0.000000 -0.000229 0.000000
# 4 0.000000 0.000000 0.000000 0.031017 0.000000 -0.004316
# 5 0.000917 0.001181 -0.000229 0.000000 0.023542 0.000000
# 6 0.000000 0.000000 0.000000 -0.004316 0.000000 0.036509
#
#
# Mechanical properties :
#
#
# Convention : Reuss Voigt Hill
#
# Bulk Modulus (GPa) = 24.04417 94.61789 59.33103
# Shear Modulus (GPa) = 23.04402 35.82089 29.43245
#
# Velocity S-wave (km/s) = 3.52662 4.39691 3.98559
# Velocity P-wave (km/s) = 5.43687 8.76603 7.29393
#
# Compressibility (1/GPa) = 0.04159012
#
# Stress axis : x y z
#
# Youngs Moduli (GPa) = 103.80406 17.19925 110.59484
#
# Poissons Ratio (x) = 0.14119 0.55287
# Poissons Ratio (y) = 0.85214 0.48723
# Poissons Ratio (z) = 0.51892 0.07577
#
# Static dielectric constant tensor:
#      x y z
#    x 1.630180 0.000000 -0.020900 
#    y 0.000000 1.639710 0.000000 
#    z -0.020900 0.000000 1.606210 
# 
# From -- ./inp_files/244867.got.cif
#   From: 2010.05.17/outbox.cif.g08.bks.cpg/sg12_123_cif.got.tgz:244867.got - 2010.06.03 13:09:07.
