data_PCOD9201612
_publ_section_title
;
Structure prediction by ZEFSAII (Michael W. Deem and Ramdas Pophale) SiO2 
 PCOD9201612
Probable space group: C 2/M
;
_chemical_formula_sum "Si O2"
_cell_formula_units_Z 44
_cell_length_a 16.764586
_cell_length_b 7.421515
_cell_length_c 17.182035
_cell_angle_alpha 90.000000
_cell_angle_beta 57.696225
_cell_angle_gamma 90.000000
_cell_volume 1806.896060
_symmetry_space_group_name_H-M "C 2/M"
_symmetry_group_IT_number 12
_symmetry_cell_setting 'monoclinic'
loop_
_space_group_symop_operation_xyz
x,y,z
-x,y,-z
-x,-y,-z
x,-y,z
1/2+x,1/2+y,z
1/2-x,1/2+y,-z
1/2-x,1/2-y,-z
1/2+x,1/2-y,z
loop_
_atom_site_type_symbol
_atom_site_label
_atom_site_fract_x
_atom_site_fract_y
_atom_site_fract_z
Si Si1 0.500000 0.753099 0.500000
Si Si2 0.407945 0.781439 0.094222
Si Si3 0.051375 0.722104 0.304104
Si Si4 0.717950 0.799485 0.104524
Si Si5 0.383699 0.218025 0.279673
Si Si6 0.695835 0.714851 0.447965
O O1 0.450287 0.695529 0.608430
O O2 0.597469 0.814543 0.489378
O O3 0.312854 0.710334 0.105424
O O4 0.419227 0.725581 0.177292
O O5 0.401871 0.000000 0.094562
O O6 0.500000 0.724756 0.000000
O O7 0.056136 0.500000 0.311699
O O8 0.135883 0.783749 0.202113
O O9 0.954598 0.773568 0.310497
O O10 0.680299 0.000000 0.113259
O O11 0.750000 0.750000 0.000000
O O12 0.275093 0.272359 0.345130
O O13 0.383156 0.000000 0.283191
O O14 0.675112 0.500000 0.453668
O O15 0.750000 0.750000 0.500000
#
# Coordination Sequence:
#
# PCOD9201612 Si02
#       6
#     4   8   8   8   8   8
#     4  12  22  38  66  96 131 166 217 274 327 380
#     4  10  20  37  63  88 119 163 207 253 315 379
#     4  10  21  37  62  94 126 166 212 261 316 385
#     4  11  23  40  62  91 126 160 209 264 318 381
#     4   9  18  36  59  85 120 164 209 252 307 379
#     4  11  23  40  61  88 126 167 211 262 317 377
#
# _framework density 24.351151000000002
#
# number of rings (size 3 to 8) (size 9 to 14) (size 15 to 20)
#    0.000    1.636    1.818    3.273    0.000    4.000 
#    0.000    3.636    0.000    0.000    0.000    0.000 
#    0.000    0.000    0.000    0.000    0.000    0.000 
#
# Total GULP energy -122667.447398 kJ/mol
# GULP energy per Si atom -5575.793064 kJ/mol
# Density = 2.429573 g / cm^3
# Si number density = 24.351151 Si / 1000 Ang^3
#
#
#
# Elastic Constant Matrix: (Units=GPa)
#
#
# Indices 1 2 3 4 5 6 
#
# 1 161.6617 2.6698 66.9633 0.0002 -4.2112 0.0009
# 2 2.6698 102.9229 19.6767 0.0001 0.4078 0.0021
# 3 66.9633 19.6767 224.1824 -0.0002 2.9043 0.0002
# 4 0.0002 0.0001 -0.0002 353.9754 -0.0001 -149.7806
# 5 -4.2112 0.4078 2.9043 -0.0001 63.0070 0.0000
# 6 0.0009 0.0021 0.0002 -149.7806 0.0000 70.0868
#
#
#
# Elastic Compliance Matrix: (Units=1/GPa)
#
#
# Indices 1 2 3 4 5 6 
#
# 1 0.007085 0.000224 -0.002143 0.000000 0.000571 -0.000001
# 2 0.000224 0.009889 -0.000935 -0.000001 -0.000006 -0.000003
# 3 -0.002143 -0.000935 0.005188 0.000000 -0.000376 0.000001
# 4 0.000000 -0.000001 0.000000 0.029513 0.000000 0.063072
# 5 0.000571 -0.000006 -0.000376 0.000000 0.015927 0.000000
# 6 -0.000001 -0.000003 0.000001 0.063072 0.000000 0.149057
#
#
# Mechanical properties :
#
#
# Convention : Reuss Voigt Hill
#
# Bulk Modulus (GPa) = 60.77950 74.15407 67.46679
# Shear Modulus (GPa) = 21.94411 124.04431 72.99421
#
# Velocity S-wave (km/s) = 3.00518 7.14496 5.48094
# Velocity P-wave (km/s) = 6.08730 9.92901 8.23531
#
# Compressibility (1/GPa) = 0.01645291
#
# Stress axis : x y z
#
# Youngs Moduli (GPa) = 141.14924 101.12322 192.76170
#
# Poissons Ratio (x) = -0.02262 0.41313
# Poissons Ratio (y) = -0.03158 0.18018
# Poissons Ratio (z) = 0.30252 0.09452
#
# Static dielectric constant tensor:
#      x y z
#    x 1.849500 0.000000 -0.006150 
#    y 0.000000 2.019830 0.000000 
#    z -0.006150 0.000000 1.971240 
# 
# From -- ./inp_files/274824.got.cif
#   From: 2010.05.17/outbox.cif.g08.bks.cpg/sg12_138_cif.got.tgz:274824.got - 2010.06.03 13:09:07.
