data_PCOD9201068
_publ_section_title
;
Structure prediction by ZEFSAII (Michael W. Deem and Ramdas Pophale) SiO2 
 PCOD9201068
Probable space group: C 2/M
;
_chemical_formula_sum "Si O2"
_cell_formula_units_Z 60
_cell_length_a 12.657269
_cell_length_b 19.073618
_cell_length_c 14.021851
_cell_angle_alpha 90.000000
_cell_angle_beta 68.578522
_cell_angle_gamma 90.000000
_cell_volume 3151.304138
_symmetry_space_group_name_H-M "C 2/M"
_symmetry_group_IT_number 12
_symmetry_cell_setting 'monoclinic'
loop_
_space_group_symop_operation_xyz
x,y,z
-x,y,-z
-x,-y,-z
x,-y,z
1/2+x,1/2+y,z
1/2-x,1/2+y,-z
1/2-x,1/2-y,-z
1/2+x,1/2-y,z
loop_
_atom_site_type_symbol
_atom_site_label
_atom_site_fract_x
_atom_site_fract_y
_atom_site_fract_z
Si Si1 0.500000 0.308624 0.500000
Si Si2 0.736359 0.273580 0.394759
Si Si3 0.753504 0.083241 0.714761
Si Si4 0.639192 0.344481 0.770113
Si Si5 0.975769 0.921680 0.356284
Si Si6 0.864891 0.579088 0.055718
Si Si7 0.775214 0.339559 0.905917
Si Si8 0.937926 0.760696 0.930413
O O1 0.601313 0.265955 0.419651
O O2 0.445706 0.361411 0.441234
O O3 0.750000 0.250000 0.500000
O O4 0.762989 0.355342 0.359120
O O5 0.807450 0.220548 0.305980
O O6 0.679804 0.110057 0.829764
O O7 0.887254 0.083845 0.699749
O O8 0.727660 0.000000 0.698827
O O9 0.594931 0.404613 0.714650
O O10 0.730572 0.366860 0.819893
O O11 0.526533 0.314766 0.858373
O O12 0.950834 0.000000 0.399928
O O13 0.823073 0.500000 0.078152
O O14 0.810459 0.608544 0.978032
O O15 0.000000 0.577800 0.000000
O O16 0.884264 0.288301 0.867065
O O17 0.668621 0.297719 0.984806
O O18 0.000000 0.723289 0.000000
#
# Coordination Sequence:
#
# PCOD9201068 Si02
#       8
#     4   8   8   8   8   8   8   8
#     4  10  21  40  58  80 111 142 202 238 293 338
#     4  11  23  39  58  87 117 148 190 252 301 346
#     4   9  21  39  63  88 116 156 199 244 291 342
#     4  11  23  35  55  90 117 151 187 240 301 355
#     4  10  20  37  61  84 113 147 190 242 296 349
#     4  10  21  37  57  85 116 154 200 238 275 345
#     4  10  21  33  55  82 116 157 182 229 291 346
#     4   9  20  35  52  81 115 146 192 228 278 343
#
# _framework density 19.039736000000001
#
# number of rings (size 3 to 8) (size 9 to 14) (size 15 to 20)
#    0.000    2.000    1.333    1.400   11.200    1.067 
#    0.000    0.000    0.000    4.800    0.000    0.933 
#    0.000    0.000    0.000    0.000    0.000    0.000 
#
# Total GULP energy -167092.964284 kJ/mol
# GULP energy per Si atom -5569.765476 kJ/mol
# Density = 1.899640 g / cm^3
# Si number density = 19.039736 Si / 1000 Ang^3
#
#
#
# Elastic Constant Matrix: (Units=GPa)
#
#
# Indices 1 2 3 4 5 6 
#
# 1 87.1782 27.1541 30.3084 0.0000 20.4807 0.0000
# 2 27.1541 59.7964 16.0101 0.0000 12.4613 0.0000
# 3 30.3084 16.0101 64.3744 0.0000 18.2585 0.0000
# 4 0.0000 0.0000 0.0000 27.1624 0.0000 4.2713
# 5 20.4807 12.4613 18.2585 0.0000 38.7404 0.0000
# 6 0.0000 0.0000 0.0000 4.2713 0.0000 21.6593
#
#
#
# Elastic Compliance Matrix: (Units=1/GPa)
#
#
# Indices 1 2 3 4 5 6 
#
# 1 0.015758 -0.004911 -0.004944 0.000000 -0.004421 0.000000
# 2 -0.004911 0.020068 -0.001829 0.000000 -0.002997 0.000000
# 3 -0.004944 -0.001829 0.020095 0.000000 -0.006269 0.000000
# 4 0.000000 0.000000 0.000000 0.037994 0.000000 -0.007493
# 5 -0.004421 -0.002997 -0.006269 0.000000 0.032069 0.000000
# 6 0.000000 0.000000 0.000000 -0.007493 0.000000 0.047647
#
#
# Mechanical properties :
#
#
# Convention : Reuss Voigt Hill
#
# Bulk Modulus (GPa) = 30.71885 39.81049 35.26467
# Shear Modulus (GPa) = 24.05614 26.70417 25.38016
#
# Velocity S-wave (km/s) = 3.55839 3.74913 3.65500
# Velocity P-wave (km/s) = 5.74908 6.30046 6.03108
#
# Compressibility (1/GPa) = 0.03255330
#
# Stress axis : x y z
#
# Youngs Moduli (GPa) = 63.46104 49.83148 49.76466
#
# Poissons Ratio (x) = 0.24471 0.24602
# Poissons Ratio (y) = 0.31164 0.09101
# Poissons Ratio (z) = 0.31373 0.09113
#
# Static dielectric constant tensor:
#      x y z
#    x 1.688680 0.000000 0.017410 
#    y 0.000000 1.722040 0.000000 
#    z 0.017410 0.000000 1.744590 
# 
# From -- ./inp_files/206636.got.cif
#   From: 2010.05.17/outbox.cif.g08.bks.cpg/sg12_104_cif.got.tgz:206636.got - 2010.06.03 13:09:07.
