data_PCOD9201586
_publ_section_title
;
Structure prediction by ZEFSAII (Michael W. Deem and Ramdas Pophale) SiO2 
 PCOD9201586
Probable space group: C 2/M
;
_chemical_formula_sum "Si O2"
_cell_formula_units_Z 44
_cell_length_a 21.109900
_cell_length_b 12.801868
_cell_length_c 6.843273
_cell_angle_alpha 90.000000
_cell_angle_beta 113.026134
_cell_angle_gamma 90.000000
_cell_volume 1702.022633
_symmetry_space_group_name_H-M "C 2/M"
_symmetry_group_IT_number 12
_symmetry_cell_setting 'monoclinic'
loop_
_space_group_symop_operation_xyz
x,y,z
-x,y,-z
-x,-y,-z
x,-y,z
1/2+x,1/2+y,z
1/2-x,1/2+y,-z
1/2-x,1/2-y,-z
1/2+x,1/2-y,z
loop_
_atom_site_type_symbol
_atom_site_label
_atom_site_fract_x
_atom_site_fract_y
_atom_site_fract_z
Si Si1 0.594498 0.386674 0.695927
Si Si2 0.062520 0.155269 0.210997
Si Si3 0.781849 0.117166 0.711785
Si Si4 0.873285 0.500000 0.019021
Si Si5 0.749542 0.656492 0.780525
Si Si6 0.520767 0.176682 0.741602
O O1 0.577653 0.500000 0.760084
O O2 0.567258 0.385601 0.438640
O O3 0.676505 0.377214 0.779324
O O4 0.564385 0.283432 0.758959
O O5 0.135797 0.130214 0.205877
O O6 0.046671 0.278966 0.228413
O O7 0.000000 0.118223 0.000000
O O8 0.754599 0.217581 0.793932
O O9 0.753922 0.128889 0.456282
O O10 0.764104 0.000000 0.757946
O O11 0.813305 0.591918 0.937460
O O12 0.933440 0.590133 0.106889
O O13 0.500000 0.139474 0.500000
#
# Coordination Sequence:
#
# PCOD9201586 Si02
#       6
#     8   8   8   4   8   8
#     4  10  21  42  64  91 132 169 209 267 318 379
#     4  10  20  38  63  97 126 162 207 258 315 373
#     4  10  20  37  62  95 133 164 202 267 315 380
#     4  12  21  42  65  84 125 172 214 264 300 380
#     4  10  20  38  63  91 127 169 212 253 325 365
#     4  10  24  41  65  94 128 173 211 258 322 381
#
# _framework density 25.851596000000001
#
# number of rings (size 3 to 8) (size 9 to 14) (size 15 to 20)
#    0.000    1.818    1.818    3.000    0.000    6.182 
#    1.636    6.818    8.000    0.000    0.000    0.000 
#    0.000    0.000    0.000    0.000    0.000    0.000 
#
# Total GULP energy -122815.694345 kJ/mol
# GULP energy per Si atom -5582.531561 kJ/mol
# Density = 2.579276 g / cm^3
# Si number density = 25.851596 Si / 1000 Ang^3
#
#
#
# Elastic Constant Matrix: (Units=GPa)
#
#
# Indices 1 2 3 4 5 6 
#
# 1 76.6787 73.7639 28.9155 0.0000 9.3366 0.0000
# 2 73.7639 247.0936 65.2661 0.0000 17.7794 0.0000
# 3 28.9155 65.2661 93.4647 0.0000 6.0652 0.0000
# 4 0.0000 0.0000 0.0000 37.8704 0.0000 13.8340
# 5 9.3366 17.7794 6.0652 0.0000 38.8147 0.0000
# 6 0.0000 0.0000 0.0000 13.8340 0.0000 40.4200
#
#
#
# Elastic Compliance Matrix: (Units=1/GPa)
#
#
# Indices 1 2 3 4 5 6 
#
# 1 0.018835 -0.004877 -0.002296 0.000000 -0.001938 0.000000
# 2 -0.004877 0.006345 -0.002839 0.000000 -0.001290 0.000000
# 3 -0.002296 -0.002839 0.013407 0.000000 -0.000243 0.000000
# 4 0.000000 0.000000 0.000000 0.030179 0.000000 -0.010329
# 5 -0.001938 -0.001290 -0.000243 0.000000 0.026858 0.000000
# 6 0.000000 0.000000 0.000000 -0.010329 0.000000 0.028275
#
#
# Mechanical properties :
#
#
# Convention : Reuss Voigt Hill
#
# Bulk Modulus (GPa) = 53.86410 83.68089 68.77250
# Shear Modulus (GPa) = 33.30876 40.04044 36.67460
#
# Velocity S-wave (km/s) = 3.59341 3.93982 3.77060
# Velocity P-wave (km/s) = 6.17235 7.28946 6.75404
#
# Compressibility (1/GPa) = 0.01856524
#
# Stress axis : x y z
#
# Youngs Moduli (GPa) = 53.09404 157.59252 74.58587
#
# Poissons Ratio (x) = 0.76854 0.17123
# Poissons Ratio (y) = 0.25893 0.21172
# Poissons Ratio (z) = 0.12189 0.44734
#
# Static dielectric constant tensor:
#      x y z
#    x 2.042390 0.000000 -0.087510 
#    y 0.000000 1.967960 0.000000 
#    z -0.087510 0.000000 2.112950 
# 
# From -- ./inp_files/103355.got.cif
#   From: 2010.05.17/outbox.cif.g08.bks.cpg/sg12_52_cif.got.tgz:103355.got - 2010.06.03 13:09:07.
