data_PCOD9201345
_publ_section_title
;
Structure prediction by ZEFSAII (Michael W. Deem and Ramdas Pophale) SiO2 
 PCOD9201345
Probable space group: C 2/M
;
_chemical_formula_sum "Si O2"
_cell_formula_units_Z 40
_cell_length_a 15.231074
_cell_length_b 17.830892
_cell_length_c 17.097614
_cell_angle_alpha 90.000000
_cell_angle_beta 25.040016
_cell_angle_gamma 90.000000
_cell_volume 1965.337931
_symmetry_space_group_name_H-M "C 2/M"
_symmetry_group_IT_number 12
_symmetry_cell_setting 'monoclinic'
loop_
_space_group_symop_operation_xyz
x,y,z
-x,y,-z
-x,-y,-z
x,-y,z
1/2+x,1/2+y,z
1/2-x,1/2+y,-z
1/2-x,1/2-y,-z
1/2+x,1/2-y,z
loop_
_atom_site_type_symbol
_atom_site_label
_atom_site_fract_x
_atom_site_fract_y
_atom_site_fract_z
Si Si1 0.803044 0.778316 0.268672
Si Si2 0.692274 0.585020 0.630364
Si Si3 0.595492 0.167013 0.684831
Si Si4 0.230107 0.415943 0.945775
Si Si5 0.225742 0.240479 0.159599
O O1 0.753560 0.859141 0.343538
O O2 0.693519 0.763407 0.275032
O O3 0.771680 0.715814 0.361200
O O4 0.050568 0.771818 0.049682
O O5 0.767125 0.500000 0.579708
O O6 0.443598 0.583668 0.822110
O O7 0.778351 0.621349 0.481201
O O8 0.445744 0.225381 0.759843
O O9 0.454052 0.110614 0.849076
O O10 0.196781 0.500000 0.941745
O O11 0.256449 0.349310 0.862086
#
# Coordination Sequence:
#
# PCOD9201345 Si02
#       5
#     8   8   8   8   8
#     4  10  20  38  60  87 114 150 196 233 274 345
#     4  11  22  37  59  88 115 149 192 238 286 333
#     4  11  20  39  59  84 115 154 194 226 284 343
#     4  10  20  38  60  86 118 149 184 239 289 330
#     4  10  20  37  62  86 112 155 195 225 283 346
#
# _framework density 20.352734000000002
#
# number of rings (size 3 to 8) (size 9 to 14) (size 15 to 20)
#    0.000    1.600    4.000    2.400    0.000    0.800 
#    0.000   14.000    0.000    2.400    0.000    0.000 
#    0.000    0.000    0.000    0.000    0.000    0.000 
#
# Total GULP energy -111826.312496 kJ/mol
# GULP energy per Si atom -5591.315625 kJ/mol
# Density = 2.030641 g / cm^3
# Si number density = 20.352734 Si / 1000 Ang^3
#
#
#
# Elastic Constant Matrix: (Units=GPa)
#
#
# Indices 1 2 3 4 5 6 
#
# 1 75.2509 36.8207 25.7797 0.0082 25.3913 -0.0088
# 2 36.8207 181.2711 51.5344 -0.0101 30.4207 0.0021
# 3 25.7797 51.5344 61.3635 -0.0015 7.0507 0.0080
# 4 0.0082 -0.0101 -0.0015 22.1473 -0.0084 -3.0490
# 5 25.3913 30.4207 7.0507 -0.0084 37.4405 0.0012
# 6 -0.0088 0.0021 0.0080 -3.0490 0.0012 16.1559
#
#
#
# Elastic Compliance Matrix: (Units=1/GPa)
#
#
# Indices 1 2 3 4 5 6 
#
# 1 0.019729 -0.000027 -0.006880 -0.000011 -0.012062 0.000013
# 2 -0.000027 0.008223 -0.006265 0.000002 -0.005483 0.000003
# 3 -0.006880 -0.006265 0.023843 0.000001 0.005266 -0.000015
# 4 -0.000011 0.000002 0.000001 0.046357 0.000016 0.008749
# 5 -0.012062 -0.005483 0.005266 0.000016 0.038353 -0.000008
# 6 0.000013 0.000003 -0.000015 0.008749 -0.000008 0.063548
#
#
# Mechanical properties :
#
#
# Convention : Reuss Voigt Hill
#
# Bulk Modulus (GPa) = 39.28962 60.68389 49.98676
# Shear Modulus (GPa) = 21.28751 28.73212 25.00981
#
# Velocity S-wave (km/s) = 3.23759 3.76135 3.50925
# Velocity P-wave (km/s) = 5.77254 6.98172 6.40573
#
# Compressibility (1/GPa) = 0.02545202
#
# Stress axis : x y z
#
# Youngs Moduli (GPa) = 50.68653 121.60497 41.94167
#
# Poissons Ratio (x) = 0.00334 0.28854
# Poissons Ratio (y) = 0.00139 0.26275
# Poissons Ratio (z) = 0.34870 0.76181
#
# Static dielectric constant tensor:
#      x y z
#    x 1.700960 -0.000010 -0.025770 
#    y -0.000010 1.709650 0.000020 
#    z -0.025770 0.000020 1.763790 
# 
# From -- ./inp_files/72481.got.cif
#   From: 2010.05.17/outbox.cif.g08.bks.cpg/sg12_37_cif.got.tgz:72481.got - 2010.06.03 13:09:07.
