data_PCOD9201629
_publ_section_title
;
Structure prediction by ZEFSAII (Michael W. Deem and Ramdas Pophale) SiO2 
 PCOD9201629
Probable space group: C 2/M
;
_chemical_formula_sum "Si O2"
_cell_formula_units_Z 56
_cell_length_a 19.733086
_cell_length_b 13.174591
_cell_length_c 14.077413
_cell_angle_alpha 90.000000
_cell_angle_beta 126.682168
_cell_angle_gamma 90.000000
_cell_volume 2935.003188
_symmetry_space_group_name_H-M "C 2/M"
_symmetry_group_IT_number 12
_symmetry_cell_setting 'monoclinic'
loop_
_space_group_symop_operation_xyz
x,y,z
-x,y,-z
-x,-y,-z
x,-y,z
1/2+x,1/2+y,z
1/2-x,1/2+y,-z
1/2-x,1/2-y,-z
1/2+x,1/2-y,z
loop_
_atom_site_type_symbol
_atom_site_label
_atom_site_fract_x
_atom_site_fract_y
_atom_site_fract_z
Si Si1 0.834963 0.383138 0.279817
Si Si2 0.749842 0.114809 0.585672
Si Si3 0.384369 0.777569 0.656678
Si Si4 0.653709 0.381665 0.879661
Si Si5 0.805059 0.259720 0.927647
Si Si6 0.472794 0.285207 0.371644
Si Si7 0.587170 0.884162 0.129918
O O1 0.844585 0.500000 0.258683
O O2 0.802558 0.379763 0.360817
O O3 0.762638 0.324830 0.161197
O O4 0.920255 0.319111 0.341268
O O5 0.687038 0.152967 0.451649
O O6 0.832094 0.184476 0.657038
O O7 0.775663 0.000000 0.590069
O O8 0.447922 0.737873 0.629606
O O9 0.426660 0.840215 0.776665
O O10 0.649553 0.500000 0.903223
O O11 0.748550 0.347877 0.928808
O O12 0.590702 0.359129 0.739054
O O13 0.634861 0.300552 0.948308
O O14 0.851350 0.310612 0.877864
O O15 0.500000 0.320472 0.500000
O O16 0.620197 0.000000 0.162410
O O17 0.500000 0.886043 0.000000
#
# Coordination Sequence:
#
# PCOD9201629 Si02
#       7
#     8   8   8   8   8   8   8
#     4  10  20  37  63  90 118 156 201 247 303 355
#     4  10  21  37  62  89 116 160 205 248 299 355
#     4  11  22  40  60  87 127 158 202 253 300 361
#     4  10  22  38  62  88 116 157 201 244 302 362
#     4  10  20  40  61  88 119 152 200 253 299 354
#     4  11  23  39  59  89 127 161 200 251 303 352
#     4  11  23  38  59  87 120 160 200 243 303 362
#
# _framework density 19.080048000000001
#
# number of rings (size 3 to 8) (size 9 to 14) (size 15 to 20)
#    0.000    1.571    2.857    2.143    0.000    2.286 
#    0.000    5.000    0.000    2.143    0.000    0.000 
#    0.000    0.000    0.000    0.000    0.000    0.000 
#
# Total GULP energy -156293.320176 kJ/mol
# GULP energy per Si atom -5581.904292 kJ/mol
# Density = 1.903662 g / cm^3
# Si number density = 19.080048 Si / 1000 Ang^3
#
#
#
# Elastic Constant Matrix: (Units=GPa)
#
#
# Indices 1 2 3 4 5 6 
#
# 1 65.9333 21.6262 4.0330 0.0000 -9.4416 0.0000
# 2 21.6262 100.9710 25.5070 0.0000 -0.5978 0.0000
# 3 4.0330 25.5070 87.3820 0.0000 -6.0314 0.0000
# 4 0.0000 0.0000 0.0000 14.7137 0.0000 -2.5857
# 5 -9.4416 -0.5978 -6.0314 0.0000 25.7061 0.0000
# 6 0.0000 0.0000 0.0000 -2.5857 0.0000 20.5121
#
#
#
# Elastic Compliance Matrix: (Units=1/GPa)
#
#
# Indices 1 2 3 4 5 6 
#
# 1 0.017311 -0.003865 0.000774 0.000000 0.006450 0.000000
# 2 -0.003865 0.011561 -0.003330 0.000000 -0.001932 0.000000
# 3 0.000774 -0.003330 0.012599 0.000000 0.003163 0.000000
# 4 0.000000 0.000000 0.000000 0.069504 0.000000 0.008762
# 5 0.006450 -0.001932 0.003163 0.000000 0.041968 0.000000
# 6 0.000000 0.000000 0.000000 0.008762 0.000000 0.049856
#
#
# Mechanical properties :
#
#
# Convention : Reuss Voigt Hill
#
# Bulk Modulus (GPa) = 34.92847 39.62431 37.27639
# Shear Modulus (GPa) = 22.20423 25.72771 23.96597
#
# Velocity S-wave (km/s) = 3.41507 3.67605 3.54796
# Velocity P-wave (km/s) = 5.82205 6.23140 6.03020
#
# Compressibility (1/GPa) = 0.02862994
#
# Stress axis : x y z
#
# Youngs Moduli (GPa) = 57.76722 86.49476 79.37423
#
# Poissons Ratio (x) = 0.33431 -0.06147
# Poissons Ratio (y) = 0.22328 0.26430
# Poissons Ratio (z) = -0.04474 0.28801
#
# Static dielectric constant tensor:
#      x y z
#    x 1.645180 0.000000 -0.019860 
#    y 0.000000 1.649890 0.000000 
#    z -0.019860 0.000000 1.692910 
# 
# From -- ./inp_files/223899.got.cif
#   From: 2010.05.17/outbox.cif.g08.bks.cpg/sg12_112_cif.got.tgz:223899.got - 2010.06.03 13:09:07.
