data_PCOD9201330
_publ_section_title
;
Structure prediction by ZEFSAII (Michael W. Deem and Ramdas Pophale) SiO2 
 PCOD9201330
Probable space group: C 2/M
;
_chemical_formula_sum "Si O2"
_cell_formula_units_Z 56
_cell_length_a 8.389044
_cell_length_b 13.184359
_cell_length_c 23.746091
_cell_angle_alpha 90.000000
_cell_angle_beta 110.874253
_cell_angle_gamma 90.000000
_cell_volume 2454.030956
_symmetry_space_group_name_H-M "C 2/M"
_symmetry_group_IT_number 12
_symmetry_cell_setting 'monoclinic'
loop_
_space_group_symop_operation_xyz
x,y,z
-x,y,-z
-x,-y,-z
x,-y,z
1/2+x,1/2+y,z
1/2-x,1/2+y,-z
1/2-x,1/2-y,-z
1/2+x,1/2-y,z
loop_
_atom_site_type_symbol
_atom_site_label
_atom_site_fract_x
_atom_site_fract_y
_atom_site_fract_z
Si Si1 0.282083 0.683046 0.094148
Si Si2 0.613025 0.230659 0.179461
Si Si3 0.022888 0.384327 0.606388
Si Si4 0.590431 0.377727 0.356046
Si Si5 0.962308 0.306792 0.268693
Si Si6 0.794871 0.892378 0.974434
Si Si7 0.636941 0.376441 0.562564
O O1 0.469455 0.686978 0.144645
O O2 0.153401 0.667098 0.128782
O O3 0.262737 0.797969 0.069057
O O4 0.248873 0.618906 0.034422
O O5 0.571325 0.162365 0.228360
O O6 0.778148 0.291613 0.219337
O O7 0.011705 0.500000 0.585762
O O8 0.208925 0.351134 0.606273
O O9 0.038911 0.375345 0.676312
O O10 0.830728 0.341907 0.573438
O O11 0.585941 0.500000 0.344478
O O12 0.533674 0.302824 0.298894
O O13 0.451837 0.355513 0.388017
O O14 0.735934 0.000000 0.944434
O O15 0.000000 0.889058 0.000000
O O16 0.500000 0.339058 0.500000
O O17 0.642546 0.500000 0.560376
#
# Coordination Sequence:
#
# PCOD9201330 Si02
#       7
#     8   8   8   8   8   8   8
#     4  10  20  39  56  86 113 146 184 242 274 344
#     4  10  21  35  59  81 116 152 186 233 296 325
#     4  10  21  38  61  86 114 155 200 240 293 355
#     4  10  21  38  61  86 114 155 200 240 293 355
#     4  11  20  39  59  83 115 156 191 238 286 348
#     4  10  20  37  62  83 110 153 187 222 284 346
#     4   9  19  36  59  87 118 151 193 247 298 348
#
# _framework density 22.819597999999999
#
# number of rings (size 3 to 8) (size 9 to 14) (size 15 to 20)
#    0.000    2.000    2.857    0.857    0.000    0.571 
#    0.000   13.571    0.000    0.000    0.000    0.000 
#    0.000    0.000    0.000    0.000    0.000    0.000 
#
# Total GULP energy -156164.827149 kJ/mol
# GULP energy per Si atom -5577.315255 kJ/mol
# Density = 2.276766 g / cm^3
# Si number density = 22.819598 Si / 1000 Ang^3
#
#
#
# Elastic Constant Matrix: (Units=GPa)
#
#
# Indices 1 2 3 4 5 6 
#
# 1 99.9596 25.8988 10.6344 0.0000 15.3598 0.0000
# 2 25.8988 83.2741 7.0842 0.0000 10.0893 0.0000
# 3 10.6344 7.0842 58.5033 0.0000 6.1210 0.0000
# 4 0.0000 0.0000 0.0000 3.1123 0.0000 14.9730
# 5 15.3598 10.0893 6.1210 0.0000 43.3103 0.0000
# 6 0.0000 0.0000 0.0000 14.9730 0.0000 7.9860
#
#
#
# Elastic Compliance Matrix: (Units=1/GPa)
#
#
# Indices 1 2 3 4 5 6 
#
# 1 0.011426 -0.003055 -0.001378 0.000000 -0.003146 0.000000
# 2 -0.003055 0.013260 -0.000853 0.000000 -0.001885 0.000000
# 3 -0.001378 -0.000853 0.017636 0.000000 -0.001805 0.000000
# 4 0.000000 0.000000 0.000000 -0.040063 0.000000 0.075114
# 5 -0.003146 -0.001885 -0.001805 0.000000 0.024899 0.000000
# 6 0.000000 0.000000 0.000000 0.075114 0.000000 -0.015613
#
#
# Mechanical properties :
#
#
# Convention : Reuss Voigt Hill
#
# Bulk Modulus (GPa) = 31.49720 36.55243 34.02482
# Shear Modulus (GPa) = 152.91248 24.08969 88.50109
#
# Velocity S-wave (km/s) = 8.19480 3.25261 6.23435
# Velocity P-wave (km/s) = 10.16722 5.49170 8.17102
#
# Compressibility (1/GPa) = 0.03174885
#
# Stress axis : x y z
#
# Youngs Moduli (GPa) = 87.52331 75.41695 56.70331
#
# Poissons Ratio (x) = 0.23041 0.07813
# Poissons Ratio (y) = 0.26739 0.04837
# Poissons Ratio (z) = 0.12059 0.06434
#
# Static dielectric constant tensor:
#      x y z
#    x 1.934240 0.000000 -0.040730 
#    y 0.000000 1.834930 0.000000 
#    z -0.040730 0.000000 1.845130 
# 
# From -- ./inp_files/332685.got.cif
#   From: 2010.05.17/outbox.cif.g08.bks.cpg/sg12_167_cif.got.tgz:332685.got - 2010.06.03 13:09:07.
