data_PCOD9201439
_publ_section_title
;
Structure prediction by ZEFSAII (Michael W. Deem and Ramdas Pophale) SiO2 
 PCOD9201439
Probable space group: C 2/M
;
_chemical_formula_sum "Si O2"
_cell_formula_units_Z 56
_cell_length_a 9.121114
_cell_length_b 17.414727
_cell_length_c 25.307400
_cell_angle_alpha 90.000000
_cell_angle_beta 39.802958
_cell_angle_gamma 90.000000
_cell_volume 2573.317665
_symmetry_space_group_name_H-M "C 2/M"
_symmetry_group_IT_number 12
_symmetry_cell_setting 'monoclinic'
loop_
_space_group_symop_operation_xyz
x,y,z
-x,y,-z
-x,-y,-z
x,-y,z
1/2+x,1/2+y,z
1/2-x,1/2+y,-z
1/2-x,1/2-y,-z
1/2+x,1/2-y,z
loop_
_atom_site_type_symbol
_atom_site_label
_atom_site_fract_x
_atom_site_fract_y
_atom_site_fract_z
Si Si1 0.107375 0.909305 0.701595
Si Si2 0.587077 0.093310 0.534934
Si Si3 0.320357 0.087986 0.935799
Si Si4 0.933242 0.592279 0.783436
Si Si5 0.991310 0.177810 0.901478
Si Si6 0.437239 0.409134 0.626451
Si Si7 0.285070 0.165053 0.124258
O O1 0.374301 0.884837 0.630666
O O2 0.018792 0.904886 0.665154
O O3 0.942916 0.856508 0.780888
O O4 0.090165 0.000000 0.721030
O O5 0.500000 0.112343 0.500000
O O6 0.848421 0.121969 0.467177
O O7 0.596529 0.000000 0.534775
O O8 0.406800 0.110835 0.853413
O O9 0.538104 0.096653 0.914050
O O10 0.246952 0.000000 0.953712
O O11 0.120256 0.137725 0.016826
O O12 0.929838 0.500000 0.779519
O O13 0.706224 0.627968 0.821474
O O14 0.178713 0.621858 0.694661
O O15 0.088963 0.260626 0.887799
O O16 0.792709 0.180399 0.913354
O O17 0.418967 0.500000 0.618945
#
# Coordination Sequence:
#
# PCOD9201439 Si02
#       7
#     8   8   8   8   8   8   8
#     4   9  16  30  56  88 117 147 186 233 282 335
#     4   7  11  21  45  86 121 141 176 226 277 333
#     4  11  23  42  65  88 115 146 186 237 289 342
#     4  10  20  37  62  89 117 150 189 234 284 341
#     4  12  27  41  57  82 114 154 197 243 286 338
#     4   8  13  26  53  88 119 146 179 226 282 337
#     4  12  25  41  59  81 114 154 195 238 286 341
#
# _framework density 21.761789
#
# number of rings (size 3 to 8) (size 9 to 14) (size 15 to 20)
#    0.000    2.143    1.429    4.714    0.000    5.143 
#    0.000    0.000    0.000    1.714    0.000    4.000 
#    0.000    0.000    0.000    0.000    0.000    0.000 
#
# Total GULP energy -156331.930182 kJ/mol
# GULP energy per Si atom -5583.283221 kJ/mol
# Density = 2.171226 g / cm^3
# Si number density = 21.761789 Si / 1000 Ang^3
#
#
#
# Elastic Constant Matrix: (Units=GPa)
#
#
# Indices 1 2 3 4 5 6 
#
# 1 81.4681 6.9441 10.8137 -0.0013 -24.3404 -0.0013
# 2 6.9441 31.9013 31.5599 0.0007 -4.5717 -0.0009
# 3 10.8137 31.5599 140.8281 -0.0054 -42.2670 -0.0040
# 4 -0.0013 0.0007 -0.0054 -4.0598 -0.0061 -24.3447
# 5 -24.3404 -4.5717 -42.2670 -0.0061 32.7067 0.0010
# 6 -0.0013 -0.0009 -0.0040 -24.3447 0.0010 3.1187
#
#
#
# Elastic Compliance Matrix: (Units=1/GPa)
#
#
# Indices 1 2 3 4 5 6 
#
# 1 0.018368 -0.007528 0.006638 -0.000002 0.021196 -0.000008
# 2 -0.007528 0.045406 -0.015314 0.000002 -0.019045 0.000010
# 3 0.006638 -0.015314 0.017746 -0.000003 0.025733 -0.000011
# 4 -0.000002 0.000002 -0.000003 -0.005152 -0.000005 -0.040218
# 5 0.021196 -0.019045 0.025733 -0.000005 0.076942 -0.000026
# 6 -0.000008 0.000010 -0.000011 -0.040218 -0.000026 0.006707
#
#
# Mechanical properties :
#
#
# Convention : Reuss Voigt Hill
#
# Bulk Modulus (GPa) = 20.36107 39.20364 29.78236
# Shear Modulus (GPa) = 23.94706 20.01178 21.97942
#
# Velocity S-wave (km/s) = 3.32085 3.03575 3.18150
# Velocity P-wave (km/s) = 4.90721 5.50833 5.21644
#
# Compressibility (1/GPa) = 0.04911333
#
# Stress axis : x y z
#
# Youngs Moduli (GPa) = 54.44266 22.02365 56.34975
#
# Poissons Ratio (x) = 0.16579 -0.37405
# Poissons Ratio (y) = 0.40983 0.86292
# Poissons Ratio (z) = -0.36139 0.33726
#
# Static dielectric constant tensor:
#      x y z
#    x 1.808000 0.000000 -0.029730 
#    y 0.000000 1.769500 0.000000 
#    z -0.029730 0.000000 1.842440 
# 
# From -- ./inp_files/356640.got.cif
#   From: 2010.05.17/outbox.cif.g08.bks.cpg/sg12_179_cif.got.tgz:356640.got - 2010.06.03 13:09:07.
