data_PCOD9201026
_publ_section_title
;
Structure prediction by ZEFSAII (Michael W. Deem and Ramdas Pophale) SiO2 
 PCOD9201026
Probable space group: C 2/M
;
_chemical_formula_sum "Si O2"
_cell_formula_units_Z 64
_cell_length_a 11.140420
_cell_length_b 17.817319
_cell_length_c 24.504360
_cell_angle_alpha 90.000000
_cell_angle_beta 134.634847
_cell_angle_gamma 90.000000
_cell_volume 3461.166829
_symmetry_space_group_name_H-M "C 2/M"
_symmetry_group_IT_number 12
_symmetry_cell_setting 'monoclinic'
loop_
_space_group_symop_operation_xyz
x,y,z
-x,y,-z
-x,-y,-z
x,-y,z
1/2+x,1/2+y,z
1/2-x,1/2+y,-z
1/2-x,1/2-y,-z
1/2+x,1/2-y,z
loop_
_atom_site_type_symbol
_atom_site_label
_atom_site_fract_x
_atom_site_fract_y
_atom_site_fract_z
Si Si1 0.175391 0.917678 0.523598
Si Si2 0.811402 0.415917 0.915352
Si Si3 0.600260 0.413069 0.088970
Si Si4 0.182849 0.297933 0.357213
Si Si5 0.007131 0.187882 0.383531
Si Si6 0.034284 0.342166 0.809327
Si Si7 0.383475 0.710838 0.083205
Si Si8 0.727989 0.583500 0.761417
O O1 0.294314 0.877302 0.605168
O O2 0.000000 0.924482 0.500000
O O3 0.127696 0.865512 0.457599
O O4 0.234863 0.000000 0.526274
O O5 0.746101 0.500000 0.909629
O O6 0.716799 0.345315 0.909659
O O7 0.789970 0.409259 0.843518
O O8 0.000000 0.413159 0.000000
O O9 0.598557 0.500000 0.109812
O O10 0.788481 0.383544 0.138881
O O11 0.512039 0.346402 0.095123
O O12 0.500000 0.415327 0.000000
O O13 0.357465 0.282995 0.377988
O O14 0.127784 0.243831 0.388853
O O15 0.029626 0.302196 0.265833
O O16 0.905461 0.142207 0.304590
O O17 0.658840 0.500000 0.731956
O O18 0.893764 0.403345 0.778628
O O19 0.464042 0.778638 0.143182
O O20 0.250000 0.750000 0.000000
#
# Coordination Sequence:
#
# PCOD9201026 Si02
#       8
#     8   8   8   8   8   8   8   8
#     4   9  18  35  61  90 118 152 197 239 284 343
#     4  10  22  37  56  79 112 149 188 236 291 349
#     4  11  25  42  58  81 115 155 198 247 301 353
#     4  10  22  36  60  87 123 151 192 237 298 346
#     4  10  20  37  60  91 117 155 189 242 286 351
#     4  11  24  37  61  87 114 150 194 246 292 351
#     4  12  24  37  59  81 112 149 195 245 294 348
#     4  10  21  38  60  85 113 147 190 239 289 345
#
# _framework density 18.490874999999999
#
# number of rings (size 3 to 8) (size 9 to 14) (size 15 to 20)
#    0.000    1.625    1.250    3.000    7.000    3.500 
#    0.000    0.000    0.000    2.250    0.000    0.000 
#    0.000    0.000    0.000    0.000    0.000    0.000 
#
# Total GULP energy -178342.283009 kJ/mol
# GULP energy per Si atom -5573.196344 kJ/mol
# Density = 1.844879 g / cm^3
# Si number density = 18.490875 Si / 1000 Ang^3
#
#
#
# Elastic Constant Matrix: (Units=GPa)
#
#
# Indices 1 2 3 4 5 6 
#
# 1 55.3264 42.2343 5.9977 0.0000 -7.6750 0.0000
# 2 42.2343 98.5523 25.3460 0.0000 -5.5736 0.0000
# 3 5.9977 25.3460 69.9554 0.0000 -18.6583 0.0000
# 4 0.0000 0.0000 0.0000 3.9129 0.0000 3.7238
# 5 -7.6750 -5.5736 -18.6583 0.0000 21.9504 0.0000
# 6 0.0000 0.0000 0.0000 3.7238 0.0000 27.0766
#
#
#
# Elastic Compliance Matrix: (Units=1/GPa)
#
#
# Indices 1 2 3 4 5 6 
#
# 1 0.029172 -0.013228 0.005323 0.000000 0.011366 0.000000
# 2 -0.013228 0.017198 -0.006680 0.000000 -0.005937 0.000000
# 3 0.005323 -0.006680 0.021083 0.000000 0.018086 0.000000
# 4 0.000000 0.000000 0.000000 0.294054 0.000000 -0.040441
# 5 0.011366 -0.005937 0.018086 0.000000 0.063397 0.000000
# 6 0.000000 0.000000 0.000000 -0.040441 0.000000 0.042494
#
#
# Mechanical properties :
#
#
# Convention : Reuss Voigt Hill
#
# Bulk Modulus (GPa) = 26.12188 41.22113 33.67150
# Shear Modulus (GPa) = 9.81685 20.60504 15.21094
#
# Velocity S-wave (km/s) = 2.30663 3.34179 2.87125
# Velocity P-wave (km/s) = 4.60995 6.10173 5.40753
#
# Compressibility (1/GPa) = 0.03828209
#
# Stress axis : x y z
#
# Youngs Moduli (GPa) = 34.27973 58.14656 47.43243
#
# Poissons Ratio (x) = 0.76914 -0.25248
# Poissons Ratio (y) = 0.45344 0.31687
# Poissons Ratio (z) = -0.18247 0.38844
#
# Static dielectric constant tensor:
#      x y z
#    x 1.649080 0.000000 0.000020 
#    y 0.000000 1.403610 0.000000 
#    z 0.000020 0.000000 1.580950 
# 
# From -- ./inp_files/358443.got.cif
#   From: 2010.05.17/outbox.cif.g08.bks.cpg/sg12_180_cif.got.tgz:358443.got - 2010.06.03 13:09:07.
