data_PCOD9201572
_publ_section_title
;
Structure prediction by ZEFSAII (Michael W. Deem and Ramdas Pophale) SiO2 
 PCOD9201572
Probable space group: C 2/M
;
_chemical_formula_sum "Si O2"
_cell_formula_units_Z 56
_cell_length_a 22.230851
_cell_length_b 18.896734
_cell_length_c 20.335556
_cell_angle_alpha 90.000000
_cell_angle_beta 160.487950
_cell_angle_gamma 90.000000
_cell_volume 2853.329904
_symmetry_space_group_name_H-M "C 2/M"
_symmetry_group_IT_number 12
_symmetry_cell_setting 'monoclinic'
loop_
_space_group_symop_operation_xyz
x,y,z
-x,y,-z
-x,-y,-z
x,-y,z
1/2+x,1/2+y,z
1/2-x,1/2+y,-z
1/2-x,1/2-y,-z
1/2+x,1/2-y,z
loop_
_atom_site_type_symbol
_atom_site_label
_atom_site_fract_x
_atom_site_fract_y
_atom_site_fract_z
Si Si1 0.075993 0.080819 0.932858
Si Si2 0.782461 0.079106 0.281311
Si Si3 0.323883 0.683053 0.441193
Si Si4 0.856023 0.582297 0.113909
Si Si5 0.746679 0.668577 0.874064
Si Si6 0.233207 0.919865 0.495929
Si Si7 0.481693 0.280543 0.903809
O O1 0.923501 0.085372 0.719069
O O2 0.026658 0.138483 0.935562
O O3 0.082005 0.000000 0.963012
O O4 0.261595 0.097678 0.085867
O O5 0.746968 0.133584 0.303296
O O6 0.716360 0.109733 0.144002
O O7 0.000000 0.075883 0.500000
O O8 0.716773 0.000000 0.226855
O O9 0.537905 0.690837 0.653300
O O10 0.289742 0.639524 0.472548
O O11 0.214019 0.755534 0.323063
O O12 0.808295 0.500000 0.048723
O O13 0.071123 0.587574 0.335209
O O14 0.782288 0.633521 0.981228
O O15 0.877659 0.732924 0.992335
O O16 0.222984 0.000000 0.514534
O O17 0.500000 0.266001 0.000000
#
# Coordination Sequence:
#
# PCOD9201572 Si02
#       7
#     8   8   8   8   8   8   8
#     4  10  24  45  66  87 116 156 204 264 317 359
#     4   9  18  31  53  83 120 170 206 228 276 351
#     4  11  21  37  58  89 130 164 198 243 299 357
#     4  10  20  37  62  93 126 160 201 247 296 362
#     4  11  21  37  58  89 130 164 198 243 299 357
#     4  10  20  37  62  93 126 160 201 247 296 362
#     4  12  26  43  62  88 121 159 211 257 304 364
#
# _framework density 19.626190999999999
#
# number of rings (size 3 to 8) (size 9 to 14) (size 15 to 20)
#    0.000    1.571    4.286    0.857    0.000    3.714 
#    0.000    0.714    0.000    0.000    0.000    6.000 
#    0.000    0.000    0.000    0.000    0.000    0.000 
#
# Total GULP energy -156453.218057 kJ/mol
# GULP energy per Si atom -5587.614931 kJ/mol
# Density = 1.958152 g / cm^3
# Si number density = 19.626191 Si / 1000 Ang^3
#
#
#
# Elastic Constant Matrix: (Units=GPa)
#
#
# Indices 1 2 3 4 5 6 
#
# 1 28.5587 19.7737 14.8821 -0.0170 15.4400 0.0049
# 2 19.7737 54.5497 -2.4189 -0.0622 13.5395 0.0301
# 3 14.8821 -2.4189 60.0548 -0.1159 23.4239 0.0355
# 4 -0.0170 -0.0622 -0.1159 41.3748 -0.0285 2.3466
# 5 15.4400 13.5395 23.4239 -0.0285 19.4080 0.0035
# 6 0.0049 0.0301 0.0355 2.3466 0.0035 27.8496
#
#
#
# Elastic Compliance Matrix: (Units=1/GPa)
#
#
# Indices 1 2 3 4 5 6 
#
# 1 0.069067 -0.013775 0.000024 -0.000024 -0.045365 0.000010
# 2 -0.013775 0.032132 0.017339 0.000072 -0.032384 -0.000056
# 3 0.000024 0.017339 0.041699 0.000104 -0.062443 -0.000073
# 4 -0.000024 0.000072 0.000104 0.024286 -0.000121 -0.002047
# 5 -0.045365 -0.032384 -0.062443 -0.000121 0.185570 0.000110
# 6 0.000010 -0.000056 -0.000073 -0.002047 0.000110 0.036080
#
#
# Mechanical properties :
#
#
# Convention : Reuss Voigt Hill
#
# Bulk Modulus (GPa) = 6.66337 23.07080 14.86709
# Shear Modulus (GPa) = 11.58257 25.12158 18.35208
#
# Velocity S-wave (km/s) = 2.43195 3.58159 3.06123
# Velocity P-wave (km/s) = 3.35982 5.37442 4.48178
#
# Compressibility (1/GPa) = 0.15007416
#
# Stress axis : x y z
#
# Youngs Moduli (GPa) = 14.47865 31.12136 23.98116
#
# Poissons Ratio (x) = 0.42871 -0.00057
# Poissons Ratio (y) = 0.19945 -0.41581
# Poissons Ratio (z) = -0.00034 -0.53962
#
# Static dielectric constant tensor:
#      x y z
#    x 1.655120 0.000000 0.018730 
#    y 0.000000 1.694880 0.000000 
#    z 0.018730 0.000000 1.689250 
# 
# From -- ./inp_files/322632.got.cif
#   From: 2010.05.17/outbox.cif.g08.bks.cpg/sg12_162_cif.got.tgz:322632.got - 2010.06.03 13:09:07.
