data_PCOD9201381
_publ_section_title
;
Structure prediction by ZEFSAII (Michael W. Deem and Ramdas Pophale) SiO2 
 PCOD9201381
Probable space group: C 2/M
;
_chemical_formula_sum "Si O2"
_cell_formula_units_Z 52
_cell_length_a 15.655906
_cell_length_b 8.681507
_cell_length_c 22.620566
_cell_angle_alpha 90.000000
_cell_angle_beta 122.719838
_cell_angle_gamma 90.000000
_cell_volume 2586.663321
_symmetry_space_group_name_H-M "C 2/M"
_symmetry_group_IT_number 12
_symmetry_cell_setting 'monoclinic'
loop_
_space_group_symop_operation_xyz
x,y,z
-x,y,-z
-x,-y,-z
x,-y,z
1/2+x,1/2+y,z
1/2-x,1/2+y,-z
1/2-x,1/2-y,-z
1/2+x,1/2-y,z
loop_
_atom_site_type_symbol
_atom_site_label
_atom_site_fract_x
_atom_site_fract_y
_atom_site_fract_z
Si Si1 0.090763 0.226341 0.663233
Si Si2 0.607366 0.325685 0.336201
Si Si3 0.887358 0.000000 0.432008
Si Si4 0.518285 0.684073 0.825002
Si Si5 0.933012 0.186675 0.917908
Si Si6 0.192411 0.500000 0.420821
Si Si7 0.975728 0.500000 0.558771
Si Si8 0.710012 0.313185 0.820180
O O1 0.178138 0.252304 0.743859
O O2 0.998817 0.155832 0.667699
O O3 0.031531 0.362614 0.611298
O O4 0.130169 0.137115 0.620684
O O5 0.656064 0.500000 0.357183
O O6 0.572304 0.292532 0.255905
O O7 0.658278 0.165711 0.378844
O O8 0.000000 0.000000 0.500000
O O9 0.812569 0.000000 0.459202
O O10 0.530862 0.500000 0.835113
O O11 0.487829 0.742112 0.878114
O O12 0.623066 0.739568 0.834128
O O13 0.821005 0.257475 0.879091
O O14 0.923966 0.000000 0.912035
O O15 0.000000 0.226020 0.000000
O O16 0.141780 0.500000 0.466323
O O17 0.000000 0.500000 0.500000
O O18 0.706892 0.500000 0.814261
#
# Coordination Sequence:
#
# PCOD9201381 Si02
#       8
#     8   8   4   8   8   4   4   8
#     4  10  20  39  65  89 122 164 206 257 317 369
#     4   9  17  38  65  91 122 161 210 266 316 368
#     4  12  24  42  62  92 130 166 198 253 319 376
#     4   8  17  35  58  83 121 161 196 248 309 364
#     4  10  22  38  57  87 126 161 201 250 305 369
#     4  10  24  38  66  96 124 163 215 259 312 379
#     4  10  22  44  66  92 131 161 206 268 311 379
#     4  10  20  37  62  87 116 158 210 249 302 370
#
# _framework density 20.103117999999998
#
# number of rings (size 3 to 8) (size 9 to 14) (size 15 to 20)
#    0.000    2.308    1.538    1.385    3.231    0.923 
#    2.769    6.923    0.000    0.000    0.000    0.000 
#    0.000    0.000    0.000    0.000    0.000    0.000 
#
# Total GULP energy -144784.950166 kJ/mol
# GULP energy per Si atom -5568.651929 kJ/mol
# Density = 2.005736 g / cm^3
# Si number density = 20.103118 Si / 1000 Ang^3
#
#
#
# Elastic Constant Matrix: (Units=GPa)
#
#
# Indices 1 2 3 4 5 6 
#
# 1 126.3148 26.4502 59.8445 0.0000 -2.4774 0.0000
# 2 26.4502 42.8925 31.5183 0.0000 -4.1631 0.0000
# 3 59.8445 31.5183 102.5330 0.0000 -4.2212 0.0000
# 4 0.0000 0.0000 0.0000 -63.6002 0.0000 -24.0973
# 5 -2.4774 -4.1631 -4.2212 0.0000 37.8904 0.0000
# 6 0.0000 0.0000 0.0000 -24.0973 0.0000 19.1446
#
#
#
# Elastic Compliance Matrix: (Units=1/GPa)
#
#
# Indices 1 2 3 4 5 6 
#
# 1 0.011183 -0.002730 -0.005696 0.000000 -0.000203 0.000000
# 2 -0.002730 0.030982 -0.007833 0.000000 0.002353 0.000000
# 3 -0.005696 -0.007833 0.015506 0.000000 0.000494 0.000000
# 4 0.000000 0.000000 0.000000 -0.010646 0.000000 -0.013400
# 5 -0.000203 0.002353 0.000494 0.000000 0.026692 0.000000
# 6 0.000000 0.000000 0.000000 -0.013400 0.000000 0.035367
#
#
# Mechanical properties :
#
#
# Convention : Reuss Voigt Hill
#
# Bulk Modulus (GPa) = 39.75905 56.37402 48.06654
# Shear Modulus (GPa) = 33.33584 8.94876 21.14230
#
# Velocity S-wave (km/s) = 4.07657 2.11213 3.24650
# Velocity P-wave (km/s) = 6.47907 5.83536 6.16562
#
# Compressibility (1/GPa) = 0.02515151
#
# Stress axis : x y z
#
# Youngs Moduli (GPa) = 89.41976 32.27652 64.49119
#
# Poissons Ratio (x) = 0.08812 0.36736
# Poissons Ratio (y) = 0.24414 0.50519
# Poissons Ratio (z) = 0.50936 0.25284
#
# Static dielectric constant tensor:
#      x y z
#    x 1.736680 0.000000 -0.017820 
#    y 0.000000 2.092790 0.000000 
#    z -0.017820 0.000000 1.690950 
# 
# From -- ./inp_files/338278.got.cif
#   From: 2010.05.17/outbox.cif.g08.bks.cpg/sg12_170_cif.got.tgz:338278.got - 2010.06.03 13:09:07.
