data_PCOD9201124
_publ_section_title
;
Structure prediction by ZEFSAII (Michael W. Deem and Ramdas Pophale) SiO2 
 PCOD9201124
Probable space group: C 2/M
;
_chemical_formula_sum "Si O2"
_cell_formula_units_Z 56
_cell_length_a 18.338890
_cell_length_b 8.579625
_cell_length_c 19.090475
_cell_angle_alpha 90.000000
_cell_angle_beta 103.938048
_cell_angle_gamma 90.000000
_cell_volume 2915.271563
_symmetry_space_group_name_H-M "C 2/M"
_symmetry_group_IT_number 12
_symmetry_cell_setting 'monoclinic'
loop_
_space_group_symop_operation_xyz
x,y,z
-x,y,-z
-x,-y,-z
x,-y,z
1/2+x,1/2+y,z
1/2-x,1/2+y,-z
1/2-x,1/2-y,-z
1/2+x,1/2-y,z
loop_
_atom_site_type_symbol
_atom_site_label
_atom_site_fract_x
_atom_site_fract_y
_atom_site_fract_z
Si Si1 0.974053 0.188758 0.571767
Si Si2 0.879447 0.187003 0.858518
Si Si3 0.949980 0.188712 0.138584
Si Si4 0.831685 0.314343 0.998625
Si Si5 0.095488 0.810173 0.715441
Si Si6 0.690502 0.813163 0.430324
Si Si7 0.235570 0.688738 0.283570
O O1 0.892280 0.252939 0.570752
O O2 0.000000 0.235405 0.500000
O O3 0.035037 0.240158 0.643542
O O4 0.970656 0.000000 0.572413
O O5 0.855067 0.254201 0.927553
O O6 0.823049 0.245075 0.785689
O O7 0.964754 0.234192 0.859797
O O8 0.877148 0.000000 0.861268
O O9 0.927934 0.238760 0.212009
O O10 0.945609 0.000000 0.134831
O O11 0.892244 0.256172 0.069112
O O12 0.829182 0.500000 0.997617
O O13 0.750000 0.250000 0.000000
O O14 0.179739 0.760744 0.715584
O O15 0.095211 0.000000 0.714743
O O16 0.750000 0.750000 0.500000
O O17 0.713755 0.763758 0.357220
O O18 0.691502 0.000000 0.432611
O O19 0.233428 0.500000 0.279654
#
# Coordination Sequence:
#
# PCOD9201124 Si02
#       7
#     8   8   8   8   8   8   8
#     4  10  20  37  61  86 115 154 199 245 297 357
#     4  11  23  39  61  90 122 156 195 240 293 351
#     4  10  21  38  60  86 118 155 195 240 292 352
#     4  12  25  41  62  87 117 154 198 246 297 352
#     4   9  18  35  59  84 112 151 195 239 291 347
#     4  11  23  38  58  86 120 158 200 246 296 348
#     4  10  21  38  60  86 117 156 202 247 291 345
#
# _framework density 19.209187
#
# number of rings (size 3 to 8) (size 9 to 14) (size 15 to 20)
#    0.000    1.571    0.000    5.143    0.000    8.857 
#    0.000    1.429    0.000    0.000    0.000    0.000 
#    0.000    0.000    0.000    0.000    0.000    0.000 
#
# Total GULP energy -156583.979839 kJ/mol
# GULP energy per Si atom -5592.284994 kJ/mol
# Density = 1.916547 g / cm^3
# Si number density = 19.209187 Si / 1000 Ang^3
#
#
#
# Elastic Constant Matrix: (Units=GPa)
#
#
# Indices 1 2 3 4 5 6 
#
# 1 245.3828 53.0026 152.6549 0.0000 -0.2133 0.0000
# 2 53.0026 34.2643 51.8850 0.0000 -1.6184 0.0000
# 3 152.6549 51.8850 245.5250 0.0000 0.2700 0.0000
# 4 0.0000 0.0000 0.0000 28.7659 0.0000 6.3278
# 5 -0.2133 -1.6184 0.2700 0.0000 46.6251 0.0000
# 6 0.0000 0.0000 0.0000 6.3278 0.0000 30.5205
#
#
#
# Elastic Compliance Matrix: (Units=1/GPa)
#
#
# Indices 1 2 3 4 5 6 
#
# 1 0.007577 -0.006759 -0.003283 0.000000 -0.000181 0.000000
# 2 -0.006759 0.049059 -0.006167 0.000000 0.001708 0.000000
# 3 -0.003283 -0.006167 0.007417 0.000000 -0.000272 0.000000
# 4 0.000000 0.000000 0.000000 0.036425 0.000000 -0.007552
# 5 -0.000181 0.001708 -0.000272 0.000000 0.021508 0.000000
# 6 0.000000 0.000000 0.000000 -0.007552 0.000000 0.034331
#
#
# Mechanical properties :
#
#
# Convention : Reuss Voigt Hill
#
# Bulk Modulus (GPa) = 31.60875 115.58413 73.59644
# Shear Modulus (GPa) = 25.09056 39.02426 32.05741
#
# Velocity S-wave (km/s) = 3.61802 4.51215 4.08960
# Velocity P-wave (km/s) = 5.82617 9.35136 7.79077
#
# Compressibility (1/GPa) = 0.03163681
#
# Stress axis : x y z
#
# Youngs Moduli (GPa) = 131.97632 20.38375 134.81883
#
# Poissons Ratio (x) = 0.13777 0.44256
# Poissons Ratio (y) = 0.89199 0.83141
# Poissons Ratio (z) = 0.43323 0.12570
#
# Static dielectric constant tensor:
#      x y z
#    x 1.635880 0.000000 -0.010190 
#    y 0.000000 1.658580 0.000000 
#    z -0.010190 0.000000 1.631490 
# 
# From -- ./inp_files/275575.got.cif
#   From: 2010.05.17/outbox.cif.g08.bks.cpg/sg12_138_cif.got.tgz:275575.got - 2010.06.03 13:09:07.
