data_PCOD9201725
_publ_section_title
;
Structure prediction by ZEFSAII (Michael W. Deem and Ramdas Pophale) SiO2 
 PCOD9201725
Probable space group: C 2/M
;
_chemical_formula_sum "Si O2"
_cell_formula_units_Z 48
_cell_length_a 19.352168
_cell_length_b 11.131602
_cell_length_c 14.852565
_cell_angle_alpha 90.000000
_cell_angle_beta 137.337804
_cell_angle_gamma 90.000000
_cell_volume 2168.253120
_symmetry_space_group_name_H-M "C 2/M"
_symmetry_group_IT_number 12
_symmetry_cell_setting 'monoclinic'
loop_
_space_group_symop_operation_xyz
x,y,z
-x,y,-z
-x,-y,-z
x,-y,z
1/2+x,1/2+y,z
1/2-x,1/2+y,-z
1/2-x,1/2-y,-z
1/2+x,1/2-y,z
loop_
_atom_site_type_symbol
_atom_site_label
_atom_site_fract_x
_atom_site_fract_y
_atom_site_fract_z
Si Si1 0.714024 0.743969 0.804041
Si Si2 0.064639 0.500000 0.468619
Si Si3 0.955530 0.763157 0.058921
Si Si4 0.379863 0.636618 0.665430
Si Si5 0.769545 0.000000 0.103694
Si Si6 0.812096 0.745814 0.425422
Si Si7 0.638823 0.000000 0.796973
Si Si8 0.949387 0.500000 0.048260
O O1 0.679213 0.629539 0.830852
O O2 0.697381 0.706924 0.684695
O O3 0.661758 0.872435 0.771290
O O4 0.833675 0.770627 0.937033
O O5 0.132233 0.618041 0.527830
O O6 0.000000 0.500000 0.500000
O O7 0.982466 0.500000 0.309681
O O8 0.978120 0.628077 0.115900
O O9 0.011837 0.849734 0.181901
O O10 0.000000 0.778807 0.000000
O O11 0.344831 0.500000 0.640988
O O12 0.300510 0.722009 0.642442
O O13 0.373766 0.674145 0.555588
O O14 0.709815 0.000000 0.952394
O O15 0.673097 0.000000 0.080273
O O16 0.000000 0.500000 0.000000
#
# Coordination Sequence:
#
# PCOD9201725 Si02
#       8
#     8   4   8   8   4   8   4   4
#     4  11  23  43  68  99 130 179 225 282 339 403
#     4  12  24  46  71  91 127 181 233 275 319 416
#     4  10  20  37  63  96 132 168 212 270 341 398
#     4  11  25  42  63 101 140 176 217 284 341 405
#     4  10  24  42  66  97 133 168 219 280 348 393
#     4  11  24  44  66  97 135 176 232 270 337 405
#     4  12  26  44  70  96 129 174 236 287 328 398
#     4   8  18  36  58  98 126 159 204 252 330 408
#
# _framework density 22.137637000000002
#
# number of rings (size 3 to 8) (size 9 to 14) (size 15 to 20)
#    0.000    1.333    4.167    0.500    7.000    0.333 
#    1.500    0.000    0.000    1.500    0.000    0.000 
#    0.000    0.000    0.000    0.000    0.000    0.000 
#
# Total GULP energy -134050.105100 kJ/mol
# GULP energy per Si atom -5585.421046 kJ/mol
# Density = 2.208725 g / cm^3
# Si number density = 22.137637 Si / 1000 Ang^3
#
#
#
# Elastic Constant Matrix: (Units=GPa)
#
#
# Indices 1 2 3 4 5 6 
#
# 1 30.2630 -0.0899 21.7328 0.0000 -1.8729 0.0000
# 2 -0.0899 85.1392 30.0213 0.0000 -4.3039 0.0000
# 3 21.7328 30.0213 137.9897 0.0000 -28.0296 0.0000
# 4 0.0000 0.0000 0.0000 16.7344 0.0000 -3.0607
# 5 -1.8729 -4.3039 -28.0296 0.0000 34.8858 0.0000
# 6 0.0000 0.0000 0.0000 -3.0607 0.0000 17.1925
#
#
#
# Elastic Compliance Matrix: (Units=1/GPa)
#
#
# Indices 1 2 3 4 5 6 
#
# 1 0.038017 0.002409 -0.007214 0.000000 -0.003458 0.000000
# 2 0.002409 0.012892 -0.003388 0.000000 -0.001002 0.000000
# 3 -0.007214 -0.003388 0.010703 0.000000 0.007795 0.000000
# 4 0.000000 0.000000 0.000000 0.061768 0.000000 0.010996
# 5 -0.003458 -0.001002 0.007795 0.000000 0.034618 0.000000
# 6 0.000000 0.000000 0.000000 0.010996 0.000000 0.060122
#
#
# Mechanical properties :
#
#
# Convention : Reuss Voigt Hill
#
# Bulk Modulus (GPa) = 22.11057 39.63561 30.87309
# Shear Modulus (GPa) = 20.03338 27.21105 23.62221
#
# Velocity S-wave (km/s) = 3.01150 3.50976 3.27013
# Velocity P-wave (km/s) = 4.70123 5.86239 5.31363
#
# Compressibility (1/GPa) = 0.04522724
#
# Stress axis : x y z
#
# Youngs Moduli (GPa) = 26.30371 77.56785 93.42757
#
# Poissons Ratio (x) = -0.18687 0.67400
# Poissons Ratio (y) = -0.06337 0.31651
# Poissons Ratio (z) = 0.18976 0.26278
#
# Static dielectric constant tensor:
#      x y z
#    x 1.844390 0.000000 -0.029530 
#    y 0.000000 1.827970 0.000000 
#    z -0.029530 0.000000 1.802090 
# 
# From -- ./inp_files/232910.got.cif
#   From: 2010.05.17/outbox.cif.g08.bks.cpg/sg12_117_cif.got.tgz:232910.got - 2010.06.03 13:09:07.
