data_PCOD9201102
_publ_section_title
;
Structure prediction by ZEFSAII (Michael W. Deem and Ramdas Pophale) SiO2 
 PCOD9201102
Probable space group: C 2/M
;
_chemical_formula_sum "Si O2"
_cell_formula_units_Z 56
_cell_length_a 9.122950
_cell_length_b 19.341887
_cell_length_c 25.863917
_cell_angle_alpha 90.000000
_cell_angle_beta 139.016334
_cell_angle_gamma 90.000000
_cell_volume 2993.152768
_symmetry_space_group_name_H-M "C 2/M"
_symmetry_group_IT_number 12
_symmetry_cell_setting 'monoclinic'
loop_
_space_group_symop_operation_xyz
x,y,z
-x,y,-z
-x,-y,-z
x,-y,z
1/2+x,1/2+y,z
1/2-x,1/2+y,-z
1/2-x,1/2-y,-z
1/2+x,1/2-y,z
loop_
_atom_site_type_symbol
_atom_site_label
_atom_site_fract_x
_atom_site_fract_y
_atom_site_fract_z
Si Si1 0.887299 0.179317 0.288860
Si Si2 0.021655 0.918352 0.066286
Si Si3 0.748519 0.698669 0.951686
Si Si4 0.858380 0.580708 0.300544
Si Si5 0.188820 0.580505 0.593499
Si Si6 0.526574 0.081123 0.238221
Si Si7 0.439593 0.707097 0.775550
O O1 0.696312 0.123288 0.248672
O O2 0.782624 0.245852 0.290171
O O3 0.117454 0.138041 0.362479
O O4 0.918756 0.205683 0.238922
O O5 0.857180 0.872331 0.056095
O O6 0.274672 0.905711 0.152393
O O7 0.975993 0.000000 0.059492
O O8 0.000000 0.900105 0.000000
O O9 0.593662 0.728366 0.864375
O O10 0.750000 0.750000 0.000000
O O11 0.000000 0.688784 0.000000
O O12 0.805215 0.500000 0.277541
O O13 0.915226 0.588482 0.376372
O O14 0.031443 0.599749 0.300923
O O15 0.645918 0.629605 0.237177
O O16 0.273391 0.500000 0.613454
O O17 0.000000 0.588152 0.500000
O O18 0.573702 0.000000 0.245962
#
# Coordination Sequence:
#
# PCOD9201102 Si02
#       7
#     8   8   8   8   8   8   8
#     4  11  23  37  60  87 121 156 200 242 292 354
#     4  10  23  41  59  83 118 155 196 252 308 353
#     4  12  26  39  59  84 117 157 203 252 305 357
#     4   9  18  37  63  88 117 155 197 243 296 351
#     4   9  19  39  66  96 127 155 189 239 297 357
#     4  10  20  37  61  85 115 156 201 246 292 352
#     4  11  23  38  57  86 116 157 201 250 295 351
#
# _framework density 18.709368999999999
#
# number of rings (size 3 to 8) (size 9 to 14) (size 15 to 20)
#    0.000    1.714    1.429    2.571    6.000    0.857 
#    0.000    3.571    0.000    3.429    0.000    0.000 
#    0.000    0.000    0.000    0.000    0.000    0.000 
#
# Total GULP energy -156156.983614 kJ/mol
# GULP energy per Si atom -5577.035129 kJ/mol
# Density = 1.866679 g / cm^3
# Si number density = 18.709369 Si / 1000 Ang^3
#
#
#
# Elastic Constant Matrix: (Units=GPa)
#
#
# Indices 1 2 3 4 5 6 
#
# 1 145.5331 60.7195 43.6816 0.0004 -1.6742 0.0001
# 2 60.7195 61.5345 39.4324 0.0001 0.9585 0.0001
# 3 43.6816 39.4324 87.5084 0.0007 -17.3820 0.0002
# 4 0.0004 0.0001 0.0007 21.9696 0.0004 9.0198
# 5 -1.6742 0.9585 -17.3820 0.0004 23.1046 0.0002
# 6 0.0001 0.0001 0.0002 9.0198 0.0002 43.5458
#
#
#
# Elastic Compliance Matrix: (Units=1/GPa)
#
#
# Indices 1 2 3 4 5 6 
#
# 1 0.011742 -0.011173 -0.000665 0.000000 0.000814 0.000000
# 2 -0.011173 0.035736 -0.012911 0.000001 -0.012005 0.000000
# 3 -0.000665 -0.012911 0.020779 -0.000001 0.016120 0.000000
# 4 0.000000 0.000001 -0.000001 0.049748 -0.000002 -0.010304
# 5 0.000814 -0.012005 0.016120 -0.000002 0.055966 0.000000
# 6 0.000000 0.000000 0.000000 -0.010304 0.000000 0.025099
#
#
# Mechanical properties :
#
#
# Convention : Reuss Voigt Hill
#
# Bulk Modulus (GPa) = 53.30386 64.69369 58.99877
# Shear Modulus (GPa) = 19.62173 27.77351 23.69762
#
# Velocity S-wave (km/s) = 3.24198 3.85706 3.56282
# Velocity P-wave (km/s) = 6.52428 7.38168 6.96618
#
# Compressibility (1/GPa) = 0.01876037
#
# Stress axis : x y z
#
# Youngs Moduli (GPa) = 85.16596 27.98267 48.12580
#
# Poissons Ratio (x) = 0.31265 0.03199
# Poissons Ratio (y) = 0.95156 0.62134
# Poissons Ratio (z) = 0.05661 0.36127
#
# Static dielectric constant tensor:
#      x y z
#    x 1.656060 0.000000 -0.033480 
#    y 0.000000 1.689540 0.000000 
#    z -0.033480 0.000000 1.630480 
# 
# From -- ./inp_files/257010.got.cif
#   From: 2010.05.17/outbox.cif.g08.bks.cpg/sg12_129_cif.got.tgz:257010.got - 2010.06.03 13:09:07.
