data_PCOD9201769
_publ_section_title
;
Structure prediction by ZEFSAII (Michael W. Deem and Ramdas Pophale) SiO2 
 PCOD9201769
Probable space group: C 2/M
;
_chemical_formula_sum "Si O2"
_cell_formula_units_Z 48
_cell_length_a 13.975857
_cell_length_b 14.867594
_cell_length_c 12.954966
_cell_angle_alpha 90.000000
_cell_angle_beta 52.137237
_cell_angle_gamma 90.000000
_cell_volume 2125.192539
_symmetry_space_group_name_H-M "C 2/M"
_symmetry_group_IT_number 12
_symmetry_cell_setting 'monoclinic'
loop_
_space_group_symop_operation_xyz
x,y,z
-x,y,-z
-x,-y,-z
x,-y,z
1/2+x,1/2+y,z
1/2-x,1/2+y,-z
1/2-x,1/2-y,-z
1/2+x,1/2-y,z
loop_
_atom_site_type_symbol
_atom_site_label
_atom_site_fract_x
_atom_site_fract_y
_atom_site_fract_z
Si Si1 0.779234 0.162106 0.415439
Si Si2 0.247142 0.594576 0.650765
Si Si3 0.955780 0.218999 0.808159
Si Si4 0.632749 0.394350 0.965574
Si Si5 0.026805 0.402869 0.103859
Si Si6 0.676609 0.780553 0.292808
O O1 0.750000 0.250000 0.500000
O O2 0.787137 0.094237 0.504790
O O3 0.678237 0.155306 0.392864
O O4 0.907250 0.182131 0.276449
O O5 0.287861 0.500000 0.672936
O O6 0.101541 0.596093 0.751705
O O7 0.286322 0.682977 0.686460
O O8 0.935331 0.254457 0.705633
O O9 0.922337 0.306434 0.898692
O O10 0.877198 0.138756 0.909141
O O11 0.662424 0.500000 0.936573
O O12 0.727683 0.329884 0.845219
O O13 0.500000 0.381526 0.000000
O O14 0.088051 0.500000 0.085923
O O15 0.000000 0.401229 0.000000
#
# Coordination Sequence:
#
# PCOD9201769 Si02
#       6
#     8   8   8   8   8   8
#     4  10  21  40  59  89 128 168 209 255 311 375
#     4  10  21  40  64  91 124 167 214 261 316 374
#     4  12  22  39  67  93 129 166 215 260 326 372
#     4  11  23  41  65  93 130 172 212 260 323 386
#     4  10  20  37  64  91 122 166 211 263 321 377
#     4  11  23  40  65  94 127 167 210 267 316 380
#
# _framework density 22.586188
#
# number of rings (size 3 to 8) (size 9 to 14) (size 15 to 20)
#    0.000    1.333    5.000    2.000    0.000    5.333 
#    0.000    2.500    0.000    2.000    0.000    0.000 
#    0.000    0.000    0.000    0.000    0.000    0.000 
#
# Total GULP energy -133717.935716 kJ/mol
# GULP energy per Si atom -5571.580655 kJ/mol
# Density = 2.253478 g / cm^3
# Si number density = 22.586188 Si / 1000 Ang^3
#
#
#
# Elastic Constant Matrix: (Units=GPa)
#
#
# Indices 1 2 3 4 5 6 
#
# 1 59.7571 0.9925 9.4391 0.0000 17.7296 0.0000
# 2 0.9925 142.1617 22.6678 0.0000 -0.2983 0.0000
# 3 9.4391 22.6678 93.2424 0.0000 11.3851 0.0000
# 4 0.0000 0.0000 0.0000 53.2766 0.0000 14.7951
# 5 17.7296 -0.2983 11.3851 0.0000 19.8820 0.0000
# 6 0.0000 0.0000 0.0000 14.7951 0.0000 5.9277
#
#
#
# Elastic Compliance Matrix: (Units=1/GPa)
#
#
# Indices 1 2 3 4 5 6 
#
# 1 0.022766 -0.000242 0.000251 0.000000 -0.020448 0.000000
# 2 -0.000242 0.007348 -0.001937 0.000000 0.001435 0.000000
# 3 0.000251 -0.001937 0.012043 0.000000 -0.007149 0.000000
# 4 0.000000 0.000000 0.000000 0.061166 0.000000 -0.152666
# 5 -0.020448 0.001435 -0.007149 0.000000 0.072647 0.000000
# 6 0.000000 0.000000 0.000000 -0.152666 0.000000 0.549746
#
#
# Mechanical properties :
#
#
# Convention : Reuss Voigt Hill
#
# Bulk Modulus (GPa) = 26.10908 40.15110 33.13009
# Shear Modulus (GPa) = 6.73547 33.28801 20.01174
#
# Velocity S-wave (km/s) = 1.72875 3.84320 2.97983
# Velocity P-wave (km/s) = 3.94584 6.12446 5.15164
#
# Compressibility (1/GPa) = 0.03830085
#
# Stress axis : x y z
#
# Youngs Moduli (GPa) = 43.92566 136.09497 83.03465
#
# Poissons Ratio (x) = 0.03292 -0.02084
# Poissons Ratio (y) = 0.01062 0.16084
# Poissons Ratio (z) = -0.01102 0.26362
#
# Static dielectric constant tensor:
#      x y z
#    x 1.877630 0.000000 0.025990 
#    y 0.000000 1.859390 0.000000 
#    z 0.025990 0.000000 1.872490 
# 
# From -- ./inp_files/143567.got.cif
#   From: 2010.05.17/outbox.cif.g08.bks.cpg/sg12_72_cif.got.tgz:143567.got - 2010.06.03 13:09:07.
