data_PCOD9201825
_publ_section_title
;
Structure prediction by ZEFSAII (Michael W. Deem and Ramdas Pophale) SiO2 
 PCOD9201825
Probable space group: C 2/M
;
_chemical_formula_sum "Si O2"
_cell_formula_units_Z 52
_cell_length_a 7.526185
_cell_length_b 17.885037
_cell_length_c 18.600768
_cell_angle_alpha 90.000000
_cell_angle_beta 68.792342
_cell_angle_gamma 90.000000
_cell_volume 2334.209652
_symmetry_space_group_name_H-M "C 2/M"
_symmetry_group_IT_number 12
_symmetry_cell_setting 'monoclinic'
loop_
_space_group_symop_operation_xyz
x,y,z
-x,y,-z
-x,-y,-z
x,-y,z
1/2+x,1/2+y,z
1/2-x,1/2+y,-z
1/2-x,1/2-y,-z
1/2+x,1/2-y,z
loop_
_atom_site_type_symbol
_atom_site_label
_atom_site_fract_x
_atom_site_fract_y
_atom_site_fract_z
Si Si1 0.278883 0.500000 0.979796
Si Si2 0.851423 0.000000 0.136800
Si Si3 0.714426 0.814054 0.831224
Si Si4 0.151994 0.150841 0.789504
Si Si5 0.623657 0.909212 0.372097
Si Si6 0.701951 0.913231 0.692950
Si Si7 0.000000 0.364636 0.000000
Si Si8 0.095898 0.912243 0.556172
O O1 0.335085 0.500000 0.054558
O O2 0.168543 0.422375 0.990837
O O3 0.419747 0.500000 0.891227
O O4 0.778534 0.923509 0.179777
O O5 0.731340 0.727127 0.809584
O O6 0.659954 0.860321 0.767116
O O7 0.923655 0.842399 0.823579
O O8 0.565224 0.821394 0.918954
O O9 0.231298 0.136453 0.699098
O O10 0.421667 0.896177 0.361423
O O11 0.702535 0.887461 0.439694
O O12 0.652267 0.000000 0.363621
O O13 0.924829 0.908547 0.639298
O O14 0.662056 0.000000 0.718038
O O15 0.000000 0.876069 0.500000
O O16 0.130175 0.000000 0.533309
#
# Coordination Sequence:
#
# PCOD9201825 Si02
#       8
#     4   4   8   8   8   8   4   8
#     4  10  24  42  64  92 122 165 219 279 331 405
#     4  11  24  44  68  90 123 170 221 269 343 395
#     4  12  27  42  64  95 134 171 225 279 337 388
#     4  12  25  43  66  95 128 175 219 282 326 397
#     4  10  20  37  64  97 129 173 222 268 325 393
#     4  10  22  38  65  97 132 178 224 272 329 397
#     4  11  26  42  64  95 130 172 216 283 338 386
#     4   9  18  35  62  99 137 171 216 272 325 390
#
# _framework density 22.277346999999999
#
# number of rings (size 3 to 8) (size 9 to 14) (size 15 to 20)
#    0.000    1.385    3.846    0.923    7.538    2.462 
#    0.000    3.077    0.000    0.923    0.000    0.000 
#    0.000    0.000    0.000    0.000    0.000    0.000 
#
# Total GULP energy -144995.192882 kJ/mol
# GULP energy per Si atom -5576.738188 kJ/mol
# Density = 2.222664 g / cm^3
# Si number density = 22.277347 Si / 1000 Ang^3
#
#
#
# Elastic Constant Matrix: (Units=GPa)
#
#
# Indices 1 2 3 4 5 6 
#
# 1 78.6089 34.6539 21.1183 0.0000 7.9906 0.0000
# 2 34.6539 102.2236 31.8027 0.0000 18.1446 0.0000
# 3 21.1183 31.8027 58.7277 0.0000 20.3451 0.0000
# 4 0.0000 0.0000 0.0000 21.3831 0.0000 18.5993
# 5 7.9906 18.1446 20.3451 0.0000 36.7253 0.0000
# 6 0.0000 0.0000 0.0000 18.5993 0.0000 49.0030
#
#
#
# Elastic Compliance Matrix: (Units=1/GPa)
#
#
# Indices 1 2 3 4 5 6 
#
# 1 0.015476 -0.004284 -0.003480 0.000000 0.000677 0.000000
# 2 -0.004284 0.013192 -0.004540 0.000000 -0.003071 0.000000
# 3 -0.003480 -0.004540 0.024376 0.000000 -0.010504 0.000000
# 4 0.000000 0.000000 0.000000 0.069815 0.000000 -0.026498
# 5 0.000677 -0.003071 -0.010504 0.000000 0.034418 0.000000
# 6 0.000000 0.000000 0.000000 -0.026498 0.000000 0.030464
#
#
# Mechanical properties :
#
#
# Convention : Reuss Voigt Hill
#
# Bulk Modulus (GPa) = 35.16461 46.07889 40.62175
# Shear Modulus (GPa) = 22.54011 31.55462 27.04736
#
# Velocity S-wave (km/s) = 3.18432 3.76765 3.48820
# Velocity P-wave (km/s) = 5.41656 6.29730 5.87346
#
# Compressibility (1/GPa) = 0.02843768
#
# Stress axis : x y z
#
# Youngs Moduli (GPa) = 64.61732 75.80294 41.02355
#
# Poissons Ratio (x) = 0.32473 0.14275
# Poissons Ratio (y) = 0.27681 0.18623
# Poissons Ratio (z) = 0.22485 0.34411
#
# Static dielectric constant tensor:
#      x y z
#    x 1.634830 0.000000 0.074640 
#    y 0.000000 1.752290 0.000000 
#    z 0.074640 0.000000 1.852730 
# 
# From -- ./inp_files/256546.got.cif
#   From: 2010.05.17/outbox.cif.g08.bks.cpg/sg12_129_cif.got.tgz:256546.got - 2010.06.03 13:09:07.
