data_PCOD9201505
_publ_section_title
;
Structure prediction by ZEFSAII (Michael W. Deem and Ramdas Pophale) SiO2 
 PCOD9201505
Probable space group: C 2/M
;
_chemical_formula_sum "Si O2"
_cell_formula_units_Z 64
_cell_length_a 20.900281
_cell_length_b 13.901223
_cell_length_c 20.104334
_cell_angle_alpha 90.000000
_cell_angle_beta 143.219617
_cell_angle_gamma 90.000000
_cell_volume 3497.356654
_symmetry_space_group_name_H-M "C 2/M"
_symmetry_group_IT_number 12
_symmetry_cell_setting 'monoclinic'
loop_
_space_group_symop_operation_xyz
x,y,z
-x,y,-z
-x,-y,-z
x,-y,z
1/2+x,1/2+y,z
1/2-x,1/2+y,-z
1/2-x,1/2-y,-z
1/2+x,1/2-y,z
loop_
_atom_site_type_symbol
_atom_site_label
_atom_site_fract_x
_atom_site_fract_y
_atom_site_fract_z
Si Si1 0.682679 0.113206 0.071941
Si Si2 0.891961 0.756666 0.876773
Si Si3 0.939061 0.610637 0.304631
Si Si4 0.281788 0.888776 0.574257
Si Si5 0.658082 0.205236 0.509177
Si Si6 0.296015 0.890823 0.312850
Si Si7 0.488052 0.187974 0.819559
Si Si8 0.342569 0.257028 0.131222
O O1 0.645684 0.166918 0.108863
O O2 0.793744 0.161714 0.139220
O O3 0.694328 0.000000 0.091228
O O4 0.586535 0.131841 0.937849
O O5 0.801466 0.835872 0.801899
O O6 0.921112 0.730463 0.825354
O O7 0.000000 0.793733 0.000000
O O8 0.969263 0.500000 0.312403
O O9 0.889642 0.608147 0.336779
O O10 0.857015 0.657796 0.184289
O O11 0.036136 0.685301 0.388313
O O12 0.280390 0.856725 0.495812
O O13 0.201021 0.813576 0.541235
O O14 0.401038 0.870408 0.703855
O O15 0.254631 0.000000 0.559791
O O16 0.674016 0.163535 0.595293
O O17 0.268141 0.000000 0.306294
O O18 0.547610 0.263850 0.820084
O O19 0.250000 0.250000 0.000000
#
# Coordination Sequence:
#
# PCOD9201505 Si02
#       8
#     8   8   8   8   8   8   8   8
#     4  10  21  38  61  90 124 163 205 248 303 368
#     4  10  21  38  60  89 124 159 202 254 302 366
#     4  11  22  39  65  87 112 158 209 253 296 356
#     4  11  22  37  62  90 120 157 195 242 307 371
#     4  11  23  39  59  89 121 150 200 258 300 349
#     4  11  22  39  62  86 115 157 207 255 303 356
#     4  10  20  37  62  90 122 157 201 248 298 369
#     4  10  21  37  60  90 125 153 196 251 303 358
#
# _framework density 18.299534999999999
#
# number of rings (size 3 to 8) (size 9 to 14) (size 15 to 20)
#    0.000    1.500    3.750    1.875    0.000    6.000 
#    0.000    1.250    0.000    0.750    0.000    0.000 
#    0.000    0.000    0.000    0.000    0.000    0.000 
#
# Total GULP energy -178359.167271 kJ/mol
# GULP energy per Si atom -5573.723977 kJ/mol
# Density = 1.825788 g / cm^3
# Si number density = 18.299535 Si / 1000 Ang^3
#
#
#
# Elastic Constant Matrix: (Units=GPa)
#
#
# Indices 1 2 3 4 5 6 
#
# 1 105.1069 45.6735 25.4392 0.0000 -2.2693 0.0000
# 2 45.6735 112.5918 43.9861 0.0000 17.5559 0.0000
# 3 25.4392 43.9861 66.2179 0.0000 -1.3884 0.0000
# 4 0.0000 0.0000 0.0000 16.5837 0.0000 0.5659
# 5 -2.2693 17.5559 -1.3884 0.0000 26.9956 0.0000
# 6 0.0000 0.0000 0.0000 0.5659 0.0000 19.3966
#
#
#
# Elastic Compliance Matrix: (Units=1/GPa)
#
#
# Indices 1 2 3 4 5 6 
#
# 1 0.012118 -0.005135 -0.001154 0.000000 0.004299 0.000000
# 2 -0.005135 0.016318 -0.009108 0.000000 -0.011512 0.000000
# 3 -0.001154 -0.009108 0.021741 0.000000 0.006944 0.000000
# 4 0.000000 0.000000 0.000000 0.060360 0.000000 -0.001761
# 5 0.004299 -0.011512 0.006944 0.000000 0.045248 0.000000
# 6 0.000000 0.000000 0.000000 -0.001761 0.000000 0.051607
#
#
# Mechanical properties :
#
#
# Convention : Reuss Voigt Hill
#
# Bulk Modulus (GPa) = 51.59431 57.12380 54.35905
# Shear Modulus (GPa) = 20.43766 23.84971 22.14369
#
# Velocity S-wave (km/s) = 3.34554 3.61404 3.48238
# Velocity P-wave (km/s) = 6.57108 6.97845 6.77783
#
# Compressibility (1/GPa) = 0.01938198
#
# Stress axis : x y z
#
# Youngs Moduli (GPa) = 82.52431 61.28242 45.99643
#
# Poissons Ratio (x) = 0.31468 0.05309
# Poissons Ratio (y) = 0.42376 0.41894
# Poissons Ratio (z) = 0.09525 0.55816
#
# Static dielectric constant tensor:
#      x y z
#    x 1.674710 0.000000 -0.001240 
#    y 0.000000 1.595660 0.000000 
#    z -0.001240 0.000000 1.656800 
# 
# From -- ./inp_files/321305.got.cif
#   From: 2010.05.17/outbox.cif.g08.bks.cpg/sg12_161_cif.got.tgz:321305.got - 2010.06.03 13:09:07.
