data_PCOD9201247
_publ_section_title
;
Structure prediction by ZEFSAII (Michael W. Deem and Ramdas Pophale) SiO2 
 PCOD9201247
Probable space group: C 2/M
;
_chemical_formula_sum "Si O2"
_cell_formula_units_Z 42
_cell_length_a 26.391097
_cell_length_b 9.782695
_cell_length_c 22.027377
_cell_angle_alpha 90.000000
_cell_angle_beta 160.251167
_cell_angle_gamma 90.000000
_cell_volume 1921.603503
_symmetry_space_group_name_H-M "C 2/M"
_symmetry_group_IT_number 12
_symmetry_cell_setting 'monoclinic'
loop_
_space_group_symop_operation_xyz
x,y,z
-x,y,-z
-x,-y,-z
x,-y,z
1/2+x,1/2+y,z
1/2-x,1/2+y,-z
1/2-x,1/2-y,-z
1/2+x,1/2-y,z
loop_
_atom_site_type_symbol
_atom_site_label
_atom_site_fract_x
_atom_site_fract_y
_atom_site_fract_z
Si Si1 0.000000 0.000000 0.500000
Si Si2 0.456673 0.500000 0.776468
Si Si3 0.340074 0.341292 0.843512
Si Si4 0.531427 0.000000 0.297911
Si Si5 0.605385 0.772611 0.668361
Si Si6 0.195242 0.500000 0.861798
Si Si7 0.253005 0.298832 0.614376
Si Si8 0.780718 0.500000 0.600786
O O1 0.965705 0.122454 0.410743
O O2 0.402414 0.370869 0.755499
O O3 0.350537 0.500000 0.597800
O O4 0.627302 0.500000 0.948755
O O5 0.356014 0.500000 0.880175
O O6 0.264352 0.260143 0.812344
O O7 0.239264 0.335811 0.669248
O O8 0.500000 0.289641 0.000000
O O9 0.620432 0.869258 0.426332
O O10 0.365825 0.000000 0.138448
O O11 0.565382 0.000000 0.265012
O O12 0.500000 0.848299 0.500000
O O13 0.630354 0.865703 0.754635
O O14 0.264621 0.138270 0.619612
#
# Coordination Sequence:
#
# PCOD9201247 Si02
#       8
#     2   4   8   4   8   4   8   4
#     4   8  24  36  52  76 132 166 188 218 292 350
#     4  10  20  38  61  87 115 147 201 261 297 330
#     4  11  20  34  60  96 122 146 197 248 287 349
#     4  10  20  37  61  90 110 149 214 250 278 348
#     4  10  21  37  58  86 129 163 194 231 286 367
#     4  12  21  35  65  96 113 156 204 250 294 338
#     4  10  20  38  62  85 114 162 194 241 297 358
#     4  10  22  43  62  81 119 158 203 248 304 350
#
# _framework density 21.856746000000001
#
# number of rings (size 3 to 8) (size 9 to 14) (size 15 to 20)
#    0.571    1.333    2.857    4.857    0.000    0.762 
#    0.000    8.571    0.000    0.000    0.000    0.000 
#    0.000    0.000    0.000    0.000    0.000    0.000 
#
# Total GULP energy -116982.845132 kJ/mol
# GULP energy per Si atom -5570.611673 kJ/mol
# Density = 2.180700 g / cm^3
# Si number density = 21.856746 Si / 1000 Ang^3
#
#
#
# Elastic Constant Matrix: (Units=GPa)
#
#
# Indices 1 2 3 4 5 6 
#
# 1 58.4104 11.0996 12.7861 -0.0001 20.9126 0.0001
# 2 11.0996 156.6955 9.0491 -0.0001 4.7897 0.0001
# 3 12.7861 9.0491 57.7863 -0.0001 25.1632 0.0001
# 4 -0.0001 -0.0001 -0.0001 -9.4471 -0.0001 10.7344
# 5 20.9126 4.7897 25.1632 -0.0001 34.9261 0.0001
# 6 0.0001 0.0001 0.0001 10.7344 0.0001 -49.5622
#
#
#
# Elastic Compliance Matrix: (Units=1/GPa)
#
#
# Indices 1 2 3 4 5 6 
#
# 1 0.022082 -0.001217 0.001442 0.000000 -0.014094 0.000000
# 2 -0.001217 0.006508 -0.000989 0.000000 0.000548 0.000000
# 3 0.001442 -0.000989 0.025439 0.000000 -0.019056 0.000000
# 4 0.000000 0.000000 0.000000 -0.140406 0.000000 -0.030410
# 5 -0.014094 0.000548 -0.019056 0.000000 0.050725 0.000000
# 6 0.000000 0.000000 0.000000 -0.030410 0.000000 -0.026763
#
#
# Mechanical properties :
#
#
# Convention : Reuss Voigt Hill
#
# Bulk Modulus (GPa) = 19.04701 37.64019 28.34360
# Shear Modulus (GPa) = -115.24021 11.18052 -52.02984
#
# Velocity S-wave (km/s) = -7.26909 2.26417 -4.88432
# Velocity P-wave (km/s) = 7.85618 4.90856 4.33737
#
# Compressibility (1/GPa) = 0.05250167
#
# Stress axis : x y z
#
# Youngs Moduli (GPa) = 45.28615 153.64940 39.31009
#
# Poissons Ratio (x) = 0.18693 -0.05668
# Poissons Ratio (y) = 0.05510 0.03887
# Poissons Ratio (z) = -0.06529 0.15192
#
# Static dielectric constant tensor:
#      x y z
#    x 1.829620 0.000000 0.024670 
#    y 0.000000 1.701770 0.000000 
#    z 0.024670 0.000000 1.905170 
# 
# From -- ./inp_files/351842.got.cif
#   From: 2010.05.17/outbox.cif.g08.bks.cpg/sg12_176_cif.got.tgz:351842.got - 2010.06.03 13:09:07.
