data_PCOD9201012
_publ_section_title
;
Structure prediction by ZEFSAII (Michael W. Deem and Ramdas Pophale) SiO2 
 PCOD9201012
Probable space group: C 2/M
;
_chemical_formula_sum "Si O2"
_cell_formula_units_Z 40
_cell_length_a 10.885065
_cell_length_b 26.958252
_cell_length_c 8.968047
_cell_angle_alpha 90.000000
_cell_angle_beta 40.624631
_cell_angle_gamma 90.000000
_cell_volume 1713.439211
_symmetry_space_group_name_H-M "C 2/M"
_symmetry_group_IT_number 12
_symmetry_cell_setting 'monoclinic'
loop_
_space_group_symop_operation_xyz
x,y,z
-x,y,-z
-x,-y,-z
x,-y,z
1/2+x,1/2+y,z
1/2-x,1/2+y,-z
1/2-x,1/2-y,-z
1/2+x,1/2-y,z
loop_
_atom_site_type_symbol
_atom_site_label
_atom_site_fract_x
_atom_site_fract_y
_atom_site_fract_z
Si Si1 0.576540 0.910043 0.073528
Si Si2 0.774944 0.777978 0.192674
Si Si3 0.718825 0.054906 0.246308
Si Si4 0.764416 0.139123 0.429444
Si Si5 0.842617 0.175459 0.815417
O O1 0.703471 0.936219 0.083199
O O2 0.403366 0.884926 0.322361
O O3 0.500000 0.939364 0.000000
O O4 0.706040 0.867092 0.885304
O O5 0.706349 0.810806 0.394424
O O6 0.677539 0.725547 0.259059
O O7 0.762064 0.809791 0.053479
O O8 0.000000 0.768880 0.000000
O O9 0.500000 0.055591 0.500000
O O10 0.813001 0.098536 0.255965
O O11 0.792231 0.000000 0.213013
O O12 0.948225 0.154346 0.353636
#
# Coordination Sequence:
#
# PCOD9201012 Si02
#       5
#     8   8   8   8   8
#     4  11  23  39  61  90 129 162 205 255 308 365
#     4   9  18  36  61  88 123 165 206 252 301 358
#     4   9  19  39  69  95 119 158 206 257 314 371
#     4  10  21  41  66  89 125 163 208 257 303 362
#     4  10  20  37  60  89 125 157 207 256 299 356
#
# _framework density 23.344861000000002
#
# number of rings (size 3 to 8) (size 9 to 14) (size 15 to 20)
#    0.000    2.200    2.000    0.600    0.000    1.200 
#    0.000   26.000    0.000    0.000    0.000    7.000 
#    0.000    0.000    0.000    0.000    0.000    0.000 
#
# Total GULP energy -111864.960159 kJ/mol
# GULP energy per Si atom -5593.248008 kJ/mol
# Density = 2.329173 g / cm^3
# Si number density = 23.344861 Si / 1000 Ang^3
#
#
#
# Elastic Constant Matrix: (Units=GPa)
#
#
# Indices 1 2 3 4 5 6 
#
# 1 111.7080 52.7893 20.0045 0.0000 10.7962 0.0000
# 2 52.7893 122.1038 11.7350 0.0000 3.0294 0.0000
# 3 20.0045 11.7350 80.9736 0.0000 0.1834 0.0000
# 4 0.0000 0.0000 0.0000 -14.9327 0.0000 25.1335
# 5 10.7962 3.0294 0.1834 0.0000 32.8721 0.0000
# 6 0.0000 0.0000 0.0000 25.1335 0.0000 -43.6753
#
#
#
# Elastic Compliance Matrix: (Units=1/GPa)
#
#
# Indices 1 2 3 4 5 6 
#
# 1 0.011999 -0.004885 -0.002249 0.000000 -0.003478 0.000000
# 2 -0.004885 0.010313 -0.000289 0.000000 0.000656 0.000000
# 3 -0.002249 -0.000289 0.012946 0.000000 0.000693 0.000000
# 4 0.000000 0.000000 0.000000 -2.130537 0.000000 -1.226043
# 5 -0.003478 0.000656 0.000693 0.000000 0.031499 0.000000
# 6 0.000000 0.000000 0.000000 -1.226043 0.000000 -0.728437
#
#
# Mechanical properties :
#
#
# Convention : Reuss Voigt Hill
#
# Bulk Modulus (GPa) = 48.99057 53.76031 51.37544
# Shear Modulus (GPa) = -1.80469 10.20326 4.19929
#
# Velocity S-wave (km/s) = -0.88019 2.09288 1.34265
# Velocity P-wave (km/s) = 4.47193 5.37763 4.94556
#
# Compressibility (1/GPa) = 0.02041209
#
# Stress axis : x y z
#
# Youngs Moduli (GPa) = 83.33779 96.96168 77.24663
#
# Poissons Ratio (x) = 0.47369 0.17369
# Poissons Ratio (y) = 0.40713 0.02234
# Poissons Ratio (z) = 0.18739 0.02804
#
# Static dielectric constant tensor:
#      x y z
#    x 1.910480 0.000000 0.013890 
#    y 0.000000 1.836070 0.000000 
#    z 0.013890 0.000000 1.913140 
# 
# From -- ./inp_files/54006.got.cif
#   From: 2010.05.17/outbox.cif.g08.bks.cpg/sg12_28_cif.got.tgz:54006.got - 2010.06.03 13:09:07.
