data_PCOD9201920
_publ_section_title
;
Structure prediction by ZEFSAII (Michael W. Deem and Ramdas Pophale) SiO2 
 PCOD9201920
Probable space group: C 2/M
;
_chemical_formula_sum "Si O2"
_cell_formula_units_Z 44
_cell_length_a 11.494560
_cell_length_b 18.065278
_cell_length_c 9.390370
_cell_angle_alpha 90.000000
_cell_angle_beta 69.125124
_cell_angle_gamma 90.000000
_cell_volume 1821.941051
_symmetry_space_group_name_H-M "C 2/M"
_symmetry_group_IT_number 12
_symmetry_cell_setting 'monoclinic'
loop_
_space_group_symop_operation_xyz
x,y,z
-x,y,-z
-x,-y,-z
x,-y,z
1/2+x,1/2+y,z
1/2-x,1/2+y,-z
1/2-x,1/2-y,-z
1/2+x,1/2-y,z
loop_
_atom_site_type_symbol
_atom_site_label
_atom_site_fract_x
_atom_site_fract_y
_atom_site_fract_z
Si Si1 0.205644 0.914420 0.096093
Si Si2 0.276799 0.703548 0.131341
Si Si3 0.000000 0.303510 0.000000
Si Si4 0.417078 0.089760 0.244923
Si Si5 0.952753 0.912225 0.367571
Si Si6 0.703362 0.175212 0.448324
O O1 0.299125 0.895287 0.187961
O O2 0.067097 0.900627 0.213261
O O3 0.228791 0.000000 0.065199
O O4 0.208308 0.876315 0.942462
O O5 0.174985 0.701328 0.299935
O O6 0.250000 0.750000 0.000000
O O7 0.403038 0.747063 0.117192
O O8 0.975603 0.363583 0.883394
O O9 0.385888 0.127465 0.410216
O O10 0.435674 0.000000 0.245040
O O11 0.826593 0.874482 0.376009
O O12 0.000000 0.883844 0.500000
O O13 0.929754 0.000000 0.392994
O O14 0.750000 0.250000 0.500000
#
# Coordination Sequence:
#
# PCOD9201920 Si02
#       6
#     8   8   4   8   8   8
#     4  10  21  40  66  96 131 174 214 269 343 401
#     4  12  25  44  65  98 138 174 225 283 339 402
#     4  12  23  44  69  98 136 182 226 268 339 410
#     4  11  23  43  70  98 132 178 228 274 331 405
#     4  10  20  37  66  99 130 165 214 274 331 393
#     4  12  23  41  63  96 131 173 225 274 336 394
#
# _framework density 24.150068000000001
#
# number of rings (size 3 to 8) (size 9 to 14) (size 15 to 20)
#    0.000    0.909    5.455    1.909    0.000    1.455 
#    0.000    3.182    0.000    1.091    0.000    0.000 
#    0.000    0.000    0.000    0.000    0.000    0.000 
#
# Total GULP energy -122780.395401 kJ/mol
# GULP energy per Si atom -5580.927064 kJ/mol
# Density = 2.409510 g / cm^3
# Si number density = 24.150068 Si / 1000 Ang^3
#
#
#
# Elastic Constant Matrix: (Units=GPa)
#
#
# Indices 1 2 3 4 5 6 
#
# 1 45.3175 -3.1373 20.9835 0.0000 -12.8962 0.0000
# 2 -3.1373 152.2913 19.5421 0.0000 21.3080 0.0000
# 3 20.9835 19.5421 220.8000 0.0000 -5.9637 0.0000
# 4 0.0000 0.0000 0.0000 50.3085 0.0000 1.1692
# 5 -12.8962 21.3080 -5.9637 0.0000 33.8162 0.0000
# 6 0.0000 0.0000 0.0000 1.1692 0.0000 22.3353
#
#
#
# Elastic Compliance Matrix: (Units=1/GPa)
#
#
# Indices 1 2 3 4 5 6 
#
# 1 0.025813 -0.000569 -0.002137 0.000000 0.009826 0.000000
# 2 -0.000569 0.007344 -0.000730 0.000000 -0.004973 0.000000
# 3 -0.002137 -0.000730 0.004810 0.000000 0.000493 0.000000
# 4 0.000000 0.000000 0.000000 0.019902 0.000000 -0.001042
# 5 0.009826 -0.004973 0.000493 0.000000 0.036539 0.000000
# 6 0.000000 0.000000 0.000000 -0.001042 0.000000 0.044827
#
#
# Mechanical properties :
#
#
# Convention : Reuss Voigt Hill
#
# Bulk Modulus (GPa) = 32.16007 54.79837 43.47922
# Shear Modulus (GPa) = 31.95448 46.69337 39.32392
#
# Velocity S-wave (km/s) = 3.64148 4.40189 4.03962
# Velocity P-wave (km/s) = 5.57011 6.96962 6.30879
#
# Compressibility (1/GPa) = 0.03109446
#
# Stress axis : x y z
#
# Youngs Moduli (GPa) = 38.74022 136.16168 207.89719
#
# Poissons Ratio (x) = 0.07744 0.44436
# Poissons Ratio (y) = 0.02203 0.15182
# Poissons Ratio (z) = 0.08280 0.09944
#
# Static dielectric constant tensor:
#      x y z
#    x 2.184340 0.000000 0.036970 
#    y 0.000000 2.754500 0.000000 
#    z 0.036970 0.000000 1.979390 
# 
# From -- ./inp_files/60972.got.cif
#   From: 2010.05.17/outbox.cif.g08.bks.cpg/sg12_31_cif.got.tgz:60972.got - 2010.06.03 13:09:07.
