data_PCOD9201477
_publ_section_title
;
Structure prediction by ZEFSAII (Michael W. Deem and Ramdas Pophale) SiO2 
 PCOD9201477
Probable space group: C 2/M
;
_chemical_formula_sum "Si O2"
_cell_formula_units_Z 44
_cell_length_a 15.022994
_cell_length_b 28.986851
_cell_length_c 11.824320
_cell_angle_alpha 90.000000
_cell_angle_beta 26.529118
_cell_angle_gamma 90.000000
_cell_volume 2299.871330
_symmetry_space_group_name_H-M "C 2/M"
_symmetry_group_IT_number 12
_symmetry_cell_setting 'monoclinic'
loop_
_space_group_symop_operation_xyz
x,y,z
-x,y,-z
-x,-y,-z
x,-y,z
1/2+x,1/2+y,z
1/2-x,1/2+y,-z
1/2-x,1/2-y,-z
1/2+x,1/2-y,z
loop_
_atom_site_type_symbol
_atom_site_label
_atom_site_fract_x
_atom_site_fract_y
_atom_site_fract_z
Si Si1 0.580235 0.616927 0.167287
Si Si2 0.336009 0.774021 0.088267
Si Si3 0.187216 0.857984 0.721411
Si Si4 0.910813 0.304346 0.755805
Si Si5 0.238311 0.552215 0.218152
Si Si6 0.000000 0.149434 0.500000
O O1 0.382733 0.633794 0.326387
O O2 0.533462 0.618047 0.352095
O O3 0.746306 0.655815 0.955168
O O4 0.670338 0.571827 0.003272
O O5 0.184366 0.733852 0.218360
O O6 0.192476 0.816558 0.288762
O O7 0.500000 0.765900 0.000000
O O8 0.442562 0.784752 0.846729
O O9 0.384460 0.828613 0.511766
O O10 0.209033 0.908511 0.751195
O O11 0.000000 0.836239 0.000000
O O12 0.307230 0.500000 0.158807
O O13 0.000000 0.551116 0.500000
#
# Coordination Sequence:
#
# PCOD9201477 Si02
#       6
#     8   8   8   8   8   4
#     4  10  21  37  59  86 118 158 190 239 290 350
#     4  10  22  38  60  79 113 161 201 244 287 339
#     4  10  21  35  60  88 117 152 187 239 299 346
#     4  10  21  39  55  85 118 150 201 245 288 341
#     4  10  20  37  62  90 117 147 184 237 295 349
#     4  10  22  38  57  86 118 152 207 240 280 340
#
# _framework density 19.131506000000002
#
# number of rings (size 3 to 8) (size 9 to 14) (size 15 to 20)
#    0.000    2.000    1.818    1.091    0.000    9.818 
#    0.000    5.909    0.000    5.455    0.000    2.545 
#    0.000    0.000    0.000    0.000    0.000    0.000 
#
# Total GULP energy -122754.814711 kJ/mol
# GULP energy per Si atom -5579.764305 kJ/mol
# Density = 1.908796 g / cm^3
# Si number density = 19.131506 Si / 1000 Ang^3
#
#
#
# Elastic Constant Matrix: (Units=GPa)
#
#
# Indices 1 2 3 4 5 6 
#
# 1 160.6285 61.5347 71.8602 -0.0548 -0.5035 0.0477
# 2 61.5347 101.0869 55.4367 -0.0335 -0.2881 0.0291
# 3 71.8602 55.4367 102.5203 -0.0891 3.2478 0.0743
# 4 -0.0548 -0.0335 -0.0891 76.3215 0.0804 -54.8534
# 5 -0.5035 -0.2881 3.2478 0.0804 32.0531 -0.0692
# 6 0.0477 0.0291 0.0743 -54.8534 -0.0692 65.1555
#
#
#
# Elastic Compliance Matrix: (Units=1/GPa)
#
#
# Indices 1 2 3 4 5 6 
#
# 1 0.009720 -0.003081 -0.005167 -0.000001 0.000649 0.000000
# 2 -0.003081 0.015065 -0.006009 -0.000003 0.000696 0.000001
# 3 -0.005167 -0.006009 0.016683 0.000012 -0.001826 -0.000005
# 4 -0.000001 -0.000003 0.000012 0.033177 -0.000024 0.027931
# 5 0.000649 0.000696 -0.001826 -0.000024 0.031400 0.000014
# 6 0.000000 0.000001 -0.000005 0.027931 0.000014 0.038863
#
#
# Mechanical properties :
#
#
# Convention : Reuss Voigt Hill
#
# Bulk Modulus (GPa) = 77.19801 82.43323 79.81562
# Shear Modulus (GPa) = 28.13102 46.39963 37.26532
#
# Velocity S-wave (km/s) = 3.83874 4.93008 4.41823
# Velocity P-wave (km/s) = 7.75157 8.69418 8.23637
#
# Compressibility (1/GPa) = 0.01295370
#
# Stress axis : x y z
#
# Youngs Moduli (GPa) = 102.88533 66.37815 59.94046
#
# Poissons Ratio (x) = 0.20451 0.30973
# Poissons Ratio (y) = 0.31698 0.36017
# Poissons Ratio (z) = 0.53165 0.39886
#
# Static dielectric constant tensor:
#      x y z
#    x 1.730600 -0.000010 -0.001550 
#    y -0.000010 1.667200 0.000010 
#    z -0.001550 0.000010 1.712910 
# 
# From -- ./inp_files/149402.got.cif
#   From: 2010.05.17/outbox.cif.g08.bks.cpg/sg12_75_cif.got.tgz:149402.got - 2010.06.03 13:09:07.
