data_PCOD9201983
_publ_section_title
;
Structure prediction by ZEFSAII (Michael W. Deem and Ramdas Pophale) SiO2 
 PCOD9201983
Probable space group: C 2/M
;
_chemical_formula_sum "Si O2"
_cell_formula_units_Z 44
_cell_length_a 8.914194
_cell_length_b 29.788185
_cell_length_c 7.748029
_cell_angle_alpha 90.000000
_cell_angle_beta 96.067133
_cell_angle_gamma 90.000000
_cell_volume 2045.869489
_symmetry_space_group_name_H-M "C 2/M"
_symmetry_group_IT_number 12
_symmetry_cell_setting 'monoclinic'
loop_
_space_group_symop_operation_xyz
x,y,z
-x,y,-z
-x,-y,-z
x,-y,z
1/2+x,1/2+y,z
1/2-x,1/2+y,-z
1/2-x,1/2-y,-z
1/2+x,1/2-y,z
loop_
_atom_site_type_symbol
_atom_site_label
_atom_site_fract_x
_atom_site_fract_y
_atom_site_fract_z
Si Si1 0.826621 0.711019 0.233434
Si Si2 0.326075 0.689139 0.154726
Si Si3 0.346423 0.548955 0.603898
Si Si4 0.445117 0.860357 0.801516
Si Si5 0.500000 0.926634 0.500000
Si Si6 0.402541 0.648404 0.661899
O O1 0.824847 0.763888 0.258059
O O2 0.742084 0.680577 0.363012
O O3 0.990529 0.689196 0.233781
O O4 0.750456 0.700547 0.037561
O O5 0.232052 0.647519 0.219677
O O6 0.494273 0.671523 0.182503
O O7 0.500000 0.549284 0.500000
O O8 0.356254 0.500000 0.694781
O O9 0.361597 0.597066 0.699324
O O10 0.169518 0.550654 0.513664
O O11 0.499537 0.895735 0.669719
O O12 0.500000 0.872733 0.000000
O O13 0.500000 0.649811 0.500000
#
# Coordination Sequence:
#
# PCOD9201983 Si02
#       6
#     8   8   8   8   4   8
#     4  10  20  38  55  82 120 165 210 249 308 387
#     4  10  21  36  58  81 120 169 205 250 318 375
#     4  10  22  40  66  95 123 162 215 262 320 395
#     4  10  21  36  57  88 120 162 211 260 308 382
#     4  12  21  42  68  92 126 168 206 262 337 380
#     4  11  21  36  56  90 120 154 202 261 311 372
#
# _framework density 21.506747000000001
#
# number of rings (size 3 to 8) (size 9 to 14) (size 15 to 20)
#    0.000    1.636    1.818    4.091    0.000    3.636 
#    3.273    0.000    0.000    4.364    0.000    0.000 
#    0.000    0.000    0.000    0.000    0.000    0.000 
#
# Total GULP energy -122495.112927 kJ/mol
# GULP energy per Si atom -5567.959679 kJ/mol
# Density = 2.145780 g / cm^3
# Si number density = 21.506747 Si / 1000 Ang^3
#
#
#
# Elastic Constant Matrix: (Units=GPa)
#
#
# Indices 1 2 3 4 5 6 
#
# 1 114.0424 18.3825 3.7119 0.0000 1.1636 0.0000
# 2 18.3825 144.9714 25.1114 0.0000 -4.0594 0.0000
# 3 3.7119 25.1114 56.9819 0.0000 -10.3008 0.0000
# 4 0.0000 0.0000 0.0000 0.5457 0.0000 28.0433
# 5 1.1636 -4.0594 -10.3008 0.0000 28.6321 0.0000
# 6 0.0000 0.0000 0.0000 28.0433 0.0000 -13.3926
#
#
#
# Elastic Compliance Matrix: (Units=1/GPa)
#
#
# Indices 1 2 3 4 5 6 
#
# 1 0.008961 -0.001119 -0.000198 0.000000 -0.000594 0.000000
# 2 -0.001119 0.007608 -0.003291 0.000000 -0.000060 0.000000
# 3 -0.000198 -0.003291 0.020246 0.000000 0.006825 0.000000
# 4 0.000000 0.000000 0.000000 0.016873 0.000000 0.035331
# 5 -0.000594 -0.000060 0.006825 0.000000 0.037397 0.000000
# 6 0.000000 0.000000 0.000000 0.035331 0.000000 -0.000687
#
#
# Mechanical properties :
#
#
# Convention : Reuss Voigt Hill
#
# Bulk Modulus (GPa) = 36.23077 45.60081 40.91579
# Shear Modulus (GPa) = 45.95002 21.07638 33.51320
#
# Velocity S-wave (km/s) = 4.62729 3.13387 3.95177
# Velocity P-wave (km/s) = 6.74031 5.86037 6.31569
#
# Compressibility (1/GPa) = 0.02760085
#
# Stress axis : x y z
#
# Youngs Moduli (GPa) = 111.58857 131.43904 49.39147
#
# Poissons Ratio (x) = 0.14703 0.00979
# Poissons Ratio (y) = 0.12483 0.16253
# Poissons Ratio (z) = 0.02212 0.43253
#
# Static dielectric constant tensor:
#      x y z
#    x 1.489910 0.000000 -0.229380 
#    y 0.000000 1.739710 0.000000 
#    z -0.229380 0.000000 1.683440 
# 
# From -- ./inp_files/41748.got.cif
#   From: 2010.05.17/outbox.cif.g08.bks.cpg/sg12_21_cif.got.tgz:41748.got - 2010.06.03 13:09:07.
