data_PCOD9201967
_publ_section_title
;
Structure prediction by ZEFSAII (Michael W. Deem and Ramdas Pophale) SiO2 
 PCOD9201967
Probable space group: C 2/M
;
_chemical_formula_sum "Si O2"
_cell_formula_units_Z 64
_cell_length_a 15.803498
_cell_length_b 27.571043
_cell_length_c 9.168281
_cell_angle_alpha 90.000000
_cell_angle_beta 59.668366
_cell_angle_gamma 90.000000
_cell_volume 3447.973643
_symmetry_space_group_name_H-M "C 2/M"
_symmetry_group_IT_number 12
_symmetry_cell_setting 'monoclinic'
loop_
_space_group_symop_operation_xyz
x,y,z
-x,y,-z
-x,-y,-z
x,-y,z
1/2+x,1/2+y,z
1/2-x,1/2+y,-z
1/2-x,1/2-y,-z
1/2+x,1/2-y,z
loop_
_atom_site_type_symbol
_atom_site_label
_atom_site_fract_x
_atom_site_fract_y
_atom_site_fract_z
Si Si1 0.142545 0.443931 0.512159
Si Si2 0.241596 0.789432 0.759456
Si Si3 0.743601 0.152528 0.535335
Si Si4 0.464185 0.197445 0.194657
Si Si5 0.344058 0.150989 0.897267
Si Si6 0.452220 0.700221 0.900119
Si Si7 0.824006 0.813790 0.745475
Si Si8 0.417564 0.945622 0.777004
O O1 0.174464 0.500000 0.512830
O O2 0.214145 0.400982 0.503080
O O3 0.118417 0.441045 0.359936
O O4 0.034715 0.437470 0.678437
O O5 0.219262 0.810244 0.620484
O O6 0.289933 0.835642 0.795950
O O7 0.312428 0.742780 0.708147
O O8 0.146729 0.777725 0.940302
O O9 0.641950 0.177308 0.678374
O O10 0.818873 0.154246 0.604487
O O11 0.548313 0.173050 0.216941
O O12 0.477651 0.254956 0.199555
O O13 0.500000 0.185271 0.000000
O O14 0.359913 0.094879 0.914559
O O15 0.275654 0.174346 0.078893
O O16 0.412099 0.677824 0.784351
O O17 0.500000 0.673050 0.000000
O O18 0.398073 0.000000 0.843413
#
# Coordination Sequence:
#
# PCOD9201967 Si02
#       8
#     8   8   8   8   8   8   8   8
#     4   9  18  31  47  73 109 143 175 214 255 300
#     4  11  21  35  50  77 103 136 184 226 250 299
#     4  12  22  32  54  79 109 142 182 216 252 308
#     4  11  19  32  50  72 103 147 182 200 253 312
#     4  11  17  32  53  70 104 143 182 210 249 306
#     4  10  20  38  54  67  97 144 179 216 269 317
#     4  11  21  34  49  74 106 134 175 228 260 301
#     4   9  17  30  49  75 105 140 185 220 241 292
#
# _framework density 18.561626
#
# number of rings (size 3 to 8) (size 9 to 14) (size 15 to 20)
#    0.000    1.500    6.250    2.625    0.000    0.500 
#    0.000    2.500    0.000    2.250    0.000    0.000 
#    0.000   19.000    0.000    0.000    0.000    0.125 
#
# Total GULP energy -178309.495505 kJ/mol
# GULP energy per Si atom -5572.171735 kJ/mol
# Density = 1.851938 g / cm^3
# Si number density = 18.561626 Si / 1000 Ang^3
#
#
#
# Elastic Constant Matrix: (Units=GPa)
#
#
# Indices 1 2 3 4 5 6 
#
# 1 82.3156 28.3171 8.7124 0.0000 27.5763 0.0000
# 2 28.3171 107.2129 18.7894 0.0000 2.4548 0.0000
# 3 8.7124 18.7894 36.8984 0.0000 11.1518 0.0000
# 4 0.0000 0.0000 0.0000 19.2660 0.0000 -3.7363
# 5 27.5763 2.4548 11.1518 0.0000 27.0549 0.0000
# 6 0.0000 0.0000 0.0000 -3.7363 0.0000 19.3872
#
#
#
# Elastic Compliance Matrix: (Units=1/GPa)
#
#
# Indices 1 2 3 4 5 6 
#
# 1 0.021581 -0.006056 0.005106 0.000000 -0.023552 0.000000
# 2 -0.006056 0.011987 -0.007095 0.000000 0.008009 0.000000
# 3 0.005106 -0.007095 0.035282 0.000000 -0.019104 0.000000
# 4 0.000000 0.000000 0.000000 0.053920 0.000000 0.010391
# 5 -0.023552 0.008009 -0.019104 0.000000 0.068116 0.000000
# 6 0.000000 0.000000 0.000000 0.010391 0.000000 0.053583
#
#
# Mechanical properties :
#
#
# Convention : Reuss Voigt Hill
#
# Bulk Modulus (GPa) = 18.95302 37.56274 28.25788
# Shear Modulus (GPa) = 17.97626 24.51549 21.24588
#
# Velocity S-wave (km/s) = 3.11539 3.63817 3.38688
# Velocity P-wave (km/s) = 4.81393 6.15866 5.52734
#
# Compressibility (1/GPa) = 0.05276205
#
# Stress axis : x y z
#
# Youngs Moduli (GPa) = 46.33637 83.42639 28.34288
#
# Poissons Ratio (x) = 0.50520 -0.14472
# Poissons Ratio (y) = 0.28060 0.20108
# Poissons Ratio (z) = -0.23660 0.59187
#
# Static dielectric constant tensor:
#      x y z
#    x 1.722720 0.000000 0.043460 
#    y 0.000000 1.646790 0.000000 
#    z 0.043460 0.000000 1.673380 
# 
# From -- ./inp_files/68222.got.cif
#   From: 2010.05.17/outbox.cif.g08.bks.cpg/sg12_35_cif.got.tgz:68222.got - 2010.06.03 13:09:07.
