data_PCOD9201867
_publ_section_title
;
Structure prediction by ZEFSAII (Michael W. Deem and Ramdas Pophale) SiO2 
 PCOD9201867
Probable space group: C 2/M
;
_chemical_formula_sum "Si O2"
_cell_formula_units_Z 48
_cell_length_a 14.377155
_cell_length_b 28.621768
_cell_length_c 9.458792
_cell_angle_alpha 90.000000
_cell_angle_beta 147.819631
_cell_angle_gamma 90.000000
_cell_volume 2072.979905
_symmetry_space_group_name_H-M "C 2/M"
_symmetry_group_IT_number 12
_symmetry_cell_setting 'monoclinic'
loop_
_space_group_symop_operation_xyz
x,y,z
-x,y,-z
-x,-y,-z
x,-y,z
1/2+x,1/2+y,z
1/2-x,1/2+y,-z
1/2-x,1/2-y,-z
1/2+x,1/2-y,z
loop_
_atom_site_type_symbol
_atom_site_label
_atom_site_fract_x
_atom_site_fract_y
_atom_site_fract_z
Si Si1 0.792361 0.053375 0.726759
Si Si2 0.849470 0.145779 0.979085
Si Si3 0.793913 0.447810 0.707764
Si Si4 0.231870 0.820119 0.546008
Si Si5 0.140897 0.280762 0.556129
Si Si6 0.800412 0.867098 0.229663
O O1 0.775529 0.099795 0.803246
O O2 0.733307 0.065877 0.491443
O O3 0.721103 0.000000 0.669703
O O4 0.000000 0.047740 0.000000
O O5 0.802643 0.194162 0.842252
O O6 0.758110 0.142497 0.014552
O O7 0.059654 0.150510 0.272416
O O8 0.723650 0.500000 0.623263
O O9 0.704783 0.419604 0.719868
O O10 0.000000 0.447269 0.000000
O O11 0.167913 0.769969 0.523385
O O12 0.368951 0.812970 0.596680
O O13 0.305691 0.843327 0.781670
O O14 0.000000 0.279546 0.500000
O O15 0.000000 0.849582 0.500000
#
# Coordination Sequence:
#
# PCOD9201867 Si02
#       6
#     8   8   8   8   8   8
#     4  10  20  37  65  95 125 171 224 267 315 381
#     4  11  22  39  63  92 128 166 214 273 320 374
#     4  10  22  40  61  90 132 174 212 268 337 391
#     4  10  23  42  61  87 128 167 207 270 326 372
#     4  11  23  39  62  89 119 162 213 254 316 391
#     4  10  21  37  61  89 122 169 221 268 318 382
#
# _framework density 23.155072000000001
#
# number of rings (size 3 to 8) (size 9 to 14) (size 15 to 20)
#    0.000    1.667    0.000    6.000    0.000    6.333 
#    0.000    3.333    0.000    3.500    0.000    0.000 
#    0.000    0.000    0.000    0.000    0.000    0.000 
#
# Total GULP energy -133701.297498 kJ/mol
# GULP energy per Si atom -5570.887396 kJ/mol
# Density = 2.310237 g / cm^3
# Si number density = 23.155072 Si / 1000 Ang^3
#
#
#
# Elastic Constant Matrix: (Units=GPa)
#
#
# Indices 1 2 3 4 5 6 
#
# 1 145.3087 33.3309 28.2173 0.0000 -25.2647 0.0000
# 2 33.3309 109.6391 32.1104 0.0000 -14.7547 0.0000
# 3 28.2173 32.1104 102.2898 0.0000 -27.3370 0.0000
# 4 0.0000 0.0000 0.0000 19.2051 0.0000 -2.8441
# 5 -25.2647 -14.7547 -27.3370 0.0000 34.5379 0.0000
# 6 0.0000 0.0000 0.0000 -2.8441 0.0000 32.6845
#
#
#
# Elastic Compliance Matrix: (Units=1/GPa)
#
#
# Indices 1 2 3 4 5 6 
#
# 1 0.008215 -0.001712 -0.000404 0.000000 0.004959 0.000000
# 2 -0.001712 0.010544 -0.002497 0.000000 0.001276 0.000000
# 3 -0.000404 -0.002497 0.013073 0.000000 0.008985 0.000000
# 4 0.000000 0.000000 0.000000 0.052749 0.000000 0.004590
# 5 0.004959 0.001276 0.008985 0.000000 0.040238 0.000000
# 6 0.000000 0.000000 0.000000 0.004590 0.000000 0.030995
#
#
# Mechanical properties :
#
#
# Convention : Reuss Voigt Hill
#
# Bulk Modulus (GPa) = 44.23337 60.50608 52.36973
# Shear Modulus (GPa) = 28.97303 34.85744 31.91524
#
# Velocity S-wave (km/s) = 3.54115 3.88415 3.71661
# Velocity P-wave (km/s) = 5.98868 6.80463 6.40965
#
# Compressibility (1/GPa) = 0.02260737
#
# Stress axis : x y z
#
# Youngs Moduli (GPa) = 121.72699 94.83868 76.49631
#
# Poissons Ratio (x) = 0.16236 0.03087
# Poissons Ratio (y) = 0.20839 0.19099
# Poissons Ratio (z) = 0.04913 0.23679
#
# Static dielectric constant tensor:
#      x y z
#    x 1.902370 0.000000 0.005240 
#    y 0.000000 2.060360 0.000000 
#    z 0.005240 0.000000 1.894160 
# 
# From -- ./inp_files/68398.got.cif
#   From: 2010.05.17/outbox.cif.g08.bks.cpg/sg12_35_cif.got.tgz:68398.got - 2010.06.03 13:09:07.
