data_PCOD9201326
_publ_section_title
;
Structure prediction by ZEFSAII (Michael W. Deem and Ramdas Pophale) SiO2 
 PCOD9201326
Probable space group: C 2/M
;
_chemical_formula_sum "Si O2"
_cell_formula_units_Z 56
_cell_length_a 9.043484
_cell_length_b 12.877793
_cell_length_c 26.807170
_cell_angle_alpha 90.000000
_cell_angle_beta 121.122660
_cell_angle_gamma 90.000000
_cell_volume 2672.598832
_symmetry_space_group_name_H-M "C 2/M"
_symmetry_group_IT_number 12
_symmetry_cell_setting 'monoclinic'
loop_
_space_group_symop_operation_xyz
x,y,z
-x,y,-z
-x,-y,-z
x,-y,z
1/2+x,1/2+y,z
1/2-x,1/2+y,-z
1/2-x,1/2-y,-z
1/2+x,1/2-y,z
loop_
_atom_site_type_symbol
_atom_site_label
_atom_site_fract_x
_atom_site_fract_y
_atom_site_fract_z
Si Si1 0.737151 0.196004 0.153948
Si Si2 0.037445 0.121628 0.065883
Si Si3 0.880058 0.119674 0.555044
Si Si4 0.253033 0.321991 0.423416
Si Si5 0.052234 0.380540 0.698773
Si Si6 0.109586 0.742044 0.237992
Si Si7 0.320319 0.115023 0.954832
O O1 0.683524 0.304144 0.115709
O O2 0.648787 0.189207 0.191898
O O3 0.680879 0.111736 0.104551
O O4 0.940630 0.189125 0.198598
O O5 0.858293 0.162973 0.058735
O O6 0.066697 0.000000 0.085553
O O7 0.000000 0.119930 0.000000
O O8 0.784317 0.199758 0.574801
O O9 0.793388 0.132241 0.485241
O O10 0.078591 0.155015 0.580698
O O11 0.874217 0.000000 0.569696
O O12 0.082867 0.370393 0.369873
O O13 0.100883 0.500000 0.715089
O O14 0.221523 0.309895 0.720024
O O15 0.948821 0.335346 0.728569
O O16 0.321613 0.000000 0.978142
O O17 0.500000 0.166992 0.000000
#
# Coordination Sequence:
#
# PCOD9201326 Si02
#       7
#     8   8   8   8   8   8   8
#     4  11  21  40  61  83 118 154 193 257 307 360
#     4  10  22  38  60  88 116 153 196 240 307 384
#     4  10  20  37  61  96 136 167 206 263 319 375
#     4  10  20  37  64  94 127 172 217 254 313 393
#     4  11  23  44  66  87 126 168 209 267 316 359
#     4  10  25  40  60  92 114 154 224 259 299 376
#     4  10  22  37  56  85 118 149 186 237 303 376
#
# _framework density 20.953389000000001
#
# number of rings (size 3 to 8) (size 9 to 14) (size 15 to 20)
#    0.000    1.714    1.429    3.000    2.000    4.571 
#    0.000   11.429    0.000    0.000    0.000    0.000 
#    0.000    0.000    0.000    0.000    0.000    0.000 
#
# Total GULP energy -156282.894565 kJ/mol
# GULP energy per Si atom -5581.531949 kJ/mol
# Density = 2.090570 g / cm^3
# Si number density = 20.953389 Si / 1000 Ang^3
#
#
#
# Elastic Constant Matrix: (Units=GPa)
#
#
# Indices 1 2 3 4 5 6 
#
# 1 79.8540 25.8377 19.6682 0.0000 19.2287 0.0000
# 2 25.8377 123.3566 3.7921 0.0000 5.1365 0.0000
# 3 19.6682 3.7921 61.1044 0.0000 25.0017 0.0000
# 4 0.0000 0.0000 0.0000 62.2305 0.0000 6.6992
# 5 19.2287 5.1365 25.0017 0.0000 24.7787 0.0000
# 6 0.0000 0.0000 0.0000 6.6992 0.0000 16.7607
#
#
#
# Elastic Compliance Matrix: (Units=1/GPa)
#
#
# Indices 1 2 3 4 5 6 
#
# 1 0.016388 -0.002931 -0.000235 0.000000 -0.011872 0.000000
# 2 -0.002931 0.008705 0.000359 0.000000 0.000108 0.000000
# 3 -0.000235 0.000359 0.027888 0.000000 -0.028031 0.000000
# 4 0.000000 0.000000 0.000000 0.016792 0.000000 -0.006712
# 5 -0.011872 0.000108 -0.028031 0.000000 0.077831 0.000000
# 6 0.000000 0.000000 0.000000 -0.006712 0.000000 0.062346
#
#
# Mechanical properties :
#
#
# Convention : Reuss Voigt Hill
#
# Bulk Modulus (GPa) = 21.11177 40.32345 30.71761
# Shear Modulus (GPa) = 21.61194 35.08844 28.35019
#
# Velocity S-wave (km/s) = 3.21507 4.09662 3.68232
# Velocity P-wave (km/s) = 4.88669 6.45465 5.72461
#
# Compressibility (1/GPa) = 0.04736693
#
# Stress axis : x y z
#
# Youngs Moduli (GPa) = 61.02020 114.87698 35.85756
#
# Poissons Ratio (x) = 0.33670 0.00844
# Poissons Ratio (y) = 0.17885 -0.01288
# Poissons Ratio (z) = 0.01436 -0.04126
#
# Static dielectric constant tensor:
#      x y z
#    x 1.767600 0.000000 -0.004080 
#    y 0.000000 1.765630 0.000000 
#    z -0.004080 0.000000 1.760850 
# 
# From -- ./inp_files/356197.got.cif
#   From: 2010.05.17/outbox.cif.g08.bks.cpg/sg12_179_cif.got.tgz:356197.got - 2010.06.03 13:09:07.
