data_PCOD9201039
_publ_section_title
;
Structure prediction by ZEFSAII (Michael W. Deem and Ramdas Pophale) SiO2 
 PCOD9201039
Probable space group: C 2/M
;
_chemical_formula_sum "Si O2"
_cell_formula_units_Z 40
_cell_length_a 13.206818
_cell_length_b 20.790731
_cell_length_c 6.154719
_cell_angle_alpha 90.000000
_cell_angle_beta 99.261908
_cell_angle_gamma 90.000000
_cell_volume 1667.926951
_symmetry_space_group_name_H-M "C 2/M"
_symmetry_group_IT_number 12
_symmetry_cell_setting 'monoclinic'
loop_
_space_group_symop_operation_xyz
x,y,z
-x,y,-z
-x,-y,-z
x,-y,z
1/2+x,1/2+y,z
1/2-x,1/2+y,-z
1/2-x,1/2-y,-z
1/2+x,1/2-y,z
loop_
_atom_site_type_symbol
_atom_site_label
_atom_site_fract_x
_atom_site_fract_y
_atom_site_fract_z
Si Si1 0.660294 0.500000 0.242123
Si Si2 0.500000 0.685035 0.000000
Si Si3 0.668488 0.500000 0.758513
Si Si4 0.806227 0.856907 0.711464
Si Si5 0.682669 0.885566 0.284104
Si Si6 0.500000 0.115403 0.500000
Si Si7 0.871259 0.701859 0.124122
O O1 0.620664 0.500000 0.490009
O O2 0.720569 0.432304 0.261784
O O3 0.610736 0.500000 0.975324
O O4 0.425493 0.646658 0.812951
O O5 0.572421 0.731023 0.882727
O O6 0.743702 0.438785 0.791430
O O7 0.762770 0.844913 0.458065
O O8 0.745183 0.805722 0.834945
O O9 0.588829 0.917334 0.387453
O O10 0.629399 0.837108 0.100584
O O11 0.434210 0.160500 0.319577
#
# Coordination Sequence:
#
# PCOD9201039 Si02
#       7
#     4   4   4   8   8   4   8
#     4  10  20  43  70  98 132 172 228 277 340 400
#     4  12  24  43  62  97 132 172 222 272 330 404
#     4  10  20  37  69  98 129 176 226 278 337 401
#     4  10  24  41  67  94 129 172 219 276 335 393
#     4  10  20  39  64  89 129 172 218 271 337 390
#     4  10  20  37  60  92 130 171 216 276 328 402
#     4  11  21  42  62  91 128 173 216 272 328 398
#
# _framework density 23.981863000000001
#
# number of rings (size 3 to 8) (size 9 to 14) (size 15 to 20)
#    0.000    1.600    4.000    0.600    0.000    1.600 
#    3.600    3.000    0.000    2.400    0.000    0.000 
#    0.000    0.000    0.000    0.000    0.000    0.000 
#
# Total GULP energy -111393.510827 kJ/mol
# GULP energy per Si atom -5569.675541 kJ/mol
# Density = 2.392728 g / cm^3
# Si number density = 23.981863 Si / 1000 Ang^3
#
#
#
# Elastic Constant Matrix: (Units=GPa)
#
#
# Indices 1 2 3 4 5 6 
#
# 1 105.8926 8.7044 41.0212 0.0000 27.4055 0.0000
# 2 8.7044 55.5227 9.1447 0.0000 10.5631 0.0000
# 3 41.0212 9.1447 157.8290 0.0000 13.0767 0.0000
# 4 0.0000 0.0000 0.0000 17.5499 0.0000 2.1940
# 5 27.4055 10.5631 13.0767 0.0000 29.3010 0.0000
# 6 0.0000 0.0000 0.0000 2.1940 0.0000 -7.6524
#
#
#
# Elastic Compliance Matrix: (Units=1/GPa)
#
#
# Indices 1 2 3 4 5 6 
#
# 1 0.013382 0.000523 -0.002550 0.000000 -0.011567 0.000000
# 2 0.000523 0.019406 -0.000665 0.000000 -0.007188 0.000000
# 3 -0.002550 -0.000665 0.007082 0.000000 -0.000536 0.000000
# 4 0.000000 0.000000 0.000000 0.055009 0.000000 0.015772
# 5 -0.011567 -0.007188 -0.000536 0.000000 0.047777 0.000000
# 6 0.000000 0.000000 0.000000 0.015772 0.000000 -0.126156
#
#
# Mechanical properties :
#
#
# Convention : Reuss Voigt Hill
#
# Bulk Modulus (GPa) = 28.99803 48.55386 38.77595
# Shear Modulus (GPa) = 149.79744 25.19796 87.49770
#
# Velocity S-wave (km/s) = 7.91192 3.24498 6.04683
# Velocity P-wave (km/s) = 9.77663 5.85917 8.05954
#
# Compressibility (1/GPa) = 0.03448510
#
# Stress axis : x y z
#
# Youngs Moduli (GPa) = 74.72784 51.53125 141.21007
#
# Poissons Ratio (x) = -0.02693 0.36009
# Poissons Ratio (y) = -0.03905 0.09386
# Poissons Ratio (z) = 0.19056 0.03425
#
# Static dielectric constant tensor:
#      x y z
#    x 1.971410 0.000000 -0.060030 
#    y 0.000000 1.883730 0.000000 
#    z -0.060030 0.000000 2.020020 
# 
# From -- ./inp_files/11569.got.cif
#   From: 2010.05.17/outbox.cif.g08.bks.cpg/sg12_6_cif.got.tgz:11569.got - 2010.06.03 13:09:07.
