data_PCOD9201299
_publ_section_title
;
Structure prediction by ZEFSAII (Michael W. Deem and Ramdas Pophale) SiO2 
 PCOD9201299
Probable space group: C 2/M
;
_chemical_formula_sum "Si O2"
_cell_formula_units_Z 56
_cell_length_a 5.233045
_cell_length_b 16.319168
_cell_length_c 34.512025
_cell_angle_alpha 90.000000
_cell_angle_beta 56.017917
_cell_angle_gamma 90.000000
_cell_volume 2443.929714
_symmetry_space_group_name_H-M "C 2/M"
_symmetry_group_IT_number 12
_symmetry_cell_setting 'monoclinic'
loop_
_space_group_symop_operation_xyz
x,y,z
-x,y,-z
-x,-y,-z
x,-y,z
1/2+x,1/2+y,z
1/2-x,1/2+y,-z
1/2-x,1/2-y,-z
1/2+x,1/2-y,z
loop_
_atom_site_type_symbol
_atom_site_label
_atom_site_fract_x
_atom_site_fract_y
_atom_site_fract_z
Si Si1 0.500157 0.593385 0.613050
Si Si2 0.674542 0.656825 0.520402
Si Si3 0.658867 0.093593 0.287011
Si Si4 0.694305 0.693668 0.659905
Si Si5 0.653622 0.695678 0.948060
Si Si6 0.821721 0.400181 0.801467
Si Si7 0.882931 0.598676 0.144269
O O1 0.559894 0.500000 0.596419
O O2 0.498036 0.651495 0.575752
O O3 0.758639 0.626063 0.621228
O O4 0.172426 0.593247 0.663259
O O5 0.500000 0.616594 0.500000
O O6 0.750000 0.750000 0.500000
O O7 0.000000 0.615815 0.500000
O O8 0.894296 0.141398 0.294693
O O9 0.616015 0.128454 0.247740
O O10 0.767668 0.000000 0.274622
O O11 0.950163 0.751474 0.657405
O O12 0.382474 0.733413 0.944703
O O13 0.863074 0.634553 0.905903
O O14 0.500000 0.659145 0.000000
O O15 0.846349 0.500000 0.798492
O O16 0.033480 0.372464 0.819107
O O17 0.463107 0.378083 0.838790
O O18 0.895776 0.500000 0.143083
#
# Coordination Sequence:
#
# PCOD9201299 Si02
#       7
#     8   8   8   8   8   8   8
#     4  11  26  46  74 106 136 173 223 272 323 395
#     4  10  25  44  69  98 129 171 213 254 326 392
#     4  10  23  45  71  99 134 176 224 273 324 394
#     4  12  26  43  67  96 136 175 215 263 326 383
#     4  10  21  38  60  88 122 170 220 267 333 396
#     4   9  20  37  63  92 126 170 215 262 325 390
#     4  10  20  37  61  92 126 168 219 270 324 384
#
# _framework density 22.913917999999999
#
# number of rings (size 3 to 8) (size 9 to 14) (size 15 to 20)
#    0.000    1.714    1.429    1.286    8.000    0.857 
#    0.000    4.286    0.000    5.143    0.000    0.000 
#    0.000    0.000    0.000    0.000    0.000    0.000 
#
# Total GULP energy -156392.597646 kJ/mol
# GULP energy per Si atom -5585.449916 kJ/mol
# Density = 2.286176 g / cm^3
# Si number density = 22.913918 Si / 1000 Ang^3
#
#
#
# Elastic Constant Matrix: (Units=GPa)
#
#
# Indices 1 2 3 4 5 6 
#
# 1 120.9620 7.5546 10.6641 -0.0009 20.7525 0.0001
# 2 7.5546 56.2142 16.0101 0.0001 7.4245 -0.0011
# 3 10.6641 16.0101 118.5250 -0.0004 7.0787 0.0018
# 4 -0.0009 0.0001 -0.0004 25.3465 0.0008 17.9485
# 5 20.7525 7.4245 7.0787 0.0008 37.3934 -0.0018
# 6 0.0001 -0.0011 0.0018 17.9485 -0.0018 -2.0177
#
#
#
# Elastic Compliance Matrix: (Units=1/GPa)
#
#
# Indices 1 2 3 4 5 6 
#
# 1 0.009180 -0.000450 -0.000472 0.000000 -0.004916 0.000001
# 2 -0.000450 0.018919 -0.002332 0.000001 -0.003065 -0.000001
# 3 -0.000472 -0.002332 0.008851 -0.000001 -0.000951 0.000002
# 4 0.000000 0.000001 -0.000001 0.005405 0.000002 0.048082
# 5 -0.004916 -0.003065 -0.000951 0.000002 0.030260 -0.000005
# 6 0.000001 -0.000001 0.000002 0.048082 -0.000005 -0.067900
#
#
# Mechanical properties :
#
#
# Convention : Reuss Voigt Hill
#
# Bulk Modulus (GPa) = 32.84854 40.46209 36.65531
# Shear Modulus (GPa) = 233.98044 29.57595 131.77819
#
# Velocity S-wave (km/s) = 10.11605 3.59659 7.59177
# Velocity P-wave (km/s) = 12.28058 5.91134 9.63734
#
# Compressibility (1/GPa) = 0.03044276
#
# Stress axis : x y z
#
# Youngs Moduli (GPa) = 108.93050 52.85818 112.97841
#
# Poissons Ratio (x) = 0.02379 0.05328
# Poissons Ratio (y) = 0.04903 0.26346
# Poissons Ratio (z) = 0.05137 0.12326
#
# Static dielectric constant tensor:
#      x y z
#    x 1.913510 0.000000 -0.036830 
#    y 0.000000 1.898500 0.000000 
#    z -0.036830 0.000000 1.883210 
# 
# From -- ./inp_files/371590.got.cif
#   From: 2010.05.17/outbox.cif.g08.bks.cpg/sg12_186_cif.got.tgz:371590.got - 2010.06.03 13:09:07.
