data_PCOD9201808
_publ_section_title
;
Structure prediction by ZEFSAII (Michael W. Deem and Ramdas Pophale) SiO2 
 PCOD9201808
Probable space group: C 2/M
;
_chemical_formula_sum "Si O2"
_cell_formula_units_Z 60
_cell_length_a 7.384875
_cell_length_b 31.544621
_cell_length_c 13.527620
_cell_angle_alpha 90.000000
_cell_angle_beta 69.482126
_cell_angle_gamma 90.000000
_cell_volume 2951.391379
_symmetry_space_group_name_H-M "C 2/M"
_symmetry_group_IT_number 12
_symmetry_cell_setting 'monoclinic'
loop_
_space_group_symop_operation_xyz
x,y,z
-x,y,-z
-x,-y,-z
x,-y,z
1/2+x,1/2+y,z
1/2-x,1/2+y,-z
1/2-x,1/2-y,-z
1/2+x,1/2-y,z
loop_
_atom_site_type_symbol
_atom_site_label
_atom_site_fract_x
_atom_site_fract_y
_atom_site_fract_z
Si Si1 0.755877 0.607074 0.252229
Si Si2 0.273948 0.951896 0.066914
Si Si3 0.000000 0.109521 0.000000
Si Si4 0.886744 0.715350 0.427124
Si Si5 0.583794 0.740349 0.208346
Si Si6 0.386828 0.347588 0.228693
Si Si7 0.039337 0.627379 0.607103
Si Si8 0.035014 0.684666 0.879794
O O1 0.747966 0.566993 0.181346
O O2 0.549389 0.630729 0.269901
O O3 0.918303 0.640286 0.179907
O O4 0.839498 0.596075 0.344820
O O5 0.166198 0.920380 0.012626
O O6 0.200154 0.000000 0.072812
O O7 0.500000 0.951817 0.000000
O O8 0.074814 0.136220 0.890986
O O9 0.750000 0.750000 0.500000
O O10 0.000000 0.699524 0.500000
O O11 0.017310 0.738705 0.323045
O O12 0.822192 0.669682 0.401795
O O13 0.427317 0.702894 0.219564
O O14 0.776419 0.713255 0.174861
O O15 0.616253 0.780484 0.129856
O O16 0.173142 0.359840 0.308525
O O17 0.000000 0.614436 0.500000
O O18 0.000000 0.675843 0.000000
#
# Coordination Sequence:
#
# PCOD9201808 Si02
#       8
#     8   8   4   8   8   8   8   8
#     4  10  22  39  58  83 119 153 193 245 302 357
#     4  10  20  37  64  95 123 154 194 241 299 368
#     4  10  21  40  62  92 126 162 190 240 299 364
#     4  11  22  36  54  73 103 148 205 263 300 329
#     4  11  21  35  48  75 102 146 202 237 283 340
#     4  10  23  37  57  84 119 157 201 244 295 353
#     4  11  22  39  58  83 113 157 202 254 302 345
#     4  11  22  34  50  72 109 151 193 236 282 343
#
# _framework density 20.329395000000002
#
# number of rings (size 3 to 8) (size 9 to 14) (size 15 to 20)
#    0.000    1.467    1.333    5.000    2.800    2.667 
#    0.000    0.000    0.000    0.400    0.000    3.733 
#    0.000    0.000    0.000    0.000    0.000    0.000 
#
# Total GULP energy -167240.477810 kJ/mol
# GULP energy per Si atom -5574.682594 kJ/mol
# Density = 2.028312 g / cm^3
# Si number density = 20.329395 Si / 1000 Ang^3
#
#
#
# Elastic Constant Matrix: (Units=GPa)
#
#
# Indices 1 2 3 4 5 6 
#
# 1 73.7860 11.9782 27.1967 0.0000 21.3956 0.0000
# 2 11.9782 59.2679 19.7642 0.0000 4.7033 0.0000
# 3 27.1967 19.7642 115.8101 0.0000 28.1591 0.0000
# 4 0.0000 0.0000 0.0000 -33.9237 0.0000 6.0517
# 5 21.3956 4.7033 28.1591 0.0000 26.6583 0.0000
# 6 0.0000 0.0000 0.0000 6.0517 0.0000 20.7460
#
#
#
# Elastic Compliance Matrix: (Units=1/GPa)
#
#
# Indices 1 2 3 4 5 6 
#
# 1 0.018055 -0.002395 -0.000553 0.000000 -0.013485 0.000000
# 2 -0.002395 0.018208 -0.003002 0.000000 0.001881 0.000000
# 3 -0.000553 -0.003002 0.012165 0.000000 -0.011876 0.000000
# 4 0.000000 0.000000 0.000000 -0.028020 0.000000 0.008174
# 5 -0.013485 0.001881 -0.011876 0.000000 0.060547 0.000000
# 6 0.000000 0.000000 0.000000 0.008174 0.000000 0.045818
#
#
# Mechanical properties :
#
#
# Convention : Reuss Voigt Hill
#
# Bulk Modulus (GPa) = 27.37548 40.74912 34.06230
# Shear Modulus (GPa) = 33.14559 15.35779 24.25169
#
# Velocity S-wave (km/s) = 4.04224 2.75152 3.45764
# Velocity P-wave (km/s) = 5.93982 5.49386 5.72118
#
# Compressibility (1/GPa) = 0.03652904
#
# Stress axis : x y z
#
# Youngs Moduli (GPa) = 55.38552 54.91944 82.20495
#
# Poissons Ratio (x) = 0.13151 0.04543
# Poissons Ratio (y) = 0.13263 0.24682
# Poissons Ratio (z) = 0.03061 0.16489
#
# Static dielectric constant tensor:
#      x y z
#    x 1.865360 0.000000 0.071200 
#    y 0.000000 1.861520 0.000000 
#    z 0.071200 0.000000 1.770640 
# 
# From -- ./inp_files/125711.got.cif
#   From: 2010.05.17/outbox.cif.g08.bks.cpg/sg12_63_cif.got.tgz:125711.got - 2010.06.03 13:09:07.
