data_PCOD9201292
_publ_section_title
;
Structure prediction by ZEFSAII (Michael W. Deem and Ramdas Pophale) SiO2 
 PCOD9201292
Probable space group: C 2/M
;
_chemical_formula_sum "Si O2"
_cell_formula_units_Z 64
_cell_length_a 13.660764
_cell_length_b 29.689048
_cell_length_c 11.720850
_cell_angle_alpha 90.000000
_cell_angle_beta 139.974054
_cell_angle_gamma 90.000000
_cell_volume 3057.258326
_symmetry_space_group_name_H-M "C 2/M"
_symmetry_group_IT_number 12
_symmetry_cell_setting 'monoclinic'
loop_
_space_group_symop_operation_xyz
x,y,z
-x,y,-z
-x,-y,-z
x,-y,z
1/2+x,1/2+y,z
1/2-x,1/2+y,-z
1/2-x,1/2-y,-z
1/2+x,1/2-y,z
loop_
_atom_site_type_symbol
_atom_site_label
_atom_site_fract_x
_atom_site_fract_y
_atom_site_fract_z
Si Si1 0.180653 0.201165 0.442307
Si Si2 0.183061 0.146801 0.671017
Si Si3 0.814948 0.951235 0.039916
Si Si4 0.684297 0.299333 0.907755
Si Si5 0.137811 0.868621 0.050657
Si Si6 0.183602 0.449301 0.176505
Si Si7 0.486604 0.047929 0.625868
Si Si8 0.352199 0.132865 0.437968
O O1 0.250000 0.250000 0.500000
O O2 0.218975 0.178948 0.597521
O O3 0.260390 0.171604 0.416876
O O4 0.999249 0.203253 0.263194
O O5 0.226519 0.173698 0.827642
O O6 0.261494 0.098145 0.723060
O O7 0.000000 0.139790 0.500000
O O8 0.908661 0.909380 0.074433
O O9 0.650263 0.950258 0.831224
O O10 0.886564 0.000000 0.080671
O O11 0.771111 0.947916 0.132854
O O12 0.750000 0.250000 0.000000
O O13 0.720489 0.332363 0.045758
O O14 0.246228 0.887601 0.245183
O O15 0.000000 0.848395 0.000000
O O16 0.216879 0.500000 0.254515
O O17 0.000000 0.447511 0.000000
O O18 0.500000 0.047206 0.500000
O O19 0.398068 0.093963 0.567657
O O20 0.415277 0.000000 0.596902
O O21 0.500000 0.149331 0.500000
#
# Coordination Sequence:
#
# PCOD9201292 Si02
#       8
#     8   8   8   8   8   8   8   8
#     4  11  27  45  65  95 126 161 217 268 318 393
#     4  10  24  45  67  93 130 169 214 269 326 387
#     4  10  20  37  61  91 131 173 213 262 318 378
#     4  11  26  45  69  92 124 167 212 268 334 385
#     4  12  23  40  64  93 133 166 210 265 321 388
#     4  10  22  39  64  97 129 169 223 272 318 379
#     4   9  17  32  56  87 121 161 207 249 299 364
#     4  11  23  38  64  92 127 171 207 254 320 380
#
# _framework density 20.933789000000001
#
# number of rings (size 3 to 8) (size 9 to 14) (size 15 to 20)
#    0.000    1.500    5.000    0.000    5.250    2.000 
#    0.000    0.000    0.000    0.750    0.000    0.000 
#    0.000    0.000    0.000    0.000    0.000    0.000 
#
# Total GULP energy -178418.534626 kJ/mol
# GULP energy per Si atom -5575.579207 kJ/mol
# Density = 2.088614 g / cm^3
# Si number density = 20.933789 Si / 1000 Ang^3
#
#
#
# Elastic Constant Matrix: (Units=GPa)
#
#
# Indices 1 2 3 4 5 6 
#
# 1 86.7165 52.1434 15.2265 0.0000 -11.5312 0.0000
# 2 52.1434 191.7626 25.7447 0.0000 -5.7638 0.0000
# 3 15.2265 25.7447 40.2784 0.0000 -6.6734 0.0000
# 4 0.0000 0.0000 0.0000 -9.2549 0.0000 27.9474
# 5 -11.5312 -5.7638 -6.6734 0.0000 19.2874 0.0000
# 6 0.0000 0.0000 0.0000 27.9474 0.0000 13.7150
#
#
#
# Elastic Compliance Matrix: (Units=1/GPa)
#
#
# Indices 1 2 3 4 5 6 
#
# 1 0.015018 -0.003572 -0.002210 0.000000 0.007147 0.000000
# 2 -0.003572 0.006558 -0.003045 0.000000 -0.001229 0.000000
# 3 -0.002210 -0.003045 0.028896 0.000000 0.007767 0.000000
# 4 0.000000 0.000000 0.000000 -0.015105 0.000000 0.030779
# 5 0.007147 -0.001229 0.007767 0.000000 0.058440 0.000000
# 6 0.000000 0.000000 0.000000 0.030779 0.000000 0.010193
#
#
# Mechanical properties :
#
#
# Convention : Reuss Voigt Hill
#
# Bulk Modulus (GPa) = 30.47155 56.10962 43.29058
# Shear Modulus (GPa) = 37.70934 19.79236 28.75085
#
# Velocity S-wave (km/s) = 4.24885 3.07819 3.70999
# Velocity P-wave (km/s) = 6.21756 6.28452 6.25113
#
# Compressibility (1/GPa) = 0.03281750
#
# Stress axis : x y z
#
# Youngs Moduli (GPa) = 66.58583 152.48650 34.60723
#
# Poissons Ratio (x) = 0.54471 0.07648
# Poissons Ratio (y) = 0.23786 0.10538
# Poissons Ratio (z) = 0.14716 0.46431
#
# Static dielectric constant tensor:
#      x y z
#    x 1.746290 0.000000 -0.005230 
#    y 0.000000 1.872120 0.000000 
#    z -0.005230 0.000000 1.781940 
# 
# From -- ./inp_files/149804.got.cif
#   From: 2010.05.17/outbox.cif.g08.bks.cpg/sg12_75_cif.got.tgz:149804.got - 2010.06.03 13:09:07.
