data_PCOD9201574
_publ_section_title
;
Structure prediction by ZEFSAII (Michael W. Deem and Ramdas Pophale) SiO2 
 PCOD9201574
Probable space group: C 2/M
;
_chemical_formula_sum "Si O2"
_cell_formula_units_Z 64
_cell_length_a 11.200160
_cell_length_b 15.800988
_cell_length_c 24.894888
_cell_angle_alpha 90.000000
_cell_angle_beta 134.054553
_cell_angle_gamma 90.000000
_cell_volume 3166.307134
_symmetry_space_group_name_H-M "C 2/M"
_symmetry_group_IT_number 12
_symmetry_cell_setting 'monoclinic'
loop_
_space_group_symop_operation_xyz
x,y,z
-x,y,-z
-x,-y,-z
x,-y,z
1/2+x,1/2+y,z
1/2-x,1/2+y,-z
1/2-x,1/2-y,-z
1/2+x,1/2-y,z
loop_
_atom_site_type_symbol
_atom_site_label
_atom_site_fract_x
_atom_site_fract_y
_atom_site_fract_z
Si Si1 0.376841 0.602471 0.190421
Si Si2 0.233348 0.181055 0.327967
Si Si3 0.922171 0.598012 0.221458
Si Si4 0.306395 0.725321 0.457020
Si Si5 0.662690 0.823027 0.219587
Si Si6 0.465208 0.100162 0.629374
Si Si7 0.363719 0.292381 0.082886
Si Si8 0.923967 0.899075 0.922589
O O1 0.357870 0.500000 0.176337
O O2 0.573104 0.625821 0.259759
O O3 0.284894 0.634415 0.215550
O O4 0.303494 0.663913 0.119928
O O5 0.221026 0.215155 0.384926
O O6 0.238714 0.258839 0.287334
O O7 0.408808 0.133223 0.376382
O O8 0.886424 0.500000 0.219343
O O9 0.757212 0.637275 0.144975
O O10 0.072170 0.607582 0.227999
O O11 0.958247 0.634419 0.290741
O O12 0.500000 0.724140 0.500000
O O13 0.250000 0.750000 0.500000
O O14 0.221238 0.633672 0.427544
O O15 0.511809 0.773100 0.143109
O O16 0.466731 0.000000 0.628867
O O17 0.453145 0.374164 0.085376
O O18 0.250000 0.250000 0.000000
O O19 0.912781 0.000000 0.924914
O O20 0.000000 0.861601 0.000000
#
# Coordination Sequence:
#
# PCOD9201574 Si02
#       8
#     8   8   8   8   8   8   8   8
#     4  11  25  44  66  96 133 175 222 278 343 405
#     4  11  23  42  71  99 136 177 229 274 336 407
#     4  10  20  37  62  93 128 166 213 271 328 389
#     4  12  25  45  73 104 142 184 227 282 348 415
#     4  11  23  37  65  95 129 168 221 276 330 397
#     4  11  23  42  68  99 134 178 227 275 332 404
#     4  11  25  39  62  88 127 168 220 271 332 399
#     4  10  21  37  61  87 120 161 210 266 325 384
#
# _framework density 20.212821999999999
#
# number of rings (size 3 to 8) (size 9 to 14) (size 15 to 20)
#    0.000    1.125    2.500    4.125    7.000    1.250 
#    0.000    4.375    0.000    0.000    0.000    0.000 
#    0.000    0.000    0.000    0.000    0.000    0.000 
#
# Total GULP energy -178350.564373 kJ/mol
# GULP energy per Si atom -5573.455137 kJ/mol
# Density = 2.016682 g / cm^3
# Si number density = 20.212822 Si / 1000 Ang^3
#
#
#
# Elastic Constant Matrix: (Units=GPa)
#
#
# Indices 1 2 3 4 5 6 
#
# 1 131.4147 31.2946 35.8937 0.0000 -12.8101 0.0000
# 2 31.2946 76.2411 48.2865 0.0000 -0.7005 0.0000
# 3 35.8937 48.2865 79.4638 0.0000 -3.7567 0.0000
# 4 0.0000 0.0000 0.0000 -6.5712 0.0000 -11.6551
# 5 -12.8101 -0.7005 -3.7567 0.0000 31.6069 0.0000
# 6 0.0000 0.0000 0.0000 -11.6551 0.0000 27.7241
#
#
#
# Elastic Compliance Matrix: (Units=1/GPa)
#
#
# Indices 1 2 3 4 5 6 
#
# 1 0.009164 -0.001966 -0.002787 0.000000 0.003339 0.000000
# 2 -0.001966 0.021780 -0.012431 0.000000 -0.001792 0.000000
# 3 -0.002787 -0.012431 0.021451 0.000000 0.001145 0.000000
# 4 0.000000 0.000000 0.000000 -0.087176 0.000000 -0.036649
# 5 0.003339 -0.001792 0.001145 0.000000 0.033088 0.000000
# 6 0.000000 0.000000 0.000000 -0.036649 0.000000 0.020663
#
#
# Mechanical properties :
#
#
# Convention : Reuss Voigt Hill
#
# Bulk Modulus (GPa) = 55.47224 57.56324 56.51774
# Shear Modulus (GPa) = 84.24760 21.99495 53.12128
#
# Velocity S-wave (km/s) = 6.46303 3.30232 5.13206
# Velocity P-wave (km/s) = 9.12129 6.56360 7.94603
#
# Compressibility (1/GPa) = 0.01802703
#
# Stress axis : x y z
#
# Youngs Moduli (GPa) = 109.11772 45.91355 46.61695
#
# Poissons Ratio (x) = 0.09026 0.12993
# Poissons Ratio (y) = 0.21451 0.57952
# Poissons Ratio (z) = 0.30413 0.57077
#
# Static dielectric constant tensor:
#      x y z
#    x 1.739080 0.000000 -0.048750 
#    y 0.000000 1.738430 0.000000 
#    z -0.048750 0.000000 1.749130 
# 
# From -- ./inp_files/358471.got.cif
#   From: 2010.05.17/outbox.cif.g08.bks.cpg/sg12_180_cif.got.tgz:358471.got - 2010.06.03 13:09:07.
