data_PCOD9201056
_publ_section_title
;
Structure prediction by ZEFSAII (Michael W. Deem and Ramdas Pophale) SiO2 
 PCOD9201056
Probable space group: C 2/M
;
_chemical_formula_sum "Si O2"
_cell_formula_units_Z 56
_cell_length_a 18.600023
_cell_length_b 8.038882
_cell_length_c 29.823929
_cell_angle_alpha 90.000000
_cell_angle_beta 140.656764
_cell_angle_gamma 90.000000
_cell_volume 2827.086049
_symmetry_space_group_name_H-M "C 2/M"
_symmetry_group_IT_number 12
_symmetry_cell_setting 'monoclinic'
loop_
_space_group_symop_operation_xyz
x,y,z
-x,y,-z
-x,-y,-z
x,-y,z
1/2+x,1/2+y,z
1/2-x,1/2+y,-z
1/2-x,1/2-y,-z
1/2+x,1/2-y,z
loop_
_atom_site_type_symbol
_atom_site_label
_atom_site_fract_x
_atom_site_fract_y
_atom_site_fract_z
Si Si1 0.372534 0.300026 0.430446
Si Si2 0.049918 0.800125 0.706214
Si Si3 0.219137 0.204251 0.710020
Si Si4 0.206588 0.199027 0.430166
Si Si5 0.834511 0.801639 0.000488
Si Si6 0.475036 0.199000 0.846770
Si Si7 0.359290 0.201381 0.153440
O O1 0.500000 0.236124 0.500000
O O2 0.379784 0.500000 0.430553
O O3 0.320161 0.240638 0.358202
O O4 0.291391 0.259618 0.432660
O O5 0.129981 0.739991 0.704555
O O6 0.103644 0.758189 0.779978
O O7 0.921188 0.736585 0.639906
O O8 0.044867 0.000000 0.699944
O O9 0.346698 0.261047 0.782445
O O10 0.219950 0.000000 0.710626
O O11 0.250000 0.250000 0.500000
O O12 0.203569 0.000000 0.426783
O O13 0.766279 0.743910 0.923466
O O14 0.841280 0.000000 0.002209
O O15 0.750000 0.750000 0.000000
O O16 0.956598 0.737378 0.074729
O O17 0.550120 0.260106 0.840610
O O18 0.471235 0.000000 0.840764
O O19 0.360352 0.000000 0.153210
#
# Coordination Sequence:
#
# PCOD9201056 Si02
#       7
#     8   8   8   8   8   8   8
#     4  10  20  37  61  83 107 142 179 218 269 322
#     4  10  21  36  54  77 105 139 178 217 257 309
#     4   9  18  34  54  76 104 138 177 218 261 313
#     4  11  23  38  57  83 113 143 179 220 263 313
#     4   9  17  30  49  74 103 133 170 214 259 311
#     4   9  17  31  52  75 100 133 174 217 260 309
#     4   9  18  32  51  76 103 133 170 215 267 314
#
# _framework density 19.808381000000001
#
# number of rings (size 3 to 8) (size 9 to 14) (size 15 to 20)
#    0.000    2.429    0.000    3.429    0.000    7.714 
#    0.000    2.857    0.000    4.286    0.000    0.000 
#    0.000    0.000    0.000    0.000    0.000    0.000 
#
# Total GULP energy -156232.566304 kJ/mol
# GULP energy per Si atom -5579.734511 kJ/mol
# Density = 1.976330 g / cm^3
# Si number density = 19.808381 Si / 1000 Ang^3
#
#
#
# Elastic Constant Matrix: (Units=GPa)
#
#
# Indices 1 2 3 4 5 6 
#
# 1 140.9311 1.9339 112.6667 0.0000 5.7170 0.0000
# 2 1.9339 4.4881 5.3805 0.0001 6.1852 0.0001
# 3 112.6667 5.3805 234.4244 0.0000 7.7836 -0.0001
# 4 0.0000 0.0001 0.0000 24.0386 0.0000 -6.2321
# 5 5.7170 6.1852 7.7836 0.0000 33.0449 0.0000
# 6 0.0000 0.0001 -0.0001 -6.2321 0.0000 20.4922
#
#
#
# Elastic Compliance Matrix: (Units=1/GPa)
#
#
# Indices 1 2 3 4 5 6 
#
# 1 0.011581 0.003598 -0.005603 0.000000 -0.001357 0.000000
# 2 0.003598 0.307467 -0.006909 -0.000002 -0.056545 -0.000001
# 3 -0.005603 -0.006909 0.007098 0.000000 0.000591 0.000000
# 4 0.000000 -0.000002 0.000000 0.045160 0.000000 0.013734
# 5 -0.001357 -0.056545 0.000591 0.000000 0.040941 0.000000
# 6 0.000000 -0.000001 0.000000 0.013734 0.000000 0.052976
#
#
# Mechanical properties :
#
#
# Convention : Reuss Voigt Hill
#
# Bulk Modulus (GPa) = 3.24342 68.86733 36.05538
# Shear Modulus (GPa) = 8.53498 32.83929 20.68714
#
# Velocity S-wave (km/s) = 2.07801 4.07609 3.23517
# Velocity P-wave (km/s) = 2.72001 7.54949 5.67421
#
# Compressibility (1/GPa) = 0.30831657
#
# Stress axis : x y z
#
# Youngs Moduli (GPa) = 86.34826 3.25239 140.88876
#
# Poissons Ratio (x) = -0.01170 0.78946
# Poissons Ratio (y) = -0.31065 0.97334
# Poissons Ratio (z) = 0.48385 0.02247
#
# Static dielectric constant tensor:
#      x y z
#    x 1.657310 0.000000 0.020820 
#    y 0.000000 1.713630 0.000000 
#    z 0.020820 0.000000 1.709980 
# 
# From -- ./inp_files/377660.got.cif
#   From: 2010.05.17/outbox.cif.g08.bks.cpg/sg12_189_cif.got.tgz:377660.got - 2010.06.03 13:09:07.
