data_PCOD9201484
_publ_section_title
;
Structure prediction by ZEFSAII (Michael W. Deem and Ramdas Pophale) SiO2 
 PCOD9201484
Probable space group: C 2/M
;
_chemical_formula_sum "Si O2"
_cell_formula_units_Z 48
_cell_length_a 14.207293
_cell_length_b 26.358610
_cell_length_c 7.871114
_cell_angle_alpha 90.000000
_cell_angle_beta 44.603493
_cell_angle_gamma 90.000000
_cell_volume 2069.801415
_symmetry_space_group_name_H-M "C 2/M"
_symmetry_group_IT_number 12
_symmetry_cell_setting 'monoclinic'
loop_
_space_group_symop_operation_xyz
x,y,z
-x,y,-z
-x,-y,-z
x,-y,z
1/2+x,1/2+y,z
1/2-x,1/2+y,-z
1/2-x,1/2-y,-z
1/2+x,1/2-y,z
loop_
_atom_site_type_symbol
_atom_site_label
_atom_site_fract_x
_atom_site_fract_y
_atom_site_fract_z
Si Si1 0.679771 0.442310 0.058667
Si Si2 0.412786 0.915331 0.966307
Si Si3 0.091370 0.059094 0.709962
Si Si4 0.356988 0.775406 0.671118
Si Si5 0.831024 0.613507 0.562457
Si Si6 0.869504 0.298466 0.058941
O O1 0.677188 0.500000 0.995559
O O2 0.774677 0.441733 0.098882
O O3 0.763205 0.407840 0.820802
O O4 0.525015 0.426827 0.274599
O O5 0.524131 0.908966 0.673503
O O6 0.500000 0.940575 0.000000
O O7 0.371869 0.858689 0.077609
O O8 0.218886 0.095237 0.570380
O O9 0.131577 0.000000 0.637701
O O10 0.000000 0.062904 0.000000
O O11 0.500000 0.748702 0.500000
O O12 0.353699 0.826655 0.562896
O O13 0.251445 0.736960 0.728383
O O14 0.347709 0.792135 0.881646
O O15 0.000000 0.280978 0.000000
#
# Coordination Sequence:
#
# PCOD9201484 Si02
#       6
#     8   8   8   8   8   8
#     4  10  20  37  62  90 119 153 197 246 291 347
#     4  11  23  41  57  84 125 157 194 244 297 344
#     4   8  17  33  57  91 121 144 189 249 291 336
#     4  11  21  40  63  91 116 155 202 238 291 351
#     4  11  19  37  63  88 114 154 199 242 288 352
#     4  10  23  41  59  85 126 156 187 248 293 345
#
# _framework density 23.190629999999999
#
# number of rings (size 3 to 8) (size 9 to 14) (size 15 to 20)
#    0.000    1.833    3.333    2.000    0.000    5.000 
#    0.000    0.833    0.000    2.000    0.000    0.000 
#    0.000    0.000    0.000    0.000    0.000    0.000 
#
# Total GULP energy -133774.255929 kJ/mol
# GULP energy per Si atom -5573.927330 kJ/mol
# Density = 2.313785 g / cm^3
# Si number density = 23.190630 Si / 1000 Ang^3
#
#
#
# Elastic Constant Matrix: (Units=GPa)
#
#
# Indices 1 2 3 4 5 6 
#
# 1 204.9593 48.1236 43.5380 0.0000 -57.5862 0.0000
# 2 48.1236 64.0883 24.0514 0.0000 -28.8759 0.0000
# 3 43.5380 24.0514 46.3234 0.0000 -17.6309 0.0000
# 4 0.0000 0.0000 0.0000 86.0016 0.0000 -39.8002
# 5 -57.5862 -28.8759 -17.6309 0.0000 55.3194 0.0000
# 6 0.0000 0.0000 0.0000 -39.8002 0.0000 40.9520
#
#
#
# Elastic Compliance Matrix: (Units=1/GPa)
#
#
# Indices 1 2 3 4 5 6 
#
# 1 0.007836 -0.001595 -0.004266 0.000000 0.005964 0.000000
# 2 -0.001595 0.023261 -0.007498 0.000000 0.008091 0.000000
# 3 -0.004266 -0.007498 0.029942 0.000000 0.001188 0.000000
# 4 0.000000 0.000000 0.000000 0.021132 0.000000 0.020538
# 5 0.005964 0.008091 0.001188 0.000000 0.028888 0.000000
# 6 0.000000 0.000000 0.000000 0.020538 0.000000 0.044379
#
#
# Mechanical properties :
#
#
# Convention : Reuss Voigt Hill
#
# Bulk Modulus (GPa) = 29.13790 60.75522 44.94656
# Shear Modulus (GPa) = 25.82681 49.76513 37.79597
#
# Velocity S-wave (km/s) = 3.34080 4.63743 4.04145
# Velocity P-wave (km/s) = 5.24147 7.41143 6.41882
#
# Compressibility (1/GPa) = 0.03431956
#
# Stress axis : x y z
#
# Youngs Moduli (GPa) = 127.62340 42.99025 33.39765
#
# Poissons Ratio (x) = 0.06859 0.14248
# Poissons Ratio (y) = 0.20362 0.25042
# Poissons Ratio (z) = 0.54445 0.32235
#
# Static dielectric constant tensor:
#      x y z
#    x 2.032210 0.000000 0.100420 
#    y 0.000000 1.801590 0.000000 
#    z 0.100420 0.000000 1.997930 
# 
# From -- ./inp_files/68054.got.cif
#   From: 2010.05.17/outbox.cif.g08.bks.cpg/sg12_35_cif.got.tgz:68054.got - 2010.06.03 13:09:07.
