data_PCOD9201173
_publ_section_title
;
Structure prediction by ZEFSAII (Michael W. Deem and Ramdas Pophale) SiO2 
 PCOD9201173
Probable space group: C 2/M
;
_chemical_formula_sum "Si O2"
_cell_formula_units_Z 56
_cell_length_a 18.428319
_cell_length_b 18.017404
_cell_length_c 9.900147
_cell_angle_alpha 90.000000
_cell_angle_beta 64.382399
_cell_angle_gamma 90.000000
_cell_volume 2964.022733
_symmetry_space_group_name_H-M "C 2/M"
_symmetry_group_IT_number 12
_symmetry_cell_setting 'monoclinic'
loop_
_space_group_symop_operation_xyz
x,y,z
-x,y,-z
-x,-y,-z
x,-y,z
1/2+x,1/2+y,z
1/2-x,1/2+y,-z
1/2-x,1/2-y,-z
1/2+x,1/2-y,z
loop_
_atom_site_type_symbol
_atom_site_label
_atom_site_fract_x
_atom_site_fract_y
_atom_site_fract_z
Si Si1 0.977478 0.726710 0.360106
Si Si2 0.096824 0.913827 0.921263
Si Si3 0.724105 0.083688 0.652421
Si Si4 0.230654 0.711846 0.817424
Si Si5 0.969784 0.415126 0.178562
Si Si6 0.373654 0.287444 0.902621
Si Si7 0.326079 0.314812 0.371531
O O1 0.990882 0.648821 0.269596
O O2 0.890015 0.763940 0.402913
O O3 0.000000 0.720188 0.500000
O O4 0.040977 0.780176 0.235172
O O5 0.126038 0.870775 0.764982
O O6 0.121048 0.000000 0.903461
O O7 0.131947 0.866837 0.019101
O O8 0.000000 0.909995 0.000000
O O9 0.743528 0.126271 0.774324
O O10 0.627328 0.084154 0.730396
O O11 0.766895 0.133176 0.504651
O O12 0.753047 0.000000 0.621462
O O13 0.306456 0.732529 0.846503
O O14 0.223146 0.760426 0.688361
O O15 0.147355 0.728861 0.961802
O O16 0.997770 0.500000 0.186770
O O17 0.000000 0.399162 0.000000
#
# Coordination Sequence:
#
# PCOD9201173 Si02
#       7
#     8   8   8   8   8   8   8
#     4  12  24  37  63  93 129 160 208 256 314 364
#     4  10  20  37  61  87 120 165 211 253 303 366
#     4  11  22  37  60  87 120 158 200 250 310 368
#     4  10  21  38  63  85 119 159 211 254 309 363
#     4  10  23  42  65  91 120 161 210 255 309 373
#     4  10  22  38  59  93 119 157 208 264 302 366
#     4  11  22  38  63  88 123 165 206 258 306 375
#
# _framework density 18.893242999999998
#
# number of rings (size 3 to 8) (size 9 to 14) (size 15 to 20)
#    0.000    1.429    2.857    2.571    4.000    0.857 
#    0.000    0.000    0.000    3.000    0.000    0.000 
#    0.000    0.000    0.000    0.000    0.000    0.000 
#
# Total GULP energy -156053.203339 kJ/mol
# GULP energy per Si atom -5573.328691 kJ/mol
# Density = 1.885024 g / cm^3
# Si number density = 18.893243 Si / 1000 Ang^3
#
#
#
# Elastic Constant Matrix: (Units=GPa)
#
#
# Indices 1 2 3 4 5 6 
#
# 1 62.9448 41.7334 47.4821 0.0000 -3.0772 0.0000
# 2 41.7334 141.2557 83.4061 0.0000 15.2530 0.0000
# 3 47.4821 83.4061 123.3732 0.0000 1.9302 0.0000
# 4 0.0000 0.0000 0.0000 27.8871 0.0000 -6.8400
# 5 -3.0772 15.2530 1.9302 0.0000 28.8086 0.0000
# 6 0.0000 0.0000 0.0000 -6.8400 0.0000 15.4665
#
#
#
# Elastic Compliance Matrix: (Units=1/GPa)
#
#
# Indices 1 2 3 4 5 6 
#
# 1 0.023543 -0.003462 -0.006796 0.000000 0.004803 0.000000
# 2 -0.003462 0.013312 -0.007559 0.000000 -0.006911 0.000000
# 3 -0.006796 -0.007559 0.015796 0.000000 0.002218 0.000000
# 4 0.000000 0.000000 0.000000 0.040222 0.000000 0.017788
# 5 0.004803 -0.006911 0.002218 0.000000 0.038736 0.000000
# 6 0.000000 0.000000 0.000000 0.017788 0.000000 0.072523
#
#
# Mechanical properties :
#
#
# Convention : Reuss Voigt Hill
#
# Bulk Modulus (GPa) = 58.75960 74.75742 66.75851
# Shear Modulus (GPa) = 20.37181 24.76258 22.56719
#
# Velocity S-wave (km/s) = 3.28725 3.62423 3.45984
# Velocity P-wave (km/s) = 6.75103 7.56093 7.16743
#
# Compressibility (1/GPa) = 0.01701849
#
# Stress axis : x y z
#
# Youngs Moduli (GPa) = 42.47485 75.12235 63.30541
#
# Poissons Ratio (x) = 0.26005 0.43022
# Poissons Ratio (y) = 0.14704 0.47852
# Poissons Ratio (z) = 0.28865 0.56784
#
# Static dielectric constant tensor:
#      x y z
#    x 1.669070 0.000000 -0.020780 
#    y 0.000000 1.670890 0.000000 
#    z -0.020780 0.000000 1.696370 
# 
# From -- ./inp_files/75862.got.cif
#   From: 2010.05.17/outbox.cif.g08.bks.cpg/sg12_38_cif.got.tgz:75862.got - 2010.06.03 13:09:07.
