data_PCOD9201815
_publ_section_title
;
Structure prediction by ZEFSAII (Michael W. Deem and Ramdas Pophale) SiO2 
 PCOD9201815
Probable space group: C 2/M
;
_chemical_formula_sum "Si O2"
_cell_formula_units_Z 56
_cell_length_a 15.831546
_cell_length_b 21.444575
_cell_length_c 9.211340
_cell_angle_alpha 90.000000
_cell_angle_beta 126.198072
_cell_angle_gamma 90.000000
_cell_volume 2523.634494
_symmetry_space_group_name_H-M "C 2/M"
_symmetry_group_IT_number 12
_symmetry_cell_setting 'monoclinic'
loop_
_space_group_symop_operation_xyz
x,y,z
-x,y,-z
-x,-y,-z
x,-y,z
1/2+x,1/2+y,z
1/2-x,1/2+y,-z
1/2-x,1/2-y,-z
1/2+x,1/2-y,z
loop_
_atom_site_type_symbol
_atom_site_label
_atom_site_fract_x
_atom_site_fract_y
_atom_site_fract_z
Si Si1 0.696661 0.871846 0.088230
Si Si2 0.603466 0.572345 0.188725
Si Si3 0.738232 0.572661 0.585711
Si Si4 0.070934 0.301904 0.454297
Si Si5 0.388581 0.760951 0.825390
Si Si6 0.265699 0.347628 0.836067
Si Si7 0.515966 0.074447 0.248007
O O1 0.776772 0.913812 0.260148
O O2 0.687811 0.812637 0.186108
O O3 0.736525 0.848000 0.974037
O O4 0.586344 0.909499 0.954302
O O5 0.581796 0.500000 0.194167
O O6 0.653488 0.601486 0.387779
O O7 0.699189 0.583345 0.174463
O O8 0.500000 0.595468 0.000000
O O9 0.729608 0.500000 0.551488
O O10 0.863094 0.584657 0.681895
O O11 0.101786 0.265481 0.338665
O O12 0.172763 0.323392 0.642211
O O13 0.010220 0.366349 0.351152
O O14 0.000000 0.266182 0.500000
O O15 0.358215 0.697425 0.874793
O O16 0.500000 0.781092 0.000000
O O17 0.508582 0.000000 0.280762
#
# Coordination Sequence:
#
# PCOD9201815 Si02
#       7
#     8   8   8   8   8   8   8
#     4  12  22  40  62  96 137 169 213 273 331 402
#     4  10  22  43  65  87 123 170 223 283 329 379
#     4  10  20  37  64  95 130 176 217 259 333 404
#     4  12  23  42  62  96 135 171 217 273 334 401
#     4  12  23  43  64  86 128 175 224 280 323 383
#     4  12  25  39  64  95 124 173 228 267 337 393
#     4  11  21  36  64  98 137 174 209 262 338 408
#
# _framework density 22.190218000000002
#
# number of rings (size 3 to 8) (size 9 to 14) (size 15 to 20)
#    0.000    0.714    5.714    2.143    0.000    2.571 
#    0.000    0.714    0.000    2.571    0.000    0.000 
#    0.000    0.000    0.000    0.000    0.000    0.000 
#
# Total GULP energy -155885.048796 kJ/mol
# GULP energy per Si atom -5567.323171 kJ/mol
# Density = 2.213971 g / cm^3
# Si number density = 22.190218 Si / 1000 Ang^3
#
#
#
# Elastic Constant Matrix: (Units=GPa)
#
#
# Indices 1 2 3 4 5 6 
#
# 1 80.5508 12.3922 71.1800 0.0000 -20.1671 0.0000
# 2 12.3922 48.1163 16.0550 0.0000 -0.3334 0.0000
# 3 71.1800 16.0550 166.2628 0.0000 -21.0555 0.0000
# 4 0.0000 0.0000 0.0000 8.7751 0.0000 -10.9485
# 5 -20.1671 -0.3334 -21.0555 0.0000 32.3738 0.0000
# 6 0.0000 0.0000 0.0000 -10.9485 0.0000 5.2331
#
#
#
# Elastic Compliance Matrix: (Units=1/GPa)
#
#
# Indices 1 2 3 4 5 6 
#
# 1 0.022185 -0.002940 -0.008138 0.000000 0.008497 0.000000
# 2 -0.002940 0.021909 -0.001156 0.000000 -0.002357 0.000000
# 3 -0.008138 -0.001156 0.009772 0.000000 0.001274 0.000000
# 4 0.000000 0.000000 0.000000 -0.070766 0.000000 -0.148055
# 5 0.008497 -0.002357 0.001274 0.000000 0.036987 0.000000
# 6 0.000000 0.000000 0.000000 -0.148055 0.000000 -0.118664
#
#
# Mechanical properties :
#
#
# Convention : Reuss Voigt Hill
#
# Bulk Modulus (GPa) = 34.01386 54.90937 44.46162
# Shear Modulus (GPa) = -77.74752 22.29658 -27.72547
#
# Velocity S-wave (km/s) = -5.92561 3.17329 -3.53858
# Velocity P-wave (km/s) = 5.60853 6.18263 1.83974
#
# Compressibility (1/GPa) = 0.02939978
#
# Stress axis : x y z
#
# Youngs Moduli (GPa) = 45.07452 45.64268 102.33805
#
# Poissons Ratio (x) = 0.13417 0.83283
# Poissons Ratio (y) = 0.13250 0.11827
# Poissons Ratio (z) = 0.36682 0.05275
#
# Static dielectric constant tensor:
#      x y z
#    x 1.882000 0.000000 0.011770 
#    y 0.000000 1.934390 0.000000 
#    z 0.011770 0.000000 1.861880 
# 
# From -- ./inp_files/79147.got.cif
#   From: 2010.05.17/outbox.cif.g08.bks.cpg/sg12_40_cif.got.tgz:79147.got - 2010.06.03 13:09:07.
