data_PCOD9201645
_publ_section_title
;
Structure prediction by ZEFSAII (Michael W. Deem and Ramdas Pophale) SiO2 
 PCOD9201645
Probable space group: C 2/M
;
_chemical_formula_sum "Si O2"
_cell_formula_units_Z 42
_cell_length_a 28.367626
_cell_length_b 7.874926
_cell_length_c 10.506523
_cell_angle_alpha 90.000000
_cell_angle_beta 63.757167
_cell_angle_gamma 90.000000
_cell_volume 2105.164803
_symmetry_space_group_name_H-M "C 2/M"
_symmetry_group_IT_number 12
_symmetry_cell_setting 'monoclinic'
loop_
_space_group_symop_operation_xyz
x,y,z
-x,y,-z
-x,-y,-z
x,-y,z
1/2+x,1/2+y,z
1/2-x,1/2+y,-z
1/2-x,1/2-y,-z
1/2+x,1/2-y,z
loop_
_atom_site_type_symbol
_atom_site_label
_atom_site_fract_x
_atom_site_fract_y
_atom_site_fract_z
Si Si1 0.291376 0.204170 0.842892
Si Si2 0.090048 0.698301 0.285069
Si Si3 0.207614 0.702718 0.444946
Si Si4 0.588929 0.699626 0.572917
Si Si5 0.000000 0.500000 0.000000
Si Si6 0.013813 0.197574 0.160359
O O1 0.350382 0.264753 0.803731
O O2 0.278056 0.264336 0.715290
O O3 0.294135 0.000000 0.833908
O O4 0.250000 0.250000 0.000000
O O5 0.088262 0.500000 0.253779
O O6 0.079258 0.713517 0.448509
O O7 0.048957 0.792132 0.245326
O O8 0.204484 0.500000 0.444142
O O9 0.250000 0.750000 0.500000
O O10 0.148694 0.766773 0.543090
O O11 0.581999 0.500000 0.560397
O O12 0.545413 0.750798 0.727321
O O13 0.030408 0.345439 0.044010
O O14 0.014847 0.000000 0.116611
#
# Coordination Sequence:
#
# PCOD9201645 Si02
#       6
#     8   8   8   8   2   8
#     4   9  20  37  57  86 119 155 201 250 302 366
#     4  10  20  37  63  91 120 154 200 254 311 366
#     4  10  21  38  59  86 120 157 202 253 309 370
#     4  10  21  37  62  92 119 148 201 259 308 366
#     4  12  26  44  62  82 132 168 206 246 308 364
#     4  11  24  42  63  91 122 162 206 253 303 368
#
# _framework density 19.950931000000001
#
# number of rings (size 3 to 8) (size 9 to 14) (size 15 to 20)
#    0.000    1.905    0.952    3.714    2.667    6.857 
#    3.429    0.000    0.000    0.000    0.000    0.000 
#    0.000    0.000    0.000    0.000    0.000    0.000 
#
# Total GULP energy -116942.781837 kJ/mol
# GULP energy per Si atom -5568.703897 kJ/mol
# Density = 1.990552 g / cm^3
# Si number density = 19.950931 Si / 1000 Ang^3
#
#
#
# Elastic Constant Matrix: (Units=GPa)
#
#
# Indices 1 2 3 4 5 6 
#
# 1 114.3646 11.5976 55.1294 0.0000 19.9478 0.0000
# 2 11.5976 63.7078 17.0338 0.0000 -0.6969 0.0000
# 3 55.1294 17.0338 76.4310 0.0000 -4.2721 0.0000
# 4 0.0000 0.0000 0.0000 16.9360 0.0000 4.2127
# 5 19.9478 -0.6969 -4.2721 0.0000 22.9334 0.0000
# 6 0.0000 0.0000 0.0000 4.2127 0.0000 30.7295
#
#
#
# Elastic Compliance Matrix: (Units=1/GPa)
#
#
# Indices 1 2 3 4 5 6 
#
# 1 0.019525 0.000309 -0.015260 0.000000 -0.019817 0.000000
# 2 0.000309 0.016697 -0.003972 0.000000 -0.000501 0.000000
# 3 -0.015260 -0.003972 0.025982 0.000000 0.017993 0.000000
# 4 0.000000 0.000000 0.000000 0.061130 0.000000 -0.008380
# 5 -0.019817 -0.000501 0.017993 0.000000 0.064178 0.000000
# 6 0.000000 0.000000 0.000000 -0.008380 0.000000 0.033691
#
#
# Mechanical properties :
#
#
# Convention : Reuss Voigt Hill
#
# Bulk Modulus (GPa) = 41.05490 46.89165 43.97327
# Shear Modulus (GPa) = 18.71483 25.50261 22.10872
#
# Velocity S-wave (km/s) = 3.06607 3.57916 3.33251
# Velocity P-wave (km/s) = 5.75821 6.37456 6.07421
#
# Compressibility (1/GPa) = 0.02435763
#
# Stress axis : x y z
#
# Youngs Moduli (GPa) = 51.21603 59.89113 38.48890
#
# Poissons Ratio (x) = -0.01850 0.58734
# Poissons Ratio (y) = -0.01582 0.15288
# Poissons Ratio (z) = 0.78155 0.23789
#
# Static dielectric constant tensor:
#      x y z
#    x 1.668450 0.000000 -0.017670 
#    y 0.000000 1.722430 0.000000 
#    z -0.017670 0.000000 1.737990 
# 
# From -- ./inp_files/107928.got.cif
#   From: 2010.05.17/outbox.cif.g08.bks.cpg/sg12_54_cif.got.tgz:107928.got - 2010.06.03 13:09:07.
