data_PCOD9201336
_publ_section_title
;
Structure prediction by ZEFSAII (Michael W. Deem and Ramdas Pophale) SiO2 
 PCOD9201336
Probable space group: C 2/M
;
_chemical_formula_sum "Si O2"
_cell_formula_units_Z 40
_cell_length_a 24.883130
_cell_length_b 9.887097
_cell_length_c 18.475592
_cell_angle_alpha 90.000000
_cell_angle_beta 155.837165
_cell_angle_gamma 90.000000
_cell_volume 1860.574741
_symmetry_space_group_name_H-M "C 2/M"
_symmetry_group_IT_number 12
_symmetry_cell_setting 'monoclinic'
loop_
_space_group_symop_operation_xyz
x,y,z
-x,y,-z
-x,-y,-z
x,-y,z
1/2+x,1/2+y,z
1/2-x,1/2+y,-z
1/2-x,1/2-y,-z
1/2+x,1/2-y,z
loop_
_atom_site_type_symbol
_atom_site_label
_atom_site_fract_x
_atom_site_fract_y
_atom_site_fract_z
Si Si1 0.282836 0.000000 0.243826
Si Si2 0.846220 0.206416 0.819658
Si Si3 0.684237 0.000000 0.268639
Si Si4 0.604446 0.225789 0.853217
Si Si5 0.033515 0.500000 0.656594
Si Si6 0.267470 0.500000 0.602586
Si Si7 0.947654 0.000000 0.688486
Si Si8 0.000129 0.500000 0.821217
O O1 0.203114 0.868320 0.169363
O O2 0.412269 0.000000 0.453368
O O3 0.331777 0.000000 0.222968
O O4 0.818774 0.364057 0.781256
O O5 0.778930 0.129633 0.668947
O O6 0.000000 0.182376 0.000000
O O7 0.559795 0.000000 0.171602
O O8 0.818281 0.000000 0.479277
O O9 0.534254 0.133691 0.705915
O O10 0.532160 0.366601 0.777426
O O11 0.584413 0.130842 0.899886
O O12 0.750000 0.250000 0.000000
O O13 0.389713 0.500000 0.698219
O O14 0.134770 0.500000 0.392675
#
# Coordination Sequence:
#
# PCOD9201336 Si02
#       8
#     4   8   4   8   4   4   4   4
#     4  10  21  40  62  76 102 152 199 230 257 321
#     4  11  22  36  56  84 114 144 181 229 279 330
#     4  11  22  37  58  85 117 146 178 229 291 339
#     4  11  22  36  56  85 118 147 182 230 281 332
#     4  10  22  40  58  78 107 150 194 226 268 323
#     4  10  20  37  62  85 108 145 191 231 275 334
#     4  11  21  36  61  87 111 144 184 232 284 336
#     4  10  21  38  59  83 114 149 183 228 282 335
#
# _framework density 21.498733000000001
#
# number of rings (size 3 to 8) (size 9 to 14) (size 15 to 20)
#    0.000    1.400    0.000    8.700    0.000    8.000 
#    0.000    1.000    0.000    3.600    0.000    0.000 
#    0.000    0.000    0.000    0.000    0.000    0.000 
#
# Total GULP energy -111907.728005 kJ/mol
# GULP energy per Si atom -5595.386400 kJ/mol
# Density = 2.144980 g / cm^3
# Si number density = 21.498733 Si / 1000 Ang^3
#
#
#
# Elastic Constant Matrix: (Units=GPa)
#
#
# Indices 1 2 3 4 5 6 
#
# 1 105.8895 73.8908 13.6542 0.0000 44.2011 0.0000
# 2 73.8908 203.1508 33.3107 0.0000 29.5095 0.0000
# 3 13.6542 33.3107 80.0157 0.0000 25.4218 0.0000
# 4 0.0000 0.0000 0.0000 90.5648 0.0000 77.6386
# 5 44.2011 29.5095 25.4218 0.0000 47.2030 0.0000
# 6 0.0000 0.0000 0.0000 77.6386 0.0000 97.1651
#
#
#
# Elastic Compliance Matrix: (Units=1/GPa)
#
#
# Indices 1 2 3 4 5 6 
#
# 1 0.020138 -0.005470 0.004518 0.000000 -0.017871 0.000000
# 2 -0.005470 0.007037 -0.002685 0.000000 0.002168 0.000000
# 3 0.004518 -0.002685 0.016474 0.000000 -0.011425 0.000000
# 4 0.000000 0.000000 0.000000 0.035053 0.000000 -0.028008
# 5 -0.017871 0.002168 -0.011425 0.000000 0.042717 0.000000
# 6 0.000000 0.000000 0.000000 -0.028008 0.000000 0.032671
#
#
# Mechanical properties :
#
#
# Convention : Reuss Voigt Hill
#
# Bulk Modulus (GPa) = 27.49027 70.08526 48.78776
# Shear Modulus (GPa) = 28.82043 64.86661 46.84352
#
# Velocity S-wave (km/s) = 3.66534 5.49889 4.67293
# Velocity P-wave (km/s) = 5.54325 8.54328 7.20122
#
# Compressibility (1/GPa) = 0.03637651
#
# Stress axis : x y z
#
# Youngs Moduli (GPa) = 49.65793 142.10303 60.70129
#
# Poissons Ratio (x) = 0.77724 -0.27428
# Poissons Ratio (y) = 0.27161 0.16299
# Poissons Ratio (z) = -0.22438 0.38157
#
# Static dielectric constant tensor:
#      x y z
#    x 1.796260 0.000000 -0.005870 
#    y 0.000000 1.746000 0.000000 
#    z -0.005870 0.000000 1.798100 
# 
# From -- ./inp_files/162578.got.cif
#   From: 2010.05.17/outbox.cif.g08.bks.cpg/sg12_82_cif.got.tgz:162578.got - 2010.06.03 13:09:07.
