data_PCOD9201860
_publ_section_title
;
Structure prediction by ZEFSAII (Michael W. Deem and Ramdas Pophale) SiO2 
 PCOD9201860
Probable space group: C 2/M
;
_chemical_formula_sum "Si O2"
_cell_formula_units_Z 48
_cell_length_a 20.135338
_cell_length_b 9.012828
_cell_length_c 24.603696
_cell_angle_alpha 90.000000
_cell_angle_beta 144.419430
_cell_angle_gamma 90.000000
_cell_volume 2597.941147
_symmetry_space_group_name_H-M "C 2/M"
_symmetry_group_IT_number 12
_symmetry_cell_setting 'monoclinic'
loop_
_space_group_symop_operation_xyz
x,y,z
-x,y,-z
-x,-y,-z
x,-y,z
1/2+x,1/2+y,z
1/2-x,1/2+y,-z
1/2-x,1/2-y,-z
1/2+x,1/2-y,z
loop_
_atom_site_type_symbol
_atom_site_label
_atom_site_fract_x
_atom_site_fract_y
_atom_site_fract_z
Si Si1 0.622347 0.171437 0.552520
Si Si2 0.006443 0.670307 0.939146
Si Si3 0.729348 0.676211 0.243012
Si Si4 0.100256 0.678685 0.742871
Si Si5 0.766710 0.177332 0.952499
Si Si6 0.135767 0.823949 0.447382
O O1 0.500000 0.183245 0.500000
O O2 0.713749 0.199085 0.660539
O O3 0.630147 0.279436 0.507024
O O4 0.634065 0.000000 0.541058
O O5 0.022184 0.500000 0.931891
O O6 0.887336 0.735131 0.839174
O O7 0.113124 0.766687 0.990989
O O8 0.000000 0.673734 0.000000
O O9 0.707231 0.500000 0.221450
O O10 0.818567 0.718054 0.254572
O O11 0.084059 0.500000 0.730375
O O12 0.168256 0.717389 0.843217
O O13 0.978636 0.757230 0.655971
O O14 0.767097 0.000000 0.957496
O O15 0.750000 0.250000 0.000000
O O16 0.250000 0.750000 0.500000
O O17 0.139068 0.000000 0.442322
#
# Coordination Sequence:
#
# PCOD9201860 Si02
#       6
#     8   8   8   8   8   8
#     4  10  20  39  65  92 123 159 202 254 307 365
#     4  11  23  38  60  92 128 162 205 258 305 361
#     4  10  20  37  65  94 123 163 209 255 307 368
#     4  10  21  41  66  91 121 163 208 254 312 372
#     4  11  24  42  66  92 126 166 208 257 312 373
#     4  12  26  42  64  92 127 166 207 256 308 370
#
# _framework density 18.47617
#
# number of rings (size 3 to 8) (size 9 to 14) (size 15 to 20)
#    0.000    1.333    3.333    2.500    0.000    5.000 
#    0.000    0.000    0.000    0.000    0.000    0.000 
#    0.000    0.000    0.000    0.000    0.000    0.000 
#
# Total GULP energy -134151.485867 kJ/mol
# GULP energy per Si atom -5589.645244 kJ/mol
# Density = 1.843412 g / cm^3
# Si number density = 18.476170 Si / 1000 Ang^3
#
#
#
# Elastic Constant Matrix: (Units=GPa)
#
#
# Indices 1 2 3 4 5 6 
#
# 1 92.8597 53.8037 58.3238 0.0000 5.1202 0.0000
# 2 53.8037 91.2370 82.5294 0.0000 2.5995 0.0000
# 3 58.3238 82.5294 148.9472 0.0000 12.2380 0.0000
# 4 0.0000 0.0000 0.0000 33.2385 0.0000 1.8495
# 5 5.1202 2.5995 12.2380 0.0000 24.6965 0.0000
# 6 0.0000 0.0000 0.0000 1.8495 0.0000 32.2516
#
#
#
# Elastic Compliance Matrix: (Units=1/GPa)
#
#
# Indices 1 2 3 4 5 6 
#
# 1 0.016765 -0.008068 -0.001958 0.000000 -0.001656 0.000000
# 2 -0.008068 0.026219 -0.011758 0.000000 0.004739 0.000000
# 3 -0.001958 -0.011758 0.014449 0.000000 -0.005516 0.000000
# 4 0.000000 0.000000 0.000000 0.030182 0.000000 -0.001731
# 5 -0.001656 0.004739 -0.005516 0.000000 0.043070 0.000000
# 6 0.000000 0.000000 0.000000 -0.001731 0.000000 0.031105
#
#
# Mechanical properties :
#
#
# Convention : Reuss Voigt Hill
#
# Bulk Modulus (GPa) = 72.12672 80.26197 76.19434
# Shear Modulus (GPa) = 23.81207 27.26313 25.53760
#
# Velocity S-wave (km/s) = 3.59388 3.84550 3.72182
# Velocity P-wave (km/s) = 7.50625 7.95313 7.73292
#
# Compressibility (1/GPa) = 0.01386449
#
# Stress axis : x y z
#
# Youngs Moduli (GPa) = 59.64867 38.14097 69.21132
#
# Poissons Ratio (x) = 0.30772 0.13554
# Poissons Ratio (y) = 0.48124 0.81375
# Poissons Ratio (z) = 0.11681 0.44844
#
# Static dielectric constant tensor:
#      x y z
#    x 1.637020 0.000000 0.022610 
#    y 0.000000 1.623800 0.000000 
#    z 0.022610 0.000000 1.669520 
# 
# From -- ./inp_files/365537.got.cif
#   From: 2010.05.17/outbox.cif.g08.bks.cpg/sg12_183_cif.got.tgz:365537.got - 2010.06.03 13:09:07.
