data_PCOD9201522
_publ_section_title
;
Structure prediction by ZEFSAII (Michael W. Deem and Ramdas Pophale) SiO2 
 PCOD9201522
Probable space group: C 2/M
;
_chemical_formula_sum "Si O2"
_cell_formula_units_Z 56
_cell_length_a 20.289682
_cell_length_b 20.128661
_cell_length_c 8.600347
_cell_angle_alpha 90.000000
_cell_angle_beta 55.924326
_cell_angle_gamma 90.000000
_cell_volume 2909.329194
_symmetry_space_group_name_H-M "C 2/M"
_symmetry_group_IT_number 12
_symmetry_cell_setting 'monoclinic'
loop_
_space_group_symop_operation_xyz
x,y,z
-x,y,-z
-x,-y,-z
x,-y,z
1/2+x,1/2+y,z
1/2-x,1/2+y,-z
1/2-x,1/2-y,-z
1/2+x,1/2-y,z
loop_
_atom_site_type_symbol
_atom_site_label
_atom_site_fract_x
_atom_site_fract_y
_atom_site_fract_z
Si Si1 0.357265 0.713631 0.435705
Si Si2 0.545498 0.124219 0.180992
Si Si3 0.697231 0.077817 0.145557
Si Si4 0.279851 0.854451 0.552544
Si Si5 0.895627 0.424333 0.215023
Si Si6 0.198844 0.812379 0.135310
Si Si7 0.471614 0.721858 0.714718
O O1 0.339806 0.792334 0.447268
O O2 0.305322 0.674973 0.378306
O O3 0.323268 0.697128 0.653700
O O4 0.450648 0.699633 0.293636
O O5 0.605475 0.086808 0.216039
O O6 0.459769 0.090790 0.266116
O O7 0.539254 0.199774 0.242661
O O8 0.584534 0.121109 0.958047
O O9 0.712005 0.114749 0.288987
O O10 0.716732 0.000000 0.125050
O O11 0.751041 0.120895 0.956358
O O12 0.308956 0.909830 0.393870
O O13 0.905038 0.500000 0.150957
O O14 0.114223 0.812058 0.156631
O O15 0.250000 0.750000 0.000000
O O16 0.500000 0.713098 0.500000
#
# Coordination Sequence:
#
# PCOD9201522 Si02
#       7
#     8   8   8   8   8   8   8
#     4  10  21  38  60  87 119 154 199 254 306 349
#     4  11  21  36  59  84 122 162 199 242 305 367
#     4  12  24  39  60  89 123 162 202 249 306 368
#     4  11  22  37  58  84 119 159 204 245 298 357
#     4  11  23  37  52  83 126 164 198 240 298 375
#     4  11  20  38  65  90 118 154 200 257 300 356
#     4  10  20  37  62  91 119 147 200 257 304 352
#
# _framework density 19.248424
#
# number of rings (size 3 to 8) (size 9 to 14) (size 15 to 20)
#    0.000    1.143    4.286    3.857    0.000    0.000 
#    0.000    2.143    0.000    6.429    0.000    0.000 
#    0.000    0.000    0.000    0.000    0.000    0.000 
#
# Total GULP energy -156373.262986 kJ/mol
# GULP energy per Si atom -5584.759392 kJ/mol
# Density = 1.920461 g / cm^3
# Si number density = 19.248424 Si / 1000 Ang^3
#
#
#
# Elastic Constant Matrix: (Units=GPa)
#
#
# Indices 1 2 3 4 5 6 
#
# 1 126.9225 37.5246 19.0674 0.0000 -14.2077 0.0000
# 2 37.5246 71.0943 7.9153 0.0000 -9.6660 0.0000
# 3 19.0674 7.9153 34.3327 0.0000 -11.3896 0.0000
# 4 0.0000 0.0000 0.0000 13.3862 0.0000 -1.2001
# 5 -14.2077 -9.6660 -11.3896 0.0000 23.1899 0.0000
# 6 0.0000 0.0000 0.0000 -1.2001 0.0000 11.9571
#
#
#
# Elastic Compliance Matrix: (Units=1/GPa)
#
#
# Indices 1 2 3 4 5 6 
#
# 1 0.010061 -0.004565 -0.003729 0.000000 0.002430 0.000000
# 2 -0.004565 0.017060 0.000040 0.000000 0.004334 0.000000
# 3 -0.003729 0.000040 0.036361 0.000000 0.015590 0.000000
# 4 0.000000 0.000000 0.000000 0.075382 0.000000 0.007566
# 5 0.002430 0.004334 0.015590 0.000000 0.054074 0.000000
# 6 0.000000 0.000000 0.000000 0.007566 0.000000 0.084392
#
#
# Mechanical properties :
#
#
# Convention : Reuss Voigt Hill
#
# Bulk Modulus (GPa) = 21.28876 40.15158 30.72017
# Shear Modulus (GPa) = 16.15534 20.89609 18.52572
#
# Velocity S-wave (km/s) = 2.90022 3.29842 3.10571
# Velocity P-wave (km/s) = 4.72219 5.95072 5.37169
#
# Compressibility (1/GPa) = 0.04697314
#
# Stress axis : x y z
#
# Youngs Moduli (GPa) = 99.39850 58.61703 27.50236
#
# Poissons Ratio (x) = 0.26756 0.10255
# Poissons Ratio (y) = 0.45371 -0.00109
# Poissons Ratio (z) = 0.37065 -0.00232
#
# Static dielectric constant tensor:
#      x y z
#    x 1.725740 0.000000 0.003390 
#    y 0.000000 1.651830 0.000000 
#    z 0.003390 0.000000 1.688250 
# 
# From -- ./inp_files/89492.got.cif
#   From: 2010.05.17/outbox.cif.g08.bks.cpg/sg12_45_cif.got.tgz:89492.got - 2010.06.03 13:09:07.
