data_PCOD9201032
_publ_section_title
;
Structure prediction by ZEFSAII (Michael W. Deem and Ramdas Pophale) SiO2 
 PCOD9201032
Probable space group: C 2/M
;
_chemical_formula_sum "Si O2"
_cell_formula_units_Z 64
_cell_length_a 19.448393
_cell_length_b 28.720092
_cell_length_c 13.899224
_cell_angle_alpha 90.000000
_cell_angle_beta 158.153269
_cell_angle_gamma 90.000000
_cell_volume 2889.009324
_symmetry_space_group_name_H-M "C 2/M"
_symmetry_group_IT_number 12
_symmetry_cell_setting 'monoclinic'
loop_
_space_group_symop_operation_xyz
x,y,z
-x,y,-z
-x,-y,-z
x,-y,z
1/2+x,1/2+y,z
1/2-x,1/2+y,-z
1/2-x,1/2-y,-z
1/2+x,1/2-y,z
loop_
_atom_site_type_symbol
_atom_site_label
_atom_site_fract_x
_atom_site_fract_y
_atom_site_fract_z
Si Si1 0.804972 0.447216 0.286632
Si Si2 0.936597 0.551984 0.671684
Si Si3 0.208219 0.447154 0.306846
Si Si4 0.323378 0.797556 0.833699
Si Si5 0.126724 0.651756 0.898612
Si Si6 0.958872 0.860831 0.635831
Si Si7 0.863822 0.702552 0.403803
Si Si8 0.559049 0.367887 0.965848
O O1 0.792489 0.500000 0.236264
O O2 0.625229 0.419377 0.024209
O O3 0.000000 0.428278 0.500000
O O4 0.822126 0.445637 0.424152
O O5 0.029885 0.500000 0.791705
O O6 0.055428 0.599276 0.828480
O O7 0.811250 0.552472 0.603143
O O8 0.246981 0.500000 0.323628
O O9 0.361807 0.409365 0.480045
O O10 0.000000 0.434921 0.000000
O O11 0.144166 0.822035 0.558161
O O12 0.283465 0.742924 0.767166
O O13 0.500000 0.811338 0.000000
O O14 0.350829 0.816880 0.976777
O O15 0.982576 0.679720 0.643556
O O16 0.324714 0.643752 0.105238
O O17 0.926005 0.852232 0.707653
O O18 0.746449 0.661382 0.204848
O O19 0.000000 0.722532 0.500000
O O20 0.500000 0.365101 0.000000
#
# Coordination Sequence:
#
# PCOD9201032 Si02
#       8
#     8   8   8   8   8   8   8   8
#     4  10  20  37  60  91 133 179 225 274 338 409
#     4  10  20  38  66  99 136 184 229 276 337 405
#     4  10  22  42  68  98 140 188 233 284 340 400
#     4  12  30  49  73 102 134 180 232 290 352 417
#     4  12  25  45  76 102 143 185 227 291 349 419
#     4  12  25  43  70 103 140 177 235 285 348 410
#     4  12  26  49  73 100 138 177 231 281 357 419
#     4  12  25  40  66 101 136 179 226 284 344 415
#
# _framework density 22.152923000000001
#
# number of rings (size 3 to 8) (size 9 to 14) (size 15 to 20)
#    0.000    0.750    2.500    5.250    3.500    2.750 
#    0.000    0.000    0.000    3.750    0.000    0.000 
#    0.000    0.000    0.000    0.000    0.000    0.000 
#
# Total GULP energy -178865.625383 kJ/mol
# GULP energy per Si atom -5589.550793 kJ/mol
# Density = 2.210250 g / cm^3
# Si number density = 22.152923 Si / 1000 Ang^3
#
#
#
# Elastic Constant Matrix: (Units=GPa)
#
#
# Indices 1 2 3 4 5 6 
#
# 1 68.9361 26.8429 21.3137 -0.0003 -11.9739 -0.0001
# 2 26.8429 113.4930 46.8666 0.0003 -6.7746 0.0001
# 3 21.3137 46.8666 89.8318 -0.0008 -19.5518 -0.0003
# 4 -0.0003 0.0003 -0.0008 126.7235 -0.0004 38.7485
# 5 -11.9739 -6.7746 -19.5518 -0.0004 33.0692 -0.0001
# 6 -0.0001 0.0001 -0.0003 38.7485 -0.0001 36.0566
#
#
#
# Elastic Compliance Matrix: (Units=1/GPa)
#
#
# Indices 1 2 3 4 5 6 
#
# 1 0.016977 -0.003179 -0.001347 0.000000 0.004700 0.000000
# 2 -0.003179 0.011877 -0.005926 0.000000 -0.002221 0.000000
# 3 -0.001347 -0.005926 0.016266 0.000000 0.007915 0.000000
# 4 0.000000 0.000000 0.000000 0.011753 0.000000 -0.012631
# 5 0.004700 -0.002221 0.007915 0.000000 0.036166 0.000000
# 6 0.000000 0.000000 0.000000 -0.012631 0.000000 0.041308
#
#
# Mechanical properties :
#
#
# Convention : Reuss Voigt Hill
#
# Bulk Modulus (GPa) = 41.29272 51.36747 46.33010
# Shear Modulus (GPa) = 30.61434 50.98571 40.80002
#
# Velocity S-wave (km/s) = 3.72150 4.80264 4.29621
# Velocity P-wave (km/s) = 6.09478 7.34791 6.75049
#
# Compressibility (1/GPa) = 0.02421734
#
# Stress axis : x y z
#
# Youngs Moduli (GPa) = 58.90477 84.19353 61.47842
#
# Poissons Ratio (x) = 0.26761 0.08280
# Poissons Ratio (y) = 0.18723 0.36432
# Poissons Ratio (z) = 0.07933 0.49892
#
# Static dielectric constant tensor:
#      x y z
#    x 1.841390 0.000000 0.018090 
#    y 0.000000 1.853210 0.000000 
#    z 0.018090 0.000000 1.820290 
# 
# From -- ./inp_files/236015.got.cif
#   From: 2010.05.17/outbox.cif.g08.bks.cpg/sg12_119_cif.got.tgz:236015.got - 2010.06.03 13:09:07.
