data_PCOD9201403
_publ_section_title
;
Structure prediction by ZEFSAII (Michael W. Deem and Ramdas Pophale) SiO2 
 PCOD9201403
Probable space group: C 2/M
;
_chemical_formula_sum "Si O2"
_cell_formula_units_Z 52
_cell_length_a 14.688822
_cell_length_b 23.070751
_cell_length_c 11.873824
_cell_angle_alpha 90.000000
_cell_angle_beta 43.625126
_cell_angle_gamma 90.000000
_cell_volume 2776.187372
_symmetry_space_group_name_H-M "C 2/M"
_symmetry_group_IT_number 12
_symmetry_cell_setting 'monoclinic'
loop_
_space_group_symop_operation_xyz
x,y,z
-x,y,-z
-x,-y,-z
x,-y,z
1/2+x,1/2+y,z
1/2-x,1/2+y,-z
1/2-x,1/2-y,-z
1/2+x,1/2-y,z
loop_
_atom_site_type_symbol
_atom_site_label
_atom_site_fract_x
_atom_site_fract_y
_atom_site_fract_z
Si Si1 0.000000 0.839812 0.000000
Si Si2 0.396908 0.823848 0.369074
Si Si3 0.751416 0.431295 0.445977
Si Si4 0.371849 0.746160 0.805010
Si Si5 0.520729 0.626916 0.224561
Si Si6 0.772201 0.244147 0.293673
Si Si7 0.636190 0.568470 0.316791
O O1 0.962979 0.876654 0.923424
O O2 0.119846 0.798038 0.858074
O O3 0.367344 0.891778 0.390203
O O4 0.546188 0.805207 0.257771
O O5 0.312817 0.793800 0.543414
O O6 0.342441 0.794700 0.302249
O O7 0.756329 0.500000 0.463866
O O8 0.615848 0.403945 0.617916
O O9 0.744053 0.423311 0.316746
O O10 0.472798 0.695131 0.750783
O O11 0.319436 0.734372 0.726474
O O12 0.250000 0.750000 0.000000
O O13 0.636666 0.600114 0.197432
O O14 0.500000 0.587620 0.500000
O O15 0.623881 0.500000 0.306636
#
# Coordination Sequence:
#
# PCOD9201403 Si02
#       7
#     4   8   8   8   8   8   8
#     4  12  20  36  55  84 137 156 188 238 302 376
#     4  11  21  37  59  86 116 157 198 246 293 364
#     4  10  20  37  62  88 115 153 205 257 296 343
#     4  12  23  36  58  87 122 159 191 242 308 361
#     4  11  19  34  56  85 122 156 191 245 300 360
#     4  11  21  37  56  88 124 154 194 239 307 363
#     4   8  16  31  54  85 115 148 198 250 291 342
#
# _framework density 18.730723999999999
#
# number of rings (size 3 to 8) (size 9 to 14) (size 15 to 20)
#    0.000    1.385    4.615    3.692    0.000    2.462 
#    0.000    1.538    0.000    3.692    0.000    5.923 
#    0.000    0.000    0.000    0.000    0.000    0.000 
#
# Total GULP energy -145096.634505 kJ/mol
# GULP energy per Si atom -5580.639789 kJ/mol
# Density = 1.868809 g / cm^3
# Si number density = 18.730724 Si / 1000 Ang^3
#
#
#
# Elastic Constant Matrix: (Units=GPa)
#
#
# Indices 1 2 3 4 5 6 
#
# 1 70.8125 17.8262 41.2919 0.0000 23.6916 0.0000
# 2 17.8262 74.2396 33.9455 0.0000 4.8510 0.0000
# 3 41.2919 33.9455 80.9352 0.0000 13.0697 0.0000
# 4 0.0000 0.0000 0.0000 16.2998 0.0000 1.9830
# 5 23.6916 4.8510 13.0697 0.0000 42.5160 0.0000
# 6 0.0000 0.0000 0.0000 1.9830 0.0000 36.5879
#
#
#
# Elastic Compliance Matrix: (Units=1/GPa)
#
#
# Indices 1 2 3 4 5 6 
#
# 1 0.023494 -0.000303 -0.010260 0.000000 -0.009903 0.000000
# 2 -0.000303 0.016673 -0.006901 0.000000 0.000388 0.000000
# 3 -0.010260 -0.006901 0.020449 0.000000 0.000218 0.000000
# 4 0.000000 0.000000 0.000000 0.061758 0.000000 -0.003347
# 5 -0.009903 0.000388 0.000218 0.000000 0.028928 0.000000
# 6 0.000000 0.000000 0.000000 -0.003347 0.000000 0.027513
#
#
# Mechanical properties :
#
#
# Convention : Reuss Voigt Hill
#
# Bulk Modulus (GPa) = 38.92828 45.79050 42.35939
# Shear Modulus (GPa) = 22.49164 27.94232 25.21698
#
# Velocity S-wave (km/s) = 3.46900 3.86656 3.67316
# Velocity P-wave (km/s) = 6.07236 6.66585 6.37601
#
# Compressibility (1/GPa) = 0.02568827
#
# Stress axis : x y z
#
# Youngs Moduli (GPa) = 42.56360 59.97846 48.90177
#
# Poissons Ratio (x) = 0.01817 0.50174
# Poissons Ratio (y) = 0.01289 0.33746
# Poissons Ratio (z) = 0.43671 0.41390
#
# Static dielectric constant tensor:
#      x y z
#    x 1.697490 0.000000 0.007850 
#    y 0.000000 1.661900 0.000000 
#    z 0.007850 0.000000 1.650040 
# 
# From -- ./inp_files/159474.got.cif
#   From: 2010.05.17/outbox.cif.g08.bks.cpg/sg12_80_cif.got.tgz:159474.got - 2010.06.03 13:09:07.
