data_PCOD9201988
_publ_section_title
;
Structure prediction by ZEFSAII (Michael W. Deem and Ramdas Pophale) SiO2 
 PCOD9201988
Probable space group: C 2/M
;
_chemical_formula_sum "Si O2"
_cell_formula_units_Z 40
_cell_length_a 22.488405
_cell_length_b 13.537620
_cell_length_c 9.866672
_cell_angle_alpha 90.000000
_cell_angle_beta 31.932621
_cell_angle_gamma 90.000000
_cell_volume 1588.777103
_symmetry_space_group_name_H-M "C 2/M"
_symmetry_group_IT_number 12
_symmetry_cell_setting 'monoclinic'
loop_
_space_group_symop_operation_xyz
x,y,z
-x,y,-z
-x,-y,-z
x,-y,z
1/2+x,1/2+y,z
1/2-x,1/2+y,-z
1/2-x,1/2-y,-z
1/2+x,1/2-y,z
loop_
_atom_site_type_symbol
_atom_site_label
_atom_site_fract_x
_atom_site_fract_y
_atom_site_fract_z
Si Si1 0.786541 0.500000 0.845449
Si Si2 0.138818 0.830558 0.989245
Si Si3 0.214402 0.500000 0.666807
Si Si4 0.644158 0.500000 0.361402
Si Si5 0.500000 0.670341 0.500000
Si Si6 0.518428 0.000000 0.716057
Si Si7 0.500000 0.335377 0.000000
Si Si8 0.162449 0.674828 0.565534
O O1 0.714815 0.411121 0.919088
O O2 0.916646 0.500000 0.554866
O O3 0.760973 0.500000 0.052463
O O4 0.239759 0.777085 0.715604
O O5 0.071032 0.777201 0.242789
O O6 0.058933 0.876451 0.024834
O O7 0.325811 0.500000 0.540867
O O8 0.212136 0.596010 0.575988
O O9 0.103644 0.500000 0.976875
O O10 0.577007 0.595807 0.439579
O O11 0.573875 0.897948 0.663687
O O12 0.405989 0.262611 0.239415
#
# Coordination Sequence:
#
# PCOD9201988 Si02
#       8
#     4   8   4   4   4   4   4   8
#     4   8  18  39  56  85 113 147 197 237 290 326
#     4  10  22  37  63  80 114 156 189 238 287 336
#     4  11  19  32  64  90 110 147 193 244 282 341
#     4   9  19  33  62  84 113 145 189 250 283 339
#     4   9  20  44  54  82 118 149 190 240 294 323
#     4   9  16  35  62  78 118 151 181 251 282 326
#     4  12  22  36  60  86 122 152 188 232 286 346
#     4  10  20  38  55  90 119 145 190 237 291 333
#
# _framework density 25.176596
#
# number of rings (size 3 to 8) (size 9 to 14) (size 15 to 20)
#    0.000    2.200    2.000    2.400    2.800    0.800 
#    0.000    1.000    8.800    0.000    0.000    0.000 
#    0.000    0.000    0.000    0.000    0.000    0.000 
#
# Total GULP energy -111468.212034 kJ/mol
# GULP energy per Si atom -5573.410602 kJ/mol
# Density = 2.511929 g / cm^3
# Si number density = 25.176596 Si / 1000 Ang^3
#
#
#
# Elastic Constant Matrix: (Units=GPa)
#
#
# Indices 1 2 3 4 5 6 
#
# 1 122.1430 6.9673 26.9499 0.0000 11.8082 0.0000
# 2 6.9673 40.7893 26.9682 0.0000 -4.8239 0.0000
# 3 26.9499 26.9682 223.6816 0.0000 7.2165 0.0000
# 4 0.0000 0.0000 0.0000 12.3214 0.0000 4.7377
# 5 11.8082 -4.8239 7.2165 0.0000 13.2070 0.0000
# 6 0.0000 0.0000 0.0000 4.7377 0.0000 -1.1523
#
#
#
# Elastic Compliance Matrix: (Units=1/GPa)
#
#
# Indices 1 2 3 4 5 6 
#
# 1 0.009293 -0.002259 -0.000563 0.000000 -0.008827 0.000000
# 2 -0.002259 0.029089 -0.003708 0.000000 0.014671 0.000000
# 3 -0.000563 -0.003708 0.005103 0.000000 -0.003640 0.000000
# 4 0.000000 0.000000 0.000000 0.031446 0.000000 0.129292
# 5 -0.008827 0.014671 -0.003640 0.000000 0.090957 0.000000
# 6 0.000000 0.000000 0.000000 0.129292 0.000000 -0.336254
#
#
# Mechanical properties :
#
#
# Convention : Reuss Voigt Hill
#
# Bulk Modulus (GPa) = 32.86769 56.48720 44.67744
# Shear Modulus (GPa) = -33.97561 26.59047 -3.69257
#
# Velocity S-wave (km/s) = -3.67753 3.25338 -1.21237
# Velocity P-wave (km/s) = 2.22465 6.04961 3.97798
#
# Compressibility (1/GPa) = 0.03042502
#
# Stress axis : x y z
#
# Youngs Moduli (GPa) = 107.60224 34.37730 195.96615
#
# Poissons Ratio (x) = 0.07767 0.11023
# Poissons Ratio (y) = 0.24312 0.72668
# Poissons Ratio (z) = 0.06053 0.12748
#
# Static dielectric constant tensor:
#      x y z
#    x 2.034620 0.000000 0.033510 
#    y 0.000000 1.926450 0.000000 
#    z 0.033510 0.000000 2.087910 
# 
# From -- ./inp_files/89009.got.cif
#   From: 2010.05.17/outbox.cif.g08.bks.cpg/sg12_45_cif.got.tgz:89009.got - 2010.06.03 13:09:07.
