data_PCOD9201888
_publ_section_title
;
Structure prediction by ZEFSAII (Michael W. Deem and Ramdas Pophale) SiO2 
 PCOD9201888
Probable space group: C 2/M
;
_chemical_formula_sum "Si O2"
_cell_formula_units_Z 52
_cell_length_a 10.129506
_cell_length_b 13.555863
_cell_length_c 23.683747
_cell_angle_alpha 90.000000
_cell_angle_beta 142.247002
_cell_angle_gamma 90.000000
_cell_volume 1991.135343
_symmetry_space_group_name_H-M "C 2/M"
_symmetry_group_IT_number 12
_symmetry_cell_setting 'monoclinic'
loop_
_space_group_symop_operation_xyz
x,y,z
-x,y,-z
-x,-y,-z
x,-y,z
1/2+x,1/2+y,z
1/2-x,1/2+y,-z
1/2-x,1/2-y,-z
1/2+x,1/2-y,z
loop_
_atom_site_type_symbol
_atom_site_label
_atom_site_fract_x
_atom_site_fract_y
_atom_site_fract_z
Si Si1 0.151757 0.845882 0.900366
Si Si2 0.801914 0.635659 0.287331
Si Si3 0.291962 0.000000 0.851750
Si Si4 0.744877 0.617435 0.060217
Si Si5 0.761425 0.129211 0.398632
Si Si6 0.818727 0.129869 0.292217
Si Si7 0.733464 0.134399 0.597430
O O1 0.902754 0.883639 0.821076
O O2 0.158452 0.726904 0.888111
O O3 0.261045 0.912327 0.889347
O O4 0.713427 0.915672 0.201526
O O5 0.071187 0.897945 0.375144
O O6 0.726994 0.606046 0.324570
O O7 0.043567 0.600266 0.357291
O O8 0.744321 0.870282 0.004083
O O9 0.806546 0.500000 0.093472
O O10 0.500000 0.623772 0.000000
O O11 0.726551 0.102936 0.321592
O O12 0.769585 0.247492 0.405067
O O13 0.000000 0.098875 0.500000
O O14 0.819739 0.246984 0.290776
O O15 0.500000 0.101537 0.500000
#
# Coordination Sequence:
#
# PCOD9201888 Si02
#       7
#     8   8   4   8   8   8   8
#     4  11  24  45  75 106 153 194 243 303 373 457
#     4  10  20  37  66 100 140 196 256 310 367 434
#     4  12  24  44  66 104 151 199 239 309 364 466
#     4  10  24  48  77 112 149 188 239 306 381 455
#     4   9  18  34  61  97 140 197 266 321 368 417
#     4  10  21  36  59  94 140 187 254 304 364 434
#     4   9  16  31  59  93 130 186 254 308 364 424
#
# _framework density 26.115753999999999
#
# number of rings (size 3 to 8) (size 9 to 14) (size 15 to 20)
#    0.000    2.000    2.308    0.923    2.154    3.692 
#    1.385    1.923    0.000    0.000    0.000    0.000 
#    0.000    0.000    0.000    0.000    0.000    2.308 
#
# Total GULP energy -144789.224641 kJ/mol
# GULP energy per Si atom -5568.816332 kJ/mol
# Density = 2.605631 g / cm^3
# Si number density = 26.115754 Si / 1000 Ang^3
#
#
#
# Elastic Constant Matrix: (Units=GPa)
#
#
# Indices 1 2 3 4 5 6 
#
# 1 73.2923 6.2677 8.1875 0.0000 11.1267 0.0000
# 2 6.2677 275.0948 7.3944 0.0000 -1.5075 0.0000
# 3 8.1875 7.3944 98.7836 -0.0001 22.4910 0.0001
# 4 0.0000 0.0000 -0.0001 474.4671 0.0001 -77.5007
# 5 11.1267 -1.5075 22.4910 0.0001 53.2668 0.0000
# 6 0.0000 0.0000 0.0001 -77.5007 0.0000 77.8921
#
#
#
# Elastic Compliance Matrix: (Units=1/GPa)
#
#
# Indices 1 2 3 4 5 6 
#
# 1 0.014147 -0.000323 -0.000524 0.000000 -0.002743 0.000000
# 2 -0.000323 0.003653 -0.000316 0.000000 0.000304 0.000000
# 3 -0.000524 -0.000316 0.011249 0.000000 -0.004649 0.000000
# 4 0.000000 0.000000 0.000000 0.002517 0.000000 0.002504
# 5 -0.002743 0.000304 -0.004649 0.000000 0.021318 0.000000
# 6 0.000000 0.000000 0.000000 0.002504 0.000000 0.015330
#
#
# Mechanical properties :
#
#
# Convention : Reuss Voigt Hill
#
# Bulk Modulus (GPa) = 37.42234 54.54109 45.98172
# Shear Modulus (GPa) = 62.93627 149.47995 106.20811
#
# Velocity S-wave (km/s) = 4.91440 7.57375 6.38408
# Velocity P-wave (km/s) = 6.82365 9.86975 8.48452
#
# Compressibility (1/GPa) = 0.02672200
#
# Stress axis : x y z
#
# Youngs Moduli (GPa) = 70.68851 273.77502 88.89914
#
# Poissons Ratio (x) = 0.08850 0.04656
# Poissons Ratio (y) = 0.02285 0.02808
# Poissons Ratio (z) = 0.03703 0.08649
#
# Static dielectric constant tensor:
#      x y z
#    x 1.978410 0.000000 0.083780 
#    y 0.000000 2.101680 0.000000 
#    z 0.083780 0.000000 2.093930 
# 
# From -- ./inp_files/358735.got.cif
#   From: 2010.05.17/outbox.cif.g08.bks.cpg/sg12_180_cif.got.tgz:358735.got - 2010.06.03 13:09:07.
