data_PCOD9201270
_publ_section_title
;
Structure prediction by ZEFSAII (Michael W. Deem and Ramdas Pophale) SiO2 
 PCOD9201270
Probable space group: C 2/M
;
_chemical_formula_sum "Si O2"
_cell_formula_units_Z 64
_cell_length_a 15.650324
_cell_length_b 8.794245
_cell_length_c 33.545548
_cell_angle_alpha 90.000000
_cell_angle_beta 46.037656
_cell_angle_gamma 90.000000
_cell_volume 3323.275359
_symmetry_space_group_name_H-M "C 2/M"
_symmetry_group_IT_number 12
_symmetry_cell_setting 'monoclinic'
loop_
_space_group_symop_operation_xyz
x,y,z
-x,y,-z
-x,-y,-z
x,-y,z
1/2+x,1/2+y,z
1/2-x,1/2+y,-z
1/2-x,1/2-y,-z
1/2+x,1/2-y,z
loop_
_atom_site_type_symbol
_atom_site_label
_atom_site_fract_x
_atom_site_fract_y
_atom_site_fract_z
Si Si1 0.125143 0.819208 0.436357
Si Si2 0.066855 0.318557 0.368978
Si Si3 0.550141 0.820666 0.939449
Si Si4 0.306872 0.682991 0.441073
Si Si5 0.363883 0.321827 0.941949
Si Si6 0.693584 0.320403 0.175123
Si Si7 0.245846 0.317465 0.752364
Si Si8 0.973222 0.320106 0.829146
O O1 0.108066 0.744207 0.398697
O O2 0.228849 0.744224 0.429323
O O3 0.000000 0.799838 0.500000
O O4 0.147141 0.000000 0.425187
O O5 0.052070 0.500000 0.375671
O O6 0.165332 0.270542 0.305033
O O7 0.942087 0.241597 0.397094
O O8 0.475290 0.719836 0.933538
O O9 0.688585 0.786316 0.888968
O O10 0.534336 0.000000 0.933981
O O11 0.500000 0.799340 0.000000
O O12 0.303862 0.500000 0.443038
O O13 0.250000 0.750000 0.500000
O O14 0.345236 0.500000 0.944558
O O15 0.393797 0.255068 0.889186
O O16 0.250000 0.250000 0.000000
O O17 0.668713 0.500000 0.178817
O O18 0.723472 0.290360 0.211365
O O19 0.583882 0.226520 0.194095
O O20 0.255817 0.500000 0.741994
O O21 0.109666 0.271372 0.788996
O O22 0.969967 0.500000 0.835992
#
# Coordination Sequence:
#
# PCOD9201270 Si02
#       8
#     8   8   8   8   8   8   8   8
#     4  11  23  41  68  99 134 176 219 270 328 388
#     4  12  26  43  67  99 135 176 223 273 324 386
#     4  10  20  37  61  90 126 164 204 257 322 385
#     4  12  24  41  67  99 136 176 219 268 326 389
#     4  12  24  38  60  90 126 164 209 263 319 386
#     4  10  21  40  65  93 127 170 212 260 323 384
#     4  10  23  45  67  89 130 178 219 267 323 383
#     4  11  23  42  67  94 126 167 213 265 324 383
#
# _framework density 19.258109000000001
#
# number of rings (size 3 to 8) (size 9 to 14) (size 15 to 20)
#    0.000    1.000    2.500    4.875    0.000    4.750 
#    0.000    2.500    0.000    0.000    0.000    0.000 
#    0.000    0.000    0.000    0.000    0.000    0.000 
#
# Total GULP energy -179007.856052 kJ/mol
# GULP energy per Si atom -5593.995502 kJ/mol
# Density = 1.921428 g / cm^3
# Si number density = 19.258109 Si / 1000 Ang^3
#
#
#
# Elastic Constant Matrix: (Units=GPa)
#
#
# Indices 1 2 3 4 5 6 
#
# 1 148.8749 75.0221 56.0463 0.0000 -11.1671 0.0001
# 2 75.0221 117.4739 61.8860 -0.0005 -5.4275 0.0001
# 3 56.0463 61.8860 108.4407 0.0001 -8.8829 0.0001
# 4 0.0000 -0.0005 0.0001 22.9756 0.0000 7.4497
# 5 -11.1671 -5.4275 -8.8829 0.0000 21.2173 0.0000
# 6 0.0001 0.0001 0.0001 7.4497 0.0000 33.4911
#
#
#
# Elastic Compliance Matrix: (Units=1/GPa)
#
#
# Indices 1 2 3 4 5 6 
#
# 1 0.010485 -0.005478 -0.002025 0.000000 0.003269 0.000000
# 2 -0.005478 0.015035 -0.005872 0.000000 -0.001495 0.000000
# 3 -0.002025 -0.005872 0.013885 0.000000 0.003245 0.000000
# 4 0.000000 0.000000 0.000000 0.046908 0.000000 -0.010434
# 5 0.003269 -0.001495 0.003245 0.000000 0.049828 0.000000
# 6 0.000000 0.000000 0.000000 -0.010434 0.000000 0.032180
#
#
# Mechanical properties :
#
#
# Convention : Reuss Voigt Hill
#
# Bulk Modulus (GPa) = 79.01569 84.52202 81.76885
# Shear Modulus (GPa) = 25.08917 27.65915 26.37416
#
# Velocity S-wave (km/s) = 3.61333 3.79388 3.70470
# Velocity P-wave (km/s) = 7.65030 7.94831 7.80073
#
# Compressibility (1/GPa) = 0.01265571
#
# Stress axis : x y z
#
# Youngs Moduli (GPa) = 95.37126 66.51032 72.02107
#
# Poissons Ratio (x) = 0.36437 0.14584
# Poissons Ratio (y) = 0.52249 0.42287
# Poissons Ratio (z) = 0.19312 0.39052
#
# Static dielectric constant tensor:
#      x y z
#    x 1.668890 0.000000 -0.001560 
#    y 0.000000 1.646710 0.000000 
#    z -0.001560 0.000000 1.652470 
# 
# From -- ./inp_files/375502.got.cif
#   From: 2010.05.17/outbox.cif.g08.bks.cpg/sg12_188_cif.got.tgz:375502.got - 2010.06.03 13:09:07.
