data_PCOD9201151
_publ_section_title
;
Structure prediction by ZEFSAII (Michael W. Deem and Ramdas Pophale) SiO2 
 PCOD9201151
Probable space group: C 2/M
;
_chemical_formula_sum "Si O2"
_cell_formula_units_Z 64
_cell_length_a 29.193420
_cell_length_b 17.878126
_cell_length_c 8.684962
_cell_angle_alpha 90.000000
_cell_angle_beta 41.830278
_cell_angle_gamma 90.000000
_cell_volume 3023.101660
_symmetry_space_group_name_H-M "C 2/M"
_symmetry_group_IT_number 12
_symmetry_cell_setting 'monoclinic'
loop_
_space_group_symop_operation_xyz
x,y,z
-x,y,-z
-x,-y,-z
x,-y,z
1/2+x,1/2+y,z
1/2-x,1/2+y,-z
1/2-x,1/2-y,-z
1/2+x,1/2-y,z
loop_
_atom_site_type_symbol
_atom_site_label
_atom_site_fract_x
_atom_site_fract_y
_atom_site_fract_z
Si Si1 0.230631 0.584633 0.081949
Si Si2 0.614500 0.083893 0.866790
Si Si3 0.567491 0.729387 0.431264
Si Si4 0.241172 0.915033 0.653395
Si Si5 0.071257 0.298014 0.752710
Si Si6 0.815035 0.181643 0.450699
Si Si7 0.830889 0.689132 0.024966
Si Si8 0.621729 0.415460 0.438432
O O1 0.203313 0.500000 0.144735
O O2 0.228058 0.612210 0.262641
O O3 0.193060 0.634582 0.052249
O O4 0.310790 0.582233 0.837511
O O5 0.695193 0.078333 0.622906
O O6 0.578991 0.119553 0.805656
O O7 0.614948 0.143622 0.004417
O O8 0.590161 0.000000 0.964529
O O9 0.500000 0.740821 0.500000
O O10 0.571501 0.785078 0.568858
O O11 0.571385 0.646253 0.493335
O O12 0.631873 0.743662 0.156548
O O13 0.190735 0.856803 0.700575
O O14 0.213791 0.000000 0.744935
O O15 0.134735 0.251541 0.663870
O O16 0.000000 0.267033 0.000000
O O17 0.739511 0.204011 0.704172
O O18 0.848211 0.118785 0.478851
O O19 0.595373 0.500000 0.521635
#
# Coordination Sequence:
#
# PCOD9201151 Si02
#       8
#     8   8   8   8   8   8   8   8
#     4   9  17  30  53  86 120 150 186 237 288 336
#     4  10  21  37  59  85 114 151 192 236 286 340
#     4  11  24  40  60  85 116 154 192 237 288 339
#     4   9  17  30  53  87 120 149 187 235 287 340
#     4  11  24  41  59  83 116 153 193 237 286 341
#     4   9  20  36  61  87 114 152 191 235 286 338
#     4  10  20  37  61  87 117 149 193 238 284 341
#     4   9  19  36  58  84 114 150 192 236 283 336
#
# _framework density 21.170309
#
# number of rings (size 3 to 8) (size 9 to 14) (size 15 to 20)
#    0.000    2.250    0.000    2.250    0.000   13.000 
#    0.000    0.625    0.000   12.000    0.000    0.000 
#    0.000    0.000    0.000    0.000    0.000    0.000 
#
# Total GULP energy -178677.979623 kJ/mol
# GULP energy per Si atom -5583.686863 kJ/mol
# Density = 2.112212 g / cm^3
# Si number density = 21.170309 Si / 1000 Ang^3
#
#
#
# Elastic Constant Matrix: (Units=GPa)
#
#
# Indices 1 2 3 4 5 6 
#
# 1 106.7351 52.1158 16.9417 0.0000 7.7263 0.0000
# 2 52.1158 101.3817 15.2065 0.0000 4.1041 0.0000
# 3 16.9417 15.2065 55.6652 0.0000 3.4117 0.0000
# 4 0.0000 0.0000 0.0000 17.8601 0.0000 7.2795
# 5 7.7263 4.1041 3.4117 0.0000 30.2186 0.0000
# 6 0.0000 0.0000 0.0000 7.2795 0.0000 3.7494
#
#
#
# Elastic Compliance Matrix: (Units=1/GPa)
#
#
# Indices 1 2 3 4 5 6 
#
# 1 0.012903 -0.006230 -0.002089 0.000000 -0.002217 0.000000
# 2 -0.006230 0.013328 -0.001744 0.000000 -0.000020 0.000000
# 3 -0.002089 -0.001744 0.019162 0.000000 -0.001392 0.000000
# 4 0.000000 0.000000 0.000000 0.268317 0.000000 -0.520936
# 5 -0.002217 -0.000020 -0.001392 0.000000 0.033819 0.000000
# 6 0.000000 0.000000 0.000000 -0.520936 0.000000 1.278103
#
#
# Mechanical properties :
#
#
# Convention : Reuss Voigt Hill
#
# Bulk Modulus (GPa) = 39.57579 48.03447 43.80513
# Shear Modulus (GPa) = 3.02265 22.33349 12.67807
#
# Velocity S-wave (km/s) = 1.19619 3.25151 2.44982
# Velocity P-wave (km/s) = 4.54339 6.06921 5.36086
#
# Compressibility (1/GPa) = 0.02526797
#
# Stress axis : x y z
#
# Youngs Moduli (GPa) = 77.50210 75.02725 52.18623
#
# Poissons Ratio (x) = 0.46739 0.10903
# Poissons Ratio (y) = 0.48281 0.09100
# Poissons Ratio (z) = 0.16193 0.13083
#
# Static dielectric constant tensor:
#      x y z
#    x 1.747410 0.000000 0.007780 
#    y 0.000000 1.806620 0.000000 
#    z 0.007780 0.000000 1.766390 
# 
# From -- ./inp_files/112799.got.cif
#   From: 2010.05.17/outbox.cif.g08.bks.cpg/sg12_57_cif.got.tgz:112799.got - 2010.06.03 13:09:07.
