data_PCOD9201706
_publ_section_title
;
Structure prediction by ZEFSAII (Michael W. Deem and Ramdas Pophale) SiO2 
 PCOD9201706
Probable space group: C 2/M
;
_chemical_formula_sum "Si O2"
_cell_formula_units_Z 56
_cell_length_a 12.549380
_cell_length_b 14.879980
_cell_length_c 14.596989
_cell_angle_alpha 90.000000
_cell_angle_beta 61.834169
_cell_angle_gamma 90.000000
_cell_volume 2402.990993
_symmetry_space_group_name_H-M "C 2/M"
_symmetry_group_IT_number 12
_symmetry_cell_setting 'monoclinic'
loop_
_space_group_symop_operation_xyz
x,y,z
-x,y,-z
-x,-y,-z
x,-y,z
1/2+x,1/2+y,z
1/2-x,1/2+y,-z
1/2-x,1/2-y,-z
1/2+x,1/2-y,z
loop_
_atom_site_type_symbol
_atom_site_label
_atom_site_fract_x
_atom_site_fract_y
_atom_site_fract_z
Si Si1 0.521563 0.890608 0.592560
Si Si2 0.666040 0.395946 0.291973
Si Si3 0.119243 0.845533 0.901573
Si Si4 0.925569 0.354480 0.110571
Si Si5 0.707668 0.390025 0.474947
Si Si6 0.936230 0.108735 0.283799
Si Si7 0.615495 0.894522 0.177788
O O1 0.500000 0.855920 0.500000
O O2 0.652207 0.863446 0.576510
O O3 0.416889 0.866939 0.705582
O O4 0.523226 0.000000 0.587075
O O5 0.629608 0.500000 0.317455
O O6 0.804401 0.394775 0.202777
O O7 0.656174 0.356547 0.398550
O O8 0.572282 0.360437 0.254616
O O9 0.118892 0.738747 0.914611
O O10 0.242504 0.883535 0.892579
O O11 0.109268 0.859350 0.796275
O O12 0.000000 0.882669 0.000000
O O13 0.025515 0.341644 0.148523
O O14 0.000000 0.403094 0.000000
O O15 0.703206 0.500000 0.474597
O O16 0.641918 0.363531 0.595514
O O17 0.930040 0.000000 0.279953
O O18 0.583304 0.000000 0.179368
#
# Coordination Sequence:
#
# PCOD9201706 Si02
#       7
#     8   8   8   8   8   8   8
#     4   9  16  29  56  89 122 157 199 253 311 370
#     4  10  20  37  63  94 125 160 208 264 315 374
#     4  11  27  44  63  88 130 173 210 256 324 386
#     4  11  26  43  65  89 126 171 216 260 322 382
#     4   9  16  32  57  91 126 157 202 258 319 373
#     4  10  21  37  63  94 125 163 208 258 313 380
#     4  11  23  42  69  97 124 162 218 273 312 369
#
# _framework density 23.304290999999999
#
# number of rings (size 3 to 8) (size 9 to 14) (size 15 to 20)
#    0.000    1.857    1.429    2.143    4.000    7.429 
#    0.000    0.714    0.000    0.000    0.000    0.000 
#    0.000    0.000    0.000    0.000    0.000    0.000 
#
# Total GULP energy -156471.872456 kJ/mol
# GULP energy per Si atom -5588.281159 kJ/mol
# Density = 2.325125 g / cm^3
# Si number density = 23.304291 Si / 1000 Ang^3
#
#
#
# Elastic Constant Matrix: (Units=GPa)
#
#
# Indices 1 2 3 4 5 6 
#
# 1 75.1577 -10.0176 0.8636 0.0000 -22.4710 0.0000
# 2 -10.0176 44.2742 -2.6776 0.0000 0.3698 0.0000
# 3 0.8636 -2.6776 89.5259 0.0000 -15.4251 0.0000
# 4 0.0000 0.0000 0.0000 17.1470 0.0000 -3.1598
# 5 -22.4710 0.3698 -15.4251 0.0000 38.7458 0.0000
# 6 0.0000 0.0000 0.0000 -3.1598 0.0000 18.1963
#
#
#
# Elastic Compliance Matrix: (Units=1/GPa)
#
#
# Indices 1 2 3 4 5 6 
#
# 1 0.016933 0.003850 0.001758 0.000000 0.010483 0.000000
# 2 0.003850 0.023503 0.001086 0.000000 0.002441 0.000000
# 3 0.001758 0.001086 0.012196 0.000000 0.005865 0.000000
# 4 0.000000 0.000000 0.000000 0.060247 0.000000 0.010462
# 5 0.010483 0.002441 0.005865 0.000000 0.034201 0.000000
# 6 0.000000 0.000000 0.000000 0.010462 0.000000 0.056773
#
#
# Mechanical properties :
#
#
# Convention : Reuss Voigt Hill
#
# Bulk Modulus (GPa) = 15.14679 20.58827 17.86753
# Shear Modulus (GPa) = 23.53272 29.53712 26.53492
#
# Velocity S-wave (km/s) = 3.18119 3.56399 3.37802
# Velocity P-wave (km/s) = 4.47291 5.07837 4.78522
#
# Compressibility (1/GPa) = 0.06602059
#
# Stress axis : x y z
#
# Youngs Moduli (GPa) = 59.05733 42.54782 81.99443
#
# Poissons Ratio (x) = -0.16381 -0.14415
# Poissons Ratio (y) = -0.22737 -0.08908
# Poissons Ratio (z) = -0.10383 -0.04622
#
# Static dielectric constant tensor:
#      x y z
#    x 1.848850 0.000000 0.007110 
#    y 0.000000 1.894850 0.000000 
#    z 0.007110 0.000000 1.884790 
# 
# From -- ./inp_files/206584.got.cif
#   From: 2010.05.17/outbox.cif.g08.bks.cpg/sg12_104_cif.got.tgz:206584.got - 2010.06.03 13:09:07.
