data_PCOD9201394
_publ_section_title
;
Structure prediction by ZEFSAII (Michael W. Deem and Ramdas Pophale) SiO2 
 PCOD9201394
Probable space group: C 2/M
;
_chemical_formula_sum "Si O2"
_cell_formula_units_Z 64
_cell_length_a 29.215586
_cell_length_b 9.278432
_cell_length_c 12.569261
_cell_angle_alpha 90.000000
_cell_angle_beta 92.920445
_cell_angle_gamma 90.000000
_cell_volume 3402.785117
_symmetry_space_group_name_H-M "C 2/M"
_symmetry_group_IT_number 12
_symmetry_cell_setting 'monoclinic'
loop_
_space_group_symop_operation_xyz
x,y,z
-x,y,-z
-x,-y,-z
x,-y,z
1/2+x,1/2+y,z
1/2-x,1/2+y,-z
1/2-x,1/2-y,-z
1/2+x,1/2-y,z
loop_
_atom_site_type_symbol
_atom_site_label
_atom_site_fract_x
_atom_site_fract_y
_atom_site_fract_z
Si Si1 0.273803 0.326471 0.601668
Si Si2 0.619210 0.328601 0.355382
Si Si3 0.544807 0.167964 0.758808
Si Si4 0.448180 0.329361 0.454728
Si Si5 0.317798 0.330627 0.013835
Si Si6 0.742838 0.172919 0.831013
Si Si7 0.442350 0.832181 0.817336
Si Si8 0.074182 0.169772 0.974967
O O1 0.269883 0.500000 0.590855
O O2 0.250000 0.250000 0.500000
O O3 0.327946 0.292912 0.616171
O O4 0.250453 0.282572 0.710531
O O5 0.616541 0.500000 0.330444
O O6 0.587751 0.301511 0.455130
O O7 0.597685 0.241148 0.255424
O O8 0.561587 0.237458 0.651269
O O9 0.489479 0.177679 0.756801
O O10 0.562234 0.255842 0.862470
O O11 0.557494 0.000000 0.768732
O O12 0.500000 0.298531 0.500000
O O13 0.446242 0.500000 0.428704
O O14 0.309231 0.500000 0.032057
O O15 0.299600 0.243377 0.112995
O O16 0.371323 0.312346 0.000967
O O17 0.287368 0.288316 0.907905
O O18 0.738607 0.000000 0.832275
O O19 0.432836 0.000000 0.837297
O O20 0.449242 0.748525 0.928579
O O21 0.063253 0.000000 0.971666
#
# Coordination Sequence:
#
# PCOD9201394 Si02
#       8
#     8   8   8   8   8   8   8   8
#     4  10  22  39  58  83 117 153 190 236 287 338
#     4  10  21  39  63  87 114 152 196 241 287 340
#     4  11  24  39  56  82 119 155 188 236 292 341
#     4  10  20  37  62  88 113 147 196 241 280 339
#     4   9  19  36  58  84 110 142 185 233 281 335
#     4   9  18  35  58  82 111 145 183 228 283 339
#     4  11  23  38  58  85 117 150 189 237 290 345
#     4  11  23  38  58  83 115 153 193 235 284 343
#
# _framework density 18.808122999999998
#
# number of rings (size 3 to 8) (size 9 to 14) (size 15 to 20)
#    0.000    1.875    1.250    2.250    0.000    8.750 
#    0.000    6.250    0.000    0.000    0.000    0.000 
#    0.000    0.000    0.000    0.000    0.000    0.000 
#
# Total GULP energy -178778.992302 kJ/mol
# GULP energy per Si atom -5586.843509 kJ/mol
# Density = 1.876531 g / cm^3
# Si number density = 18.808123 Si / 1000 Ang^3
#
#
#
# Elastic Constant Matrix: (Units=GPa)
#
#
# Indices 1 2 3 4 5 6 
#
# 1 23.6568 20.4899 13.4744 0.0000 -1.3884 0.0000
# 2 20.4899 67.6232 61.7558 0.0000 3.1358 0.0000
# 3 13.4744 61.7558 124.2474 0.0000 -1.6625 0.0000
# 4 0.0000 0.0000 0.0000 34.7078 0.0000 -2.3565
# 5 -1.3884 3.1358 -1.6625 0.0000 24.8047 0.0000
# 6 0.0000 0.0000 0.0000 -2.3565 0.0000 21.5775
#
#
#
# Elastic Compliance Matrix: (Units=1/GPa)
#
#
# Indices 1 2 3 4 5 6 
#
# 1 0.059711 -0.023009 0.005049 0.000000 0.006589 0.000000
# 2 -0.023009 0.036418 -0.015699 0.000000 -0.006944 0.000000
# 3 0.005049 -0.015699 0.015348 0.000000 0.003296 0.000000
# 4 0.000000 0.000000 0.000000 0.029027 0.000000 0.003170
# 5 0.006589 -0.006944 0.003296 0.000000 0.041783 0.000000
# 6 0.000000 0.000000 0.000000 0.003170 0.000000 0.046691
#
#
# Mechanical properties :
#
#
# Convention : Reuss Voigt Hill
#
# Bulk Modulus (GPa) = 22.64523 45.21863 33.93193
# Shear Modulus (GPa) = 16.07636 24.20515 20.14075
#
# Velocity S-wave (km/s) = 2.92679 3.59130 3.27594
# Velocity P-wave (km/s) = 4.84642 6.42580 5.69116
#
# Compressibility (1/GPa) = 0.04415942
#
# Stress axis : x y z
#
# Youngs Moduli (GPa) = 16.74735 27.45859 65.15487
#
# Poissons Ratio (x) = 0.63179 -0.32896
# Poissons Ratio (y) = 0.38534 1.02287
# Poissons Ratio (z) = -0.08456 0.43107
#
# Static dielectric constant tensor:
#      x y z
#    x 1.650000 0.000000 -0.003510 
#    y 0.000000 1.630580 0.000000 
#    z -0.003510 0.000000 1.622850 
# 
# From -- ./inp_files/187433.got.cif
#   From: 2010.05.17/outbox.cif.g08.bks.cpg/sg12_94_cif.got.tgz:187433.got - 2010.06.03 13:09:07.
