data_PCOD9201281
_publ_section_title
;
Structure prediction by ZEFSAII (Michael W. Deem and Ramdas Pophale) SiO2 
 PCOD9201281
Probable space group: C 2/M
;
_chemical_formula_sum "Si O2"
_cell_formula_units_Z 56
_cell_length_a 19.176278
_cell_length_b 18.731493
_cell_length_c 10.486792
_cell_angle_alpha 90.000000
_cell_angle_beta 53.752344
_cell_angle_gamma 90.000000
_cell_volume 3037.854246
_symmetry_space_group_name_H-M "C 2/M"
_symmetry_group_IT_number 12
_symmetry_cell_setting 'monoclinic'
loop_
_space_group_symop_operation_xyz
x,y,z
-x,y,-z
-x,-y,-z
x,-y,z
1/2+x,1/2+y,z
1/2-x,1/2+y,-z
1/2-x,1/2-y,-z
1/2+x,1/2-y,z
loop_
_atom_site_type_symbol
_atom_site_label
_atom_site_fract_x
_atom_site_fract_y
_atom_site_fract_z
Si Si1 0.211077 0.788547 0.419112
Si Si2 0.741166 0.196091 0.130853
Si Si3 0.044352 0.416057 0.082291
Si Si4 0.632930 0.584116 0.104688
Si Si5 0.449872 0.171030 0.685009
Si Si6 0.241089 0.582036 0.789205
Si Si7 0.989513 0.828546 0.365202
O O1 0.250000 0.750000 0.500000
O O2 0.231527 0.740903 0.271468
O O3 0.250120 0.864931 0.338200
O O4 0.109032 0.804299 0.548222
O O5 0.650895 0.153957 0.218265
O O6 0.750000 0.250000 0.000000
O O7 0.817982 0.138526 0.042578
O O8 0.026091 0.500000 0.118646
O O9 0.012782 0.372218 0.237362
O O10 0.147269 0.407259 0.953659
O O11 0.000000 0.391576 0.000000
O O12 0.637715 0.500000 0.067986
O O13 0.685272 0.594287 0.182811
O O14 0.535278 0.612027 0.229911
O O15 0.500000 0.157604 0.500000
O O16 0.455864 0.255515 0.705525
O O17 0.247272 0.500000 0.741767
O O18 0.000000 0.853033 0.500000
#
# Coordination Sequence:
#
# PCOD9201281 Si02
#       7
#     8   8   8   8   8   8   8
#     4  12  25  40  62  95 126 165 208 254 327 378
#     4  12  19  39  63  87 126 159 208 268 303 365
#     4  10  22  37  55  85 124 162 203 252 310 376
#     4  11  22  37  66  96 121 164 213 262 318 369
#     4  11  20  34  59  86 118 160 200 261 311 358
#     4  10  20  37  61  91 121 158 209 257 307 374
#     4  11  20  39  59  92 125 155 206 264 307 365
#
# _framework density 18.434062999999998
#
# number of rings (size 3 to 8) (size 9 to 14) (size 15 to 20)
#    0.000    1.000    8.571    0.000    2.000    1.143 
#    0.000    1.429    0.000    0.857    0.000    0.000 
#    0.000    0.000    0.000    0.000    0.000    0.000 
#
# Total GULP energy -156244.116366 kJ/mol
# GULP energy per Si atom -5580.147013 kJ/mol
# Density = 1.839211 g / cm^3
# Si number density = 18.434063 Si / 1000 Ang^3
#
#
#
# Elastic Constant Matrix: (Units=GPa)
#
#
# Indices 1 2 3 4 5 6 
#
# 1 66.6752 30.2126 48.4390 0.0000 2.4564 0.0000
# 2 30.2126 86.5774 64.0242 0.0000 -5.2762 0.0000
# 3 48.4390 64.0242 98.3993 0.0000 3.1284 0.0000
# 4 0.0000 0.0000 0.0000 23.4574 0.0000 -3.1301
# 5 2.4564 -5.2762 3.1284 0.0000 28.9733 0.0000
# 6 0.0000 0.0000 0.0000 -3.1301 0.0000 18.7198
#
#
#
# Elastic Compliance Matrix: (Units=1/GPa)
#
#
# Indices 1 2 3 4 5 6 
#
# 1 0.023378 0.000582 -0.011868 0.000000 -0.000595 0.000000
# 2 0.000582 0.023234 -0.015590 0.000000 0.005865 0.000000
# 3 -0.011868 -0.015590 0.026297 0.000000 -0.004672 0.000000
# 4 0.000000 0.000000 0.000000 0.043603 0.000000 0.007291
# 5 -0.000595 0.005865 -0.004672 0.000000 0.036138 0.000000
# 6 0.000000 0.000000 0.000000 0.007291 0.000000 0.054639
#
#
# Mechanical properties :
#
#
# Convention : Reuss Voigt Hill
#
# Bulk Modulus (GPa) = 52.20074 59.66706 55.93390
# Shear Modulus (GPa) = 18.69667 21.49517 20.09592
#
# Velocity S-wave (km/s) = 3.18818 3.41846 3.30533
# Velocity P-wave (km/s) = 6.47547 6.92959 6.70638
#
# Compressibility (1/GPa) = 0.01915682
#
# Stress axis : x y z
#
# Youngs Moduli (GPa) = 42.77441 43.04116 38.02643
#
# Poissons Ratio (x) = -0.02506 0.45131
# Poissons Ratio (y) = -0.02490 0.59284
# Poissons Ratio (z) = 0.50766 0.67102
#
# Static dielectric constant tensor:
#      x y z
#    x 1.658670 0.000000 -0.027330 
#    y 0.000000 1.641090 0.000000 
#    z -0.027330 0.000000 1.655730 
# 
# From -- ./inp_files/77362.got.cif
#   From: 2010.05.17/outbox.cif.g08.bks.cpg/sg12_39_cif.got.tgz:77362.got - 2010.06.03 13:09:07.
