data_PCOD9201746
_publ_section_title
;
Structure prediction by ZEFSAII (Michael W. Deem and Ramdas Pophale) SiO2 
 PCOD9201746
Probable space group: C 2/M
;
_chemical_formula_sum "Si O2"
_cell_formula_units_Z 56
_cell_length_a 19.332481
_cell_length_b 15.426776
_cell_length_c 9.955071
_cell_angle_alpha 90.000000
_cell_angle_beta 117.619374
_cell_angle_gamma 90.000000
_cell_volume 2630.654558
_symmetry_space_group_name_H-M "C 2/M"
_symmetry_group_IT_number 12
_symmetry_cell_setting 'monoclinic'
loop_
_space_group_symop_operation_xyz
x,y,z
-x,y,-z
-x,-y,-z
x,-y,z
1/2+x,1/2+y,z
1/2-x,1/2+y,-z
1/2-x,1/2-y,-z
1/2+x,1/2-y,z
loop_
_atom_site_type_symbol
_atom_site_label
_atom_site_fract_x
_atom_site_fract_y
_atom_site_fract_z
Si Si1 0.633533 0.837604 0.458637
Si Si2 0.020010 0.601417 0.163686
Si Si3 0.768054 0.847826 0.967203
Si Si4 0.296055 0.600216 0.703641
Si Si5 0.577942 0.638118 0.395406
Si Si6 0.602780 0.152237 0.724148
Si Si7 0.101572 0.861507 0.717457
O O1 0.606608 0.882888 0.297559
O O2 0.725570 0.848613 0.566723
O O3 0.601093 0.740093 0.416973
O O4 0.597031 0.877360 0.564070
O O5 0.005156 0.500000 0.142054
O O6 0.965791 0.635348 0.234529
O O7 0.000000 0.640603 0.000000
O O8 0.826322 0.890508 0.126275
O O9 0.750000 0.750000 0.000000
O O10 0.808418 0.853175 0.857655
O O11 0.682012 0.885103 0.860788
O O12 0.272411 0.500000 0.704642
O O13 0.372072 0.600377 0.679922
O O14 0.485067 0.623078 0.301777
O O15 0.602632 0.605648 0.565763
O O16 0.609031 0.256574 0.717056
#
# Coordination Sequence:
#
# PCOD9201746 Si02
#       7
#     8   8   8   8   8   8   8
#     4  10  20  38  62  82 113 162 204 244 292 362
#     4  11  23  34  49  83 124 155 191 244 306 363
#     4   9  20  38  60  85 117 157 206 248 298 356
#     4  11  24  40  60  92 126 159 202 256 312 361
#     4  10  20  37  64  89 120 153 206 251 299 362
#     4   9  18  35  57  81 110 149 199 244 290 352
#     4   9  18  37  60  89 113 151 203 252 290 351
#
# _framework density 21.287478
#
# number of rings (size 3 to 8) (size 9 to 14) (size 15 to 20)
#    0.000    2.143    1.429    2.143    0.000    7.429 
#    0.000    3.571    0.000    0.000    0.000    0.000 
#    0.000    0.000    0.000    0.000    0.000    0.000 
#
# Total GULP energy -156167.159341 kJ/mol
# GULP energy per Si atom -5577.398548 kJ/mol
# Density = 2.123903 g / cm^3
# Si number density = 21.287478 Si / 1000 Ang^3
#
#
#
# Elastic Constant Matrix: (Units=GPa)
#
#
# Indices 1 2 3 4 5 6 
#
# 1 87.9670 5.0407 45.8032 0.0000 -4.7913 0.0000
# 2 5.0407 59.8403 13.3912 0.0000 -9.3294 0.0000
# 3 45.8032 13.3912 146.8600 0.0000 13.5136 0.0000
# 4 0.0000 0.0000 0.0000 -24.8961 0.0000 16.0208
# 5 -4.7913 -9.3294 13.5136 0.0000 29.2878 0.0000
# 6 0.0000 0.0000 0.0000 16.0208 0.0000 1.1120
#
#
#
# Elastic Compliance Matrix: (Units=1/GPa)
#
#
# Indices 1 2 3 4 5 6 
#
# 1 0.014150 0.000655 -0.004914 0.000000 0.004790 0.000000
# 2 0.000655 0.018331 -0.002530 0.000000 0.007114 0.000000
# 3 -0.004914 -0.002530 0.009107 0.000000 -0.005812 0.000000
# 4 0.000000 0.000000 0.000000 -0.003911 0.000000 0.056342
# 5 0.004790 0.007114 -0.005812 0.000000 0.039875 0.000000
# 6 0.000000 0.000000 0.000000 0.056342 0.000000 0.087555
#
#
# Mechanical properties :
#
#
# Convention : Reuss Voigt Hill
#
# Bulk Modulus (GPa) = 35.70197 47.01529 41.35863
# Shear Modulus (GPa) = 26.59250 16.46288 21.52769
#
# Velocity S-wave (km/s) = 3.53825 2.78395 3.18352
# Velocity P-wave (km/s) = 5.78792 5.69804 5.74316
#
# Compressibility (1/GPa) = 0.02800966
#
# Stress axis : x y z
#
# Youngs Moduli (GPa) = 70.67267 54.55147 109.80352
#
# Poissons Ratio (x) = -0.03570 0.53953
# Poissons Ratio (y) = -0.04626 0.27783
# Poissons Ratio (z) = 0.34725 0.13803
#
# Static dielectric constant tensor:
#      x y z
#    x 1.772980 0.000000 0.011540 
#    y 0.000000 1.838600 0.000000 
#    z 0.011540 0.000000 1.799630 
# 
# From -- ./inp_files/76007.got.cif
#   From: 2010.05.17/outbox.cif.g08.bks.cpg/sg12_39_cif.got.tgz:76007.got - 2010.06.03 13:09:07.
