data_PCOD9201288
_publ_section_title
;
Structure prediction by ZEFSAII (Michael W. Deem and Ramdas Pophale) SiO2 
 PCOD9201288
Probable space group: C 2/M
;
_chemical_formula_sum "Si O2"
_cell_formula_units_Z 50
_cell_length_a 7.655046
_cell_length_b 13.750510
_cell_length_c 22.592103
_cell_angle_alpha 90.000000
_cell_angle_beta 58.695370
_cell_angle_gamma 90.000000
_cell_volume 2031.856687
_symmetry_space_group_name_H-M "C 2/M"
_symmetry_group_IT_number 12
_symmetry_cell_setting 'monoclinic'
loop_
_space_group_symop_operation_xyz
x,y,z
-x,y,-z
-x,-y,-z
x,-y,z
1/2+x,1/2+y,z
1/2-x,1/2+y,-z
1/2-x,1/2-y,-z
1/2+x,1/2-y,z
loop_
_atom_site_type_symbol
_atom_site_label
_atom_site_fract_x
_atom_site_fract_y
_atom_site_fract_z
Si Si1 0.716379 0.611456 0.713434
Si Si2 0.844922 0.885766 0.611612
Si Si3 0.285128 0.308295 0.752562
Si Si4 0.786755 0.319514 0.570015
Si Si5 0.207173 0.143399 0.029968
Si Si6 0.500000 0.500000 0.000000
Si Si7 0.081675 0.604621 0.885890
O O1 0.743276 0.500000 0.726517
O O2 0.478708 0.643087 0.750845
O O3 0.819932 0.694602 0.734494
O O4 0.792510 0.628721 0.632898
O O5 0.770480 0.861731 0.691785
O O6 0.758038 0.797091 0.586910
O O7 0.089452 0.863553 0.571657
O O8 0.807741 0.000000 0.603403
O O9 0.095121 0.321126 0.830037
O O10 0.000000 0.334383 0.500000
O O11 0.003598 0.086700 0.050697
O O12 0.270407 0.132665 0.086221
O O13 0.250000 0.250000 0.000000
O O14 0.368721 0.092353 0.957332
O O15 0.139266 0.500000 0.850481
#
# Coordination Sequence:
#
# PCOD9201288 Si02
#       7
#     8   8   8   8   8   2   8
#     4  10  22  43  63  90 128 166 206 262 317 367
#     4  10  21  39  59  88 127 167 207 259 316 365
#     4  10  22  40  67  90 123 163 211 260 307 376
#     4  10  20  37  61  91 126 164 213 261 308 374
#     4  11  24  41  65  94 129 161 203 262 306 370
#     4  12  20  46  68  94 128 162 204 252 316 364
#     4  11  21  43  65  88 125 166 206 252 320 367
#
# _framework density 24.608034
#
# number of rings (size 3 to 8) (size 9 to 14) (size 15 to 20)
#    0.000    1.600    1.600    4.800    2.240    1.600 
#    0.000   15.200    0.000    0.000    0.000    0.000 
#    0.000    0.000    0.000    0.000    0.000    0.000 
#
# Total GULP energy -139501.394060 kJ/mol
# GULP energy per Si atom -5580.055762 kJ/mol
# Density = 2.455203 g / cm^3
# Si number density = 24.608034 Si / 1000 Ang^3
#
#
#
# Elastic Constant Matrix: (Units=GPa)
#
#
# Indices 1 2 3 4 5 6 
#
# 1 26.1793 4.3064 -9.7267 -0.0001 0.4572 0.0001
# 2 4.3064 222.2846 7.3774 -0.0001 2.3753 0.0001
# 3 -9.7267 7.3774 107.8832 -0.0002 -10.3939 0.0002
# 4 -0.0001 -0.0001 -0.0002 19.5018 0.0001 -2.0494
# 5 0.4572 2.3753 -10.3939 0.0001 15.9921 -0.0001
# 6 0.0001 0.0001 0.0002 -2.0494 -0.0001 26.2931
#
#
#
# Elastic Compliance Matrix: (Units=1/GPa)
#
#
# Indices 1 2 3 4 5 6 
#
# 1 0.039729 -0.000911 0.003785 0.000000 0.001459 0.000000
# 2 -0.000911 0.004543 -0.000486 0.000000 -0.000964 0.000000
# 3 0.003785 -0.000486 0.010284 0.000000 0.006648 0.000000
# 4 0.000000 0.000000 0.000000 0.051701 0.000000 0.004030
# 5 0.001459 -0.000964 0.006648 0.000000 0.066953 0.000000
# 6 0.000000 0.000000 0.000000 0.004030 0.000000 0.038347
#
#
# Mechanical properties :
#
#
# Convention : Reuss Voigt Hill
#
# Bulk Modulus (GPa) = 16.85421 40.02901 28.44161
# Shear Modulus (GPa) = 22.06943 35.98340 29.02641
#
# Velocity S-wave (km/s) = 2.99798 3.82810 3.43818
# Velocity P-wave (km/s) = 4.34140 5.98674 5.22919
#
# Compressibility (1/GPa) = 0.05933235
#
# Stress axis : x y z
#
# Youngs Moduli (GPa) = 25.17069 220.12814 97.23613
#
# Poissons Ratio (x) = 0.20051 -0.36802
# Poissons Ratio (y) = 0.02293 0.04723
# Poissons Ratio (z) = -0.09527 0.10691
#
# Static dielectric constant tensor:
#      x y z
#    x 2.125870 0.000000 -0.023810 
#    y 0.000000 2.078360 0.000000 
#    z -0.023810 0.000000 1.965540 
# 
# From -- ./inp_files/332538.got.cif
#   From: 2010.05.17/outbox.cif.g08.bks.cpg/sg12_167_cif.got.tgz:332538.got - 2010.06.03 13:09:07.
