data_PCOD9201203
_publ_section_title
;
Structure prediction by ZEFSAII (Michael W. Deem and Ramdas Pophale) SiO2 
 PCOD9201203
Probable space group: C 2/M
;
_chemical_formula_sum "Si O2"
_cell_formula_units_Z 64
_cell_length_a 31.907490
_cell_length_b 17.195231
_cell_length_c 12.605126
_cell_angle_alpha 90.000000
_cell_angle_beta 152.253319
_cell_angle_gamma 90.000000
_cell_volume 3219.782554
_symmetry_space_group_name_H-M "C 2/M"
_symmetry_group_IT_number 12
_symmetry_cell_setting 'monoclinic'
loop_
_space_group_symop_operation_xyz
x,y,z
-x,y,-z
-x,-y,-z
x,-y,z
1/2+x,1/2+y,z
1/2-x,1/2+y,-z
1/2-x,1/2-y,-z
1/2+x,1/2-y,z
loop_
_atom_site_type_symbol
_atom_site_label
_atom_site_fract_x
_atom_site_fract_y
_atom_site_fract_z
Si Si1 0.462060 0.641385 0.021786
Si Si2 0.787318 0.407441 0.400181
Si Si3 0.061590 0.722647 0.864542
Si Si4 0.147834 0.911004 0.522538
Si Si5 0.123459 0.216327 0.646031
Si Si6 0.995125 0.408715 0.863729
Si Si7 0.299951 0.297802 0.962565
Si Si8 0.223686 0.088715 0.476317
O O1 0.435075 0.706756 0.044133
O O2 0.544912 0.591398 0.250116
O O3 0.500000 0.681036 0.000000
O O4 0.376414 0.591256 0.797818
O O5 0.768128 0.500000 0.360955
O O6 0.890631 0.397702 0.597963
O O7 0.780214 0.375874 0.505980
O O8 0.721632 0.364841 0.171108
O O9 0.148849 0.729412 0.986241
O O10 0.971268 0.742784 0.594323
O O11 0.052076 0.644987 0.912694
O O12 0.143823 0.855375 0.613578
O O13 0.208918 0.878916 0.561481
O O14 0.173447 0.000000 0.602294
O O15 0.134735 0.186732 0.791462
O O16 0.204285 0.275273 0.798857
O O17 0.018485 0.500000 0.906731
O O18 0.000000 0.389179 0.000000
O O19 0.254412 0.000000 0.559489
#
# Coordination Sequence:
#
# PCOD9201203 Si02
#       8
#     8   8   8   8   8   8   8   8
#     4   9  16  27  48  80 114 149 183 221 274 349
#     4  10  20  37  61  88 120 157 199 247 300 358
#     4  11  20  37  61  85 117 156 196 243 299 357
#     4   9  18  32  51  77 115 156 188 230 288 352
#     4  10  23  39  57  83 118 152 205 253 300 345
#     4  10  22  40  61  88 123 158 195 249 304 354
#     4  11  22  40  60  85 113 159 200 255 300 345
#     4   9  16  29  51  82 117 149 186 229 285 353
#
# _framework density 19.877117999999999
#
# number of rings (size 3 to 8) (size 9 to 14) (size 15 to 20)
#    0.000    2.125    2.500    1.125    0.000    3.000 
#    0.000    3.125    0.000    4.500    0.000    0.000 
#    0.000    0.000    0.000    0.000    0.000    0.000 
#
# Total GULP energy -178374.373766 kJ/mol
# GULP energy per Si atom -5574.199180 kJ/mol
# Density = 1.983188 g / cm^3
# Si number density = 19.877118 Si / 1000 Ang^3
#
#
#
# Elastic Constant Matrix: (Units=GPa)
#
#
# Indices 1 2 3 4 5 6 
#
# 1 83.3602 19.7511 23.8941 0.0000 -9.4101 0.0000
# 2 19.7511 45.9551 19.8863 0.0000 -14.1138 0.0000
# 3 23.8941 19.8863 69.2351 0.0000 -14.8793 0.0000
# 4 0.0000 0.0000 0.0000 10.2414 0.0000 -2.2785
# 5 -9.4101 -14.1138 -14.8793 0.0000 33.0269 0.0000
# 6 0.0000 0.0000 0.0000 -2.2785 0.0000 25.1307
#
#
#
# Elastic Compliance Matrix: (Units=1/GPa)
#
#
# Indices 1 2 3 4 5 6 
#
# 1 0.014096 -0.004373 -0.003485 0.000000 0.000578 0.000000
# 2 -0.004373 0.028386 -0.004766 0.000000 0.008737 0.000000
# 3 -0.003485 -0.004766 0.018118 0.000000 0.005133 0.000000
# 4 0.000000 0.000000 0.000000 0.099653 0.000000 0.009035
# 5 0.000578 0.008737 0.005133 0.000000 0.036489 0.000000
# 6 0.000000 0.000000 0.000000 0.009035 0.000000 0.040611
#
#
# Mechanical properties :
#
#
# Convention : Reuss Voigt Hill
#
# Bulk Modulus (GPa) = 28.28668 36.17925 32.23297
# Shear Modulus (GPa) = 18.22251 22.68106 20.45178
#
# Velocity S-wave (km/s) = 3.03109 3.38163 3.21114
# Velocity P-wave (km/s) = 5.14895 5.78690 5.47722
#
# Compressibility (1/GPa) = 0.03535233
#
# Stress axis : x y z
#
# Youngs Moduli (GPa) = 70.94057 35.22881 55.19284
#
# Poissons Ratio (x) = 0.15406 0.19233
# Poissons Ratio (y) = 0.31023 0.26307
# Poissons Ratio (z) = 0.24720 0.16791
#
# Static dielectric constant tensor:
#      x y z
#    x 1.738420 0.000000 0.011750 
#    y 0.000000 1.679750 0.000000 
#    z 0.011750 0.000000 1.727310 
# 
# From -- ./inp_files/190081.got.cif
#   From: 2010.05.17/outbox.cif.g08.bks.cpg/sg12_96_cif.got.tgz:190081.got - 2010.06.03 13:09:07.
