data_PCOD9201301
_publ_section_title
;
Structure prediction by ZEFSAII (Michael W. Deem and Ramdas Pophale) SiO2 
 PCOD9201301
Probable space group: C 2/M
;
_chemical_formula_sum "Si O2"
_cell_formula_units_Z 56
_cell_length_a 24.085649
_cell_length_b 8.497687
_cell_length_c 15.404844
_cell_angle_alpha 90.000000
_cell_angle_beta 117.868766
_cell_angle_gamma 90.000000
_cell_volume 2787.268238
_symmetry_space_group_name_H-M "C 2/M"
_symmetry_group_IT_number 12
_symmetry_cell_setting 'monoclinic'
loop_
_space_group_symop_operation_xyz
x,y,z
-x,y,-z
-x,-y,-z
x,-y,z
1/2+x,1/2+y,z
1/2-x,1/2+y,-z
1/2-x,1/2-y,-z
1/2+x,1/2-y,z
loop_
_atom_site_type_symbol
_atom_site_label
_atom_site_fract_x
_atom_site_fract_y
_atom_site_fract_z
Si Si1 0.865384 0.820860 0.291231
Si Si2 0.070904 0.810654 0.314613
Si Si3 0.239492 0.818524 0.227778
Si Si4 0.689712 0.691465 0.011141
Si Si5 0.790895 0.685610 0.611023
Si Si6 0.937927 0.187432 0.172117
Si Si7 0.567976 0.178227 0.505326
O O1 0.808634 0.701657 0.238061
O O2 0.918885 0.792105 0.259177
O O3 0.891433 0.793832 0.405987
O O4 0.843094 0.000000 0.262121
O O5 0.139582 0.759982 0.334019
O O6 0.064519 0.738184 0.405581
O O7 0.009610 0.755434 0.215055
O O8 0.068352 0.000000 0.317917
O O9 0.238630 0.724276 0.316813
O O10 0.225798 0.000000 0.237664
O O11 0.195571 0.763279 0.116740
O O12 0.691265 0.500000 0.007984
O O13 0.622768 0.748317 0.924274
O O14 0.750000 0.750000 0.000000
O O15 0.796304 0.500000 0.602985
O O16 0.750000 0.750000 0.500000
O O17 0.939548 0.000000 0.155615
O O18 0.500000 0.174329 0.500000
O O19 0.594204 0.000000 0.526962
#
# Coordination Sequence:
#
# PCOD9201301 Si02
#       7
#     8   8   8   8   8   8   8
#     4  11  20  34  57  85 120 159 201 246 298 363
#     4  11  22  40  63  87 119 160 205 254 306 363
#     4  11  23  39  62  92 124 161 206 254 305 362
#     4  10  20  37  61  92 127 163 205 252 302 360
#     4  12  26  46  68  90 120 160 207 257 307 368
#     4   9  19  35  58  88 122 158 198 243 299 360
#     4  11  22  34  51  81 121 156 195 243 299 363
#
# _framework density 20.091356000000001
#
# number of rings (size 3 to 8) (size 9 to 14) (size 15 to 20)
#    0.000    1.286    2.857    3.857    0.000    1.143 
#    0.000    2.143    0.000    4.286    0.000    0.000 
#    0.000    0.000    0.000    0.000    0.000    0.000 
#
# Total GULP energy -156284.106463 kJ/mol
# GULP energy per Si atom -5581.575231 kJ/mol
# Density = 2.004563 g / cm^3
# Si number density = 20.091356 Si / 1000 Ang^3
#
#
#
# Elastic Constant Matrix: (Units=GPa)
#
#
# Indices 1 2 3 4 5 6 
#
# 1 69.9580 9.8850 19.2304 0.0000 18.9855 0.0000
# 2 9.8850 47.0960 8.2222 0.0000 -2.8177 0.0000
# 3 19.2304 8.2222 107.1141 0.0000 18.7256 0.0000
# 4 0.0000 0.0000 0.0000 14.6371 0.0000 -2.0251
# 5 18.9855 -2.8177 18.7256 0.0000 33.3350 0.0000
# 6 0.0000 0.0000 0.0000 -2.0251 0.0000 29.7507
#
#
#
# Elastic Compliance Matrix: (Units=1/GPa)
#
#
# Indices 1 2 3 4 5 6 
#
# 1 0.017881 -0.004141 -0.001165 0.000000 -0.009879 0.000000
# 2 -0.004141 0.022763 -0.001943 0.000000 0.005374 0.000000
# 3 -0.001165 -0.001943 0.010653 0.000000 -0.005485 0.000000
# 4 0.000000 0.000000 0.000000 0.068969 0.000000 0.004695
# 5 -0.009879 0.005374 -0.005485 0.000000 0.039160 0.000000
# 6 0.000000 0.000000 0.000000 0.004695 0.000000 0.033932
#
#
# Mechanical properties :
#
#
# Convention : Reuss Voigt Hill
#
# Bulk Modulus (GPa) = 27.17517 33.20480 30.18999
# Shear Modulus (GPa) = 22.71458 27.99994 25.35726
#
# Velocity S-wave (km/s) = 3.36603 3.73719 3.55646
# Velocity P-wave (km/s) = 5.35370 5.93168 5.65009
#
# Compressibility (1/GPa) = 0.03679829
#
# Stress axis : x y z
#
# Youngs Moduli (GPa) = 55.92625 43.93074 93.86949
#
# Poissons Ratio (x) = 0.18190 0.10938
# Poissons Ratio (y) = 0.23157 0.18243
# Poissons Ratio (z) = 0.06517 0.08538
#
# Static dielectric constant tensor:
#      x y z
#    x 1.724020 0.000000 0.039520 
#    y 0.000000 1.693120 0.000000 
#    z 0.039520 0.000000 1.735760 
# 
# From -- ./inp_files/238995.got.cif
#   From: 2010.05.17/outbox.cif.g08.bks.cpg/sg12_120_cif.got.tgz:238995.got - 2010.06.03 13:09:07.
