data_PCOD9201846
_publ_section_title
;
Structure prediction by ZEFSAII (Michael W. Deem and Ramdas Pophale) SiO2 
 PCOD9201846
Probable space group: C 2/M
;
_chemical_formula_sum "Si O2"
_cell_formula_units_Z 64
_cell_length_a 12.117912
_cell_length_b 18.736569
_cell_length_c 26.664359
_cell_angle_alpha 90.000000
_cell_angle_beta 150.453493
_cell_angle_gamma 90.000000
_cell_volume 2985.453525
_symmetry_space_group_name_H-M "C 2/M"
_symmetry_group_IT_number 12
_symmetry_cell_setting 'monoclinic'
loop_
_space_group_symop_operation_xyz
x,y,z
-x,y,-z
-x,-y,-z
x,-y,z
1/2+x,1/2+y,z
1/2-x,1/2+y,-z
1/2-x,1/2-y,-z
1/2+x,1/2-y,z
loop_
_atom_site_type_symbol
_atom_site_label
_atom_site_fract_x
_atom_site_fract_y
_atom_site_fract_z
Si Si1 0.355842 0.874761 0.143837
Si Si2 0.327065 0.917777 0.856170
Si Si3 0.489270 0.775743 0.871278
Si Si4 0.976610 0.878668 0.072004
Si Si5 0.641970 0.421835 0.674806
Si Si6 0.099197 0.296294 0.658683
Si Si7 0.956752 0.079807 0.791007
Si Si8 0.391379 0.683380 0.508749
O O1 0.387597 0.795756 0.132590
O O2 0.216970 0.879089 0.139475
O O3 0.603912 0.905881 0.243391
O O4 0.198950 0.908071 0.038117
O O5 0.473989 0.847519 0.899706
O O6 0.164056 0.920553 0.743417
O O7 0.178054 0.903668 0.846102
O O8 0.423188 0.000000 0.898048
O O9 0.565842 0.704642 0.930093
O O10 0.244335 0.754940 0.752414
O O11 0.980265 0.918845 0.125513
O O12 0.578593 0.500000 0.632655
O O13 0.467158 0.367918 0.583264
O O14 0.262570 0.361386 0.709353
O O15 0.874491 0.315831 0.599499
O O16 0.004003 0.257536 0.571382
O O17 0.883761 0.000000 0.747678
O O18 0.500000 0.660139 0.500000
#
# Coordination Sequence:
#
# PCOD9201846 Si02
#       8
#     8   8   8   8   8   8   8   8
#     4  10  21  41  58  93 125 162 208 248 320 362
#     4   9  19  38  63  87 120 166 206 247 304 367
#     4  10  20  37  65  88 122 164 207 252 301 370
#     4  10  23  36  63  93 127 161 206 260 307 369
#     4  10  22  41  64  88 123 169 210 253 311 375
#     4  10  23  38  60  91 119 160 196 258 313 363
#     4  10  23  40  62  92 128 164 204 253 308 367
#     4  11  24  39  61  92 122 155 209 259 313 371
#
# _framework density 21.437279
#
# number of rings (size 3 to 8) (size 9 to 14) (size 15 to 20)
#    0.000    2.000    2.500    0.375    8.750    1.750 
#    0.000    3.125    0.000    9.375    0.000    0.000 
#    0.000    0.000    0.000    0.000    0.000    0.000 
#
# Total GULP energy -178488.077412 kJ/mol
# GULP energy per Si atom -5577.752419 kJ/mol
# Density = 2.138849 g / cm^3
# Si number density = 21.437279 Si / 1000 Ang^3
#
#
#
# Elastic Constant Matrix: (Units=GPa)
#
#
# Indices 1 2 3 4 5 6 
#
# 1 122.5374 17.2090 6.5486 0.0002 4.3236 -0.0003
# 2 17.2090 105.4229 5.0433 0.0003 6.2280 -0.0001
# 3 6.5486 5.0433 54.6051 0.0016 12.7371 0.0004
# 4 0.0002 0.0003 0.0016 34.9071 0.0000 22.1073
# 5 4.3236 6.2280 12.7371 0.0000 18.2469 0.0000
# 6 -0.0003 -0.0001 0.0004 22.1073 0.0000 16.0612
#
#
#
# Elastic Compliance Matrix: (Units=1/GPa)
#
#
# Indices 1 2 3 4 5 6 
#
# 1 0.008413 -0.001277 -0.000630 -0.000001 -0.001118 0.000001
# 2 -0.001277 0.009876 -0.000052 -0.000001 -0.003032 0.000001
# 3 -0.000630 -0.000052 0.021925 -0.000005 -0.015137 0.000006
# 4 -0.000001 -0.000001 -0.000005 0.223327 0.000003 -0.307396
# 5 -0.001118 -0.003032 -0.015137 0.000003 0.066670 -0.000003
# 6 0.000001 0.000001 0.000006 -0.307396 -0.000003 0.485373
#
#
# Mechanical properties :
#
#
# Convention : Reuss Voigt Hill
#
# Bulk Modulus (GPa) = 27.55190 37.79636 32.67413
# Shear Modulus (GPa) = 6.01251 30.76067 18.38659
#
# Velocity S-wave (km/s) = 1.67654 3.79214 2.93182
# Velocity P-wave (km/s) = 4.07774 6.06986 5.17064
#
# Compressibility (1/GPa) = 0.03629514
#
# Stress axis : x y z
#
# Youngs Moduli (GPa) = 118.86005 101.25877 45.61090
#
# Poissons Ratio (x) = 0.12933 0.02875
# Poissons Ratio (y) = 0.15181 0.00236
# Poissons Ratio (z) = 0.07492 0.00523
#
# Static dielectric constant tensor:
#      x y z
#    x 1.759170 0.000000 0.019610 
#    y 0.000000 1.834060 0.000000 
#    z 0.019610 0.000000 1.801140 
# 
# From -- ./inp_files/359016.got.cif
#   From: 2010.05.17/outbox.cif.g08.bks.cpg/sg12_180_cif.got.tgz:359016.got - 2010.06.03 13:09:07.
