data_PCOD9201315
_publ_section_title
;
Structure prediction by ZEFSAII (Michael W. Deem and Ramdas Pophale) SiO2 
 PCOD9201315
Probable space group: C 2/M
;
_chemical_formula_sum "Si O2"
_cell_formula_units_Z 58
_cell_length_a 22.031671
_cell_length_b 10.126431
_cell_length_c 25.768819
_cell_angle_alpha 90.000000
_cell_angle_beta 27.726017
_cell_angle_gamma 90.000000
_cell_volume 2674.725254
_symmetry_space_group_name_H-M "C 2/M"
_symmetry_group_IT_number 12
_symmetry_cell_setting 'monoclinic'
loop_
_space_group_symop_operation_xyz
x,y,z
-x,y,-z
-x,-y,-z
x,-y,z
1/2+x,1/2+y,z
1/2-x,1/2+y,-z
1/2-x,1/2-y,-z
1/2+x,1/2-y,z
loop_
_atom_site_type_symbol
_atom_site_label
_atom_site_fract_x
_atom_site_fract_y
_atom_site_fract_z
Si Si1 0.860537 0.143486 0.696855
Si Si2 0.045641 0.147909 0.213896
Si Si3 0.775599 0.277361 0.661813
Si Si4 0.893397 0.350179 0.039143
Si Si5 0.523380 0.153554 0.317399
Si Si6 0.031323 0.847621 0.103775
Si Si7 0.500000 0.000000 0.500000
Si Si8 0.737282 0.851650 0.437720
O O1 0.807781 0.164044 0.678768
O O2 0.738680 0.144183 0.828414
O O3 0.940280 0.268601 0.657628
O O4 0.927052 0.000000 0.651250
O O5 0.070708 0.172268 0.134218
O O6 0.888136 0.143680 0.337521
O O7 0.082126 0.264971 0.225063
O O8 0.095376 0.000000 0.190303
O O9 0.625373 0.324460 0.782822
O O10 0.885110 0.385734 0.590565
O O11 0.782696 0.250861 0.594605
O O12 0.928361 0.500000 0.996612
O O13 0.000000 0.302415 0.000000
O O14 0.896765 0.253677 0.988076
O O15 0.365435 0.160897 0.438336
O O16 0.561940 0.000000 0.289066
O O17 0.058402 0.000000 0.070006
O O18 0.706922 0.000000 0.438817
#
# Coordination Sequence:
#
# PCOD9201315 Si02
#       8
#     8   8   8   8   8   8   2   8
#     4  11  25  41  58  85 124 161 200 246 310 363
#     4   9  19  38  61  82 119 158 197 248 300 353
#     4  11  20  34  59  85 121 165 195 233 296 358
#     4  10  21  40  62  86 121 158 193 248 310 362
#     4  11  23  37  59  87 117 157 206 251 300 355
#     4  10  20  37  61  94 118 150 204 247 298 351
#     4  12  20  32  54  86 132 160 190 228 296 340
#     4   9  18  35  56  85 118 157 199 241 296 352
#
# _framework density 21.684470999999998
#
# number of rings (size 3 to 8) (size 9 to 14) (size 15 to 20)
#    0.000    1.793    2.759    2.483    2.897    1.379 
#    0.000    7.241    0.000    0.000    0.000    0.000 
#    0.000    0.000    0.000    0.000    0.000    0.000 
#
# Total GULP energy -161543.470706 kJ/mol
# GULP energy per Si atom -5570.464507 kJ/mol
# Density = 2.163512 g / cm^3
# Si number density = 21.684471 Si / 1000 Ang^3
#
#
#
# Elastic Constant Matrix: (Units=GPa)
#
#
# Indices 1 2 3 4 5 6 
#
# 1 54.1709 47.7589 -2.4815 0.0001 13.9555 -0.0001
# 2 47.7589 116.2263 12.0712 0.0001 25.8977 -0.0003
# 3 -2.4815 12.0712 51.8374 0.0004 5.2989 -0.0006
# 4 0.0001 0.0001 0.0004 22.7898 0.0003 5.7723
# 5 13.9555 25.8977 5.2989 0.0003 25.7389 0.0000
# 6 -0.0001 -0.0003 -0.0006 5.7723 0.0000 33.0463
#
#
#
# Elastic Compliance Matrix: (Units=1/GPa)
#
#
# Indices 1 2 3 4 5 6 
#
# 1 0.030523 -0.011771 0.004784 0.000000 -0.005691 0.000000
# 2 -0.011771 0.015741 -0.003333 0.000000 -0.008770 0.000000
# 3 0.004784 -0.003333 0.020653 0.000000 -0.003493 0.000000
# 4 0.000000 0.000000 0.000000 0.045910 0.000000 -0.008019
# 5 -0.005691 -0.008770 -0.003493 0.000000 0.051480 0.000000
# 6 0.000000 0.000000 0.000000 -0.008019 0.000000 0.031661
#
#
# Mechanical properties :
#
#
# Convention : Reuss Voigt Hill
#
# Bulk Modulus (GPa) = 21.60868 37.43688 29.52278
# Shear Modulus (GPa) = 21.54847 27.30739 24.42793
#
# Velocity S-wave (km/s) = 3.15577 3.55252 3.36000
# Velocity P-wave (km/s) = 4.82340 5.84201 5.35697
#
# Compressibility (1/GPa) = 0.04627771
#
# Stress axis : x y z
#
# Youngs Moduli (GPa) = 32.76192 63.52801 48.41870
#
# Poissons Ratio (x) = 0.74781 -0.23163
# Poissons Ratio (y) = 0.38565 0.16136
# Poissons Ratio (z) = -0.15673 0.21171
#
# Static dielectric constant tensor:
#      x y z
#    x 1.846450 0.000000 -0.015030 
#    y 0.000000 1.786920 0.000000 
#    z -0.015030 0.000000 1.795450 
# 
# From -- ./inp_files/367496.got.cif
#   From: 2010.05.17/outbox.cif.g08.bks.cpg/sg12_184_cif.got.tgz:367496.got - 2010.06.03 13:09:07.
