data_PCOD9201973
_publ_section_title
;
Structure prediction by ZEFSAII (Michael W. Deem and Ramdas Pophale) SiO2 
 PCOD9201973
Probable space group: C 2/M
;
_chemical_formula_sum "Si O2"
_cell_formula_units_Z 40
_cell_length_a 22.744070
_cell_length_b 17.394143
_cell_length_c 20.221962
_cell_angle_alpha 90.000000
_cell_angle_beta 167.994939
_cell_angle_gamma 90.000000
_cell_volume 1664.002055
_symmetry_space_group_name_H-M "C 2/M"
_symmetry_group_IT_number 12
_symmetry_cell_setting 'monoclinic'
loop_
_space_group_symop_operation_xyz
x,y,z
-x,y,-z
-x,-y,-z
x,-y,z
1/2+x,1/2+y,z
1/2-x,1/2+y,-z
1/2-x,1/2-y,-z
1/2+x,1/2-y,z
loop_
_atom_site_type_symbol
_atom_site_label
_atom_site_fract_x
_atom_site_fract_y
_atom_site_fract_z
Si Si1 0.464095 0.087142 0.158637
Si Si2 0.320921 0.643549 0.437441
Si Si3 0.010757 0.297442 0.316348
Si Si4 0.711757 0.844420 0.793199
Si Si5 0.500000 0.301774 0.500000
Si Si6 0.336052 0.500000 0.887358
O O1 0.586702 0.096947 0.219778
O O2 0.620086 0.148659 0.378118
O O3 0.506947 0.000000 0.228043
O O4 0.131071 0.107755 0.795055
O O5 0.303107 0.730563 0.446966
O O6 0.330205 0.651638 0.368443
O O7 0.908488 0.347542 0.265711
O O8 0.750000 0.250000 0.000000
O O9 0.500000 0.859895 0.500000
O O10 0.719598 0.752613 0.783733
O O11 0.913209 0.918487 0.007495
O O12 0.000000 0.500000 0.500000
O O13 0.500000 0.500000 0.000000
#
# Coordination Sequence:
#
# PCOD9201973 Si02
#       6
#     8   8   8   8   4   4
#     4  11  23  39  62  88 124 157 200 249 306 359
#     4  10  21  42  61  91 118 159 201 251 297 365
#     4   9  19  38  63  89 122 160 206 246 299 360
#     4   8  17  36  61  86 119 156 200 246 302 355
#     4   8  18  39  63  88 114 158 202 252 294 362
#     4  10  20  38  54  88 126 158 193 248 306 367
#
# _framework density 24.038432
#
# number of rings (size 3 to 8) (size 9 to 14) (size 15 to 20)
#    0.600    2.000    0.000    1.200    1.400    0.800 
#   10.800    9.000    0.000    0.000    0.000    0.000 
#    0.000    0.000    0.000    0.000    0.000    0.000 
#
# Total GULP energy -111341.038406 kJ/mol
# GULP energy per Si atom -5567.051920 kJ/mol
# Density = 2.398372 g / cm^3
# Si number density = 24.038432 Si / 1000 Ang^3
#
#
#
# Elastic Constant Matrix: (Units=GPa)
#
#
# Indices 1 2 3 4 5 6 
#
# 1 158.2957 40.0156 16.4062 0.0429 22.8244 -0.0294
# 2 40.0156 95.8360 7.2922 0.0998 27.7308 0.1177
# 3 16.4062 7.2922 95.0292 -0.0902 18.0872 0.2765
# 4 0.0429 0.0998 -0.0902 -10.7678 0.0809 15.4762
# 5 22.8244 27.7308 18.0872 0.0809 22.6530 -0.0356
# 6 -0.0294 0.1177 0.2765 15.4762 -0.0356 49.4149
#
#
#
# Elastic Compliance Matrix: (Units=1/GPa)
#
#
# Indices 1 2 3 4 5 6 
#
# 1 0.007523 -0.001493 -0.000105 -0.000013 -0.005668 0.000009
# 2 -0.001493 0.017202 0.003136 -0.000101 -0.022057 -0.000044
# 3 -0.000105 0.003136 0.012984 -0.000218 -0.014099 -0.000022
# 4 -0.000013 -0.000101 -0.000218 -0.064036 0.000571 0.020057
# 5 -0.005668 -0.022057 -0.014099 0.000571 0.088111 0.000013
# 6 0.000009 -0.000044 -0.000022 0.020057 0.000013 0.013955
#
#
# Mechanical properties :
#
#
# Convention : Reuss Voigt Hill
#
# Bulk Modulus (GPa) = 24.51983 52.95433 38.73708
# Shear Modulus (GPa) = 57.96552 31.28981 44.62767
#
# Velocity S-wave (km/s) = 4.91590 3.61176 4.31340
# Velocity P-wave (km/s) = 6.51489 6.28251 6.39976
#
# Compressibility (1/GPa) = 0.04078331
#
# Stress axis : x y z
#
# Youngs Moduli (GPa) = 132.92771 58.13361 77.01798
#
# Poissons Ratio (x) = 0.08680 0.00812
# Poissons Ratio (y) = 0.19847 -0.24152
# Poissons Ratio (z) = 0.01402 -0.18230
#
# Static dielectric constant tensor:
#      x y z
#    x 1.863050 -0.000090 -0.046760 
#    y -0.000090 2.112080 0.000210 
#    z -0.046760 0.000210 2.087750 
# 
# From -- ./inp_files/279050.got.cif
#   From: 2010.05.17/outbox.cif.g08.bks.cpg/sg12_140_cif.got.tgz:279050.got - 2010.06.03 13:09:07.
