data_PCOD9201765
_publ_section_title
;
Structure prediction by ZEFSAII (Michael W. Deem and Ramdas Pophale) SiO2 
 PCOD9201765
Probable space group: C 2/M
;
_chemical_formula_sum "Si O2"
_cell_formula_units_Z 44
_cell_length_a 9.775868
_cell_length_b 14.172985
_cell_length_c 15.514045
_cell_angle_alpha 90.000000
_cell_angle_beta 104.918195
_cell_angle_gamma 90.000000
_cell_volume 2077.070102
_symmetry_space_group_name_H-M "C 2/M"
_symmetry_group_IT_number 12
_symmetry_cell_setting 'monoclinic'
loop_
_space_group_symop_operation_xyz
x,y,z
-x,y,-z
-x,-y,-z
x,-y,z
1/2+x,1/2+y,z
1/2-x,1/2+y,-z
1/2-x,1/2-y,-z
1/2+x,1/2-y,z
loop_
_atom_site_type_symbol
_atom_site_label
_atom_site_fract_x
_atom_site_fract_y
_atom_site_fract_z
Si Si1 0.200817 0.711329 0.884041
Si Si2 0.604507 0.611426 0.777671
Si Si3 0.838213 0.614835 0.474917
Si Si4 0.500000 0.753295 0.000000
Si Si5 0.870067 0.114701 0.416814
Si Si6 0.229407 0.111532 0.272646
O O1 0.188745 0.821775 0.856139
O O2 0.361103 0.696045 0.944589
O O3 0.185633 0.656964 0.791909
O O4 0.076310 0.691759 0.932991
O O5 0.637278 0.500000 0.791096
O O6 0.627691 0.642949 0.682186
O O7 0.437839 0.625029 0.768068
O O8 0.828033 0.500000 0.473810
O O9 0.765123 0.646058 0.550892
O O10 0.766882 0.646296 0.374452
O O11 0.000000 0.641585 0.500000
O O12 0.000000 0.141763 0.500000
O O13 0.875044 0.000000 0.413679
O O14 0.257457 0.000000 0.276525
#
# Coordination Sequence:
#
# PCOD9201765 Si02
#       6
#     8   8   8   4   8   8
#     4  11  22  44  63  92 116 154 190 254 302 369
#     4  10  20  37  64  91 118 160 205 240 284 351
#     4   9  17  30  51  84 123 160 195 238 287 331
#     4  10  24  42  66  84 124 152 184 242 332 364
#     4   9  15  28  53  82 116 157 199 235 274 331
#     4  10  20  38  64  89 120 161 202 239 289 353
#
# _framework density 21.183686999999999
#
# number of rings (size 3 to 8) (size 9 to 14) (size 15 to 20)
#    0.000    2.182    3.636    0.000    0.000    1.455 
#    0.000   10.000    0.000    0.000    0.000    0.000 
#    0.000    0.000    0.000    0.000    0.000    0.000 
#
# Total GULP energy -122757.250936 kJ/mol
# GULP energy per Si atom -5579.875043 kJ/mol
# Density = 2.113547 g / cm^3
# Si number density = 21.183687 Si / 1000 Ang^3
#
#
#
# Elastic Constant Matrix: (Units=GPa)
#
#
# Indices 1 2 3 4 5 6 
#
# 1 113.8783 20.6853 45.5190 0.0000 -33.7191 0.0000
# 2 20.6853 54.0389 30.8595 0.0000 -9.4436 0.0000
# 3 45.5190 30.8595 110.2851 0.0000 -34.5894 0.0000
# 4 0.0000 0.0000 0.0000 16.3393 0.0000 -7.5045
# 5 -33.7191 -9.4436 -34.5894 0.0000 53.3701 0.0000
# 6 0.0000 0.0000 0.0000 -7.5045 0.0000 -5.3219
#
#
#
# Elastic Compliance Matrix: (Units=1/GPa)
#
#
# Indices 1 2 3 4 5 6 
#
# 1 0.011796 -0.002093 -0.002588 0.000000 0.005405 0.000000
# 2 -0.002093 0.022397 -0.005742 0.000000 -0.001081 0.000000
# 3 -0.002588 -0.005742 0.013694 0.000000 0.006224 0.000000
# 4 0.000000 0.000000 0.000000 0.037145 0.000000 -0.052379
# 5 0.005405 -0.001081 0.006224 0.000000 0.025995 0.000000
# 6 0.000000 0.000000 0.000000 -0.052379 0.000000 -0.114043
#
#
# Mechanical properties :
#
#
# Convention : Reuss Voigt Hill
#
# Bulk Modulus (GPa) = 36.98013 52.48109 44.73061
# Shear Modulus (GPa) = 186.25976 24.95341 105.60659
#
# Velocity S-wave (km/s) = 9.38706 3.43586 7.06831
# Velocity P-wave (km/s) = 11.61826 6.36932 9.36889
#
# Compressibility (1/GPa) = 0.02704155
#
# Stress axis : x y z
#
# Youngs Moduli (GPa) = 84.77143 44.64980 73.02261
#
# Poissons Ratio (x) = 0.09345 0.18897
# Poissons Ratio (y) = 0.17743 0.41930
# Poissons Ratio (z) = 0.21938 0.25638
#
# Static dielectric constant tensor:
#      x y z
#    x 1.751000 0.000000 0.014480 
#    y 0.000000 1.787120 0.000000 
#    z 0.014480 0.000000 1.744970 
# 
# From -- ./inp_files/195576.got.cif
#   From: 2010.05.17/outbox.cif.g08.bks.cpg/sg12_98_cif.got.tgz:195576.got - 2010.06.03 13:09:07.
