data_PCOD9201728
_publ_section_title
;
Structure prediction by ZEFSAII (Michael W. Deem and Ramdas Pophale) SiO2 
 PCOD9201728
Probable space group: C 2/M
;
_chemical_formula_sum "Si O2"
_cell_formula_units_Z 40
_cell_length_a 10.566780
_cell_length_b 19.538120
_cell_length_c 12.238842
_cell_angle_alpha 90.000000
_cell_angle_beta 45.995189
_cell_angle_gamma 90.000000
_cell_volume 1817.459065
_symmetry_space_group_name_H-M "C 2/M"
_symmetry_group_IT_number 12
_symmetry_cell_setting 'monoclinic'
loop_
_space_group_symop_operation_xyz
x,y,z
-x,y,-z
-x,-y,-z
x,-y,z
1/2+x,1/2+y,z
1/2-x,1/2+y,-z
1/2-x,1/2-y,-z
1/2+x,1/2-y,z
loop_
_atom_site_type_symbol
_atom_site_label
_atom_site_fract_x
_atom_site_fract_y
_atom_site_fract_z
Si Si1 0.838295 0.343357 0.182365
Si Si2 0.775753 0.426624 0.654913
Si Si3 0.905088 0.871819 0.857278
Si Si4 0.906362 0.578514 0.820172
Si Si5 0.710709 0.720816 0.641298
O O1 0.693695 0.383792 0.198150
O O2 0.752211 0.275452 0.286134
O O3 0.921141 0.386673 0.232324
O O4 0.000000 0.328803 0.000000
O O5 0.812150 0.500000 0.578291
O O6 0.563342 0.422325 0.794152
O O7 0.875705 0.424762 0.709812
O O8 0.806893 0.352523 0.584862
O O9 0.006053 0.799734 0.784238
O O10 0.756431 0.877256 0.036779
O O11 0.894426 0.500000 0.868849
O O12 0.750000 0.750000 0.500000
#
# Coordination Sequence:
#
# PCOD9201728 Si02
#       5
#     8   8   8   8   8
#     4  10  23  38  59  93 122 165 206 256 320 366
#     4   9  20  37  62  91 120 160 206 252 306 368
#     4   9  21  35  62  89 122 161 206 247 314 369
#     4  10  20  37  63  97 129 158 200 263 318 369
#     4  10  24  40  61  88 127 163 211 262 308 363
#
# _framework density 22.008749000000002
#
# number of rings (size 3 to 8) (size 9 to 14) (size 15 to 20)
#    1.200    1.200    0.000    1.200    5.600    8.400 
#    0.000    1.000    0.000    3.600    0.000    0.000 
#    0.000    0.000    0.000    0.000    0.000    0.000 
#
# Total GULP energy -111405.377566 kJ/mol
# GULP energy per Si atom -5570.268878 kJ/mol
# Density = 2.195866 g / cm^3
# Si number density = 22.008749 Si / 1000 Ang^3
#
#
#
# Elastic Constant Matrix: (Units=GPa)
#
#
# Indices 1 2 3 4 5 6 
#
# 1 107.1635 30.7029 12.6780 0.0000 5.0612 0.0000
# 2 30.7029 117.1827 38.2917 0.0000 27.2749 0.0000
# 3 12.6780 38.2917 33.2431 -0.0001 6.7549 0.0001
# 4 0.0000 0.0000 -0.0001 27.5419 0.0000 12.5719
# 5 5.0612 27.2749 6.7549 0.0000 33.2769 0.0000
# 6 0.0000 0.0000 0.0001 12.5719 0.0000 13.0281
#
#
#
# Elastic Compliance Matrix: (Units=1/GPa)
#
#
# Indices 1 2 3 4 5 6 
#
# 1 0.010136 -0.002416 -0.001222 0.000000 0.000687 0.000000
# 2 -0.002416 0.016925 -0.016511 0.000000 -0.010154 0.000000
# 3 -0.001222 -0.016511 0.048791 0.000000 0.003815 -0.000001
# 4 0.000000 0.000000 0.000000 0.064892 0.000000 -0.062620
# 5 0.000687 -0.010154 0.003815 0.000000 0.037494 0.000000
# 6 0.000000 0.000000 -0.000001 -0.062620 0.000000 0.137185
#
#
# Mechanical properties :
#
#
# Convention : Reuss Voigt Hill
#
# Bulk Modulus (GPa) = 28.12654 46.77049 37.44852
# Shear Modulus (GPa) = 13.60270 26.49716 20.04993
#
# Velocity S-wave (km/s) = 2.48878 3.47354 3.02155
# Velocity P-wave (km/s) = 4.58978 6.11427 5.40604
#
# Compressibility (1/GPa) = 0.03555361
#
# Stress axis : x y z
#
# Youngs Moduli (GPa) = 98.65888 59.08270 20.49556
#
# Poissons Ratio (x) = 0.14276 0.02504
# Poissons Ratio (y) = 0.23839 0.33841
# Poissons Ratio (z) = 0.12055 0.97553
#
# Static dielectric constant tensor:
#      x y z
#    x 1.808980 0.000000 -0.030560 
#    y 0.000000 1.829030 0.000000 
#    z -0.030560 0.000000 1.823600 
# 
# From -- ./inp_files/121682.got.cif
#   From: 2010.05.17/outbox.cif.g08.bks.cpg/sg12_61_cif.got.tgz:121682.got - 2010.06.03 13:09:07.
