data_PCOD9201509
_publ_section_title
;
Structure prediction by ZEFSAII (Michael W. Deem and Ramdas Pophale) SiO2 
 PCOD9201509
Probable space group: C 2/M
;
_chemical_formula_sum "Si O2"
_cell_formula_units_Z 48
_cell_length_a 15.426586
_cell_length_b 8.671583
_cell_length_c 30.035204
_cell_angle_alpha 90.000000
_cell_angle_beta 39.924118
_cell_angle_gamma 90.000000
_cell_volume 2578.575799
_symmetry_space_group_name_H-M "C 2/M"
_symmetry_group_IT_number 12
_symmetry_cell_setting 'monoclinic'
loop_
_space_group_symop_operation_xyz
x,y,z
-x,y,-z
-x,-y,-z
x,-y,z
1/2+x,1/2+y,z
1/2-x,1/2+y,-z
1/2-x,1/2-y,-z
1/2+x,1/2-y,z
loop_
_atom_site_type_symbol
_atom_site_label
_atom_site_fract_x
_atom_site_fract_y
_atom_site_fract_z
Si Si1 0.147771 0.184535 0.920882
Si Si2 0.333868 0.185778 0.425366
Si Si3 0.874893 0.316327 0.169005
Si Si4 0.167799 0.184404 0.074621
Si Si5 0.140435 0.684448 0.322851
Si Si6 0.643671 0.314626 0.420027
O O1 0.152708 0.254809 0.869830
O O2 0.259237 0.254715 0.909796
O O3 0.163825 0.000000 0.912252
O O4 0.000000 0.216966 0.000000
O O5 0.250000 0.250000 0.500000
O O6 0.489737 0.232894 0.367178
O O7 0.260395 0.231487 0.408643
O O8 0.328680 0.000000 0.429855
O O9 0.888491 0.500000 0.162883
O O10 0.753819 0.265349 0.248731
O O11 0.014906 0.242845 0.130730
O O12 0.171294 0.000000 0.071847
O O13 0.250000 0.250000 0.000000
O O14 0.151869 0.500000 0.313373
O O15 0.154868 0.731058 0.368661
O O16 0.500000 0.280890 0.500000
O O17 0.649817 0.500000 0.410592
#
# Coordination Sequence:
#
# PCOD9201509 Si02
#       6
#     8   8   8   8   8   8
#     4  11  23  41  68  98 130 169 213 263 315 378
#     4  10  21  37  61  90 121 160 204 255 309 370
#     4  12  26  44  66  93 130 172 214 267 324 379
#     4  12  24  41  67  98 130 167 214 263 317 381
#     4  11  24  41  61  90 128 164 206 262 320 380
#     4  10  20  37  62  90 122 162 208 256 310 380
#
# _framework density 18.614926000000001
#
# number of rings (size 3 to 8) (size 9 to 14) (size 15 to 20)
#    0.000    1.000    3.333    4.000    0.000    3.667 
#    0.000    5.000    0.000    0.000    0.000    0.000 
#    0.000    0.000    0.000    0.000    0.000    0.000 
#
# Total GULP energy -134255.669398 kJ/mol
# GULP energy per Si atom -5593.986225 kJ/mol
# Density = 1.857256 g / cm^3
# Si number density = 18.614926 Si / 1000 Ang^3
#
#
#
# Elastic Constant Matrix: (Units=GPa)
#
#
# Indices 1 2 3 4 5 6 
#
# 1 203.0462 64.1952 82.0144 0.0003 -5.6678 0.0014
# 2 64.1952 93.8402 57.6542 0.0006 0.1337 0.0018
# 3 82.0144 57.6542 128.9690 0.0001 -7.2462 0.0009
# 4 0.0003 0.0006 0.0001 35.5847 0.0000 4.7571
# 5 -5.6678 0.1337 -7.2462 0.0000 33.1001 0.0002
# 6 0.0014 0.0018 0.0009 4.7571 0.0002 33.8058
#
#
#
# Elastic Compliance Matrix: (Units=1/GPa)
#
#
# Indices 1 2 3 4 5 6 
#
# 1 0.007165 -0.002924 -0.003219 0.000000 0.000534 0.000000
# 2 -0.002924 0.015961 -0.005373 0.000000 -0.001742 -0.000001
# 3 -0.003219 -0.005373 0.012325 0.000000 0.002169 0.000000
# 4 0.000000 0.000000 0.000000 0.028641 0.000000 -0.004030
# 5 0.000534 -0.001742 0.002169 0.000000 0.030785 0.000000
# 6 0.000000 -0.000001 0.000000 -0.004030 0.000000 0.030148
#
#
# Mechanical properties :
#
#
# Convention : Reuss Voigt Hill
#
# Bulk Modulus (GPa) = 80.53447 92.62034 86.57741
# Shear Modulus (GPa) = 32.85258 35.29754 34.07506
#
# Velocity S-wave (km/s) = 4.20557 4.35926 4.28310
# Velocity P-wave (km/s) = 8.18167 8.67188 8.43034
#
# Compressibility (1/GPa) = 0.01241704
#
# Stress axis : x y z
#
# Youngs Moduli (GPa) = 139.57462 62.65399 81.13854
#
# Poissons Ratio (x) = 0.18323 0.26117
# Poissons Ratio (y) = 0.40817 0.43597
# Poissons Ratio (z) = 0.44927 0.33665
#
# Static dielectric constant tensor:
#      x y z
#    x 1.626670 0.000000 -0.011460 
#    y 0.000000 1.628100 0.000000 
#    z -0.011460 0.000000 1.599960 
# 
# From -- ./inp_files/360234.got.cif
#   From: 2010.05.17/outbox.cif.g08.bks.cpg/sg12_181_cif.got.tgz:360234.got - 2010.06.03 13:09:07.
