data_PCOD9201202
_publ_section_title
;
Structure prediction by ZEFSAII (Michael W. Deem and Ramdas Pophale) SiO2 
 PCOD9201202
Probable space group: C 2/M
;
_chemical_formula_sum "Si O2"
_cell_formula_units_Z 64
_cell_length_a 14.704812
_cell_length_b 18.058063
_cell_length_c 14.546132
_cell_angle_alpha 90.000000
_cell_angle_beta 51.289920
_cell_angle_gamma 90.000000
_cell_volume 3014.054658
_symmetry_space_group_name_H-M "C 2/M"
_symmetry_group_IT_number 12
_symmetry_cell_setting 'monoclinic'
loop_
_space_group_symop_operation_xyz
x,y,z
-x,y,-z
-x,-y,-z
x,-y,z
1/2+x,1/2+y,z
1/2-x,1/2+y,-z
1/2-x,1/2-y,-z
1/2+x,1/2-y,z
loop_
_atom_site_type_symbol
_atom_site_label
_atom_site_fract_x
_atom_site_fract_y
_atom_site_fract_z
Si Si1 0.739109 0.913338 0.031927
Si Si2 0.556937 0.760967 0.873108
Si Si3 0.462520 0.919276 0.161819
Si Si4 0.548243 0.802020 0.377603
Si Si5 0.888011 0.081626 0.328938
Si Si6 0.723232 0.368678 0.778812
Si Si7 0.359453 0.915468 0.425684
Si Si8 0.905446 0.806229 0.811904
O O1 0.598602 0.911417 0.106824
O O2 0.773244 0.891591 0.116063
O O3 0.774161 0.000000 0.994287
O O4 0.801786 0.854298 0.923830
O O5 0.575364 0.848019 0.871369
O O6 0.671120 0.712577 0.789337
O O7 0.464074 0.745899 0.852087
O O8 0.500000 0.728674 0.000000
O O9 0.381530 0.918072 0.302930
O O10 0.448691 0.000000 0.126561
O O11 0.500000 0.764313 0.500000
O O12 0.644242 0.864739 0.338613
O O13 0.441680 0.848418 0.404011
O O14 0.608489 0.747207 0.266506
O O15 0.852872 0.082862 0.242882
O O16 0.771600 0.100210 0.459153
O O17 0.992183 0.137356 0.278602
O O18 0.925604 0.000000 0.331617
O O19 0.388554 0.000000 0.440907
#
# Coordination Sequence:
#
# PCOD9201202 Si02
#       8
#     8   8   8   8   8   8   8   8
#     4  11  22  39  64  91 123 162 204 253 310 367
#     4  11  22  37  58  88 123 161 196 240 302 365
#     4  10  22  39  62  88 119 163 207 253 303 361
#     4  12  24  40  61  93 123 162 204 258 310 366
#     4  10  22  38  60  88 123 163 201 248 308 368
#     4  11  22  35  59  95 126 154 196 254 317 368
#     4  10  20  37  61  88 120 156 201 255 310 359
#     4  11  24  40  60  88 129 164 202 247 304 373
#
# _framework density 21.233854000000001
#
# number of rings (size 3 to 8) (size 9 to 14) (size 15 to 20)
#    0.000    1.250    5.000    0.750    1.750    3.500 
#    0.000    1.875    0.000    1.500    0.000    0.000 
#    0.000    0.000    0.000    0.000    0.000    0.000 
#
# Total GULP energy -178532.446465 kJ/mol
# GULP energy per Si atom -5579.138952 kJ/mol
# Density = 2.118552 g / cm^3
# Si number density = 21.233854 Si / 1000 Ang^3
#
#
#
# Elastic Constant Matrix: (Units=GPa)
#
#
# Indices 1 2 3 4 5 6 
#
# 1 15.0220 -1.0331 2.2254 0.0000 1.0182 0.0000
# 2 -1.0331 91.5372 14.2566 0.0000 -14.6352 0.0000
# 3 2.2254 14.2566 96.2852 0.0000 8.7545 0.0000
# 4 0.0000 0.0000 0.0000 31.2949 0.0000 12.6304
# 5 1.0182 -14.6352 8.7545 0.0000 25.0113 0.0000
# 6 0.0000 0.0000 0.0000 12.6304 0.0000 -50.8694
#
#
#
# Elastic Compliance Matrix: (Units=1/GPa)
#
#
# Indices 1 2 3 4 5 6 
#
# 1 0.066959 0.000700 -0.001488 0.000000 -0.001795 0.000000
# 2 0.000700 0.012674 -0.002649 0.000000 0.008315 0.000000
# 3 -0.001488 -0.002649 0.011308 0.000000 -0.005447 0.000000
# 4 0.000000 0.000000 0.000000 0.029044 0.000000 0.007211
# 5 -0.001795 0.008315 -0.005447 0.000000 0.046827 0.000000
# 6 0.000000 0.000000 0.000000 0.007211 0.000000 -0.017868
#
#
# Mechanical properties :
#
#
# Convention : Reuss Voigt Hill
#
# Bulk Modulus (GPa) = 11.89506 25.97137 18.93321
# Shear Modulus (GPa) = 27.19748 13.58038 20.38893
#
# Velocity S-wave (km/s) = 3.58279 2.53170 3.10209
# Velocity P-wave (km/s) = 4.76752 4.56111 4.66545
#
# Compressibility (1/GPa) = 0.08406852
#
# Stress axis : x y z
#
# Youngs Moduli (GPa) = 14.93441 78.89919 88.43536
#
# Poissons Ratio (x) = -0.05526 0.13160
# Poissons Ratio (y) = -0.01046 0.23425
# Poissons Ratio (z) = 0.02222 0.20899
#
# Static dielectric constant tensor:
#      x y z
#    x 1.799660 0.000000 -0.016150 
#    y 0.000000 1.791980 0.000000 
#    z -0.016150 0.000000 1.805250 
# 
# From -- ./inp_files/216793.got.cif
#   From: 2010.05.17/outbox.cif.g08.bks.cpg/sg12_109_cif.got.tgz:216793.got - 2010.06.03 13:09:07.
