data_PCOD9201038
_publ_section_title
;
Structure prediction by ZEFSAII (Michael W. Deem and Ramdas Pophale) SiO2 
 PCOD9201038
Probable space group: C 2/M
;
_chemical_formula_sum "Si O2"
_cell_formula_units_Z 52
_cell_length_a 8.945327
_cell_length_b 28.238369
_cell_length_c 9.137806
_cell_angle_alpha 90.000000
_cell_angle_beta 86.015822
_cell_angle_gamma 90.000000
_cell_volume 2302.644657
_symmetry_space_group_name_H-M "C 2/M"
_symmetry_group_IT_number 12
_symmetry_cell_setting 'monoclinic'
loop_
_space_group_symop_operation_xyz
x,y,z
-x,y,-z
-x,-y,-z
x,-y,z
1/2+x,1/2+y,z
1/2-x,1/2+y,-z
1/2-x,1/2-y,-z
1/2+x,1/2-y,z
loop_
_atom_site_type_symbol
_atom_site_label
_atom_site_fract_x
_atom_site_fract_y
_atom_site_fract_z
Si Si1 0.232406 0.906185 0.658006
Si Si2 0.500000 0.645454 0.500000
Si Si3 0.837391 0.750309 0.221579
Si Si4 0.079417 0.816376 0.173251
Si Si5 0.205215 0.500000 0.872218
Si Si6 0.407340 0.186853 0.652278
Si Si7 0.568227 0.578582 0.140472
Si Si8 0.873676 0.500000 0.773361
O O1 0.334727 0.862704 0.708462
O O2 0.323897 0.954124 0.682191
O O3 0.153213 0.885449 0.515638
O O4 0.076218 0.916068 0.749928
O O5 0.458733 0.675488 0.648324
O O6 0.717695 0.718492 0.147457
O O7 0.733973 0.777290 0.349066
O O8 0.923837 0.792618 0.134432
O O9 0.969517 0.714921 0.261168
O O10 0.118907 0.867756 0.109874
O O11 0.298923 0.545792 0.817837
O O12 0.048513 0.500000 0.799932
O O13 0.190585 0.500000 0.052665
O O14 0.500000 0.176643 0.500000
O O15 0.500000 0.556459 0.000000
#
# Coordination Sequence:
#
# PCOD9201038 Si02
#       8
#     8   4   8   8   4   8   8   4
#     4  11  23  42  65  95 135 166 217 267 318 394
#     4  10  20  37  60  92 128 176 210 251 316 378
#     4  10  21  34  58  90 127 172 217 264 304 367
#     4  10  22  36  60  91 131 168 220 255 313 382
#     4  11  24  43  75  97 117 160 225 277 326 382
#     4  11  21  35  60  90 128 172 213 262 306 371
#     4  11  21  42  69  95 122 168 220 269 325 385
#     4  11  25  45  67 102 125 157 215 279 333 383
#
# _framework density 22.582730000000002
#
# number of rings (size 3 to 8) (size 9 to 14) (size 15 to 20)
#    0.000    1.385    4.615    2.077    6.462    0.308 
#    0.000    1.923    0.000    0.000    0.000    0.000 
#    0.000    0.000    0.000    0.000    0.000    0.000 
#
# Total GULP energy -144918.587135 kJ/mol
# GULP energy per Si atom -5573.791813 kJ/mol
# Density = 2.253133 g / cm^3
# Si number density = 22.582730 Si / 1000 Ang^3
#
#
#
# Elastic Constant Matrix: (Units=GPa)
#
#
# Indices 1 2 3 4 5 6 
#
# 1 185.0813 102.7208 26.5017 0.0000 2.1644 0.0000
# 2 102.7208 202.4147 15.0125 0.0000 11.7565 0.0000
# 3 26.5017 15.0125 45.4444 0.0000 1.9399 0.0000
# 4 0.0000 0.0000 0.0000 15.9943 0.0000 13.7781
# 5 2.1644 11.7565 1.9399 0.0000 26.4106 0.0000
# 6 0.0000 0.0000 0.0000 13.7781 0.0000 48.0050
#
#
#
# Elastic Compliance Matrix: (Units=1/GPa)
#
#
# Indices 1 2 3 4 5 6 
#
# 1 0.008051 -0.003907 -0.003462 0.000000 0.001333 0.000000
# 2 -0.003907 0.007083 0.000059 0.000000 -0.002837 0.000000
# 3 -0.003462 0.000059 0.024069 0.000000 -0.001511 0.000000
# 4 0.000000 0.000000 0.000000 0.083058 0.000000 -0.023839
# 5 0.001333 -0.002837 -0.001511 0.000000 0.039128 0.000000
# 6 0.000000 0.000000 0.000000 -0.023839 0.000000 0.027673
#
#
# Mechanical properties :
#
#
# Convention : Reuss Voigt Hill
#
# Bulk Modulus (GPa) = 40.67466 80.15674 60.41570
# Shear Modulus (GPa) = 23.59882 37.32900 30.46391
#
# Velocity S-wave (km/s) = 3.23614 4.07011 3.67685
# Velocity P-wave (km/s) = 5.65809 7.59338 6.69602
#
# Compressibility (1/GPa) = 0.02458533
#
# Stress axis : x y z
#
# Youngs Moduli (GPa) = 124.20430 141.17871 41.54807
#
# Poissons Ratio (x) = 0.55152 0.14382
# Poissons Ratio (y) = 0.48521 -0.00247
# Poissons Ratio (z) = 0.42995 -0.00838
#
# Static dielectric constant tensor:
#      x y z
#    x 1.832570 0.000000 -0.009590 
#    y 0.000000 1.868480 0.000000 
#    z -0.009590 0.000000 1.987960 
# 
# From -- ./inp_files/123723.got.cif
#   From: 2010.05.17/outbox.cif.g08.bks.cpg/sg12_62_cif.got.tgz:123723.got - 2010.06.03 13:09:07.
