data_PCOD9201408
_publ_section_title
;
Structure prediction by ZEFSAII (Michael W. Deem and Ramdas Pophale) SiO2 
 PCOD9201408
Probable space group: C 2/M
;
_chemical_formula_sum "Si O2"
_cell_formula_units_Z 44
_cell_length_a 17.695398
_cell_length_b 15.364691
_cell_length_c 9.764825
_cell_angle_alpha 90.000000
_cell_angle_beta 51.674946
_cell_angle_gamma 90.000000
_cell_volume 2082.785291
_symmetry_space_group_name_H-M "C 2/M"
_symmetry_group_IT_number 12
_symmetry_cell_setting 'monoclinic'
loop_
_space_group_symop_operation_xyz
x,y,z
-x,y,-z
-x,-y,-z
x,-y,z
1/2+x,1/2+y,z
1/2-x,1/2+y,-z
1/2-x,1/2-y,-z
1/2+x,1/2-y,z
loop_
_atom_site_type_symbol
_atom_site_label
_atom_site_fract_x
_atom_site_fract_y
_atom_site_fract_z
Si Si1 0.302083 0.858793 0.549825
Si Si2 0.609838 0.135408 0.850569
Si Si3 0.916909 0.187331 0.479869
Si Si4 0.385705 0.500000 0.614247
Si Si5 0.700741 0.000000 0.950589
Si Si6 0.917890 0.167175 0.179043
Si Si7 0.386810 0.000000 0.651475
O O1 0.349731 0.880860 0.348651
O O2 0.334902 0.760710 0.553095
O O3 0.187401 0.872317 0.678411
O O4 0.345308 0.917481 0.619333
O O5 0.605607 0.240139 0.866567
O O6 0.670044 0.083734 0.895576
O O7 0.500000 0.105735 0.000000
O O8 0.963148 0.184514 0.277344
O O9 0.000000 0.205314 0.500000
O O10 0.870375 0.092886 0.559225
O O11 0.500000 0.500000 0.500000
O O12 0.317084 0.500000 0.823805
O O13 0.646935 0.000000 0.154419
O O14 0.000000 0.119905 0.000000
O O15 0.500000 0.000000 0.500000
#
# Coordination Sequence:
#
# PCOD9201408 Si02
#       7
#     8   8   8   4   4   8   4
#     4  11  22  41  63  90 127 168 203 253 315 369
#     4  10  20  37  62  88 116 158 207 252 302 369
#     4  10  21  40  65  90 123 164 209 260 308 360
#     4  10  22  38  59  88 119 156 203 250 299 359
#     4  12  22  38  60  88 122 161 206 257 305 362
#     4  10  22  39  61  91 124 164 210 250 305 374
#     4  12  27  42  60  94 129 161 206 263 316 363
#
# _framework density 21.125558000000002
#
# number of rings (size 3 to 8) (size 9 to 14) (size 15 to 20)
#    0.000    1.455    0.000    6.818    0.000    6.545 
#    0.000    3.636    0.000    0.000    0.000    0.000 
#    0.000    0.000    0.000    0.000    0.000    0.000 
#
# Total GULP energy -122756.132191 kJ/mol
# GULP energy per Si atom -5579.824190 kJ/mol
# Density = 2.107748 g / cm^3
# Si number density = 21.125558 Si / 1000 Ang^3
#
#
#
# Elastic Constant Matrix: (Units=GPa)
#
#
# Indices 1 2 3 4 5 6 
#
# 1 126.7264 11.3417 93.4488 0.0000 -8.6404 0.0000
# 2 11.3417 79.6788 46.5288 0.0000 12.5537 0.0000
# 3 93.4488 46.5288 208.7369 0.0000 -16.5006 0.0000
# 4 0.0000 0.0000 0.0000 9.9106 0.0000 11.4006
# 5 -8.6404 12.5537 -16.5006 0.0000 42.0414 0.0000
# 6 0.0000 0.0000 0.0000 11.4006 0.0000 32.1102
#
#
#
# Elastic Compliance Matrix: (Units=1/GPa)
#
#
# Indices 1 2 3 4 5 6 
#
# 1 0.011967 0.001712 -0.005764 0.000000 -0.000314 0.000000
# 2 0.001712 0.016158 -0.004873 0.000000 -0.006386 0.000000
# 3 -0.005764 -0.004873 0.008750 0.000000 0.003705 0.000000
# 4 0.000000 0.000000 0.000000 0.170567 0.000000 -0.060559
# 5 -0.000314 -0.006386 0.003705 0.000000 0.027082 0.000000
# 6 0.000000 0.000000 0.000000 -0.060559 0.000000 0.052644
#
#
# Mechanical properties :
#
#
# Convention : Reuss Voigt Hill
#
# Bulk Modulus (GPa) = 52.56110 79.75344 66.15727
# Shear Modulus (GPa) = 16.05860 34.40061 25.22960
#
# Velocity S-wave (km/s) = 2.76007 4.03971 3.45957
# Velocity P-wave (km/s) = 5.92382 7.71965 6.88058
#
# Compressibility (1/GPa) = 0.01902548
#
# Stress axis : x y z
#
# Youngs Moduli (GPa) = 83.56611 61.88728 114.28411
#
# Poissons Ratio (x) = -0.10594 0.65870
# Poissons Ratio (y) = -0.14305 0.55690
# Poissons Ratio (z) = 0.48165 0.30157
#
# Static dielectric constant tensor:
#      x y z
#    x 1.859980 0.000000 -0.060790 
#    y 0.000000 1.859230 0.000000 
#    z -0.060790 0.000000 1.776840 
# 
# From -- ./inp_files/75738.got.cif
#   From: 2010.05.17/outbox.cif.g08.bks.cpg/sg12_38_cif.got.tgz:75738.got - 2010.06.03 13:09:07.
