data_PCOD9201437
_publ_section_title
;
Structure prediction by ZEFSAII (Michael W. Deem and Ramdas Pophale) SiO2 
 PCOD9201437
Probable space group: C 2/M
;
_chemical_formula_sum "Si O2"
_cell_formula_units_Z 40
_cell_length_a 16.080242
_cell_length_b 12.093645
_cell_length_c 16.257009
_cell_angle_alpha 90.000000
_cell_angle_beta 144.476672
_cell_angle_gamma 90.000000
_cell_volume 1836.928572
_symmetry_space_group_name_H-M "C 2/M"
_symmetry_group_IT_number 12
_symmetry_cell_setting 'monoclinic'
loop_
_space_group_symop_operation_xyz
x,y,z
-x,y,-z
-x,-y,-z
x,-y,z
1/2+x,1/2+y,z
1/2-x,1/2+y,-z
1/2-x,1/2-y,-z
1/2+x,1/2-y,z
loop_
_atom_site_type_symbol
_atom_site_label
_atom_site_fract_x
_atom_site_fract_y
_atom_site_fract_z
Si Si1 0.209905 0.768754 0.330702
Si Si2 0.828288 0.500000 0.361320
Si Si3 0.784278 0.368972 0.834277
Si Si4 0.035528 0.125551 0.429929
Si Si5 0.392240 0.269791 0.063575
Si Si6 0.861991 0.000000 0.946616
O O1 0.203023 0.702092 0.238314
O O2 0.333857 0.707078 0.481151
O O3 0.263952 0.891418 0.352930
O O4 0.047263 0.766626 0.231405
O O5 0.773522 0.500000 0.223020
O O6 0.000000 0.500000 0.500000
O O7 0.802895 0.500000 0.834288
O O8 0.619959 0.352307 0.733132
O O9 0.887200 0.321103 0.986546
O O10 0.000000 0.130218 0.500000
O O11 0.078661 0.000000 0.445358
O O12 0.372835 0.390113 0.008267
O O13 0.250000 0.250000 0.000000
O O14 0.000000 0.000000 0.000000
#
# Coordination Sequence:
#
# PCOD9201437 Si02
#       6
#     8   4   8   8   8   4
#     4  11  20  37  61  90 121 153 206 257 308 370
#     4  12  22  36  72  98 114 158 228 272 308 372
#     4  10  20  37  62  89 116 154 201 250 303 369
#     4   8  16  32  57  87 118 146 190 257 309 353
#     4  12  26  40  59  88 127 168 202 253 312 370
#     4  12  22  48  68  88 129 172 215 266 314 369
#
# _framework density 21.775478
#
# number of rings (size 3 to 8) (size 9 to 14) (size 15 to 20)
#    0.000    1.400    4.000    4.200    1.400    2.400 
#    0.000    1.000    0.000    0.000    0.000    0.000 
#    0.000    0.000    0.000    0.000    0.000    0.000 
#
# Total GULP energy -111820.149310 kJ/mol
# GULP energy per Si atom -5591.007465 kJ/mol
# Density = 2.172592 g / cm^3
# Si number density = 21.775478 Si / 1000 Ang^3
#
#
#
# Elastic Constant Matrix: (Units=GPa)
#
#
# Indices 1 2 3 4 5 6 
#
# 1 69.3807 41.9640 24.0845 0.0000 33.2071 0.0000
# 2 41.9640 154.5701 63.9848 0.0000 25.9920 0.0000
# 3 24.0845 63.9848 170.3377 -0.0001 35.9661 0.0000
# 4 0.0000 0.0000 -0.0001 -247.6287 0.0000 -49.3776
# 5 33.2071 25.9920 35.9661 0.0000 39.6882 0.0000
# 6 0.0000 0.0000 0.0000 -49.3776 0.0000 2.9575
#
#
#
# Elastic Compliance Matrix: (Units=1/GPa)
#
#
# Indices 1 2 3 4 5 6 
#
# 1 0.026674 -0.004665 0.002533 0.000000 -0.021558 0.000000
# 2 -0.004665 0.008772 -0.002778 0.000000 0.000676 0.000000
# 3 0.002533 -0.002778 0.008186 0.000000 -0.007718 0.000000
# 4 0.000000 0.000000 0.000000 -0.000933 0.000000 -0.015574
# 5 -0.021558 0.000676 -0.007718 0.000000 0.049785 0.000000
# 6 0.000000 0.000000 0.000000 -0.015574 0.000000 0.078104
#
#
# Mechanical properties :
#
#
# Convention : Reuss Voigt Hill
#
# Bulk Modulus (GPa) = 29.57635 72.70613 51.14124
# Shear Modulus (GPa) = 26.08522 -23.37959 1.35282
#
# Velocity S-wave (km/s) = 3.46485 -3.28024 0.78905
# Velocity P-wave (km/s) = 5.44232 4.37205 4.93628
#
# Compressibility (1/GPa) = 0.03381080
#
# Stress axis : x y z
#
# Youngs Moduli (GPa) = 37.49022 113.99259 122.16312
#
# Poissons Ratio (x) = 0.53176 -0.30940
# Poissons Ratio (y) = 0.17489 0.33941
# Poissons Ratio (z) = -0.09495 0.31671
#
# Static dielectric constant tensor:
#      x y z
#    x 1.813460 0.000000 0.005310 
#    y 0.000000 1.741910 0.000000 
#    z 0.005310 0.000000 1.831120 
# 
# From -- ./inp_files/315865.got.cif
#   From: 2010.05.17/outbox.cif.g08.bks.cpg/sg12_158_cif.got.tgz:315865.got - 2010.06.03 13:09:07.
