data_PCOD9201964
_publ_section_title
;
Structure prediction by ZEFSAII (Michael W. Deem and Ramdas Pophale) SiO2 
 PCOD9201964
Probable space group: C 2/M
;
_chemical_formula_sum "Si O2"
_cell_formula_units_Z 56
_cell_length_a 16.430882
_cell_length_b 23.757325
_cell_length_c 13.105363
_cell_angle_alpha 90.000000
_cell_angle_beta 37.009712
_cell_angle_gamma 90.000000
_cell_volume 3079.414634
_symmetry_space_group_name_H-M "C 2/M"
_symmetry_group_IT_number 12
_symmetry_cell_setting 'monoclinic'
loop_
_space_group_symop_operation_xyz
x,y,z
-x,y,-z
-x,-y,-z
x,-y,z
1/2+x,1/2+y,z
1/2-x,1/2+y,-z
1/2-x,1/2-y,-z
1/2+x,1/2-y,z
loop_
_atom_site_type_symbol
_atom_site_label
_atom_site_fract_x
_atom_site_fract_y
_atom_site_fract_z
Si Si1 0.174821 0.624616 0.960067
Si Si2 0.811581 0.828011 0.623513
Si Si3 0.062800 0.291853 0.743199
Si Si4 0.585848 0.667297 0.812907
Si Si5 0.416413 0.500000 0.684548
Si Si6 0.391581 0.000000 0.017434
Si Si7 0.462330 0.382317 0.740397
Si Si8 0.619526 0.203038 0.449134
O O1 0.240651 0.634183 0.781386
O O2 0.107858 0.562007 0.037608
O O3 0.305267 0.636545 0.900757
O O4 0.060085 0.670324 0.094984
O O5 0.702219 0.819471 0.642986
O O6 0.840211 0.764800 0.634818
O O7 0.947947 0.852178 0.437123
O O8 0.057140 0.230178 0.798333
O O9 0.068184 0.287460 0.615990
O O10 0.538145 0.626829 0.770287
O O11 0.744787 0.666522 0.679408
O O12 0.500000 0.657943 0.000000
O O13 0.500000 0.500000 0.500000
O O14 0.264397 0.500000 0.794893
O O15 0.447634 0.446145 0.720496
O O16 0.500000 0.000000 0.000000
O O17 0.500000 0.179070 0.500000
#
# Coordination Sequence:
#
# PCOD9201964 Si02
#       8
#     8   8   8   8   4   4   8   8
#     4  11  23  33  61  85 117 157 191 235 291 354
#     4  11  19  37  55  84 118 154 186 234 293 344
#     4  11  21  38  55  86 120 153 193 236 290 354
#     4  11  23  39  58  83 118 155 196 239 287 348
#     4  10  22  38  61  89 114 149 193 242 293 352
#     4  10  20  38  52  85 118 150 189 233 284 339
#     4  11  21  38  57  85 118 149 193 241 290 343
#     4  11  22  37  57  83 119 153 193 239 289 346
#
# _framework density 18.185275000000001
#
# number of rings (size 3 to 8) (size 9 to 14) (size 15 to 20)
#    0.000    1.143    2.857    6.857    2.000    0.571 
#    0.000    0.357    0.000    0.000    0.000    1.000 
#    0.000    0.000    0.000    0.000    0.000    0.000 
#
# Total GULP energy -156272.524626 kJ/mol
# GULP energy per Si atom -5581.161594 kJ/mol
# Density = 1.814388 g / cm^3
# Si number density = 18.185275 Si / 1000 Ang^3
#
#
#
# Elastic Constant Matrix: (Units=GPa)
#
#
# Indices 1 2 3 4 5 6 
#
# 1 136.4617 33.2862 46.0764 -0.0005 -22.9147 0.0001
# 2 33.2862 42.8414 25.5765 -0.0002 -22.6323 -0.0003
# 3 46.0764 25.5765 78.5609 -0.0013 -9.8703 0.0019
# 4 -0.0005 -0.0002 -0.0013 13.9005 0.0006 -7.7932
# 5 -22.9147 -22.6323 -9.8703 0.0006 38.6061 -0.0007
# 6 0.0001 -0.0003 0.0019 -7.7932 -0.0007 20.7637
#
#
#
# Elastic Compliance Matrix: (Units=1/GPa)
#
#
# Indices 1 2 3 4 5 6 
#
# 1 0.010206 -0.003922 -0.004377 0.000000 0.002639 0.000000
# 2 -0.003922 0.042453 -0.008975 0.000000 0.020265 0.000002
# 3 -0.004377 -0.008975 0.017803 0.000001 -0.003308 -0.000002
# 4 0.000000 0.000000 0.000001 0.091112 -0.000001 0.034197
# 5 0.002639 0.020265 -0.003308 -0.000001 0.038503 0.000002
# 6 0.000000 0.000002 -0.000002 0.034197 0.000002 0.060996
#
#
# Mechanical properties :
#
#
# Convention : Reuss Voigt Hill
#
# Bulk Modulus (GPa) = 27.84506 51.97134 39.90820
# Shear Modulus (GPa) = 16.25532 24.84905 20.55219
#
# Velocity S-wave (km/s) = 2.99301 3.70055 3.36543
# Velocity P-wave (km/s) = 5.22392 6.84833 6.09052
#
# Compressibility (1/GPa) = 0.03591301
#
# Stress axis : x y z
#
# Youngs Moduli (GPa) = 97.98191 23.55569 56.17174
#
# Poissons Ratio (x) = 0.09239 0.24589
# Poissons Ratio (y) = 0.38429 0.50412
# Poissons Ratio (z) = 0.42891 0.21140
#
# Static dielectric constant tensor:
#      x y z
#    x 1.680150 -0.000010 -0.170580 
#    y -0.000010 1.635450 0.000050 
#    z -0.170580 0.000050 2.334430 
# 
# From -- ./inp_files/149460.got.cif
#   From: 2010.05.17/outbox.cif.g08.bks.cpg/sg12_75_cif.got.tgz:149460.got - 2010.06.03 13:09:07.
