data_PCOD9201555
_publ_section_title
;
Structure prediction by ZEFSAII (Michael W. Deem and Ramdas Pophale) SiO2 
 PCOD9201555
Probable space group: C 2/M
;
_chemical_formula_sum "Si O2"
_cell_formula_units_Z 56
_cell_length_a 24.109030
_cell_length_b 8.831192
_cell_length_c 14.917486
_cell_angle_alpha 90.000000
_cell_angle_beta 111.105816
_cell_angle_gamma 90.000000
_cell_volume 2963.041296
_symmetry_space_group_name_H-M "C 2/M"
_symmetry_group_IT_number 12
_symmetry_cell_setting 'monoclinic'
loop_
_space_group_symop_operation_xyz
x,y,z
-x,y,-z
-x,-y,-z
x,-y,z
1/2+x,1/2+y,z
1/2-x,1/2+y,-z
1/2-x,1/2-y,-z
1/2+x,1/2-y,z
loop_
_atom_site_type_symbol
_atom_site_label
_atom_site_fract_x
_atom_site_fract_y
_atom_site_fract_z
Si Si1 0.259971 0.681464 0.907390
Si Si2 0.385784 0.180937 0.965315
Si Si3 0.674938 0.320636 0.363453
Si Si4 0.640756 0.181738 0.727972
Si Si5 0.933935 0.320182 0.803606
Si Si6 0.443378 0.679710 0.176944
Si Si7 0.313501 0.818518 0.436716
O O1 0.265069 0.500000 0.915655
O O2 0.321158 0.750523 0.907187
O O3 0.203018 0.718236 0.813635
O O4 0.250000 0.750000 0.000000
O O5 0.428503 0.214514 0.906335
O O6 0.381149 0.000000 0.972058
O O7 0.409341 0.249318 0.071590
O O8 0.664881 0.500000 0.347645
O O9 0.627377 0.230158 0.277798
O O10 0.669521 0.270135 0.463847
O O11 0.743528 0.289089 0.377048
O O12 0.588597 0.261179 0.752193
O O13 0.648370 0.222328 0.628297
O O14 0.633026 0.000000 0.729295
O O15 0.942503 0.500000 0.799179
O O16 0.988972 0.234591 0.791527
O O17 0.439562 0.500000 0.169962
O O18 0.318797 0.000000 0.455467
#
# Coordination Sequence:
#
# PCOD9201555 Si02
#       7
#     8   8   8   8   8   8   8
#     4  11  21  34  56  85 118 154 190 235 286 338
#     4  11  23  39  59  84 115 154 197 241 290 344
#     4  10  20  37  62  92 121 147 186 240 289 341
#     4  10  21  38  59  83 118 158 195 234 284 346
#     4  11  24  41  61  83 113 154 197 241 289 346
#     4  12  25  39  58  83 115 154 196 244 291 343
#     4   9  19  37  62  90 119 154 188 229 288 347
#
# _framework density 18.899501000000001
#
# number of rings (size 3 to 8) (size 9 to 14) (size 15 to 20)
#    0.000    1.429    1.429    4.286    0.000    6.857 
#    0.000    0.714    0.000    4.286    0.000    0.000 
#    0.000    0.000    0.000    0.000    0.000    0.000 
#
# Total GULP energy -156556.284515 kJ/mol
# GULP energy per Si atom -5591.295876 kJ/mol
# Density = 1.885648 g / cm^3
# Si number density = 18.899501 Si / 1000 Ang^3
#
#
#
# Elastic Constant Matrix: (Units=GPa)
#
#
# Indices 1 2 3 4 5 6 
#
# 1 94.2660 33.9682 28.2580 0.0000 -26.3806 0.0000
# 2 33.9682 44.5134 15.3747 0.0000 -17.5014 0.0000
# 3 28.2580 15.3747 41.3820 0.0000 -24.4870 0.0000
# 4 0.0000 0.0000 0.0000 25.9335 0.0000 3.6187
# 5 -26.3806 -17.5014 -24.4870 0.0000 29.9651 0.0000
# 6 0.0000 0.0000 0.0000 3.6187 0.0000 29.1452
#
#
#
# Elastic Compliance Matrix: (Units=1/GPa)
#
#
# Indices 1 2 3 4 5 6 
#
# 1 0.016880 -0.008985 -0.004841 0.000000 0.005657 0.000000
# 2 -0.008985 0.033990 0.001111 0.000000 0.012850 0.000000
# 3 -0.004841 0.001111 0.048253 0.000000 0.035818 0.000000
# 4 0.000000 0.000000 0.000000 0.039240 0.000000 -0.004872
# 5 0.005657 0.012850 0.035818 0.000000 0.075127 0.000000
# 6 0.000000 0.000000 0.000000 -0.004872 0.000000 0.034916
#
#
# Mechanical properties :
#
#
# Convention : Reuss Voigt Hill
#
# Bulk Modulus (GPa) = 13.56998 37.26260 25.41629
# Shear Modulus (GPa) = 16.75592 23.84612 20.30102
#
# Velocity S-wave (km/s) = 2.98078 3.55594 3.28099
# Velocity P-wave (km/s) = 4.36376 6.05133 5.27546
#
# Compressibility (1/GPa) = 0.07369208
#
# Stress axis : x y z
#
# Youngs Moduli (GPa) = 59.24021 29.42031 20.72417
#
# Poissons Ratio (x) = 0.26434 0.10033
# Poissons Ratio (y) = 0.53228 -0.02302
# Poissons Ratio (z) = 0.28679 -0.03267
#
# Static dielectric constant tensor:
#      x y z
#    x 1.654720 0.000000 -0.007360 
#    y 0.000000 1.627200 0.000000 
#    z -0.007360 0.000000 1.638880 
# 
# From -- ./inp_files/237818.got.cif
#   From: 2010.05.17/outbox.cif.g08.bks.cpg/sg12_119_cif.got.tgz:237818.got - 2010.06.03 13:09:07.
