data_PCOD9201252
_publ_section_title
;
Structure prediction by ZEFSAII (Michael W. Deem and Ramdas Pophale) SiO2 
 PCOD9201252
Probable space group: C 2/M
;
_chemical_formula_sum "Si O2"
_cell_formula_units_Z 42
_cell_length_a 30.523781
_cell_length_b 7.705098
_cell_length_c 9.205445
_cell_angle_alpha 90.000000
_cell_angle_beta 114.666712
_cell_angle_gamma 90.000000
_cell_volume 1967.460803
_symmetry_space_group_name_H-M "C 2/M"
_symmetry_group_IT_number 12
_symmetry_cell_setting 'monoclinic'
loop_
_space_group_symop_operation_xyz
x,y,z
-x,y,-z
-x,-y,-z
x,-y,z
1/2+x,1/2+y,z
1/2-x,1/2+y,-z
1/2-x,1/2-y,-z
1/2+x,1/2-y,z
loop_
_atom_site_type_symbol
_atom_site_label
_atom_site_fract_x
_atom_site_fract_y
_atom_site_fract_z
Si Si1 0.821659 0.792114 0.432609
Si Si2 0.853717 0.788189 0.797997
Si Si3 0.270309 0.697942 0.873744
Si Si4 0.043975 0.702394 0.157600
Si Si5 0.000000 0.500000 0.500000
Si Si6 0.927882 0.199483 0.481421
O O1 0.830392 0.738729 0.610661
O O2 0.773604 0.714857 0.299302
O O3 0.871012 0.753858 0.413639
O O4 0.816275 0.000000 0.421960
O O5 0.818481 0.719326 0.874153
O O6 0.907565 0.716997 0.869285
O O7 0.857138 0.000000 0.803469
O O8 0.284148 0.500000 0.909274
O O9 0.250000 0.750000 0.000000
O O10 0.034040 0.500000 0.181280
O O11 0.053716 0.794051 0.324603
O O12 0.000000 0.768890 0.000000
O O13 0.041820 0.345141 0.558484
O O14 0.932895 0.000000 0.435536
#
# Coordination Sequence:
#
# PCOD9201252 Si02
#       6
#     8   8   8   8   2   8
#     4   9  19  38  63  86 114 151 202 250 305 363
#     4   9  20  38  60  87 114 154 203 249 307 369
#     4  11  23  38  57  85 123 158 195 248 308 370
#     4  10  20  37  61  90 120 154 205 260 304 361
#     4  12  22  40  62  90 128 160 218 246 302 370
#     4  10  22  40  62  90 123 164 205 257 304 364
#
# _framework density 21.347311000000001
#
# number of rings (size 3 to 8) (size 9 to 14) (size 15 to 20)
#    0.000    2.095    0.952    3.143    1.333    3.810 
#    3.429    0.000    0.000    0.000    0.000    0.000 
#    0.000    0.000    0.000    0.000    0.000    0.000 
#
# Total GULP energy -116985.687798 kJ/mol
# GULP energy per Si atom -5570.747038 kJ/mol
# Density = 2.129872 g / cm^3
# Si number density = 21.347311 Si / 1000 Ang^3
#
#
#
# Elastic Constant Matrix: (Units=GPa)
#
#
# Indices 1 2 3 4 5 6 
#
# 1 83.6322 17.7906 17.4789 0.0000 -2.6998 0.0000
# 2 17.7906 72.0375 -17.2757 0.0000 -10.5417 0.0000
# 3 17.4789 -17.2757 39.3528 0.0000 14.2902 0.0000
# 4 0.0000 0.0000 0.0000 19.5583 0.0000 1.6615
# 5 -2.6998 -10.5417 14.2902 0.0000 14.1034 0.0000
# 6 0.0000 0.0000 0.0000 1.6615 0.0000 26.9526
#
#
#
# Elastic Compliance Matrix: (Units=1/GPa)
#
#
# Indices 1 2 3 4 5 6 
#
# 1 0.016798 -0.005688 -0.015159 0.000000 0.014324 0.000000
# 2 -0.005688 0.017949 0.009381 0.000000 0.002822 0.000000
# 3 -0.015159 0.009381 0.055011 0.000000 -0.051629 0.000000
# 4 0.000000 0.000000 0.000000 0.051398 0.000000 -0.003168
# 5 0.014324 0.002822 -0.051629 0.000000 0.128069 0.000000
# 6 0.000000 0.000000 0.000000 -0.003168 0.000000 0.037298
#
#
# Mechanical properties :
#
#
# Convention : Reuss Voigt Hill
#
# Bulk Modulus (GPa) = 14.96440 25.66778 20.31609
# Shear Modulus (GPa) = 14.21549 23.92478 19.07014
#
# Velocity S-wave (km/s) = 2.58333 3.35138 2.99210
# Velocity P-wave (km/s) = 3.99040 5.19862 4.63406
#
# Compressibility (1/GPa) = 0.06682526
#
# Stress axis : x y z
#
# Youngs Moduli (GPa) = 59.53193 55.71343 18.17832
#
# Poissons Ratio (x) = 0.31688 0.27557
# Poissons Ratio (y) = 0.33860 -0.17053
# Poissons Ratio (z) = 0.90246 -0.52265
#
# Static dielectric constant tensor:
#      x y z
#    x 1.771100 0.000000 0.004190 
#    y 0.000000 1.776220 0.000000 
#    z 0.004190 0.000000 1.735900 
# 
# From -- ./inp_files/108894.got.cif
#   From: 2010.05.17/outbox.cif.g08.bks.cpg/sg12_55_cif.got.tgz:108894.got - 2010.06.03 13:09:07.
