data_PCOD9201506
_publ_section_title
;
Structure prediction by ZEFSAII (Michael W. Deem and Ramdas Pophale) SiO2 
 PCOD9201506
Probable space group: C 2/M
;
_chemical_formula_sum "Si O2"
_cell_formula_units_Z 32
_cell_length_a 18.751799
_cell_length_b 8.691391
_cell_length_c 11.413915
_cell_angle_alpha 90.000000
_cell_angle_beta 114.228684
_cell_angle_gamma 90.000000
_cell_volume 1696.372083
_symmetry_space_group_name_H-M "C 2/M"
_symmetry_group_IT_number 12
_symmetry_cell_setting 'monoclinic'
loop_
_space_group_symop_operation_xyz
x,y,z
-x,y,-z
-x,-y,-z
x,-y,z
1/2+x,1/2+y,z
1/2-x,1/2+y,-z
1/2-x,1/2-y,-z
1/2+x,1/2-y,z
loop_
_atom_site_type_symbol
_atom_site_label
_atom_site_fract_x
_atom_site_fract_y
_atom_site_fract_z
Si Si1 0.419234 0.184523 0.879962
Si Si2 0.956968 0.315463 0.637440
Si Si3 0.261512 0.317028 0.878029
Si Si4 0.615376 0.683996 0.641761
O O1 0.428720 0.220423 0.748983
O O2 0.346366 0.270149 0.887597
O O3 0.407112 0.000000 0.883493
O O4 0.500000 0.222568 0.000000
O O5 0.961566 0.500000 0.627895
O O6 0.900917 0.247906 0.499393
O O7 0.042540 0.245780 0.669704
O O8 0.252788 0.500000 0.875208
O O9 0.195345 0.245444 0.749810
O O10 0.250000 0.250000 0.000000
O O11 0.614192 0.500000 0.639632
#
# Coordination Sequence:
#
# PCOD9201506 Si02
#       4
#     8   8   8   8
#     4  10  22  40  62  88 119 155 195 241 294 352
#     4  10  20  37  62  90 122 158 197 242 294 349
#     4  12  25  41  62  87 118 154 196 244 295 352
#     4  11  22  38  61  88 121 158 199 243 290 348
#
# _framework density 18.863785
#
# number of rings (size 3 to 8) (size 9 to 14) (size 15 to 20)
#    0.000    1.250    0.000    8.250    0.000    5.500 
#    0.000    0.000    0.000    0.000    0.000    0.000 
#    0.000    0.000    0.000    0.000    0.000    0.000 
#
# Total GULP energy -89511.305921 kJ/mol
# GULP energy per Si atom -5594.456620 kJ/mol
# Density = 1.882085 g / cm^3
# Si number density = 18.863785 Si / 1000 Ang^3
#
#
#
# Elastic Constant Matrix: (Units=GPa)
#
#
# Indices 1 2 3 4 5 6 
#
# 1 121.9987 82.3138 102.7902 0.0000 -3.5217 0.0000
# 2 82.3138 145.9649 80.4708 0.0000 -7.8024 0.0000
# 3 102.7902 80.4708 127.0615 0.0000 0.2850 0.0000
# 4 0.0000 0.0000 0.0000 22.3179 0.0000 6.2962
# 5 -3.5217 -7.8024 0.2850 0.0000 38.5491 0.0000
# 6 0.0000 0.0000 0.0000 6.2962 0.0000 37.5044
#
#
#
# Elastic Compliance Matrix: (Units=1/GPa)
#
#
# Indices 1 2 3 4 5 6 
#
# 1 0.028103 -0.004949 -0.019604 0.000000 0.001711 0.000000
# 2 -0.004949 0.011584 -0.003337 0.000000 0.001917 0.000000
# 3 -0.019604 -0.003337 0.025849 0.000000 -0.002658 0.000000
# 4 0.000000 0.000000 0.000000 0.047035 0.000000 -0.007896
# 5 0.001711 0.001917 -0.002658 0.000000 0.026505 0.000000
# 6 0.000000 0.000000 0.000000 -0.007896 0.000000 0.027989
#
#
# Mechanical properties :
#
#
# Convention : Reuss Voigt Hill
#
# Bulk Modulus (GPa) = 102.50700 102.90827 102.70764
# Shear Modulus (GPa) = 22.11441 28.30432 25.20936
#
# Velocity S-wave (km/s) = 3.42763 3.87778 3.65963
# Velocity P-wave (km/s) = 8.37398 8.64415 8.51014
#
# Compressibility (1/GPa) = 0.00975543
#
# Stress axis : x y z
#
# Youngs Moduli (GPa) = 35.58384 86.32593 38.68576
#
# Poissons Ratio (x) = 0.42719 0.75841
# Poissons Ratio (y) = 0.17609 0.12911
# Poissons Ratio (z) = 0.69760 0.28811
#
# Static dielectric constant tensor:
#      x y z
#    x 1.616340 0.000000 -0.002390 
#    y 0.000000 1.633410 0.000000 
#    z -0.002390 0.000000 1.634780 
# 
# From -- ./inp_files/138640.got.cif
#   From: 2010.05.17/outbox.cif.g08.bks.cpg/sg12_70_cif.got.tgz:138640.got - 2010.06.03 13:09:07.
