data_PCOD9201542
_publ_section_title
;
Structure prediction by ZEFSAII (Michael W. Deem and Ramdas Pophale) SiO2 
 PCOD9201542
Probable space group: C 2/M
;
_chemical_formula_sum "Si O2"
_cell_formula_units_Z 48
_cell_length_a 15.070629
_cell_length_b 14.147614
_cell_length_c 14.356415
_cell_angle_alpha 90.000000
_cell_angle_beta 132.512383
_cell_angle_gamma 90.000000
_cell_volume 2256.344674
_symmetry_space_group_name_H-M "C 2/M"
_symmetry_group_IT_number 12
_symmetry_cell_setting 'monoclinic'
loop_
_space_group_symop_operation_xyz
x,y,z
-x,y,-z
-x,-y,-z
x,-y,z
1/2+x,1/2+y,z
1/2-x,1/2+y,-z
1/2-x,1/2-y,-z
1/2+x,1/2-y,z
loop_
_atom_site_type_symbol
_atom_site_label
_atom_site_fract_x
_atom_site_fract_y
_atom_site_fract_z
Si Si1 0.388752 0.888824 0.987166
Si Si2 0.020475 0.614333 0.624348
Si Si3 0.282503 0.113941 0.569684
Si Si4 0.519684 0.611032 0.318541
Si Si5 0.309271 0.614164 0.296931
Si Si6 0.869665 0.273882 0.143905
O O1 0.270338 0.853274 0.848121
O O2 0.370926 0.000000 0.983095
O O3 0.500000 0.869083 0.000000
O O4 0.422993 0.851956 0.112041
O O5 0.038986 0.500000 0.645485
O O6 0.899936 0.643868 0.596052
O O7 0.000000 0.634493 0.500000
O O8 0.124558 0.674233 0.751048
O O9 0.160168 0.130779 0.425693
O O10 0.249053 0.151446 0.649195
O O11 0.294852 0.000000 0.586914
O O12 0.502411 0.500000 0.284610
O O13 0.447822 0.628938 0.365127
O O14 0.453009 0.681619 0.202816
O O15 0.298163 0.500000 0.295398
O O16 0.750000 0.250000 0.000000
#
# Coordination Sequence:
#
# PCOD9201542 Si02
#       6
#     8   8   8   8   8   8
#     4  10  20  37  62  91 124 163 211 266 322 379
#     4  10  23  44  67  91 124 168 219 273 326 386
#     4   9  18  36  63  91 118 158 211 260 319 382
#     4  10  21  37  58  88 128 166 205 257 324 387
#     4   9  16  30  56  89 121 152 193 253 316 374
#     4  12  24  40  61  95 128 171 212 263 321 396
#
# _framework density 21.273344999999999
#
# number of rings (size 3 to 8) (size 9 to 14) (size 15 to 20)
#    0.000    2.000    1.667    2.000    0.000    7.333 
#    3.000    0.000    0.000    0.500    0.000    0.000 
#    0.000    0.000    0.000    0.000    0.000    0.000 
#
# Total GULP energy -133797.793106 kJ/mol
# GULP energy per Si atom -5574.908046 kJ/mol
# Density = 2.122493 g / cm^3
# Si number density = 21.273345 Si / 1000 Ang^3
#
#
#
# Elastic Constant Matrix: (Units=GPa)
#
#
# Indices 1 2 3 4 5 6 
#
# 1 74.1676 8.3999 42.3827 0.0000 3.9626 0.0000
# 2 8.3999 95.6445 62.2868 0.0000 -11.2165 0.0000
# 3 42.3827 62.2868 132.1680 0.0000 -13.6824 0.0000
# 4 0.0000 0.0000 0.0000 39.7911 0.0000 6.5728
# 5 3.9626 -11.2165 -13.6824 0.0000 34.8721 0.0000
# 6 0.0000 0.0000 0.0000 6.5728 0.0000 -10.5419
#
#
#
# Elastic Compliance Matrix: (Units=1/GPa)
#
#
# Indices 1 2 3 4 5 6 
#
# 1 0.017590 0.002784 -0.007366 0.000000 -0.003994 0.000000
# 2 0.002784 0.015682 -0.008124 0.000000 0.001540 0.000000
# 3 -0.007366 -0.008124 0.014147 0.000000 0.003775 0.000000
# 4 0.000000 0.000000 0.000000 0.022785 0.000000 0.014206
# 5 -0.003994 0.001540 0.003775 0.000000 0.031107 0.000000
# 6 0.000000 0.000000 0.000000 0.014206 0.000000 -0.086002
#
#
# Mechanical properties :
#
#
# Convention : Reuss Voigt Hill
#
# Bulk Modulus (GPa) = 45.43820 58.67988 52.05904
# Shear Modulus (GPa) = 104.04410 25.41831 64.73121
#
# Velocity S-wave (km/s) = 7.00103 3.46040 5.52217
# Velocity P-wave (km/s) = 9.31440 6.60375 8.07365
#
# Compressibility (1/GPa) = 0.02200791
#
# Stress axis : x y z
#
# Youngs Moduli (GPa) = 56.84922 63.76764 70.68390
#
# Poissons Ratio (x) = -0.17752 0.52067
# Poissons Ratio (y) = -0.15826 0.57421
# Poissons Ratio (z) = 0.41876 0.51803
#
# Static dielectric constant tensor:
#      x y z
#    x 1.843420 0.000000 0.034810 
#    y 0.000000 1.837520 0.000000 
#    z 0.034810 0.000000 1.820730 
# 
# From -- ./inp_files/215003.got.cif
#   From: 2010.05.17/outbox.cif.g08.bks.cpg/sg12_108_cif.got.tgz:215003.got - 2010.06.03 13:09:07.
