data_PCOD9201412
_publ_section_title
;
Structure prediction by ZEFSAII (Michael W. Deem and Ramdas Pophale) SiO2 
 PCOD9201412
Probable space group: C 2/M
;
_chemical_formula_sum "Si O2"
_cell_formula_units_Z 64
_cell_length_a 8.804965
_cell_length_b 29.011955
_cell_length_c 18.510376
_cell_angle_alpha 90.000000
_cell_angle_beta 42.300924
_cell_angle_gamma 90.000000
_cell_volume 3182.370251
_symmetry_space_group_name_H-M "C 2/M"
_symmetry_group_IT_number 12
_symmetry_cell_setting 'monoclinic'
loop_
_space_group_symop_operation_xyz
x,y,z
-x,y,-z
-x,-y,-z
x,-y,z
1/2+x,1/2+y,z
1/2-x,1/2+y,-z
1/2-x,1/2-y,-z
1/2+x,1/2-y,z
loop_
_atom_site_type_symbol
_atom_site_label
_atom_site_fract_x
_atom_site_fract_y
_atom_site_fract_z
Si Si1 0.078893 0.054722 0.890638
Si Si2 0.737883 0.379301 0.082076
Si Si3 0.724600 0.298807 0.969259
Si Si4 0.977804 0.605925 0.675057
Si Si5 0.904710 0.303718 0.283136
Si Si6 0.121781 0.866207 0.676428
Si Si7 0.933175 0.226149 0.384676
Si Si8 0.773594 0.448075 0.529890
O O1 0.314084 0.078910 0.787474
O O2 0.895787 0.076567 0.901035
O O3 0.097423 0.000000 0.874747
O O4 0.000000 0.064656 0.000000
O O5 0.614971 0.363569 0.198585
O O6 0.707871 0.338738 0.034475
O O7 0.000000 0.388499 0.000000
O O8 0.937499 0.307302 0.842376
O O9 0.500000 0.298968 0.000000
O O10 0.750000 0.250000 0.000000
O O11 0.813584 0.625812 0.669649
O O12 0.092085 0.648483 0.674834
O O13 0.148738 0.571714 0.574553
O O14 0.001216 0.263343 0.300216
O O15 0.653337 0.289152 0.350668
O O16 0.166003 0.819451 0.617946
O O17 0.122908 0.909962 0.622729
O O18 0.750000 0.250000 0.500000
O O19 0.681909 0.500000 0.558368
O O20 0.000000 0.450145 0.500000
#
# Coordination Sequence:
#
# PCOD9201412 Si02
#       8
#     8   8   8   8   8   8   8   8
#     4  10  21  38  61  90 124 160 203 256 314 376
#     4  11  22  38  60  88 123 162 207 257 311 372
#     4  12  23  39  61  88 123 163 210 259 313 373
#     4  10  20  37  62  88 117 154 200 251 306 365
#     4  12  24  39  61  86 119 159 203 249 303 366
#     4  10  21  38  59  86 120 155 198 249 303 360
#     4  12  25  41  59  86 122 160 202 247 301 362
#     4   9  18  34  59  87 112 145 192 244 296 355
#
# _framework density 20.110796000000001
#
# number of rings (size 3 to 8) (size 9 to 14) (size 15 to 20)
#    0.000    1.250    0.000    7.500    0.000    5.250 
#    0.000    0.000    0.000    2.250    0.000    0.000 
#    0.000    0.000    0.000    0.000    0.000    0.000 
#
# Total GULP energy -179076.469404 kJ/mol
# GULP energy per Si atom -5596.139669 kJ/mol
# Density = 2.006502 g / cm^3
# Si number density = 20.110796 Si / 1000 Ang^3
#
#
#
# Elastic Constant Matrix: (Units=GPa)
#
#
# Indices 1 2 3 4 5 6 
#
# 1 60.4252 38.9184 41.3501 0.0000 -2.6073 0.0000
# 2 38.9184 153.5786 74.0423 0.0000 22.6943 0.0000
# 3 41.3501 74.0423 151.0460 0.0000 11.4301 0.0000
# 4 0.0000 0.0000 0.0000 32.0154 0.0000 10.6577
# 5 -2.6073 22.6943 11.4301 0.0000 27.3208 0.0000
# 6 0.0000 0.0000 0.0000 10.6577 0.0000 22.5535
#
#
#
# Elastic Compliance Matrix: (Units=1/GPa)
#
#
# Indices 1 2 3 4 5 6 
#
# 1 0.023171 -0.004875 -0.004572 0.000000 0.008174 0.000000
# 2 -0.004875 0.010438 -0.003192 0.000000 -0.007801 0.000000
# 3 -0.004572 -0.003192 0.009572 0.000000 -0.001790 0.000000
# 4 0.000000 0.000000 0.000000 0.037066 0.000000 -0.017516
# 5 0.008174 -0.007801 -0.001790 0.000000 0.044611 0.000000
# 6 0.000000 0.000000 0.000000 -0.017516 0.000000 0.052616
#
#
# Mechanical properties :
#
#
# Convention : Reuss Voigt Hill
#
# Bulk Modulus (GPa) = 55.85631 74.85238 65.35434
# Shear Modulus (GPa) = 23.95560 30.42721 27.19140
#
# Velocity S-wave (km/s) = 3.45509 3.89392 3.68105
# Velocity P-wave (km/s) = 6.61449 7.58404 7.11580
#
# Compressibility (1/GPa) = 0.01790308
#
# Stress axis : x y z
#
# Youngs Moduli (GPa) = 43.15784 95.80069 104.46992
#
# Poissons Ratio (x) = 0.46707 0.47762
# Poissons Ratio (y) = 0.21041 0.33345
# Poissons Ratio (z) = 0.19731 0.30578
#
# Static dielectric constant tensor:
#      x y z
#    x 1.704710 0.000000 0.010850 
#    y 0.000000 1.686490 0.000000 
#    z 0.010850 0.000000 1.709420 
# 
# From -- ./inp_files/260291.got.cif
#   From: 2010.05.17/outbox.cif.g08.bks.cpg/sg12_131_cif.got.tgz:260291.got - 2010.06.03 13:09:07.
