data_PCOD9201226
_publ_section_title
;
Structure prediction by ZEFSAII (Michael W. Deem and Ramdas Pophale) SiO2 
 PCOD9201226
Probable space group: C 2/M
;
_chemical_formula_sum "Si O2"
_cell_formula_units_Z 64
_cell_length_a 17.824085
_cell_length_b 14.421671
_cell_length_c 14.257508
_cell_angle_alpha 90.000000
_cell_angle_beta 127.573933
_cell_angle_gamma 90.000000
_cell_volume 2904.708263
_symmetry_space_group_name_H-M "C 2/M"
_symmetry_group_IT_number 12
_symmetry_cell_setting 'monoclinic'
loop_
_space_group_symop_operation_xyz
x,y,z
-x,y,-z
-x,-y,-z
x,-y,z
1/2+x,1/2+y,z
1/2-x,1/2+y,-z
1/2-x,1/2-y,-z
1/2+x,1/2-y,z
loop_
_atom_site_type_symbol
_atom_site_label
_atom_site_fract_x
_atom_site_fract_y
_atom_site_fract_z
Si Si1 0.083419 0.399185 0.919783
Si Si2 0.524864 0.305905 0.913835
Si Si3 0.308800 0.102809 0.273755
Si Si4 0.762439 0.894154 0.416833
Si Si5 0.274836 0.354224 0.991161
Si Si6 0.147449 0.105225 0.308699
Si Si7 0.435577 0.893473 0.646112
Si Si8 0.096436 0.249498 0.547239
O O1 0.050517 0.500000 0.931694
O O2 0.054768 0.302350 0.945910
O O3 0.197183 0.404308 0.996542
O O4 0.033030 0.389227 0.778773
O O5 0.432733 0.322443 0.780512
O O6 0.500000 0.340737 0.000000
O O7 0.611639 0.358928 0.928190
O O8 0.256029 0.120983 0.137293
O O9 0.232258 0.109744 0.298795
O O10 0.384749 0.179989 0.353911
O O11 0.350110 0.000000 0.305636
O O12 0.808633 0.881802 0.555384
O O13 0.650551 0.882452 0.345135
O O14 0.815167 0.818396 0.395494
O O15 0.780241 0.000000 0.399805
O O16 0.250000 0.250000 0.000000
O O17 0.108188 0.000000 0.273626
O O18 0.417812 0.815308 0.554517
O O19 0.425034 0.000000 0.600318
O O20 0.000000 0.197162 0.500000
#
# Coordination Sequence:
#
# PCOD9201226 Si02
#       8
#     8   8   8   8   8   8   8   8
#     4  10  22  38  59  85 119 160 196 239 300 360
#     4  11  22  37  60  87 115 153 202 254 295 349
#     4  11  22  37  60  91 124 153 196 256 307 354
#     4  10  22  41  62  86 122 165 208 246 289 360
#     4  10  22  40  59  83 120 160 197 244 305 360
#     4  10  21  37  60  90 117 153 202 253 303 348
#     4  10  20  37  61  89 118 156 200 244 301 363
#     4  12  24  35  59  93 127 163 195 244 307 368
#
# _framework density 22.033196
#
# number of rings (size 3 to 8) (size 9 to 14) (size 15 to 20)
#    0.000    1.500    2.500    2.625    1.750    4.750 
#    0.000    0.000    0.000    3.750    0.000    0.000 
#    0.000    0.000    0.000    0.000    0.000    0.000 
#
# Total GULP energy -178683.179164 kJ/mol
# GULP energy per Si atom -5583.849349 kJ/mol
# Density = 2.198305 g / cm^3
# Si number density = 22.033196 Si / 1000 Ang^3
#
#
#
# Elastic Constant Matrix: (Units=GPa)
#
#
# Indices 1 2 3 4 5 6 
#
# 1 76.7747 35.6646 7.9298 0.0000 24.1677 0.0000
# 2 35.6646 89.5470 4.4680 0.0000 11.3571 0.0000
# 3 7.9298 4.4680 15.8799 0.0000 15.7044 0.0000
# 4 0.0000 0.0000 0.0000 20.7421 0.0000 12.2622
# 5 24.1677 11.3571 15.7044 0.0000 31.8408 0.0000
# 6 0.0000 0.0000 0.0000 12.2622 0.0000 8.1169
#
#
#
# Elastic Compliance Matrix: (Units=1/GPa)
#
#
# Indices 1 2 3 4 5 6 
#
# 1 0.020724 -0.006433 0.009269 0.000000 -0.018008 0.000000
# 2 -0.006433 0.013715 -0.001244 0.000000 0.000604 0.000000
# 3 0.009269 -0.001244 0.127310 0.000000 -0.069383 0.000000
# 4 0.000000 0.000000 0.000000 0.450917 0.000000 -0.681196
# 5 -0.018008 0.000604 -0.069383 0.000000 0.079080 0.000000
# 6 0.000000 0.000000 0.000000 -0.681196 0.000000 1.152278
#
#
# Mechanical properties :
#
#
# Convention : Reuss Voigt Hill
#
# Bulk Modulus (GPa) = 6.06302 30.92517 18.49410
# Shear Modulus (GPa) = 2.63739 21.08259 11.85999
#
# Velocity S-wave (km/s) = 1.09526 3.09666 2.32260
# Velocity P-wave (km/s) = 2.08739 5.18189 3.95026
#
# Compressibility (1/GPa) = 0.16493418
#
# Stress axis : x y z
#
# Youngs Moduli (GPa) = 48.25213 72.91416 7.85483
#
# Poissons Ratio (x) = 0.46904 -0.07281
# Poissons Ratio (y) = 0.31039 0.00977
# Poissons Ratio (z) = -0.44727 0.09072
#
# Static dielectric constant tensor:
#      x y z
#    x 1.835280 0.000000 0.023210 
#    y 0.000000 1.827560 0.000000 
#    z 0.023210 0.000000 1.772470 
# 
# From -- ./inp_files/225717.got.cif
#   From: 2010.05.17/outbox.cif.g08.bks.cpg/sg12_113_cif.got.tgz:225717.got - 2010.06.03 13:09:07.
