data_PCOD9201526
_publ_section_title
;
Structure prediction by ZEFSAII (Michael W. Deem and Ramdas Pophale) SiO2 
 PCOD9201526
Probable space group: C 2/M
;
_chemical_formula_sum "Si O2"
_cell_formula_units_Z 48
_cell_length_a 28.503010
_cell_length_b 9.268406
_cell_length_c 10.208145
_cell_angle_alpha 90.000000
_cell_angle_beta 89.795368
_cell_angle_gamma 90.000000
_cell_volume 2696.744709
_symmetry_space_group_name_H-M "C 2/M"
_symmetry_group_IT_number 12
_symmetry_cell_setting 'monoclinic'
loop_
_space_group_symop_operation_xyz
x,y,z
-x,y,-z
-x,-y,-z
x,-y,z
1/2+x,1/2+y,z
1/2-x,1/2+y,-z
1/2-x,1/2-y,-z
1/2+x,1/2-y,z
loop_
_atom_site_type_symbol
_atom_site_label
_atom_site_fract_x
_atom_site_fract_y
_atom_site_fract_z
Si Si1 0.219914 0.671401 0.110801
Si Si2 0.025925 0.833067 0.137398
Si Si3 0.473198 0.172247 0.365335
Si Si4 0.378525 0.673770 0.282667
Si Si5 0.274520 0.327658 0.378736
Si Si6 0.629268 0.669224 0.027432
O O1 0.220592 0.500000 0.090765
O O2 0.243922 0.702011 0.249556
O O3 0.168112 0.733981 0.095562
O O4 0.250000 0.750000 0.000000
O O5 0.080524 0.816549 0.104416
O O6 0.005465 0.728809 0.246573
O O7 0.016761 0.000000 0.176675
O O8 0.000000 0.809345 0.000000
O O9 0.500000 0.208283 0.500000
O O10 0.422775 0.248716 0.348317
O O11 0.467182 0.000000 0.359159
O O12 0.384002 0.500000 0.292601
O O13 0.328547 0.714307 0.347760
O O14 0.376874 0.707535 0.126503
O O15 0.274500 0.500000 0.400325
O O16 0.250000 0.250000 0.500000
O O17 0.643507 0.500000 0.029513
#
# Coordination Sequence:
#
# PCOD9201526 Si02
#       6
#     8   8   8   8   8   8
#     4  11  22  38  60  88 121 156 197 244 295 350
#     4  10  20  38  63  88 115 153 198 246 295 348
#     4  11  25  41  58  87 126 160 196 245 297 354
#     4  10  20  40  64  85 116 157 202 246 294 355
#     4  10  23  41  61  87 121 158 197 245 294 350
#     4  10  20  37  62  91 121 151 198 252 295 350
#
# _framework density 17.799236000000001
#
# number of rings (size 3 to 8) (size 9 to 14) (size 15 to 20)
#    0.000    1.667    3.333    1.000    0.000    6.333 
#    0.000    6.667    0.000    0.000    0.000    0.000 
#    0.000    0.000    0.000    0.000    0.000    0.000 
#
# Total GULP energy -134039.575209 kJ/mol
# GULP energy per Si atom -5584.982300 kJ/mol
# Density = 1.775872 g / cm^3
# Si number density = 17.799236 Si / 1000 Ang^3
#
#
#
# Elastic Constant Matrix: (Units=GPa)
#
#
# Indices 1 2 3 4 5 6 
#
# 1 136.9786 72.5537 90.5414 0.0000 13.8080 0.0000
# 2 72.5537 64.5618 74.3213 0.0000 11.7234 0.0000
# 3 90.5414 74.3213 108.5585 0.0000 3.0292 0.0000
# 4 0.0000 0.0000 0.0000 35.1174 0.0000 0.2459
# 5 13.8080 11.7234 3.0292 0.0000 25.6427 0.0000
# 6 0.0000 0.0000 0.0000 0.2459 0.0000 37.4436
#
#
#
# Elastic Compliance Matrix: (Units=1/GPa)
#
#
# Indices 1 2 3 4 5 6 
#
# 1 0.019040 -0.011967 -0.007579 0.000000 -0.003886 0.000000
# 2 -0.011967 0.107155 -0.062398 0.000000 -0.035175 0.000000
# 3 -0.007579 -0.062398 0.057532 0.000000 0.025813 0.000000
# 4 0.000000 0.000000 0.000000 0.028477 0.000000 -0.000187
# 5 -0.003886 -0.035175 0.025813 0.000000 0.054122 0.000000
# 6 0.000000 0.000000 0.000000 -0.000187 0.000000 0.026708
#
#
# Mechanical properties :
#
#
# Convention : Reuss Voigt Hill
#
# Bulk Modulus (GPa) = 50.40649 87.21465 68.81057
# Shear Modulus (GPa) = 10.78665 24.48625 17.63645
#
# Velocity S-wave (km/s) = 2.46441 3.71305 3.15120
# Velocity P-wave (km/s) = 6.03976 8.21510 7.20994
#
# Compressibility (1/GPa) = 0.01983871
#
# Stress axis : x y z
#
# Youngs Moduli (GPa) = 52.52002 9.33229 17.38166
#
# Poissons Ratio (x) = 0.11168 0.13174
# Poissons Ratio (y) = 0.62848 1.08459
# Poissons Ratio (z) = 0.39807 0.58232
#
# Static dielectric constant tensor:
#      x y z
#    x 1.568250 0.000000 -0.007730 
#    y 0.000000 1.572120 0.000000 
#    z -0.007730 0.000000 1.577110 
# 
# From -- ./inp_files/108660.got.cif
#   From: 2010.05.17/outbox.cif.g08.bks.cpg/sg12_55_cif.got.tgz:108660.got - 2010.06.03 13:09:07.
