data_PCOD9201696
_publ_section_title
;
Structure prediction by ZEFSAII (Michael W. Deem and Ramdas Pophale) SiO2 
 PCOD9201696
Probable space group: C 2/M
;
_chemical_formula_sum "Si O2"
_cell_formula_units_Z 48
_cell_length_a 24.778936
_cell_length_b 8.738358
_cell_length_c 20.015460
_cell_angle_alpha 90.000000
_cell_angle_beta 146.606722
_cell_angle_gamma 90.000000
_cell_volume 2385.299456
_symmetry_space_group_name_H-M "C 2/M"
_symmetry_group_IT_number 12
_symmetry_cell_setting 'monoclinic'
loop_
_space_group_symop_operation_xyz
x,y,z
-x,y,-z
-x,-y,-z
x,-y,z
1/2+x,1/2+y,z
1/2-x,1/2+y,-z
1/2-x,1/2-y,-z
1/2+x,1/2-y,z
loop_
_atom_site_type_symbol
_atom_site_label
_atom_site_fract_x
_atom_site_fract_y
_atom_site_fract_z
Si Si1 0.203186 0.182896 0.156707
Si Si2 0.799980 0.181940 0.485516
Si Si3 0.517424 0.182351 0.705427
Si Si4 0.587894 0.316925 0.640358
Si Si5 0.937325 0.815157 0.105323
Si Si6 0.633375 0.682816 0.226092
O O1 0.306166 0.264033 0.275438
O O2 0.130125 0.209541 0.143447
O O3 0.219906 0.000000 0.170854
O O4 0.152377 0.230979 0.035129
O O5 0.750000 0.250000 0.500000
O O6 0.906447 0.255004 0.587128
O O7 0.726864 0.228408 0.350965
O O8 0.809792 0.000000 0.501360
O O9 0.572211 0.245377 0.697082
O O10 0.562020 0.242105 0.821142
O O11 0.517256 0.000000 0.704723
O O12 0.500000 0.267324 0.500000
O O13 0.584037 0.500000 0.641123
O O14 0.037263 0.774039 0.168779
O O15 0.936449 0.000000 0.110746
O O16 0.647964 0.500000 0.251117
#
# Coordination Sequence:
#
# PCOD9201696 Si02
#       6
#     8   8   8   8   8   8
#     4  10  22  40  64  94 125 165 211 253 308 371
#     4  12  23  37  59  90 126 162 203 252 306 364
#     4  12  25  41  64  93 125 164 208 258 311 368
#     4  11  25  45  67  91 121 161 207 259 314 369
#     4  10  21  39  63  92 129 167 206 254 307 369
#     4  10  20  37  63  93 128 167 207 255 308 366
#
# _framework density 20.123259999999998
#
# number of rings (size 3 to 8) (size 9 to 14) (size 15 to 20)
#    0.000    1.167    1.667    5.000    0.000    8.000 
#    0.000    0.000    0.000    3.000    0.000    0.000 
#    0.000    0.000    0.000    0.000    0.000    0.000 
#
# Total GULP energy -134243.590793 kJ/mol
# GULP energy per Si atom -5593.482950 kJ/mol
# Density = 2.007746 g / cm^3
# Si number density = 20.123260 Si / 1000 Ang^3
#
#
#
# Elastic Constant Matrix: (Units=GPa)
#
#
# Indices 1 2 3 4 5 6 
#
# 1 108.6873 36.1233 29.5769 0.0000 -16.4843 0.0000
# 2 36.1233 65.6363 37.8659 0.0000 -13.1530 0.0000
# 3 29.5769 37.8659 113.3360 0.0000 -20.5998 0.0000
# 4 0.0000 0.0000 0.0000 26.0944 0.0000 0.6895
# 5 -16.4843 -13.1530 -20.5998 0.0000 28.4651 0.0000
# 6 0.0000 0.0000 0.0000 0.6895 0.0000 21.5819
#
#
#
# Elastic Compliance Matrix: (Units=1/GPa)
#
#
# Indices 1 2 3 4 5 6 
#
# 1 0.011723 -0.005343 -0.000563 0.000000 0.003913 0.000000
# 2 -0.005343 0.021892 -0.005347 0.000000 0.003152 0.000000
# 3 -0.000563 -0.005347 0.011801 0.000000 0.005743 0.000000
# 4 0.000000 0.000000 0.000000 0.038355 0.000000 -0.001225
# 5 0.003913 0.003152 0.005743 0.000000 0.043009 0.000000
# 6 0.000000 0.000000 0.000000 -0.001225 0.000000 0.046374
#
#
# Mechanical properties :
#
#
# Convention : Reuss Voigt Hill
#
# Bulk Modulus (GPa) = 43.64930 54.97687 49.31308
# Shear Modulus (GPa) = 24.59451 27.50118 26.04785
#
# Velocity S-wave (km/s) = 3.49978 3.70082 3.60170
# Velocity P-wave (km/s) = 6.17004 6.75579 6.46955
#
# Compressibility (1/GPa) = 0.02290987
#
# Stress axis : x y z
#
# Youngs Moduli (GPa) = 85.30130 45.67790 84.74148
#
# Poissons Ratio (x) = 0.24406 0.04772
# Poissons Ratio (y) = 0.45577 0.45312
# Poissons Ratio (z) = 0.04803 0.24424
#
# Static dielectric constant tensor:
#      x y z
#    x 1.795750 0.000000 -0.024870 
#    y 0.000000 1.673180 0.000000 
#    z -0.024870 0.000000 1.716220 
# 
# From -- ./inp_files/327355.got.cif
#   From: 2010.05.17/outbox.cif.g08.bks.cpg/sg12_164_cif.got.tgz:327355.got - 2010.06.03 13:09:07.
