data_PCOD9201461
_publ_section_title
;
Structure prediction by ZEFSAII (Michael W. Deem and Ramdas Pophale) SiO2 
 PCOD9201461
Probable space group: C 2/M
;
_chemical_formula_sum "Si O2"
_cell_formula_units_Z 56
_cell_length_a 18.784679
_cell_length_b 24.915522
_cell_length_c 6.776549
_cell_angle_alpha 90.000000
_cell_angle_beta 46.707796
_cell_angle_gamma 90.000000
_cell_volume 2308.520975
_symmetry_space_group_name_H-M "C 2/M"
_symmetry_group_IT_number 12
_symmetry_cell_setting 'monoclinic'
loop_
_space_group_symop_operation_xyz
x,y,z
-x,y,-z
-x,-y,-z
x,-y,z
1/2+x,1/2+y,z
1/2-x,1/2+y,-z
1/2-x,1/2-y,-z
1/2+x,1/2-y,z
loop_
_atom_site_type_symbol
_atom_site_label
_atom_site_fract_x
_atom_site_fract_y
_atom_site_fract_z
Si Si1 0.082106 0.342254 0.129439
Si Si2 0.808143 0.105888 0.371810
Si Si3 0.412898 0.724280 0.864508
Si Si4 0.870666 0.215831 0.410962
Si Si5 0.864391 0.666793 0.437214
Si Si6 0.223330 0.440897 0.903889
Si Si7 0.102187 0.893174 0.189369
O O1 0.103341 0.336981 0.853729
O O2 0.142903 0.393897 0.078785
O O3 0.115710 0.283979 0.146248
O O4 0.036263 0.344625 0.632261
O O5 0.825776 0.156591 0.488176
O O6 0.720951 0.123845 0.390816
O O7 0.767242 0.061932 0.597430
O O8 0.896906 0.095982 0.050477
O O9 0.469059 0.718400 0.352664
O O10 0.371283 0.670497 0.848739
O O11 0.393506 0.721475 0.135539
O O12 0.821544 0.273105 0.552446
O O13 0.182381 0.500000 0.019642
O O14 0.315880 0.429179 0.866203
O O15 0.000000 0.900951 0.500000
#
# Coordination Sequence:
#
# PCOD9201461 Si02
#       7
#     8   8   8   8   8   8   8
#     4   8  16  34  58  88 126 160 197 247 304 366
#     4  10  20  37  62  89 120 162 204 243 301 367
#     4   8  15  30  55  87 122 158 191 237 305 373
#     4   8  13  26  54  89 123 155 190 235 292 361
#     4   8  14  29  58  93 124 158 196 238 297 368
#     4  11  25  43  63  88 120 161 213 263 303 357
#     4  11  24  41  61  91 125 158 202 261 317 366
#
# _framework density 24.257954999999999
#
# number of rings (size 3 to 8) (size 9 to 14) (size 15 to 20)
#    0.000    2.857    0.000    3.000    0.000    4.286 
#    0.000   10.000    0.000    0.857    0.000    0.000 
#    0.000    0.000    0.000    0.000    0.000    0.000 
#
# Total GULP energy -156355.129243 kJ/mol
# GULP energy per Si atom -5584.111759 kJ/mol
# Density = 2.420274 g / cm^3
# Si number density = 24.257955 Si / 1000 Ang^3
#
#
#
# Elastic Constant Matrix: (Units=GPa)
#
#
# Indices 1 2 3 4 5 6 
#
# 1 99.0100 42.5704 15.4166 0.0000 4.0807 0.0000
# 2 42.5704 126.3324 3.6489 0.0000 -3.8368 0.0000
# 3 15.4166 3.6489 103.5205 0.0000 3.0997 0.0000
# 4 0.0000 0.0000 0.0000 17.7584 0.0000 -3.7621
# 5 4.0807 -3.8368 3.0997 0.0000 33.3436 0.0000
# 6 0.0000 0.0000 0.0000 -3.7621 0.0000 15.2101
#
#
#
# Elastic Compliance Matrix: (Units=1/GPa)
#
#
# Indices 1 2 3 4 5 6 
#
# 1 0.012197 -0.004119 -0.001617 0.000000 -0.001816 0.000000
# 2 -0.004119 0.009344 0.000237 0.000000 0.001557 0.000000
# 3 -0.001617 0.000237 0.009913 0.000000 -0.000696 0.000000
# 4 0.000000 0.000000 0.000000 0.059425 0.000000 0.014698
# 5 -0.001816 0.001557 -0.000696 0.000000 0.030457 0.000000
# 6 0.000000 0.000000 0.000000 0.014698 0.000000 0.069381
#
#
# Mechanical properties :
#
#
# Convention : Reuss Voigt Hill
#
# Bulk Modulus (GPa) = 48.88014 50.23719 49.55867
# Shear Modulus (GPa) = 23.97691 31.07754 27.52722
#
# Velocity S-wave (km/s) = 3.14732 3.58317 3.37229
# Velocity P-wave (km/s) = 5.77939 6.15413 5.96970
#
# Compressibility (1/GPa) = 0.02045821
#
# Stress axis : x y z
#
# Youngs Moduli (GPa) = 81.98408 107.02131 100.87550
#
# Poissons Ratio (x) = 0.44079 0.16311
# Poissons Ratio (y) = 0.33767 -0.02395
# Poissons Ratio (z) = 0.13256 -0.02541
#
# Static dielectric constant tensor:
#      x y z
#    x 1.961610 0.000000 -0.009570 
#    y 0.000000 1.891130 0.000000 
#    z -0.009570 0.000000 2.059840 
# 
# From -- ./inp_files/21656.got.cif
#   From: 2010.05.17/outbox.cif.g08.bks.cpg/sg12_11_cif.got.tgz:21656.got - 2010.06.03 13:09:07.
