data_PCOD9201558
_publ_section_title
;
Structure prediction by ZEFSAII (Michael W. Deem and Ramdas Pophale) SiO2 
 PCOD9201558
Probable space group: C 2/M
;
_chemical_formula_sum "Si O2"
_cell_formula_units_Z 64
_cell_length_a 28.339707
_cell_length_b 12.853483
_cell_length_c 20.070520
_cell_angle_alpha 90.000000
_cell_angle_beta 27.411020
_cell_angle_gamma 90.000000
_cell_volume 3365.753664
_symmetry_space_group_name_H-M "C 2/M"
_symmetry_group_IT_number 12
_symmetry_cell_setting 'monoclinic'
loop_
_space_group_symop_operation_xyz
x,y,z
-x,y,-z
-x,-y,-z
x,-y,z
1/2+x,1/2+y,z
1/2-x,1/2+y,-z
1/2-x,1/2-y,-z
1/2+x,1/2-y,z
loop_
_atom_site_type_symbol
_atom_site_label
_atom_site_fract_x
_atom_site_fract_y
_atom_site_fract_z
Si Si1 0.313848 0.724611 0.584541
Si Si2 0.426702 0.113675 0.346805
Si Si3 0.665620 0.209762 0.658708
Si Si4 0.330325 0.884092 0.945486
Si Si5 0.502419 0.618205 0.416734
Si Si6 0.816288 0.718752 0.822227
Si Si7 0.768925 0.878257 0.199370
Si Si8 0.505878 0.379280 0.912568
O O1 0.378682 0.797795 0.453212
O O2 0.227167 0.672682 0.646711
O O3 0.392649 0.649064 0.523319
O O4 0.260594 0.801593 0.703904
O O5 0.396144 0.128283 0.308194
O O6 0.548329 0.119396 0.199378
O O7 0.391432 0.000000 0.414620
O O8 0.750000 0.250000 0.500000
O O9 0.588365 0.301659 0.777574
O O10 0.306344 0.853442 0.899363
O O11 0.293347 0.000000 0.006657
O O12 0.276323 0.800785 0.059772
O O13 0.500000 0.618636 0.500000
O O14 0.530220 0.500000 0.360557
O O15 0.582993 0.709054 0.297329
O O16 0.803954 0.652341 0.771003
O O17 0.756161 0.000000 0.232992
O O18 0.889833 0.863964 0.031459
O O19 0.535285 0.500000 0.863811
O O20 0.500000 0.364423 0.000000
#
# Coordination Sequence:
#
# PCOD9201558 Si02
#       8
#     8   8   8   8   8   8   8   8
#     4  11  21  39  59  89 118 160 200 253 302 361
#     4  10  21  38  59  85 118 155 200 245 303 363
#     4  10  22  37  61  87 123 162 201 247 303 361
#     4  10  21  37  60  84 115 158 197 243 302 364
#     4  11  23  40  60  84 115 155 198 242 298 363
#     4  11  21  38  60  85 121 152 203 247 302 359
#     4  11  22  36  61  94 124 155 199 253 310 363
#     4  10  20  37  62  92 122 159 202 250 307 364
#
# _framework density 19.015058
#
# number of rings (size 3 to 8) (size 9 to 14) (size 15 to 20)
#    0.000    1.500    3.750    1.875    0.000    2.500 
#    0.000    2.500    0.000    0.375    0.000    0.000 
#    0.000    0.000    0.000    0.000    0.000    0.000 
#
# Total GULP energy -178549.421312 kJ/mol
# GULP energy per Si atom -5579.669416 kJ/mol
# Density = 1.897178 g / cm^3
# Si number density = 19.015058 Si / 1000 Ang^3
#
#
#
# Elastic Constant Matrix: (Units=GPa)
#
#
# Indices 1 2 3 4 5 6 
#
# 1 85.5759 19.8807 4.4881 0.0000 -12.4370 0.0000
# 2 19.8807 51.1886 16.5788 0.0000 -11.7391 0.0000
# 3 4.4881 16.5788 54.6466 0.0000 -5.8230 0.0000
# 4 0.0000 0.0000 0.0000 8.6221 0.0000 -7.5340
# 5 -12.4370 -11.7391 -5.8230 0.0000 25.0692 0.0000
# 6 0.0000 0.0000 0.0000 -7.5340 0.0000 4.6904
#
#
#
# Elastic Compliance Matrix: (Units=1/GPa)
#
#
# Indices 1 2 3 4 5 6 
#
# 1 0.013345 -0.004325 0.000724 0.000000 0.004763 0.000000
# 2 -0.004325 0.025160 -0.006410 0.000000 0.008147 0.000000
# 3 0.000724 -0.006410 0.020408 0.000000 0.002098 0.000000
# 4 0.000000 0.000000 0.000000 -0.287408 0.000000 -0.461652
# 5 0.004763 0.008147 0.002098 0.000000 0.046555 0.000000
# 6 0.000000 0.000000 0.000000 -0.461652 0.000000 -0.528331
#
#
# Mechanical properties :
#
#
# Convention : Reuss Voigt Hill
#
# Bulk Modulus (GPa) = 25.71317 30.36738 28.04027
# Shear Modulus (GPa) = -7.38240 17.70724 5.16242
#
# Velocity S-wave (km/s) = -1.97252 3.05490 1.64949
# Velocity P-wave (km/s) = 2.89208 5.33368 4.29023
#
# Compressibility (1/GPa) = 0.03889058
#
# Stress axis : x y z
#
# Youngs Moduli (GPa) = 74.93699 39.74625 49.00018
#
# Poissons Ratio (x) = 0.17189 -0.03546
# Poissons Ratio (y) = 0.32409 0.31408
# Poissons Ratio (z) = -0.05423 0.25476
#
# Static dielectric constant tensor:
#      x y z
#    x 1.665860 0.000000 -0.024520 
#    y 0.000000 1.644640 0.000000 
#    z -0.024520 0.000000 1.657660 
# 
# From -- ./inp_files/327788.got.cif
#   From: 2010.05.17/outbox.cif.g08.bks.cpg/sg12_164_cif.got.tgz:327788.got - 2010.06.03 13:09:07.
