data_PCOD9201118
_publ_section_title
;
Structure prediction by ZEFSAII (Michael W. Deem and Ramdas Pophale) SiO2 
 PCOD9201118
Probable space group: C 2/M
;
_chemical_formula_sum "Si O2"
_cell_formula_units_Z 64
_cell_length_a 20.554908
_cell_length_b 13.704613
_cell_length_c 27.050437
_cell_angle_alpha 90.000000
_cell_angle_beta 26.717570
_cell_angle_gamma 90.000000
_cell_volume 3425.910994
_symmetry_space_group_name_H-M "C 2/M"
_symmetry_group_IT_number 12
_symmetry_cell_setting 'monoclinic'
loop_
_space_group_symop_operation_xyz
x,y,z
-x,y,-z
-x,-y,-z
x,-y,z
1/2+x,1/2+y,z
1/2-x,1/2+y,-z
1/2-x,1/2-y,-z
1/2+x,1/2-y,z
loop_
_atom_site_type_symbol
_atom_site_label
_atom_site_fract_x
_atom_site_fract_y
_atom_site_fract_z
Si Si1 0.004249 0.611661 0.940519
Si Si2 0.338254 0.612650 0.722541
Si Si3 0.382847 0.387650 0.330685
Si Si4 0.894136 0.749666 0.778013
Si Si5 0.074768 0.287242 0.396346
Si Si6 0.657817 0.270147 0.012727
Si Si7 0.135634 0.113339 0.771540
Si Si8 0.409543 0.885287 0.420829
O O1 0.949008 0.500000 0.980004
O O2 0.915707 0.673326 0.961000
O O3 0.174594 0.609848 0.813327
O O4 0.000000 0.650708 0.000000
O O5 0.384829 0.500000 0.698291
O O6 0.340509 0.676403 0.771409
O O7 0.431516 0.678076 0.621739
O O8 0.422270 0.500000 0.313780
O O9 0.518495 0.318157 0.244000
O O10 0.329530 0.382406 0.310622
O O11 0.257122 0.358800 0.454517
O O12 0.007326 0.675072 0.677153
O O13 0.767323 0.698225 0.894638
O O14 0.241101 0.322741 0.285955
O O15 0.000000 0.291472 0.500000
O O16 0.993566 0.359193 0.414111
O O17 0.524848 0.343840 0.111697
O O18 0.750000 0.250000 0.000000
O O19 0.142978 0.000000 0.781914
O O20 0.414653 0.000000 0.407440
#
# Coordination Sequence:
#
# PCOD9201118 Si02
#       8
#     8   8   8   8   8   8   8   8
#     4  10  20  37  62  86 113 152 203 254 300 362
#     4  10  21  37  60  89 117 152 200 251 305 364
#     4  10  20  37  61  86 114 150 199 250 300 358
#     4  11  22  37  61  86 122 160 201 249 306 372
#     4  11  21  37  63  89 118 153 199 254 304 361
#     4  12  24  39  59  89 127 161 203 258 312 373
#     4  11  23  38  58  86 119 154 200 249 300 357
#     4  10  22  38  59  88 118 157 203 250 301 360
#
# _framework density 18.681162
#
# number of rings (size 3 to 8) (size 9 to 14) (size 15 to 20)
#    0.000    1.375    5.000    1.125    0.000    2.250 
#    0.000    0.000    0.000    3.375    0.000    0.000 
#    0.000    0.000    0.000    0.000    0.000    0.000 
#
# Total GULP energy -178509.176354 kJ/mol
# GULP energy per Si atom -5578.411761 kJ/mol
# Density = 1.863864 g / cm^3
# Si number density = 18.681162 Si / 1000 Ang^3
#
#
#
# Elastic Constant Matrix: (Units=GPa)
#
#
# Indices 1 2 3 4 5 6 
#
# 1 52.8871 19.6048 -6.7207 -0.0032 1.0236 -0.0004
# 2 19.6048 81.3910 32.2666 -0.0064 3.3105 0.0005
# 3 -6.7207 32.2666 86.5416 -0.0178 3.4791 0.0043
# 4 -0.0032 -0.0064 -0.0178 21.8460 0.0012 -1.9530
# 5 1.0236 3.3105 3.4791 0.0012 26.1461 0.0013
# 6 -0.0004 0.0005 0.0043 -1.9530 0.0013 20.9455
#
#
#
# Elastic Compliance Matrix: (Units=1/GPa)
#
#
# Indices 1 2 3 4 5 6 
#
# 1 0.022075 -0.007021 0.004354 0.000005 -0.000555 0.000000
# 2 -0.007021 0.016683 -0.006727 -0.000001 -0.000942 0.000001
# 3 0.004354 -0.006727 0.014452 0.000010 -0.001242 -0.000002
# 4 0.000005 -0.000001 0.000010 0.046160 -0.000004 0.004304
# 5 -0.000555 -0.000942 -0.001242 -0.000004 0.038553 -0.000002
# 6 0.000000 0.000001 -0.000002 0.004304 -0.000002 0.048144
#
#
# Mechanical properties :
#
#
# Convention : Reuss Voigt Hill
#
# Bulk Modulus (GPa) = 29.05189 34.56899 31.81044
# Shear Modulus (GPa) = 23.11307 25.49879 24.30593
#
# Velocity S-wave (km/s) = 3.52126 3.69853 3.61098
# Velocity P-wave (km/s) = 5.66723 6.06496 5.86946
#
# Compressibility (1/GPa) = 0.03442117
#
# Stress axis : x y z
#
# Youngs Moduli (GPa) = 45.30040 59.94177 69.19691
#
# Poissons Ratio (x) = 0.42084 -0.30130
# Poissons Ratio (y) = 0.31805 0.46552
# Poissons Ratio (z) = -0.19725 0.40326
#
# Static dielectric constant tensor:
#      x y z
#    x 1.639870 0.000000 -0.003720 
#    y 0.000000 1.633990 0.000000 
#    z -0.003720 0.000000 1.667040 
# 
# From -- ./inp_files/366012.got.cif
#   From: 2010.05.17/outbox.cif.g08.bks.cpg/sg12_184_cif.got.tgz:366012.got - 2010.06.03 13:09:07.
