data_PCOD9201982
_publ_section_title
;
Structure prediction by ZEFSAII (Michael W. Deem and Ramdas Pophale) SiO2 
 PCOD9201982
Probable space group: C 2/M
;
_chemical_formula_sum "Si O2"
_cell_formula_units_Z 48
_cell_length_a 11.672916
_cell_length_b 28.658299
_cell_length_c 14.837663
_cell_angle_alpha 90.000000
_cell_angle_beta 150.626859
_cell_angle_gamma 90.000000
_cell_volume 2434.614014
_symmetry_space_group_name_H-M "C 2/M"
_symmetry_group_IT_number 12
_symmetry_cell_setting 'monoclinic'
loop_
_space_group_symop_operation_xyz
x,y,z
-x,y,-z
-x,-y,-z
x,-y,z
1/2+x,1/2+y,z
1/2-x,1/2+y,-z
1/2-x,1/2-y,-z
1/2+x,1/2-y,z
loop_
_atom_site_type_symbol
_atom_site_label
_atom_site_fract_x
_atom_site_fract_y
_atom_site_fract_z
Si Si1 0.000000 0.596793 0.500000
Si Si2 0.559077 0.136413 0.835979
Si Si3 0.230556 0.554617 0.832180
Si Si4 0.941367 0.791137 0.134566
Si Si5 0.257285 0.338522 0.537451
Si Si6 0.660939 0.669660 0.692095
Si Si7 0.500000 0.245433 0.000000
O O1 0.890359 0.565964 0.345881
O O2 0.820932 0.629677 0.432575
O O3 0.617254 0.086531 0.832558
O O4 0.452210 0.165354 0.677451
O O5 0.365523 0.140575 0.782270
O O6 0.792603 0.161589 0.029511
O O7 0.214552 0.500000 0.842872
O O8 0.500000 0.567473 0.000000
O O9 0.136488 0.792309 0.344707
O O10 0.057707 0.780847 0.119575
O O11 0.750000 0.750000 0.000000
O O12 0.475195 0.357633 0.626955
O O13 0.500000 0.689529 0.500000
O O14 0.787362 0.708571 0.840096
#
# Coordination Sequence:
#
# PCOD9201982 Si02
#       7
#     4   8   8   8   8   8   4
#     4  10  21  38  60  86 114 146 186 232 289 338
#     4  10  22  38  58  81 112 151 188 234 282 334
#     4  10  21  38  62  88 114 144 184 233 288 343
#     4  12  23  36  54  81 117 151 194 232 275 334
#     4  10  22  37  55  81 111 152 189 228 279 333
#     4  10  20  38  55  76 111 153 191 229 278 329
#     4  12  24  34  52  80 114 152 194 236 274 326
#
# _framework density 19.715651000000001
#
# number of rings (size 3 to 8) (size 9 to 14) (size 15 to 20)
#    0.000    1.500    3.333    1.250    5.833    2.000 
#    0.000    0.000    0.000   13.500    0.000    6.417 
#    0.000    0.000    0.000    0.000    0.000    0.000 
#
# Total GULP energy -133670.849327 kJ/mol
# GULP energy per Si atom -5569.618722 kJ/mol
# Density = 1.967078 g / cm^3
# Si number density = 19.715651 Si / 1000 Ang^3
#
#
#
# Elastic Constant Matrix: (Units=GPa)
#
#
# Indices 1 2 3 4 5 6 
#
# 1 106.7898 28.0366 17.1438 0.0000 3.5464 0.0000
# 2 28.0366 32.0048 24.8142 0.0000 -4.3236 0.0000
# 3 17.1438 24.8142 92.4447 0.0001 -2.6942 -0.0001
# 4 0.0000 0.0000 0.0001 11.5267 0.0000 6.6942
# 5 3.5464 -4.3236 -2.6942 0.0000 26.2558 0.0000
# 6 0.0000 0.0000 -0.0001 6.6942 0.0000 9.0819
#
#
#
# Elastic Compliance Matrix: (Units=1/GPa)
#
#
# Indices 1 2 3 4 5 6 
#
# 1 0.012528 -0.012096 0.000818 0.000000 -0.003600 0.000000
# 2 -0.012096 0.051921 -0.011431 0.000000 0.009011 0.000000
# 3 0.000818 -0.011431 0.013717 0.000000 -0.000585 0.000000
# 4 0.000000 0.000000 0.000000 0.151688 0.000000 -0.111808
# 5 -0.003600 0.009011 -0.000585 0.000000 0.039997 0.000001
# 6 0.000000 0.000000 0.000000 -0.111808 0.000001 0.192522
#
#
# Mechanical properties :
#
#
# Convention : Reuss Voigt Hill
#
# Bulk Modulus (GPa) = 30.53463 41.24761 35.89112
# Shear Modulus (GPa) = 9.63938 20.12253 14.88095
#
# Velocity S-wave (km/s) = 2.21355 3.19821 2.75030
# Velocity P-wave (km/s) = 4.69619 5.88258 5.32254
#
# Compressibility (1/GPa) = 0.03274970
#
# Stress axis : x y z
#
# Youngs Moduli (GPa) = 79.82183 19.25994 72.90336
#
# Poissons Ratio (x) = 0.23296 -0.05967
# Poissons Ratio (y) = 0.96549 0.83336
# Poissons Ratio (z) = -0.06533 0.22016
#
# Static dielectric constant tensor:
#      x y z
#    x 1.677810 0.000000 0.022440 
#    y 0.000000 1.656300 0.000000 
#    z 0.022440 0.000000 1.714410 
# 
# From -- ./inp_files/209476.got.cif
#   From: 2010.05.17/outbox.cif.g08.bks.cpg/sg12_105_cif.got.tgz:209476.got - 2010.06.03 13:09:07.
