data_PCOD9201581
_publ_section_title
;
Structure prediction by ZEFSAII (Michael W. Deem and Ramdas Pophale) SiO2 
 PCOD9201581
Probable space group: C 2/M
;
_chemical_formula_sum "Si O2"
_cell_formula_units_Z 40
_cell_length_a 15.017759
_cell_length_b 16.356616
_cell_length_c 15.172448
_cell_angle_alpha 90.000000
_cell_angle_beta 30.578286
_cell_angle_gamma 90.000000
_cell_volume 1895.958988
_symmetry_space_group_name_H-M "C 2/M"
_symmetry_group_IT_number 12
_symmetry_cell_setting 'monoclinic'
loop_
_space_group_symop_operation_xyz
x,y,z
-x,y,-z
-x,-y,-z
x,-y,z
1/2+x,1/2+y,z
1/2-x,1/2+y,-z
1/2-x,1/2-y,-z
1/2+x,1/2-y,z
loop_
_atom_site_type_symbol
_atom_site_label
_atom_site_fract_x
_atom_site_fract_y
_atom_site_fract_z
Si Si1 0.975685 0.598973 0.122200
Si Si2 0.606607 0.407191 0.691552
Si Si3 0.407122 0.363529 0.492202
Si Si4 0.769492 0.401056 0.938805
Si Si5 0.028952 0.674020 0.575634
O O1 0.955438 0.500000 0.142102
O O2 0.799178 0.636770 0.311732
O O3 0.136970 0.620336 0.048258
O O4 0.000000 0.623209 0.000000
O O5 0.643385 0.500000 0.689545
O O6 0.563400 0.408973 0.624393
O O7 0.778688 0.353978 0.558211
O O8 0.432904 0.375239 0.887800
O O9 0.500000 0.398864 0.500000
O O10 0.477099 0.271961 0.418871
O O11 0.772451 0.500000 0.929309
O O12 0.884688 0.363113 0.763309
O O13 0.000000 0.646038 0.500000
#
# Coordination Sequence:
#
# PCOD9201581 Si02
#       5
#     8   8   8   8   8
#     4  10  20  37  62  94 130 164 202 255 313 373
#     4  11  23  41  67  94 121 163 213 260 312 370
#     4  11  23  40  61  95 130 166 205 253 317 378
#     4  10  22  40  64  93 122 162 211 259 312 365
#     4  11  25  44  61  90 130 168 211 257 310 364
#
# _framework density 21.097501999999999
#
# number of rings (size 3 to 8) (size 9 to 14) (size 15 to 20)
#    0.000    1.400    2.000    3.000    0.000    6.400 
#    7.200    2.000    0.000    0.000    0.000    0.000 
#    0.000    0.000    0.000    0.000    0.000    0.000 
#
# Total GULP energy -111864.607190 kJ/mol
# GULP energy per Si atom -5593.230360 kJ/mol
# Density = 2.104948 g / cm^3
# Si number density = 21.097502 Si / 1000 Ang^3
#
#
#
# Elastic Constant Matrix: (Units=GPa)
#
#
# Indices 1 2 3 4 5 6 
#
# 1 91.4503 17.6817 29.7413 0.0011 15.7150 -0.0010
# 2 17.6817 27.5039 20.0825 0.0011 5.3896 -0.0012
# 3 29.7413 20.0825 152.7601 -0.0004 11.3202 -0.0003
# 4 0.0011 0.0011 -0.0004 -12.9625 -0.0009 31.4022
# 5 15.7150 5.3896 11.3202 -0.0009 31.8159 0.0009
# 6 -0.0010 -0.0012 -0.0003 31.4022 0.0009 7.1185
#
#
#
# Elastic Compliance Matrix: (Units=1/GPa)
#
#
# Indices 1 2 3 4 5 6 
#
# 1 0.013552 -0.006712 -0.001381 0.000000 -0.005066 0.000000
# 2 -0.006712 0.044354 -0.004327 0.000002 -0.002659 -0.000001
# 3 -0.001381 -0.004327 0.007476 0.000000 -0.001245 0.000000
# 4 0.000000 0.000002 0.000000 -0.006601 -0.000001 0.029120
# 5 -0.005066 -0.002659 -0.001245 -0.000001 0.034826 0.000001
# 6 0.000000 -0.000001 0.000000 0.029120 0.000001 0.012020
#
#
# Mechanical properties :
#
#
# Convention : Reuss Voigt Hill
#
# Bulk Modulus (GPa) = 24.66519 45.19171 34.92845
# Shear Modulus (GPa) = 34.72679 18.80829 26.76754
#
# Velocity S-wave (km/s) = 4.06151 2.98903 3.56582
# Velocity P-wave (km/s) = 5.80611 5.77748 5.79181
#
# Compressibility (1/GPa) = 0.04054297
#
# Stress axis : x y z
#
# Youngs Moduli (GPa) = 73.78921 22.54600 133.75823
#
# Poissons Ratio (x) = 0.15132 0.18469
# Poissons Ratio (y) = 0.49524 0.57880
# Poissons Ratio (z) = 0.10189 0.09756
#
# Static dielectric constant tensor:
#      x y z
#    x 1.767260 0.000000 -0.005910 
#    y 0.000000 1.734530 0.000000 
#    z -0.005910 0.000000 1.726520 
# 
# From -- ./inp_files/216615.got.cif
#   From: 2010.05.17/outbox.cif.g08.bks.cpg/sg12_109_cif.got.tgz:216615.got - 2010.06.03 13:09:07.
