data_PCOD9201544
_publ_section_title
;
Structure prediction by ZEFSAII (Michael W. Deem and Ramdas Pophale) SiO2 
 PCOD9201544
Probable space group: C 2/M
;
_chemical_formula_sum "Si O2"
_cell_formula_units_Z 56
_cell_length_a 20.579077
_cell_length_b 8.681427
_cell_length_c 16.169150
_cell_angle_alpha 90.000000
_cell_angle_beta 82.167963
_cell_angle_gamma 90.000000
_cell_volume 2861.765216
_symmetry_space_group_name_H-M "C 2/M"
_symmetry_group_IT_number 12
_symmetry_cell_setting 'monoclinic'
loop_
_space_group_symop_operation_xyz
x,y,z
-x,y,-z
-x,-y,-z
x,-y,z
1/2+x,1/2+y,z
1/2-x,1/2+y,-z
1/2-x,1/2-y,-z
1/2+x,1/2-y,z
loop_
_atom_site_type_symbol
_atom_site_label
_atom_site_fract_x
_atom_site_fract_y
_atom_site_fract_z
Si Si1 0.082388 0.686156 0.692272
Si Si2 0.574862 0.315709 0.510606
Si Si3 0.717684 0.184249 0.754758
Si Si4 0.928262 0.313828 0.976500
Si Si5 0.441066 0.187158 0.785117
Si Si6 0.294779 0.683004 0.065112
Si Si7 0.343621 0.815076 0.654690
O O1 0.080700 0.500000 0.685748
O O2 0.088076 0.755910 0.600238
O O3 0.145263 0.728004 0.735893
O O4 0.014051 0.736228 0.745823
O O5 0.500000 0.273374 0.500000
O O6 0.580685 0.500000 0.506523
O O7 0.622922 0.241839 0.435040
O O8 0.729555 0.256378 0.842393
O O9 0.772340 0.245094 0.682461
O O10 0.720965 0.000000 0.759870
O O11 0.921304 0.500000 0.981822
O O12 0.924396 0.264345 0.881125
O O13 0.868983 0.239964 0.037183
O O14 0.000000 0.276015 0.000000
O O15 0.389628 0.235575 0.723953
O O16 0.441017 0.000000 0.786088
O O17 0.291400 0.500000 0.064055
O O18 0.250000 0.750000 0.000000
O O19 0.340386 0.000000 0.655521
#
# Coordination Sequence:
#
# PCOD9201544 Si02
#       7
#     8   8   8   8   8   8   8
#     4  10  21  40  65  90 120 162 205 250 307 371
#     4  11  23  39  61  92 126 159 201 256 311 360
#     4  11  24  42  64  92 126 161 202 256 314 372
#     4  10  20  37  62  91 125 162 203 257 316 375
#     4   9  18  34  59  88 114 152 204 249 297 359
#     4  12  25  42  64  90 125 169 214 260 311 371
#     4  11  22  38  63  89 121 162 206 253 301 370
#
# _framework density 19.568342000000001
#
# number of rings (size 3 to 8) (size 9 to 14) (size 15 to 20)
#    0.000    1.429    1.429    4.286    0.000    6.000 
#    0.000    1.429    0.000    0.000    0.000    0.000 
#    0.000    0.000    0.000    0.000    0.000    0.000 
#
# Total GULP energy -156601.316906 kJ/mol
# GULP energy per Si atom -5592.904175 kJ/mol
# Density = 1.952380 g / cm^3
# Si number density = 19.568342 Si / 1000 Ang^3
#
#
#
# Elastic Constant Matrix: (Units=GPa)
#
#
# Indices 1 2 3 4 5 6 
#
# 1 68.7481 23.2334 -10.2982 0.0000 -10.5901 0.0000
# 2 23.2334 44.2700 14.9275 0.0000 -0.4073 0.0000
# 3 -10.2982 14.9275 72.6524 0.0000 -10.5046 0.0000
# 4 0.0000 0.0000 0.0000 27.1987 0.0000 -4.0699
# 5 -10.5901 -0.4073 -10.5046 0.0000 37.9739 0.0000
# 6 0.0000 0.0000 0.0000 -4.0699 0.0000 22.9345
#
#
#
# Elastic Compliance Matrix: (Units=1/GPa)
#
#
# Indices 1 2 3 4 5 6 
#
# 1 0.021306 -0.013436 0.006895 0.000000 0.007705 0.000000
# 2 -0.013436 0.032792 -0.009514 0.000000 -0.006027 0.000000
# 3 0.006895 -0.009514 0.017666 0.000000 0.006708 0.000000
# 4 0.000000 0.000000 0.000000 0.037769 0.000000 0.006703
# 5 0.007705 -0.006027 0.006708 0.000000 0.030274 0.000000
# 6 0.000000 0.000000 0.000000 0.006703 0.000000 0.044792
#
#
# Mechanical properties :
#
#
# Convention : Reuss Voigt Hill
#
# Bulk Modulus (GPa) = 25.21727 26.82177 26.01952
# Shear Modulus (GPa) = 21.74606 28.14193 24.94399
#
# Velocity S-wave (km/s) = 3.33721 3.79639 3.57418
# Velocity P-wave (km/s) = 5.26916 5.74049 5.50987
#
# Compressibility (1/GPa) = 0.03965537
#
# Stress axis : x y z
#
# Youngs Moduli (GPa) = 46.93492 30.49496 56.60591
#
# Poissons Ratio (x) = 0.40972 -0.39028
# Poissons Ratio (y) = 0.63060 0.53852
# Poissons Ratio (z) = -0.32360 0.29011
#
# Static dielectric constant tensor:
#      x y z
#    x 1.680460 0.000000 0.003460 
#    y 0.000000 1.655890 0.000000 
#    z 0.003460 0.000000 1.651670 
# 
# From -- ./inp_files/230981.got.cif
#   From: 2010.05.17/outbox.cif.g08.bks.cpg/sg12_116_cif.got.tgz:230981.got - 2010.06.03 13:09:07.
