data_PCOD9201727
_publ_section_title
;
Structure prediction by ZEFSAII (Michael W. Deem and Ramdas Pophale) SiO2 
 PCOD9201727
Probable space group: C 2/M
;
_chemical_formula_sum "Si O2"
_cell_formula_units_Z 40
_cell_length_a 20.311400
_cell_length_b 11.178425
_cell_length_c 12.038715
_cell_angle_alpha 90.000000
_cell_angle_beta 142.438361
_cell_angle_gamma 90.000000
_cell_volume 1666.310561
_symmetry_space_group_name_H-M "C 2/M"
_symmetry_group_IT_number 12
_symmetry_cell_setting 'monoclinic'
loop_
_space_group_symop_operation_xyz
x,y,z
-x,y,-z
-x,-y,-z
x,-y,z
1/2+x,1/2+y,z
1/2-x,1/2+y,-z
1/2-x,1/2-y,-z
1/2+x,1/2-y,z
loop_
_atom_site_type_symbol
_atom_site_label
_atom_site_fract_x
_atom_site_fract_y
_atom_site_fract_z
Si Si1 0.103041 0.127933 0.561050
Si Si2 0.620754 0.369733 0.039594
Si Si3 0.265759 0.872389 0.455511
Si Si4 0.001882 0.710170 0.258968
Si Si5 0.665867 0.864947 0.776290
O O1 0.151954 0.249180 0.678620
O O2 0.000000 0.112912 0.500000
O O3 0.052794 0.167357 0.377269
O O4 0.162975 0.000000 0.640473
O O5 0.565798 0.500000 0.968129
O O6 0.693616 0.365133 0.247551
O O7 0.703931 0.369856 0.044740
O O8 0.547757 0.254272 0.923214
O O9 0.250000 0.750000 0.500000
O O10 0.394431 0.873276 0.606100
O O11 0.237989 0.000000 0.472933
O O12 0.909421 0.659010 0.217668
O O13 0.636471 0.000000 0.695235
#
# Coordination Sequence:
#
# PCOD9201727 Si02
#       5
#     8   8   8   8   8
#     4   9  18  31  53  87 126 166 205 250 307 371
#     4  10  22  41  66  99 134 172 214 263 328 402
#     4  11  26  48  70  94 127 171 226 278 331 386
#     4  11  21  38  67  98 131 170 216 268 325 384
#     4  10  20  37  63  96 136 175 211 256 319 394
#
# _framework density 24.005129
#
# number of rings (size 3 to 8) (size 9 to 14) (size 15 to 20)
#    0.000    1.800    2.000    1.800    0.000    6.800 
#    0.000    7.000    0.000    0.000    0.000    0.000 
#    0.000    0.000    0.000    0.000    0.000    0.000 
#
# Total GULP energy -111405.973114 kJ/mol
# GULP energy per Si atom -5570.298656 kJ/mol
# Density = 2.395049 g / cm^3
# Si number density = 24.005129 Si / 1000 Ang^3
#
#
#
# Elastic Constant Matrix: (Units=GPa)
#
#
# Indices 1 2 3 4 5 6 
#
# 1 62.4075 25.2891 7.7344 0.0000 -3.7943 0.0000
# 2 25.2891 224.9493 55.5725 0.0000 -11.5818 0.0000
# 3 7.7344 55.5725 81.4031 0.0000 -0.9844 0.0000
# 4 0.0000 0.0000 0.0000 42.7062 0.0000 -11.3100
# 5 -3.7943 -11.5818 -0.9844 0.0000 13.3669 0.0000
# 6 0.0000 0.0000 0.0000 -11.3100 0.0000 26.2196
#
#
#
# Elastic Compliance Matrix: (Units=1/GPa)
#
#
# Indices 1 2 3 4 5 6 
#
# 1 0.016941 -0.001616 -0.000466 0.000000 0.003375 0.000000
# 2 -0.001616 0.005769 -0.003733 0.000000 0.004265 0.000000
# 3 -0.000466 -0.003733 0.014850 0.000000 -0.002273 0.000000
# 4 0.000000 0.000000 0.000000 0.026436 0.000000 0.011403
# 5 0.003375 0.004265 -0.002273 0.000000 0.079298 0.000000
# 6 0.000000 0.000000 0.000000 0.011403 0.000000 0.043058
#
#
# Mechanical properties :
#
#
# Convention : Reuss Voigt Hill
#
# Bulk Modulus (GPa) = 38.56446 60.66134 49.61290
# Shear Modulus (GPa) = 24.19839 35.13613 29.66726
#
# Velocity S-wave (km/s) = 3.17843 3.82997 3.51931
# Velocity P-wave (km/s) = 5.43781 6.69950 6.10136
#
# Compressibility (1/GPa) = 0.02593061
#
# Stress axis : x y z
#
# Youngs Moduli (GPa) = 59.02711 173.34126 67.34020
#
# Poissons Ratio (x) = 0.28008 0.03137
# Poissons Ratio (y) = 0.09537 0.25140
# Poissons Ratio (z) = 0.02750 0.64713
#
# Static dielectric constant tensor:
#      x y z
#    x 2.004110 0.000000 0.030120 
#    y 0.000000 2.061800 0.000000 
#    z 0.030120 0.000000 1.963610 
# 
# From -- ./inp_files/174916.got.cif
#   From: 2010.05.17/outbox.cif.g08.bks.cpg/sg12_88_cif.got.tgz:174916.got - 2010.06.03 13:09:07.
