data_PCOD9201992
_publ_section_title
;
Structure prediction by ZEFSAII (Michael W. Deem and Ramdas Pophale) SiO2 
 PCOD9201992
Probable space group: C 2/M
;
_chemical_formula_sum "Si O2"
_cell_formula_units_Z 42
_cell_length_a 9.836484
_cell_length_b 14.255734
_cell_length_c 18.219193
_cell_angle_alpha 90.000000
_cell_angle_beta 70.412027
_cell_angle_gamma 90.000000
_cell_volume 2406.957656
_symmetry_space_group_name_H-M "C 2/M"
_symmetry_group_IT_number 12
_symmetry_cell_setting 'monoclinic'
loop_
_space_group_symop_operation_xyz
x,y,z
-x,y,-z
-x,-y,-z
x,-y,z
1/2+x,1/2+y,z
1/2-x,1/2+y,-z
1/2-x,1/2-y,-z
1/2+x,1/2-y,z
loop_
_atom_site_type_symbol
_atom_site_label
_atom_site_fract_x
_atom_site_fract_y
_atom_site_fract_z
Si Si1 0.000000 0.000000 0.500000
Si Si2 0.024811 0.000000 0.724558
Si Si3 0.431825 0.000000 0.866529
Si Si4 0.591950 0.653590 0.594641
Si Si5 0.353984 0.000000 0.710507
Si Si6 0.583542 0.838677 0.414118
Si Si7 0.247568 0.500000 0.875895
Si Si8 0.658442 0.156975 0.003951
O O1 0.092580 0.917377 0.526100
O O2 0.022189 0.090822 0.672179
O O3 0.179795 0.000000 0.736189
O O4 0.891284 0.000000 0.802903
O O5 0.401260 0.000000 0.786078
O O6 0.602828 0.000000 0.852725
O O7 0.366846 0.908501 0.919800
O O8 0.498274 0.744375 0.593980
O O9 0.752825 0.680319 0.589815
O O10 0.409448 0.910418 0.654706
O O11 0.500000 0.878876 0.500000
O O12 0.235815 0.590272 0.930526
O O13 0.500000 0.179163 0.000000
O O14 0.750000 0.250000 0.000000
#
# Coordination Sequence:
#
# PCOD9201992 Si02
#       8
#     2   4   4   8   4   8   4   8
#     4  10  20  38  56  76 106 142 176 232 288 324
#     4   9  21  39  54  81 115 150 181 231 284 334
#     4   9  20  39  55  84 115 147 186 228 270 334
#     4  10  22  38  59  80 112 144 189 236 288 329
#     4  10  23  38  56  80 118 147 184 236 279 329
#     4  11  22  40  57  83 110 149 191 238 283 338
#     4   9  19  38  58  80 115 149 183 222 274 336
#     4   9  19  36  60  84 113 146 184 226 272 327
#
# _framework density 17.449414000000001
#
# number of rings (size 3 to 8) (size 9 to 14) (size 15 to 20)
#    0.000    2.286    0.952    2.571    0.000    4.571 
#    3.429    9.524    0.000    0.000    0.000    0.000 
#    0.000    0.000    0.000    0.000    0.000    0.000 
#
# Total GULP energy -116901.354174 kJ/mol
# GULP energy per Si atom -5566.731151 kJ/mol
# Density = 1.740970 g / cm^3
# Si number density = 17.449414 Si / 1000 Ang^3
#
#
#
# Elastic Constant Matrix: (Units=GPa)
#
#
# Indices 1 2 3 4 5 6 
#
# 1 87.5325 82.9796 70.1294 0.0000 6.7490 0.0000
# 2 82.9796 140.8944 47.6035 0.0000 5.6410 0.0000
# 3 70.1294 47.6035 122.1422 0.0000 -0.8056 0.0000
# 4 0.0000 0.0000 0.0000 4.6501 0.0000 -0.1484
# 5 6.7490 5.6410 -0.8056 0.0000 40.0889 0.0000
# 6 0.0000 0.0000 0.0000 -0.1484 0.0000 25.8374
#
#
#
# Elastic Compliance Matrix: (Units=1/GPa)
#
#
# Indices 1 2 3 4 5 6 
#
# 1 0.046629 -0.020953 -0.018641 0.000000 -0.005276 0.000000
# 2 -0.020953 0.017648 0.005160 0.000000 0.001148 0.000000
# 3 -0.018641 0.005160 0.016898 0.000000 0.002752 0.000000
# 4 0.000000 0.000000 0.000000 0.215091 0.000000 0.001235
# 5 -0.005276 0.001148 0.002752 0.000000 0.025727 0.000000
# 6 0.000000 0.000000 0.000000 0.001235 0.000000 0.038711
#
#
# Mechanical properties :
#
#
# Convention : Reuss Voigt Hill
#
# Bulk Modulus (GPa) = 81.26052 83.55490 82.40771
# Shear Modulus (GPa) = 11.52939 24.10570 17.81754
#
# Velocity S-wave (km/s) = 2.57326 3.72083 3.19893
# Velocity P-wave (km/s) = 7.44978 8.15153 7.80854
#
# Compressibility (1/GPa) = 0.01230610
#
# Stress axis : x y z
#
# Youngs Moduli (GPa) = 21.44584 56.66251 59.17981
#
# Poissons Ratio (x) = 1.18723 1.10319
# Poissons Ratio (y) = 0.44935 -0.30534
# Poissons Ratio (z) = 0.39978 -0.29235
#
# Static dielectric constant tensor:
#      x y z
#    x 1.573800 0.000000 0.009140 
#    y 0.000000 1.578000 0.000000 
#    z 0.009140 0.000000 1.590630 
# 
# From -- ./inp_files/251284.got.cif
#   From: 2010.05.17/outbox.cif.g08.bks.cpg/sg12_126_cif.got.tgz:251284.got - 2010.06.03 13:09:07.
