data_PCOD9201783
_publ_section_title
;
Structure prediction by ZEFSAII (Michael W. Deem and Ramdas Pophale) SiO2 
 PCOD9201783
Probable space group: C 2/M
;
_chemical_formula_sum "Si O2"
_cell_formula_units_Z 46
_cell_length_a 16.068062
_cell_length_b 20.597779
_cell_length_c 8.632268
_cell_angle_alpha 90.000000
_cell_angle_beta 128.662703
_cell_angle_gamma 90.000000
_cell_volume 2230.844658
_symmetry_space_group_name_H-M "C 2/M"
_symmetry_group_IT_number 12
_symmetry_cell_setting 'monoclinic'
loop_
_space_group_symop_operation_xyz
x,y,z
-x,y,-z
-x,-y,-z
x,-y,z
1/2+x,1/2+y,z
1/2-x,1/2+y,-z
1/2-x,1/2-y,-z
1/2+x,1/2-y,z
loop_
_atom_site_type_symbol
_atom_site_label
_atom_site_fract_x
_atom_site_fract_y
_atom_site_fract_z
Si Si1 0.407859 0.000000 0.028232
Si Si2 0.745605 0.000000 0.691518
Si Si3 0.721057 0.640124 0.416266
Si Si4 0.000000 0.500000 0.500000
Si Si5 0.115731 0.224460 0.043028
Si Si6 0.498421 0.636506 0.316908
Si Si7 0.126634 0.635977 0.124494
Si Si8 0.443730 0.500000 0.104190
O O1 0.457267 0.000000 0.258657
O O2 0.500000 0.000000 0.000000
O O3 0.343873 0.067031 0.918475
O O4 0.775517 0.065706 0.636130
O O5 0.621785 0.000000 0.584125
O O6 0.817961 0.000000 0.927967
O O7 0.703674 0.687187 0.249210
O O8 0.615934 0.653376 0.393542
O O9 0.820309 0.647848 0.646175
O O10 0.148369 0.298660 0.053747
O O11 0.000000 0.223817 0.000000
O O12 0.088262 0.183973 0.859268
O O13 0.500000 0.639459 0.500000
O O14 0.475814 0.564525 0.229326
O O15 0.000000 0.633661 0.000000
O O16 0.500000 0.500000 0.000000
#
# Coordination Sequence:
#
# PCOD9201783 Si02
#       8
#     4   4   8   2   8   8   8   4
#     4  10  22  45  66  88 132 167 234 279 324 393
#     4  12  22  38  69  94 131 167 219 271 327 396
#     4  11  20  38  67  90 127 175 214 273 336 393
#     4  12  28  44  66 104 128 180 226 276 342 392
#     4   9  19  37  61  92 127 166 218 268 333 406
#     4  11  22  37  59  97 134 164 217 273 335 398
#     4  10  20  37  64  93 122 170 224 275 327 397
#     4  12  19  39  63  92 123 169 215 271 318 385
#
# _framework density 20.619992
#
# number of rings (size 3 to 8) (size 9 to 14) (size 15 to 20)
#    0.000    1.391    3.478    3.913    0.000    1.391 
#    1.565    0.870    0.000    0.000    0.000    0.000 
#    0.000    0.000    0.000    0.000    0.000    0.000 
#
# Total GULP energy -128130.715094 kJ/mol
# GULP energy per Si atom -5570.900656 kJ/mol
# Density = 2.057306 g / cm^3
# Si number density = 20.619992 Si / 1000 Ang^3
#
#
#
# Elastic Constant Matrix: (Units=GPa)
#
#
# Indices 1 2 3 4 5 6 
#
# 1 44.8145 12.5136 35.3392 0.0000 -6.0011 0.0000
# 2 12.5136 181.2003 72.7994 0.0000 -19.3366 0.0000
# 3 35.3392 72.7994 189.0579 0.0000 -2.3111 0.0000
# 4 0.0000 0.0000 0.0000 -208.7691 0.0000 74.2831
# 5 -6.0011 -19.3366 -2.3111 0.0000 44.9749 0.0000
# 6 0.0000 0.0000 0.0000 74.2831 0.0000 -24.4813
#
#
#
# Elastic Compliance Matrix: (Units=1/GPa)
#
#
# Indices 1 2 3 4 5 6 
#
# 1 0.026709 0.000620 -0.005188 0.000000 0.003564 0.000000
# 2 0.000620 0.006883 -0.002731 0.000000 0.002902 0.000000
# 3 -0.005188 -0.002731 0.007292 0.000000 -0.001492 0.000000
# 4 0.000000 0.000000 0.000000 0.060146 0.000000 0.182499
# 5 0.003564 0.002902 -0.001492 0.000000 0.023881 0.000000
# 6 0.000000 0.000000 0.000000 0.182499 0.000000 0.512906
#
#
# Mechanical properties :
#
#
# Convention : Reuss Voigt Hill
#
# Bulk Modulus (GPa) = 38.04099 72.93078 55.48589
# Shear Modulus (GPa) = 7.56228 -18.02705 -5.23239
#
# Velocity S-wave (km/s) = 1.91714 -2.95998 -1.59469
# Velocity P-wave (km/s) = 4.83624 4.87481 4.85556
#
# Compressibility (1/GPa) = 0.02628743
#
# Stress axis : x y z
#
# Youngs Moduli (GPa) = 37.44024 145.29262 137.12999
#
# Poissons Ratio (x) = -0.09009 0.71140
# Poissons Ratio (y) = -0.02321 0.37446
# Poissons Ratio (z) = 0.19423 0.39675
#
# Static dielectric constant tensor:
#      x y z
#    x 1.724510 0.000000 0.011700 
#    y 0.000000 1.757630 0.000000 
#    z 0.011700 0.000000 1.743470 
# 
# From -- ./inp_files/77335.got.cif
#   From: 2010.05.17/outbox.cif.g08.bks.cpg/sg12_39_cif.got.tgz:77335.got - 2010.06.03 13:09:07.
