data_PCOD9201984
_publ_section_title
;
Structure prediction by ZEFSAII (Michael W. Deem and Ramdas Pophale) SiO2 
 PCOD9201984
Probable space group: C 2/M
;
_chemical_formula_sum "Si O2"
_cell_formula_units_Z 42
_cell_length_a 11.679544
_cell_length_b 14.431062
_cell_length_c 11.796766
_cell_angle_alpha 90.000000
_cell_angle_beta 75.052472
_cell_angle_gamma 90.000000
_cell_volume 1921.043942
_symmetry_space_group_name_H-M "C 2/M"
_symmetry_group_IT_number 12
_symmetry_cell_setting 'monoclinic'
loop_
_space_group_symop_operation_xyz
x,y,z
-x,y,-z
-x,-y,-z
x,-y,z
1/2+x,1/2+y,z
1/2-x,1/2+y,-z
1/2-x,1/2-y,-z
1/2+x,1/2-y,z
loop_
_atom_site_type_symbol
_atom_site_label
_atom_site_fract_x
_atom_site_fract_y
_atom_site_fract_z
Si Si1 0.072374 0.821338 0.577058
Si Si2 0.459847 0.106063 0.881738
Si Si3 0.500000 0.500000 0.500000
Si Si4 0.367314 0.389219 0.796940
Si Si5 0.676631 0.393166 0.932124
Si Si6 0.153571 0.733601 0.756504
O O1 0.096833 0.917109 0.505330
O O2 0.980832 0.856995 0.697841
O O3 0.000000 0.764022 0.500000
O O4 0.172005 0.771828 0.625196
O O5 0.319044 0.113142 0.909306
O O6 0.531817 0.175803 0.786079
O O7 0.493517 0.000000 0.848351
O O8 0.500000 0.125766 0.000000
O O9 0.353784 0.500000 0.784411
O O10 0.255467 0.333724 0.776905
O O11 0.375352 0.373082 0.930008
O O12 0.646318 0.500000 0.908896
O O13 0.644497 0.317997 0.847312
#
# Coordination Sequence:
#
# PCOD9201984 Si02
#       6
#     8   8   2   8   8   8
#     4  10  23  41  60  78 112 150 193 242 294 332
#     4  10  20  38  55  82 126 161 178 218 288 347
#     4   8  20  48  56  74 114 152 194 236 310 340
#     4  11  21  38  58  85 116 150 189 231 285 349
#     4  10  23  35  54  89 123 150 186 228 284 346
#     4  12  23  34  64  87 115 149 198 236 275 341
#
# _framework density 21.863112000000001
#
# number of rings (size 3 to 8) (size 9 to 14) (size 15 to 20)
#    0.571    0.952    2.857    2.286    4.000    0.762 
#    0.000    1.905    0.000    2.286    0.000    0.000 
#    0.000    0.000    0.000    0.000    0.000    0.000 
#
# Total GULP energy -117098.246627 kJ/mol
# GULP energy per Si atom -5576.106982 kJ/mol
# Density = 2.181335 g / cm^3
# Si number density = 21.863112 Si / 1000 Ang^3
#
#
#
# Elastic Constant Matrix: (Units=GPa)
#
#
# Indices 1 2 3 4 5 6 
#
# 1 44.5464 23.7824 17.2159 0.0000 8.3723 0.0000
# 2 23.7824 74.6087 44.1790 0.0000 19.3465 0.0000
# 3 17.2159 44.1790 96.9143 0.0000 20.5676 0.0000
# 4 0.0000 0.0000 0.0000 -41.7294 0.0000 -29.4767
# 5 8.3723 19.3465 20.5676 0.0000 36.3993 0.0000
# 6 0.0000 0.0000 0.0000 -29.4767 0.0000 -4.8509
#
#
#
# Elastic Compliance Matrix: (Units=1/GPa)
#
#
# Indices 1 2 3 4 5 6 
#
# 1 0.027234 -0.007670 -0.000997 0.000000 -0.001624 0.000000
# 2 -0.007670 0.021628 -0.007308 0.000000 -0.005602 0.000000
# 3 -0.000997 -0.007308 0.014719 0.000000 -0.004203 0.000000
# 4 0.000000 0.000000 0.000000 0.007279 0.000000 -0.044229
# 5 -0.001624 -0.005602 -0.004203 0.000000 0.033199 0.000000
# 6 0.000000 0.000000 0.000000 -0.044229 0.000000 0.062614
#
#
# Mechanical properties :
#
#
# Convention : Reuss Voigt Hill
#
# Bulk Modulus (GPa) = 31.61367 42.93599 37.27483
# Shear Modulus (GPa) = 23.90447 6.68993 15.29720
#
# Velocity S-wave (km/s) = 3.31020 1.75116 2.64802
# Velocity P-wave (km/s) = 5.39455 4.87544 5.14155
#
# Compressibility (1/GPa) = 0.03163188
#
# Stress axis : x y z
#
# Youngs Moduli (GPa) = 36.71918 46.23628 67.93963
#
# Poissons Ratio (x) = 0.35461 0.06772
# Poissons Ratio (y) = 0.28162 0.49650
# Poissons Ratio (z) = 0.03660 0.33789
#
# Static dielectric constant tensor:
#      x y z
#    x 1.892020 0.000000 0.016840 
#    y 0.000000 1.813260 0.000000 
#    z 0.016840 0.000000 1.885960 
# 
# From -- ./inp_files/129696.got.cif
#   From: 2010.05.17/outbox.cif.g08.bks.cpg/sg12_65_cif.got.tgz:129696.got - 2010.06.03 13:09:07.
