data_PCOD9201176
_publ_section_title
;
Structure prediction by ZEFSAII (Michael W. Deem and Ramdas Pophale) SiO2 
 PCOD9201176
Probable space group: C 2/M
;
_chemical_formula_sum "Si O2"
_cell_formula_units_Z 40
_cell_length_a 5.426513
_cell_length_b 17.774326
_cell_length_c 18.227108
_cell_angle_alpha 90.000000
_cell_angle_beta 84.260589
_cell_angle_gamma 90.000000
_cell_volume 1749.239074
_symmetry_space_group_name_H-M "C 2/M"
_symmetry_group_IT_number 12
_symmetry_cell_setting 'monoclinic'
loop_
_space_group_symop_operation_xyz
x,y,z
-x,y,-z
-x,-y,-z
x,-y,z
1/2+x,1/2+y,z
1/2-x,1/2+y,-z
1/2-x,1/2-y,-z
1/2+x,1/2-y,z
loop_
_atom_site_type_symbol
_atom_site_label
_atom_site_fract_x
_atom_site_fract_y
_atom_site_fract_z
Si Si1 0.608151 0.912401 0.575220
Si Si2 0.776486 0.093110 0.809604
Si Si3 0.739465 0.662823 0.031281
Si Si4 0.699652 0.910210 0.272678
Si Si5 0.947273 0.785847 0.587856
O O1 0.500000 0.887393 0.500000
O O2 0.403424 0.897791 0.642868
O O3 0.193530 0.756154 0.618722
O O4 0.657899 0.000000 0.569055
O O5 0.786173 0.143553 0.882633
O O6 0.522829 0.113726 0.774989
O O7 0.024090 0.114572 0.756545
O O8 0.777135 0.000000 0.821419
O O9 0.500000 0.628410 0.000000
O O10 0.750000 0.750000 0.000000
O O11 0.000000 0.628238 0.000000
O O12 0.710099 0.000000 0.264440
O O13 0.859746 0.871673 0.591156
O O14 0.000000 0.771945 0.500000
#
# Coordination Sequence:
#
# PCOD9201176 Si02
#       5
#     8   8   8   8   8
#     4  10  21  38  64  95 125 164 222 280 324 369
#     4  10  20  37  61  87 121 163 203 241 297 374
#     4  10  21  37  61  89 120 158 189 244 304 353
#     4   9  20  37  58  87 125 165 201 252 312 361
#     4  10  21  38  59  81 115 160 199 258 327 379
#
# _framework density 22.867084999999999
#
# number of rings (size 3 to 8) (size 9 to 14) (size 15 to 20)
#    0.000    2.200    0.000    3.000    0.000    4.400 
#    0.000    7.000   26.400    0.600    0.000    0.000 
#    0.000    0.000    0.000    0.000    0.000    0.000 
#
# Total GULP energy -111597.253750 kJ/mol
# GULP energy per Si atom -5579.862688 kJ/mol
# Density = 2.281504 g / cm^3
# Si number density = 22.867085 Si / 1000 Ang^3
#
#
#
# Elastic Constant Matrix: (Units=GPa)
#
#
# Indices 1 2 3 4 5 6 
#
# 1 182.4006 19.0031 43.5646 0.0000 -14.0604 0.0000
# 2 19.0031 71.8442 21.4577 0.0000 -4.2671 0.0000
# 3 43.5646 21.4577 126.9911 0.0000 1.0056 0.0000
# 4 0.0000 0.0000 0.0000 3.9666 0.0000 -5.3575
# 5 -14.0604 -4.2671 1.0056 0.0000 35.6158 0.0000
# 6 0.0000 0.0000 0.0000 -5.3575 0.0000 17.9456
#
#
#
# Elastic Compliance Matrix: (Units=1/GPa)
#
#
# Indices 1 2 3 4 5 6 
#
# 1 0.006242 -0.000908 -0.002007 0.000000 0.002412 0.000000
# 2 -0.000908 0.014911 -0.002220 0.000000 0.001491 0.000000
# 3 -0.002007 -0.002220 0.008949 0.000000 -0.001311 0.000000
# 4 0.000000 0.000000 0.000000 0.422450 0.000000 0.126119
# 5 0.002412 0.001491 -0.001311 0.000000 0.029245 0.000000
# 6 0.000000 0.000000 0.000000 0.126119 0.000000 0.093375
#
#
# Mechanical properties :
#
#
# Convention : Reuss Voigt Hill
#
# Bulk Modulus (GPa) = 50.42501 61.03185 55.72843
# Shear Modulus (GPa) = 8.44518 31.31963 19.88240
#
# Velocity S-wave (km/s) = 1.92384 3.70488 2.95189
# Velocity P-wave (km/s) = 5.19944 6.71187 6.00347
#
# Compressibility (1/GPa) = 0.01983143
#
# Stress axis : x y z
#
# Youngs Moduli (GPa) = 160.19488 67.06565 111.75019
#
# Poissons Ratio (x) = 0.06092 0.22429
# Poissons Ratio (y) = 0.14552 0.24804
# Poissons Ratio (z) = 0.32152 0.14886
#
# Static dielectric constant tensor:
#      x y z
#    x 1.889120 0.000000 0.021220 
#    y 0.000000 1.887120 0.000000 
#    z 0.021220 0.000000 1.866040 
# 
# From -- ./inp_files/252540.got.cif
#   From: 2010.05.17/outbox.cif.g08.bks.cpg/sg12_127_cif.got.tgz:252540.got - 2010.06.03 13:09:07.
