data_PCOD9201997
_publ_section_title
;
Structure prediction by ZEFSAII (Michael W. Deem and Ramdas Pophale) SiO2 
 PCOD9201997
Probable space group: C 2/M
;
_chemical_formula_sum "Si O2"
_cell_formula_units_Z 44
_cell_length_a 28.024978
_cell_length_b 16.311376
_cell_length_c 5.239736
_cell_angle_alpha 90.000000
_cell_angle_beta 106.445535
_cell_angle_gamma 90.000000
_cell_volume 2297.229180
_symmetry_space_group_name_H-M "C 2/M"
_symmetry_group_IT_number 12
_symmetry_cell_setting 'monoclinic'
loop_
_space_group_symop_operation_xyz
x,y,z
-x,y,-z
-x,-y,-z
x,-y,z
1/2+x,1/2+y,z
1/2-x,1/2+y,-z
1/2-x,1/2-y,-z
1/2+x,1/2-y,z
loop_
_atom_site_type_symbol
_atom_site_label
_atom_site_fract_x
_atom_site_fract_y
_atom_site_fract_z
Si Si1 0.323789 0.407876 0.516623
Si Si2 0.088979 0.141222 0.694941
Si Si3 0.967818 0.000000 0.194213
Si Si4 0.966922 0.257009 0.695333
Si Si5 0.130339 0.255009 0.150467
Si Si6 0.264186 0.197126 0.769748
O O1 0.322518 0.500000 0.624933
O O2 0.364349 0.403509 0.354940
O O3 0.343644 0.331241 0.718011
O O4 0.270780 0.381982 0.315261
O O5 0.048897 0.166131 0.420830
O O6 0.065437 0.080638 0.858530
O O7 0.103820 0.226099 0.851510
O O8 0.000000 0.000000 0.500000
O O9 0.000000 0.000000 0.000000
O O10 0.911818 0.286545 0.715405
O O11 0.000000 0.289517 0.500000
O O12 0.000000 0.258490 0.000000
O O13 0.176443 0.314245 0.159114
O O14 0.250000 0.250000 0.500000
O O15 0.250000 0.250000 0.000000
#
# Coordination Sequence:
#
# PCOD9201997 Si02
#       6
#     8   8   4   8   8   8
#     4  10  21  36  54  80 107 139 181 226 271 320
#     4  11  22  35  50  72 102 142 185 219 256 303
#     4  12  30  34  44  66 104 144 182 212 250 287
#     4  11  22  35  52  73 101 137 177 220 262 298
#     4  10  22  35  55  74 107 139 186 218 267 315
#     4  10  20  38  56  78 103 139 177 223 276 321
#
# _framework density 19.153510000000001
#
# number of rings (size 3 to 8) (size 9 to 14) (size 15 to 20)
#    0.000    1.455    4.545    0.545    8.909    0.000 
#    0.000    0.000    0.000    0.000    0.000    0.000 
#    0.000    1.455    0.000    1.091    0.000    0.364 
#
# Total GULP energy -122499.848395 kJ/mol
# GULP energy per Si atom -5568.174927 kJ/mol
# Density = 1.910992 g / cm^3
# Si number density = 19.153510 Si / 1000 Ang^3
#
#
#
# Elastic Constant Matrix: (Units=GPa)
#
#
# Indices 1 2 3 4 5 6 
#
# 1 149.9567 14.5171 34.6038 0.0000 -1.9475 0.0000
# 2 14.5171 15.3668 3.3500 0.0000 2.2814 0.0000
# 3 34.6038 3.3500 98.1879 0.0000 -10.7336 0.0000
# 4 0.0000 0.0000 0.0000 13.4096 0.0000 4.4833
# 5 -1.9475 2.2814 -10.7336 0.0000 29.5557 0.0000
# 6 0.0000 0.0000 0.0000 4.4833 0.0000 5.2667
#
#
#
# Elastic Compliance Matrix: (Units=1/GPa)
#
#
# Indices 1 2 3 4 5 6 
#
# 1 0.007931 -0.006958 -0.002543 0.000000 0.000136 0.000000
# 2 -0.006958 0.072747 -0.000722 0.000000 -0.006336 0.000000
# 3 -0.002543 -0.000722 0.011552 0.000000 0.004083 0.000000
# 4 0.000000 0.000000 0.000000 0.104240 0.000000 -0.088734
# 5 0.000136 -0.006336 0.004083 0.000000 0.035815 0.000000
# 6 0.000000 0.000000 0.000000 -0.088734 0.000000 0.265407
#
#
# Mechanical properties :
#
#
# Convention : Reuss Voigt Hill
#
# Bulk Modulus (GPa) = 13.93090 40.93924 27.43507
# Shear Modulus (GPa) = 9.22396 23.71575 16.46986
#
# Velocity S-wave (km/s) = 2.19688 3.52261 2.93556
# Velocity P-wave (km/s) = 3.70460 6.16164 5.08379
#
# Compressibility (1/GPa) = 0.07178288
#
# Stress axis : x y z
#
# Youngs Moduli (GPa) = 126.09210 13.74628 86.56744
#
# Poissons Ratio (x) = 0.09565 0.22011
# Poissons Ratio (y) = 0.87736 0.06254
# Poissons Ratio (z) = 0.32061 0.00993
#
# Static dielectric constant tensor:
#      x y z
#    x 1.764580 0.000000 0.029540 
#    y 0.000000 1.644540 0.000000 
#    z 0.029540 0.000000 1.760060 
# 
# From -- ./inp_files/28390.got.cif
#   From: 2010.05.17/outbox.cif.g08.bks.cpg/sg12_15_cif.got.tgz:28390.got - 2010.06.03 13:09:07.
