data_PCOD9201591
_publ_section_title
;
Structure prediction by ZEFSAII (Michael W. Deem and Ramdas Pophale) SiO2 
 PCOD9201591
Probable space group: C 2/M
;
_chemical_formula_sum "Si O2"
_cell_formula_units_Z 40
_cell_length_a 18.186897
_cell_length_b 14.050349
_cell_length_c 21.150512
_cell_angle_alpha 90.000000
_cell_angle_beta 160.556756
_cell_angle_gamma 90.000000
_cell_volume 1799.057686
_symmetry_space_group_name_H-M "C 2/M"
_symmetry_group_IT_number 12
_symmetry_cell_setting 'monoclinic'
loop_
_space_group_symop_operation_xyz
x,y,z
-x,y,-z
-x,-y,-z
x,-y,z
1/2+x,1/2+y,z
1/2-x,1/2+y,-z
1/2-x,1/2-y,-z
1/2+x,1/2-y,z
loop_
_atom_site_type_symbol
_atom_site_label
_atom_site_fract_x
_atom_site_fract_y
_atom_site_fract_z
Si Si1 0.588401 0.290690 0.421144
Si Si2 0.583962 0.395930 0.996108
Si Si3 0.150543 0.606132 0.559986
Si Si4 0.799623 0.284161 0.968516
Si Si5 0.765087 0.110423 0.342961
O O1 0.750000 0.250000 0.500000
O O2 0.585502 0.199336 0.467904
O O3 0.392662 0.341916 0.222026
O O4 0.691257 0.372676 0.548031
O O5 0.683524 0.500000 0.071665
O O6 0.393368 0.387691 0.788343
O O7 0.500000 0.385923 0.000000
O O8 0.738153 0.310580 0.103578
O O9 0.130639 0.500000 0.513607
O O10 0.000000 0.604524 0.500000
O O11 0.750000 0.250000 0.000000
O O12 0.040644 0.328381 0.149697
O O13 0.000000 0.138546 0.500000
O O14 0.725021 0.000000 0.294493
#
# Coordination Sequence:
#
# PCOD9201591 Si02
#       5
#     8   8   8   8   8
#     4  12  24  43  71 102 141 185 235 294 362 421
#     4  10  21  37  63 102 137 172 221 281 352 424
#     4  10  20  37  62  96 137 175 218 275 347 421
#     4  12  25  44  72 103 141 188 239 293 360 428
#     4  11  27  50  73 102 144 192 245 298 350 421
#
# _framework density 22.233861999999998
#
# number of rings (size 3 to 8) (size 9 to 14) (size 15 to 20)
#    0.000    1.000    4.000    1.800    2.800    4.800 
#    0.000    2.000    0.000    0.000    0.000    0.000 
#    0.000    0.000    0.000    0.000    0.000    0.000 
#
# Total GULP energy -111361.336726 kJ/mol
# GULP energy per Si atom -5568.066836 kJ/mol
# Density = 2.218326 g / cm^3
# Si number density = 22.233862 Si / 1000 Ang^3
#
#
#
# Elastic Constant Matrix: (Units=GPa)
#
#
# Indices 1 2 3 4 5 6 
#
# 1 76.6768 34.7295 24.6122 -0.0074 2.9858 -0.0030
# 2 34.7295 91.5057 0.0029 -0.0023 0.0901 -0.0045
# 3 24.6122 0.0029 136.3657 -0.0168 -19.6819 -0.0171
# 4 -0.0074 -0.0023 -0.0168 -3.0201 -0.0005 -9.8212
# 5 2.9858 0.0901 -19.6819 -0.0005 37.8089 -0.0023
# 6 -0.0030 -0.0045 -0.0171 -9.8212 -0.0023 13.6273
#
#
#
# Elastic Compliance Matrix: (Units=1/GPa)
#
#
# Indices 1 2 3 4 5 6 
#
# 1 0.017288 -0.006558 -0.003584 -0.000002 -0.003215 -0.000005
# 2 -0.006558 0.013416 0.001355 -0.000005 0.001191 0.000001
# 3 -0.003584 0.001355 0.008672 -0.000023 0.004794 -0.000006
# 4 -0.000002 -0.000005 -0.000023 -0.099027 -0.000018 -0.071369
# 5 -0.003215 0.001191 0.004794 -0.000018 0.029196 -0.000002
# 6 -0.000005 0.000001 -0.000006 -0.071369 -0.000002 0.021946
#
#
# Mechanical properties :
#
#
# Convention : Reuss Voigt Hill
#
# Bulk Modulus (GPa) = 45.86705 47.02637 46.44671
# Shear Modulus (GPa) = 306.15071 26.03013 166.09042
#
# Velocity S-wave (km/s) = 11.74711 3.42532 8.65238
# Velocity P-wave (km/s) = 14.30619 6.06964 10.98880
#
# Compressibility (1/GPa) = 0.02180214
#
# Stress axis : x y z
#
# Youngs Moduli (GPa) = 57.84438 74.53762 115.31319
#
# Poissons Ratio (x) = 0.48882 0.41330
# Poissons Ratio (y) = 0.37934 -0.15629
# Poissons Ratio (z) = 0.20732 -0.10102
#
# Static dielectric constant tensor:
#      x y z
#    x 1.750970 -0.000080 -0.060310 
#    y -0.000080 2.107980 -0.000340 
#    z -0.060310 -0.000340 1.720390 
# 
# From -- ./inp_files/284402.got.cif
#   From: 2010.05.17/outbox.cif.g08.bks.cpg/sg12_143_cif.got.tgz:284402.got - 2010.06.03 13:09:07.
