data_PCOD9201273
_publ_section_title
;
Structure prediction by ZEFSAII (Michael W. Deem and Ramdas Pophale) SiO2 
 PCOD9201273
Probable space group: C 2/M
;
_chemical_formula_sum "Si O2"
_cell_formula_units_Z 56
_cell_length_a 14.006524
_cell_length_b 23.151911
_cell_length_c 9.290103
_cell_angle_alpha 90.000000
_cell_angle_beta 58.055504
_cell_angle_gamma 90.000000
_cell_volume 2556.353058
_symmetry_space_group_name_H-M "C 2/M"
_symmetry_group_IT_number 12
_symmetry_cell_setting 'monoclinic'
loop_
_space_group_symop_operation_xyz
x,y,z
-x,y,-z
-x,-y,-z
x,-y,z
1/2+x,1/2+y,z
1/2-x,1/2+y,-z
1/2-x,1/2-y,-z
1/2+x,1/2-y,z
loop_
_atom_site_type_symbol
_atom_site_label
_atom_site_fract_x
_atom_site_fract_y
_atom_site_fract_z
Si Si1 0.930148 0.884048 0.338309
Si Si2 0.330198 0.611587 0.131811
Si Si3 0.114905 0.356668 0.495737
Si Si4 0.791637 0.567993 0.337248
Si Si5 0.853843 0.240656 0.021669
Si Si6 0.405595 0.751118 0.295373
Si Si7 0.332672 0.566349 0.825962
O O1 0.916067 0.908155 0.186712
O O2 0.832614 0.915963 0.503522
O O3 0.903467 0.815737 0.346470
O O4 0.055105 0.896534 0.292713
O O5 0.215863 0.625439 0.309690
O O6 0.371459 0.672237 0.031939
O O7 0.309440 0.571137 0.013647
O O8 0.123077 0.396968 0.630822
O O9 0.130348 0.292584 0.547681
O O10 0.000000 0.360724 0.500000
O O11 0.813878 0.500000 0.332682
O O12 0.775167 0.584383 0.183002
O O13 0.840138 0.262075 0.197085
O O14 0.750000 0.250000 0.000000
O O15 0.965478 0.263908 0.855167
O O16 0.357586 0.500000 0.767725
#
# Coordination Sequence:
#
# PCOD9201273 Si02
#       7
#     8   8   8   8   8   8   8
#     4  10  20  38  65  95 137 164 199 254 326 396
#     4  10  22  38  60  92 129 165 214 254 303 387
#     4  11  25  44  64  91 127 170 223 264 318 374
#     4  10  24  42  62  93 124 164 222 269 320 381
#     4  10  20  37  61  90 128 168 205 254 315 370
#     4  10  22  38  61  97 131 166 208 256 311 393
#     4  11  22  39  65  97 130 167 209 264 326 385
#
# _framework density 21.906207999999999
#
# number of rings (size 3 to 8) (size 9 to 14) (size 15 to 20)
#    0.000    1.714    1.429    2.143    2.000   11.143 
#    0.000    0.000    0.000    1.714    0.000    0.000 
#    0.000    0.000    0.000    0.000    0.000    0.000 
#
# Total GULP energy -156476.080201 kJ/mol
# GULP energy per Si atom -5588.431436 kJ/mol
# Density = 2.185635 g / cm^3
# Si number density = 21.906208 Si / 1000 Ang^3
#
#
#
# Elastic Constant Matrix: (Units=GPa)
#
#
# Indices 1 2 3 4 5 6 
#
# 1 145.5330 28.0180 28.1087 0.0000 35.5222 0.0000
# 2 28.0180 63.1677 8.5005 0.0000 19.2611 0.0000
# 3 28.1087 8.5005 52.3955 0.0000 13.6480 0.0000
# 4 0.0000 0.0000 0.0000 31.5012 0.0000 11.5583
# 5 35.5222 19.2611 13.6480 0.0000 36.7557 0.0000
# 6 0.0000 0.0000 0.0000 11.5583 0.0000 19.3700
#
#
#
# Elastic Compliance Matrix: (Units=1/GPa)
#
#
# Indices 1 2 3 4 5 6 
#
# 1 0.009526 -0.001613 -0.002957 0.000000 -0.007263 0.000000
# 2 -0.001613 0.019128 -0.000037 0.000000 -0.008452 0.000000
# 3 -0.002957 -0.000037 0.022062 0.000000 -0.005315 0.000000
# 4 0.000000 0.000000 0.000000 0.040643 0.000000 -0.024252
# 5 -0.007263 -0.008452 -0.005315 0.000000 0.040629 0.000000
# 6 0.000000 0.000000 0.000000 -0.024252 0.000000 0.066098
#
#
# Mechanical properties :
#
#
# Convention : Reuss Voigt Hill
#
# Bulk Modulus (GPa) = 24.09401 43.37228 33.73315
# Shear Modulus (GPa) = 22.61089 30.62333 26.61711
#
# Velocity S-wave (km/s) = 3.21622 3.74295 3.48954
# Velocity P-wave (km/s) = 4.98144 6.20658 5.62745
#
# Compressibility (1/GPa) = 0.04150409
#
# Stress axis : x y z
#
# Youngs Moduli (GPa) = 104.98032 52.27900 45.32621
#
# Poissons Ratio (x) = 0.08430 0.13402
# Poissons Ratio (y) = 0.16928 0.00166
# Poissons Ratio (z) = 0.31040 0.00192
#
# Static dielectric constant tensor:
#      x y z
#    x 1.840120 0.000000 0.019710 
#    y 0.000000 1.787020 0.000000 
#    z 0.019710 0.000000 1.865450 
# 
# From -- ./inp_files/65797.got.cif
#   From: 2010.05.17/outbox.cif.g08.bks.cpg/sg12_33_cif.got.tgz:65797.got - 2010.06.03 13:09:07.
