data_PCOD9201836
_publ_section_title
;
Structure prediction by ZEFSAII (Michael W. Deem and Ramdas Pophale) SiO2 
 PCOD9201836
Probable space group: C 2/M
;
_chemical_formula_sum "Si O2"
_cell_formula_units_Z 58
_cell_length_a 20.655428
_cell_length_b 22.607422
_cell_length_c 9.054281
_cell_angle_alpha 90.000000
_cell_angle_beta 39.081440
_cell_angle_gamma 90.000000
_cell_volume 2665.460268
_symmetry_space_group_name_H-M "C 2/M"
_symmetry_group_IT_number 12
_symmetry_cell_setting 'monoclinic'
loop_
_space_group_symop_operation_xyz
x,y,z
-x,y,-z
-x,-y,-z
x,-y,z
1/2+x,1/2+y,z
1/2-x,1/2+y,-z
1/2-x,1/2-y,-z
1/2+x,1/2-y,z
loop_
_atom_site_type_symbol
_atom_site_label
_atom_site_fract_x
_atom_site_fract_y
_atom_site_fract_z
Si Si1 0.097418 0.881851 0.468837
Si Si2 0.297576 0.067237 0.632991
Si Si3 0.579388 0.189996 0.237488
Si Si4 0.000000 0.000000 0.500000
Si Si5 0.713044 0.665885 0.986289
Si Si6 0.537925 0.710585 0.101664
Si Si7 0.223389 0.569786 0.655258
Si Si8 0.042537 0.565065 0.184510
O O1 0.129511 0.851001 0.258155
O O2 0.204289 0.895353 0.362240
O O3 0.032610 0.836332 0.683598
O O4 0.045459 0.945775 0.527968
O O5 0.258725 0.090050 0.543398
O O6 0.420183 0.065872 0.394335
O O7 0.261690 0.000000 0.719382
O O8 0.261420 0.106703 0.831051
O O9 0.500000 0.211287 0.500000
O O10 0.538993 0.222347 0.162061
O O11 0.572559 0.119991 0.229992
O O12 0.692902 0.199578 0.100803
O O13 0.653544 0.693968 0.951873
O O14 0.500000 0.708384 0.000000
O O15 0.248369 0.500000 0.614628
O O16 0.106164 0.573470 0.920444
O O17 0.073749 0.500000 0.187796
#
# Coordination Sequence:
#
# PCOD9201836 Si02
#       8
#     8   8   8   2   8   8   8   8
#     4  12  24  45  72 102 138 180 232 283 344 407
#     4  10  22  37  62 103 145 181 223 276 344 414
#     4  12  25  47  72 104 139 182 232 287 344 418
#     4  12  24  44  74 104 136 184 230 286 340 406
#     4  12  24  45  72 101 137 181 231 287 343 411
#     4  12  29  51  71  98 137 181 235 291 347 413
#     4  10  20  37  64  99 141 186 225 276 342 410
#     4  10  21  40  68 103 144 181 222 282 344 409
#
# _framework density 21.759843
#
# number of rings (size 3 to 8) (size 9 to 14) (size 15 to 20)
#    0.000    0.828    4.828    2.483    0.966    3.586 
#    0.000    1.724    0.000    0.000    0.000    0.000 
#    0.000    0.000    0.000    0.000    0.000    0.000 
#
# Total GULP energy -161589.112769 kJ/mol
# GULP energy per Si atom -5572.038371 kJ/mol
# Density = 2.171032 g / cm^3
# Si number density = 21.759843 Si / 1000 Ang^3
#
#
#
# Elastic Constant Matrix: (Units=GPa)
#
#
# Indices 1 2 3 4 5 6 
#
# 1 155.1688 53.8749 44.9237 0.0000 20.9576 0.0000
# 2 53.8749 93.9240 37.2993 0.0000 7.5457 0.0000
# 3 44.9237 37.2993 77.7802 0.0000 17.2613 0.0000
# 4 0.0000 0.0000 0.0000 53.0848 0.0000 -4.0721
# 5 20.9576 7.5457 17.2613 0.0000 29.0492 0.0000
# 6 0.0000 0.0000 0.0000 -4.0721 0.0000 34.5927
#
#
#
# Elastic Compliance Matrix: (Units=1/GPa)
#
#
# Indices 1 2 3 4 5 6 
#
# 1 0.009057 -0.003890 -0.002465 0.000000 -0.004059 0.000000
# 2 -0.003890 0.014826 -0.005335 0.000000 0.002125 0.000000
# 3 -0.002465 -0.005335 0.018587 0.000000 -0.007881 0.000000
# 4 0.000000 0.000000 0.000000 0.019009 0.000000 0.002238
# 5 -0.004059 0.002125 -0.007881 0.000000 0.041484 0.000000
# 6 0.000000 0.000000 0.000000 0.002238 0.000000 0.029171
#
#
# Mechanical properties :
#
#
# Convention : Reuss Voigt Hill
#
# Bulk Modulus (GPa) = 52.37923 66.56319 59.47121
# Shear Modulus (GPa) = 30.88743 36.06367 33.47555
#
# Velocity S-wave (km/s) = 3.77167 4.07547 3.92651
# Velocity P-wave (km/s) = 6.56438 7.26652 6.92436
#
# Compressibility (1/GPa) = 0.01909154
#
# Stress axis : x y z
#
# Youngs Moduli (GPa) = 110.41029 67.44864 53.79965
#
# Poissons Ratio (x) = 0.26239 0.13260
# Poissons Ratio (y) = 0.42952 0.28700
# Poissons Ratio (z) = 0.27213 0.35981
#
# Static dielectric constant tensor:
#      x y z
#    x 1.825560 0.000000 -0.008250 
#    y 0.000000 1.835890 0.000000 
#    z -0.008250 0.000000 1.810560 
# 
# From -- ./inp_files/90819.got.cif
#   From: 2010.05.17/outbox.cif.g08.bks.cpg/sg12_46_cif.got.tgz:90819.got - 2010.06.03 13:09:07.
