data_PCOD9201915
_publ_section_title
;
Structure prediction by ZEFSAII (Michael W. Deem and Ramdas Pophale) SiO2 
 PCOD9201915
Probable space group: C 2/M
;
_chemical_formula_sum "Si O2"
_cell_formula_units_Z 56
_cell_length_a 8.980054
_cell_length_b 14.623406
_cell_length_c 20.656736
_cell_angle_alpha 90.000000
_cell_angle_beta 95.096721
_cell_angle_gamma 90.000000
_cell_volume 2701.896115
_symmetry_space_group_name_H-M "C 2/M"
_symmetry_group_IT_number 12
_symmetry_cell_setting 'monoclinic'
loop_
_space_group_symop_operation_xyz
x,y,z
-x,y,-z
-x,-y,-z
x,-y,z
1/2+x,1/2+y,z
1/2-x,1/2+y,-z
1/2-x,1/2-y,-z
1/2+x,1/2-y,z
loop_
_atom_site_type_symbol
_atom_site_label
_atom_site_fract_x
_atom_site_fract_y
_atom_site_fract_z
Si Si1 0.987821 0.257829 0.188417
Si Si2 0.783928 0.297149 0.902482
Si Si3 0.804457 0.893648 0.355860
Si Si4 0.759698 0.284557 0.279337
Si Si5 0.351662 0.400192 0.610869
Si Si6 0.676695 0.394216 0.024177
Si Si7 0.327231 0.152500 0.514202
O O1 0.864310 0.198091 0.146818
O O2 0.900660 0.311263 0.241427
O O3 0.074099 0.315410 0.137351
O O4 0.113548 0.200057 0.230363
O O5 0.767149 0.361580 0.963778
O O6 0.796194 0.190039 0.925243
O O7 0.771297 0.822967 0.297290
O O8 0.695975 0.876514 0.412640
O O9 0.974519 0.872252 0.386336
O O10 0.796828 0.000000 0.337117
O O11 0.740452 0.333450 0.346683
O O12 0.349871 0.500000 0.641948
O O13 0.272952 0.405545 0.538858
O O14 0.711646 0.500000 0.043844
O O15 0.500000 0.391191 0.000000
O O16 0.500000 0.151481 0.500000
O O17 0.250000 0.250000 0.500000
#
# Coordination Sequence:
#
# PCOD9201915 Si02
#       7
#     8   8   8   8   8   8   8
#     4  10  22  39  64  85 128 168 208 244 308 352
#     4  10  20  41  62  95 126 166 196 260 298 358
#     4  11  24  43  65  91 122 160 205 260 319 378
#     4  11  22  42  62  90 118 169 208 256 298 369
#     4  11  24  43  65  91 122 160 205 260 319 378
#     4  10  20  37  66  97 126 163 203 246 302 364
#     4  12  25  40  65  94 122 158 201 259 328 381
#
# _framework density 20.726185999999998
#
# number of rings (size 3 to 8) (size 9 to 14) (size 15 to 20)
#    0.000    1.286    4.286    1.714    2.000    2.286 
#    0.000   10.000    0.000    0.000    0.000    0.000 
#    0.000    0.000    0.000    0.000    0.000    0.000 
#
# Total GULP energy -156281.282575 kJ/mol
# GULP energy per Si atom -5581.474378 kJ/mol
# Density = 2.067901 g / cm^3
# Si number density = 20.726186 Si / 1000 Ang^3
#
#
#
# Elastic Constant Matrix: (Units=GPa)
#
#
# Indices 1 2 3 4 5 6 
#
# 1 112.3345 14.9678 29.8156 0.0000 -22.2845 0.0000
# 2 14.9678 105.3326 23.7814 0.0000 -5.4628 0.0000
# 3 29.8156 23.7814 86.9641 0.0000 -20.9445 0.0000
# 4 0.0000 0.0000 0.0000 4.5086 0.0000 3.1174
# 5 -22.2845 -5.4628 -20.9445 0.0000 48.3221 0.0000
# 6 0.0000 0.0000 0.0000 3.1174 0.0000 11.4346
#
#
#
# Elastic Compliance Matrix: (Units=1/GPa)
#
#
# Indices 1 2 3 4 5 6 
#
# 1 0.010378 -0.000725 -0.002486 0.000000 0.003626 0.000000
# 2 -0.000725 0.010169 -0.002608 0.000000 -0.000315 0.000000
# 3 -0.002486 -0.002608 0.014200 0.000000 0.004713 0.000000
# 4 0.000000 0.000000 0.000000 0.273315 0.000000 -0.074513
# 5 0.003626 -0.000315 0.004713 0.000000 0.024374 0.000000
# 6 0.000000 0.000000 0.000000 -0.074513 0.000000 0.107767
#
#
# Mechanical properties :
#
#
# Convention : Reuss Voigt Hill
#
# Bulk Modulus (GPa) = 43.27629 49.08455 46.18042
# Shear Modulus (GPa) = 10.88030 28.59083 19.73557
#
# Velocity S-wave (km/s) = 2.29367 3.71813 3.08913
# Velocity P-wave (km/s) = 5.28582 6.49357 5.92057
#
# Compressibility (1/GPa) = 0.02310734
#
# Stress axis : x y z
#
# Youngs Moduli (GPa) = 96.35844 98.33502 70.42329
#
# Poissons Ratio (x) = 0.07132 0.17510
# Poissons Ratio (y) = 0.06989 0.18368
# Poissons Ratio (z) = 0.23958 0.25648
#
# Static dielectric constant tensor:
#      x y z
#    x 1.758370 0.000000 -0.013950 
#    y 0.000000 1.630880 0.000000 
#    z -0.013950 0.000000 1.736880 
# 
# From -- ./inp_files/300158.got.cif
#   From: 2010.05.17/outbox.cif.g08.bks.cpg/sg12_151_cif.got.tgz:300158.got - 2010.06.03 13:09:07.
