data_PCOD9201317
_publ_section_title
;
Structure prediction by ZEFSAII (Michael W. Deem and Ramdas Pophale) SiO2 
 PCOD9201317
Probable space group: C 2/M
;
_chemical_formula_sum "Si O2"
_cell_formula_units_Z 48
_cell_length_a 28.355708
_cell_length_b 22.166145
_cell_length_c 8.908553
_cell_angle_alpha 90.000000
_cell_angle_beta 152.522116
_cell_angle_gamma 90.000000
_cell_volume 2583.576080
_symmetry_space_group_name_H-M "C 2/M"
_symmetry_group_IT_number 12
_symmetry_cell_setting 'monoclinic'
loop_
_space_group_symop_operation_xyz
x,y,z
-x,y,-z
-x,-y,-z
x,-y,z
1/2+x,1/2+y,z
1/2-x,1/2+y,-z
1/2-x,1/2-y,-z
1/2+x,1/2-y,z
loop_
_atom_site_type_symbol
_atom_site_label
_atom_site_fract_x
_atom_site_fract_y
_atom_site_fract_z
Si Si1 0.600892 0.844160 0.707311
Si Si2 0.568455 0.244222 0.335698
Si Si3 0.887806 0.876245 0.106797
Si Si4 0.729361 0.570005 0.959190
Si Si5 0.781300 0.250402 0.764075
Si Si6 0.980506 0.885531 0.775091
O O1 0.500000 0.871309 0.500000
O O2 0.567718 0.797152 0.481474
O O3 0.680158 0.889850 0.853801
O O4 0.658511 0.807985 0.003058
O O5 0.682015 0.246272 0.589081
O O6 0.535081 0.312664 0.281298
O O7 0.500000 0.223419 0.000000
O O8 0.803443 0.911022 0.964710
O O9 0.000000 0.877415 0.500000
O O10 0.918276 0.902295 0.031986
O O11 0.849618 0.808235 0.985353
O O12 0.754561 0.500000 0.022565
O O13 0.623516 0.584096 0.573600
O O14 0.750000 0.250000 0.500000
O O15 0.000000 0.900368 0.000000
#
# Coordination Sequence:
#
# PCOD9201317 Si02
#       6
#     8   8   8   8   8   8
#     4  12  23  40  61  88 125 159 201 250 304 359
#     4  11  21  37  60  96 127 155 188 245 315 377
#     4  10  21  37  60  87 124 155 193 244 308 364
#     4  11  24  42  61  83 116 168 215 245 289 348
#     4  12  21  35  62  95 126 155 188 244 314 377
#     4  10  20  37  61  94 127 149 190 250 310 365
#
# _framework density 18.578900000000001
#
# number of rings (size 3 to 8) (size 9 to 14) (size 15 to 20)
#    0.000    1.000    3.333    7.000    0.000    3.667 
#    0.000    0.000    0.000    0.500    0.000    0.000 
#    0.000    0.000    0.000    0.000    0.000    0.000 
#
# Total GULP energy -134005.420932 kJ/mol
# GULP energy per Si atom -5583.559206 kJ/mol
# Density = 1.853661 g / cm^3
# Si number density = 18.578900 Si / 1000 Ang^3
#
#
#
# Elastic Constant Matrix: (Units=GPa)
#
#
# Indices 1 2 3 4 5 6 
#
# 1 157.8043 33.7356 49.9668 0.0000 13.6544 0.0000
# 2 33.7356 66.7939 28.9646 0.0000 -7.1284 0.0000
# 3 49.9668 28.9646 52.9640 0.0000 17.6857 0.0000
# 4 0.0000 0.0000 0.0000 8.6414 0.0000 3.5516
# 5 13.6544 -7.1284 17.6857 0.0000 41.8289 0.0000
# 6 0.0000 0.0000 0.0000 3.5516 0.0000 3.3017
#
#
#
# Elastic Compliance Matrix: (Units=1/GPa)
#
#
# Indices 1 2 3 4 5 6 
#
# 1 0.009105 -0.001055 -0.008105 0.000000 0.000275 0.000000
# 2 -0.001055 0.023326 -0.015374 0.000000 0.010820 0.000000
# 3 -0.008105 -0.015374 0.040667 0.000000 -0.017169 0.000000
# 4 0.000000 0.000000 0.000000 0.207426 0.000000 -0.223127
# 5 0.000275 0.010820 -0.017169 0.000000 0.032920 0.000000
# 6 0.000000 0.000000 0.000000 -0.223127 0.000000 0.542892
#
#
# Mechanical properties :
#
#
# Convention : Reuss Voigt Hill
#
# Bulk Modulus (GPa) = 41.61256 55.87734 48.74495
# Shear Modulus (GPa) = 5.47397 21.74742 13.61070
#
# Velocity S-wave (km/s) = 1.71835 3.42503 2.70957
# Velocity P-wave (km/s) = 5.13647 6.76625 6.00689
#
# Compressibility (1/GPa) = 0.02403121
#
# Stress axis : x y z
#
# Youngs Moduli (GPa) = 109.83112 42.87126 24.58981
#
# Poissons Ratio (x) = 0.04522 0.19929
# Poissons Ratio (y) = 0.11585 0.37804
# Poissons Ratio (z) = 0.89013 0.65910
#
# Static dielectric constant tensor:
#      x y z
#    x 1.707430 0.000000 -0.015520 
#    y 0.000000 1.627430 0.000000 
#    z -0.015520 0.000000 1.660160 
# 
# From -- ./inp_files/77301.got.cif
#   From: 2010.05.17/outbox.cif.g08.bks.cpg/sg12_39_cif.got.tgz:77301.got - 2010.06.03 13:09:07.
