data_PCOD9201646
_publ_section_title
;
Structure prediction by ZEFSAII (Michael W. Deem and Ramdas Pophale) SiO2 
 PCOD9201646
Probable space group: C 2/M
;
_chemical_formula_sum "Si O2"
_cell_formula_units_Z 56
_cell_length_a 18.840493
_cell_length_b 13.107127
_cell_length_c 10.666261
_cell_angle_alpha 90.000000
_cell_angle_beta 106.932076
_cell_angle_gamma 90.000000
_cell_volume 2519.795905
_symmetry_space_group_name_H-M "C 2/M"
_symmetry_group_IT_number 12
_symmetry_cell_setting 'monoclinic'
loop_
_space_group_symop_operation_xyz
x,y,z
-x,y,-z
-x,-y,-z
x,-y,z
1/2+x,1/2+y,z
1/2-x,1/2+y,-z
1/2-x,1/2-y,-z
1/2+x,1/2-y,z
loop_
_atom_site_type_symbol
_atom_site_label
_atom_site_fract_x
_atom_site_fract_y
_atom_site_fract_z
Si Si1 0.370143 0.612938 0.317126
Si Si2 0.327266 0.163170 0.663071
Si Si3 0.976644 0.191875 0.187020
Si Si4 0.738268 0.243050 0.142735
Si Si5 0.611418 0.380590 0.096311
Si Si6 0.179419 0.110867 0.447796
Si Si7 0.987494 0.383877 0.640196
O O1 0.337681 0.500000 0.272502
O O2 0.445621 0.621880 0.280825
O O3 0.315539 0.704044 0.242835
O O4 0.379865 0.620162 0.470574
O O5 0.318395 0.165988 0.810475
O O6 0.257223 0.109358 0.563558
O O7 0.319537 0.281960 0.620753
O O8 0.401623 0.121308 0.639449
O O9 0.056971 0.156637 0.179369
O O10 0.976166 0.304145 0.245611
O O11 0.921354 0.177661 0.041910
O O12 0.697654 0.350575 0.150668
O O13 0.750000 0.250000 0.000000
O O14 0.600704 0.500000 0.070525
O O15 0.170063 0.000000 0.378623
O O16 0.014581 0.500000 0.667260
O O17 0.000000 0.355056 0.500000
#
# Coordination Sequence:
#
# PCOD9201646 Si02
#       7
#     8   8   8   8   8   8   8
#     4  10  20  37  63  91 122 163 207 257 316 372
#     4  10  20  39  59  85 123 162 205 258 309 379
#     4  11  21  40  64  92 124 163 212 255 309 382
#     4  11  22  38  61  92 124 163 214 256 309 381
#     4  11  23  41  65  91 127 172 208 258 321 371
#     4   9  19  35  60  89 117 155 201 255 316 367
#     4  11  24  42  64  90 124 168 211 258 322 383
#
# _framework density 22.224022999999999
#
# number of rings (size 3 to 8) (size 9 to 14) (size 15 to 20)
#    0.000    1.571    2.857    3.000    0.000    1.143 
#    0.000    2.857    0.000    5.143    0.000    0.000 
#    0.000    0.000    0.000    0.000    0.000    0.000 
#
# Total GULP energy -156108.040452 kJ/mol
# GULP energy per Si atom -5575.287159 kJ/mol
# Density = 2.217344 g / cm^3
# Si number density = 22.224023 Si / 1000 Ang^3
#
#
#
# Elastic Constant Matrix: (Units=GPa)
#
#
# Indices 1 2 3 4 5 6 
#
# 1 94.8481 27.4423 36.4300 0.0000 -31.9606 0.0000
# 2 27.4423 162.0308 51.8451 0.0000 -2.6162 0.0000
# 3 36.4300 51.8451 93.6764 0.0000 -24.8178 0.0000
# 4 0.0000 0.0000 0.0000 21.9288 0.0000 7.0189
# 5 -31.9606 -2.6162 -24.8178 0.0000 43.6978 0.0000
# 6 0.0000 0.0000 0.0000 7.0189 0.0000 4.9495
#
#
#
# Elastic Compliance Matrix: (Units=1/GPa)
#
#
# Indices 1 2 3 4 5 6 
#
# 1 0.015203 -0.001633 -0.002459 0.000000 0.009626 0.000000
# 2 -0.001633 0.007867 -0.004603 0.000000 -0.003338 0.000000
# 3 -0.002459 -0.004603 0.016044 0.000000 0.007038 0.000000
# 4 0.000000 0.000000 0.000000 0.083505 0.000000 -0.118417
# 5 0.009626 -0.003338 0.007038 0.000000 0.033722 0.000000
# 6 0.000000 0.000000 0.000000 -0.118417 0.000000 0.369965
#
#
# Mechanical properties :
#
#
# Convention : Reuss Voigt Hill
#
# Bulk Modulus (GPa) = 46.03109 64.66556 55.34833
# Shear Modulus (GPa) = 9.07544 29.77109 19.42327
#
# Velocity S-wave (km/s) = 2.02299 3.66401 2.95952
# Velocity P-wave (km/s) = 5.11995 6.86005 6.05286
#
# Compressibility (1/GPa) = 0.02172445
#
# Stress axis : x y z
#
# Youngs Moduli (GPa) = 65.77448 127.10898 62.33051
#
# Poissons Ratio (x) = 0.20754 0.15325
# Poissons Ratio (y) = 0.10740 0.28693
# Poissons Ratio (z) = 0.16172 0.58513
#
# Static dielectric constant tensor:
#      x y z
#    x 1.857570 0.000000 0.000100 
#    y 0.000000 1.832630 0.000000 
#    z 0.000100 0.000000 1.914450 
# 
# From -- ./inp_files/165059.got.cif
#   From: 2010.05.17/outbox.cif.g08.bks.cpg/sg12_83_cif.got.tgz:165059.got - 2010.06.03 13:09:07.
