data_PCOD9201218
_publ_section_title
;
Structure prediction by ZEFSAII (Michael W. Deem and Ramdas Pophale) SiO2 
 PCOD9201218
Probable space group: C 2/M
;
_chemical_formula_sum "Si O2"
_cell_formula_units_Z 60
_cell_length_a 8.996508
_cell_length_b 12.093902
_cell_length_c 28.837278
_cell_angle_alpha 90.000000
_cell_angle_beta 65.280600
_cell_angle_gamma 90.000000
_cell_volume 2850.072155
_symmetry_space_group_name_H-M "C 2/M"
_symmetry_group_IT_number 12
_symmetry_cell_setting 'monoclinic'
loop_
_space_group_symop_operation_xyz
x,y,z
-x,y,-z
-x,-y,-z
x,-y,z
1/2+x,1/2+y,z
1/2-x,1/2+y,-z
1/2-x,1/2-y,-z
1/2+x,1/2-y,z
loop_
_atom_site_type_symbol
_atom_site_label
_atom_site_fract_x
_atom_site_fract_y
_atom_site_fract_z
Si Si1 0.009771 0.789161 0.071516
Si Si2 0.269772 0.181192 0.313821
Si Si3 0.244314 0.874960 0.962180
Si Si4 0.579049 0.500000 0.400608
Si Si5 0.031082 0.129529 0.819061
Si Si6 0.611274 0.131208 0.387559
Si Si7 0.665688 0.700904 0.556371
Si Si8 0.624626 0.237308 0.243831
O O1 0.070330 0.663636 0.059975
O O2 0.841744 0.803993 0.066472
O O3 0.002199 0.833762 0.123993
O O4 0.145527 0.852680 0.022415
O O5 0.190476 0.096435 0.359901
O O6 0.230236 0.306559 0.336107
O O7 0.463337 0.172718 0.282057
O O8 0.177955 0.175067 0.276464
O O9 0.224115 0.000000 0.951436
O O10 0.456935 0.598895 0.436654
O O11 0.220188 0.159346 0.784139
O O12 0.924684 0.199954 0.796666
O O13 0.001345 0.000000 0.817335
O O14 0.440641 0.197997 0.408232
O O15 0.698109 0.155853 0.425664
O O16 0.594679 0.000000 0.382853
O O17 0.750000 0.750000 0.500000
#
# Coordination Sequence:
#
# PCOD9201218 Si02
#       8
#     8   8   8   4   8   8   8   8
#     4  10  20  37  61  91 127 162 226 264 308 420
#     4  10  22  43  66  95 126 161 227 261 318 385
#     4  10  20  37  61  88 124 177 210 271 328 357
#     4  10  22  40  68  92 130 172 198 269 306 363
#     4  11  23  41  63  92 128 170 207 265 346 379
#     4  11  24  45  70  96 131 175 211 263 315 368
#     4  11  24  43  67 102 132 173 212 249 317 380
#     4  10  24  41  62  96 122 161 216 271 320 396
#
# _framework density 21.052098999999998
#
# number of rings (size 3 to 8) (size 9 to 14) (size 15 to 20)
#    0.000    1.600    0.667    4.400    2.800    2.667 
#    9.600   11.333    0.000    0.000    0.000    0.000 
#    0.000    0.000    0.000    0.000    0.000    0.000 
#
# Total GULP energy -167147.544741 kJ/mol
# GULP energy per Si atom -5571.584825 kJ/mol
# Density = 2.100418 g / cm^3
# Si number density = 21.052099 Si / 1000 Ang^3
#
#
#
# Elastic Constant Matrix: (Units=GPa)
#
#
# Indices 1 2 3 4 5 6 
#
# 1 56.6540 13.9497 12.4122 0.0000 4.3536 0.0000
# 2 13.9497 92.0398 23.1129 0.0000 -9.0438 0.0000
# 3 12.4122 23.1129 68.1072 0.0000 6.6448 0.0000
# 4 0.0000 0.0000 0.0000 20.3429 0.0000 -1.6506
# 5 4.3536 -9.0438 6.6448 0.0000 23.8314 0.0000
# 6 0.0000 0.0000 0.0000 -1.6506 0.0000 18.3386
#
#
#
# Elastic Compliance Matrix: (Units=1/GPa)
#
#
# Indices 1 2 3 4 5 6 
#
# 1 0.019101 -0.002736 -0.002170 0.000000 -0.003923 0.000000
# 2 -0.002736 0.013100 -0.004606 0.000000 0.006755 0.000000
# 3 -0.002170 -0.004606 0.017242 0.000000 -0.006159 0.000000
# 4 0.000000 0.000000 0.000000 0.049519 0.000000 0.004457
# 5 -0.003923 0.006755 -0.006159 0.000000 0.046959 0.000000
# 6 0.000000 0.000000 0.000000 0.004457 0.000000 0.054931
#
#
# Mechanical properties :
#
#
# Convention : Reuss Voigt Hill
#
# Bulk Modulus (GPa) = 32.87300 35.08339 33.97820
# Shear Modulus (GPa) = 21.73762 23.65767 22.69765
#
# Velocity S-wave (km/s) = 3.21684 3.35590 3.28711
# Velocity P-wave (km/s) = 5.42645 5.63181 5.53008
#
# Compressibility (1/GPa) = 0.03042010
#
# Stress axis : x y z
#
# Youngs Moduli (GPa) = 52.35209 76.33630 57.99699
#
# Poissons Ratio (x) = 0.20882 0.12586
# Poissons Ratio (y) = 0.14321 0.26714
# Poissons Ratio (z) = 0.11361 0.35162
#
# Static dielectric constant tensor:
#      x y z
#    x 1.783210 0.000000 0.019780 
#    y 0.000000 1.726380 0.000000 
#    z 0.019780 0.000000 1.758800 
# 
# From -- ./inp_files/372137.got.cif
#   From: 2010.05.17/outbox.cif.g08.bks.cpg/sg12_187_cif.got.tgz:372137.got - 2010.06.03 13:09:07.
