data_PCOD9201186
_publ_section_title
;
Structure prediction by ZEFSAII (Michael W. Deem and Ramdas Pophale) SiO2 
 PCOD9201186
Probable space group: C 2/M
;
_chemical_formula_sum "Si O2"
_cell_formula_units_Z 56
_cell_length_a 11.550317
_cell_length_b 14.560994
_cell_length_c 17.063490
_cell_angle_alpha 90.000000
_cell_angle_beta 54.877920
_cell_angle_gamma 90.000000
_cell_volume 2347.296225
_symmetry_space_group_name_H-M "C 2/M"
_symmetry_group_IT_number 12
_symmetry_cell_setting 'monoclinic'
loop_
_space_group_symop_operation_xyz
x,y,z
-x,y,-z
-x,-y,-z
x,-y,z
1/2+x,1/2+y,z
1/2-x,1/2+y,-z
1/2-x,1/2-y,-z
1/2+x,1/2-y,z
loop_
_atom_site_type_symbol
_atom_site_label
_atom_site_fract_x
_atom_site_fract_y
_atom_site_fract_z
Si Si1 0.998772 0.605775 0.812112
Si Si2 0.577877 0.604639 0.775628
Si Si3 0.081589 0.767549 0.051509
Si Si4 0.283155 0.394608 0.590800
Si Si5 0.333946 0.797191 0.749295
Si Si6 0.404112 0.606686 0.697539
Si Si7 0.066244 0.389808 0.560502
O O1 0.983721 0.500000 0.840247
O O2 0.995526 0.676913 0.883928
O O3 0.864482 0.640318 0.812743
O O4 0.141900 0.612248 0.702806
O O5 0.607655 0.500000 0.784971
O O6 0.455619 0.646690 0.877368
O O7 0.709127 0.666797 0.745177
O O8 0.542411 0.607760 0.697571
O O9 0.250000 0.750000 0.000000
O O10 0.000000 0.784847 0.000000
O O11 0.320831 0.500000 0.561637
O O12 0.402770 0.364779 0.606640
O O13 0.224557 0.363911 0.528854
O O14 0.318666 0.689756 0.771307
O O15 0.472754 0.819058 0.645505
O O16 0.352785 0.500000 0.722514
O O17 0.048248 0.500000 0.589437
O O18 0.000000 0.384551 0.500000
#
# Coordination Sequence:
#
# PCOD9201186 Si02
#       7
#     8   8   8   8   8   8   8
#     4  10  20  37  61  88 116 154 208 262 307 370
#     4  11  24  42  65  92 124 166 212 265 323 383
#     4  12  27  42  61  90 128 169 215 269 333 395
#     4   8  16  32  58  84 112 155 201 248 297 356
#     4  11  20  37  67  94 122 164 218 260 316 384
#     4  10  21  36  61  90 121 158 209 261 308 368
#     4   9  18  34  60  97 132 162 206 265 320 372
#
# _framework density 23.857237999999999
#
# number of rings (size 3 to 8) (size 9 to 14) (size 15 to 20)
#    0.000    1.857    1.429    3.857    4.000    1.143 
#    0.000    0.714    0.000    0.429    0.000    0.000 
#    0.000    0.000    0.000    0.000    0.000    0.000 
#
# Total GULP energy -155912.699432 kJ/mol
# GULP energy per Si atom -5568.310694 kJ/mol
# Density = 2.380294 g / cm^3
# Si number density = 23.857238 Si / 1000 Ang^3
#
#
#
# Elastic Constant Matrix: (Units=GPa)
#
#
# Indices 1 2 3 4 5 6 
#
# 1 151.2528 26.2977 34.1737 0.0000 43.6659 0.0000
# 2 26.2977 140.0140 19.4286 0.0000 0.5600 0.0000
# 3 34.1737 19.4286 47.7544 0.0000 15.4196 0.0000
# 4 0.0000 0.0000 0.0000 8.1211 0.0000 3.8757
# 5 43.6659 0.5600 15.4196 0.0000 43.2460 0.0000
# 6 0.0000 0.0000 0.0000 3.8757 0.0000 33.0855
#
#
#
# Elastic Compliance Matrix: (Units=1/GPa)
#
#
# Indices 1 2 3 4 5 6 
#
# 1 0.010341 -0.001360 -0.003934 0.000000 -0.009021 0.000000
# 2 -0.001360 0.007798 -0.002949 0.000000 0.002324 0.000000
# 3 -0.003934 -0.002949 0.026739 0.000000 -0.005524 0.000000
# 4 0.000000 0.000000 0.000000 0.130428 0.000000 -0.015279
# 5 -0.009021 0.002324 -0.005524 0.000000 0.034172 0.000000
# 6 0.000000 0.000000 0.000000 -0.015279 0.000000 0.032015
#
#
# Mechanical properties :
#
#
# Convention : Reuss Voigt Hill
#
# Bulk Modulus (GPa) = 35.22288 55.42457 45.32373
# Shear Modulus (GPa) = 18.69558 34.16527 26.43043
#
# Velocity S-wave (km/s) = 2.80240 3.78838 3.33206
# Velocity P-wave (km/s) = 5.02666 6.51291 5.81744
#
# Compressibility (1/GPa) = 0.02839063
#
# Stress axis : x y z
#
# Youngs Moduli (GPa) = 96.70072 128.24434 37.39832
#
# Poissons Ratio (x) = 0.17446 0.14712
# Poissons Ratio (y) = 0.13155 0.11030
# Poissons Ratio (z) = 0.38041 0.37825
#
# Static dielectric constant tensor:
#      x y z
#    x 2.080960 0.000000 -0.064200 
#    y 0.000000 1.881490 0.000000 
#    z -0.064200 0.000000 2.070110 
# 
# From -- ./inp_files/263257.got.cif
#   From: 2010.05.17/outbox.cif.g08.bks.cpg/sg12_132_cif.got.tgz:263257.got - 2010.06.03 13:09:07.
