data_PCOD9201311
_publ_section_title
;
Structure prediction by ZEFSAII (Michael W. Deem and Ramdas Pophale) SiO2 
 PCOD9201311
Probable space group: C 2/M
;
_chemical_formula_sum "Si O2"
_cell_formula_units_Z 48
_cell_length_a 13.124833
_cell_length_b 15.808794
_cell_length_c 11.541619
_cell_angle_alpha 90.000000
_cell_angle_beta 70.295326
_cell_angle_gamma 90.000000
_cell_volume 2254.515941
_symmetry_space_group_name_H-M "C 2/M"
_symmetry_group_IT_number 12
_symmetry_cell_setting 'monoclinic'
loop_
_space_group_symop_operation_xyz
x,y,z
-x,y,-z
-x,-y,-z
x,-y,z
1/2+x,1/2+y,z
1/2-x,1/2+y,-z
1/2-x,1/2-y,-z
1/2+x,1/2-y,z
loop_
_atom_site_type_symbol
_atom_site_label
_atom_site_fract_x
_atom_site_fract_y
_atom_site_fract_z
Si Si1 0.378209 0.182181 0.093557
Si Si2 0.892475 0.905510 0.459922
Si Si3 0.874979 0.715547 0.512126
Si Si4 0.062995 0.595300 0.714974
Si Si5 0.322148 0.094699 0.896806
Si Si6 0.186440 0.850686 0.745723
O O1 0.378113 0.105424 0.184689
O O2 0.352634 0.264892 0.177902
O O3 0.500000 0.190524 0.000000
O O4 0.306977 0.158897 0.009166
O O5 0.842607 0.814382 0.514507
O O6 0.895709 0.890762 0.317835
O O7 0.000000 0.908881 0.500000
O O8 0.841634 0.000000 0.494630
O O9 0.884711 0.661863 0.391374
O O10 0.794923 0.670380 0.631238
O O11 0.000000 0.716576 0.500000
O O12 0.069150 0.500000 0.666834
O O13 0.936485 0.615057 0.789426
O O14 0.227462 0.095469 0.838872
O O15 0.335996 0.000000 0.938736
#
# Coordination Sequence:
#
# PCOD9201311 Si02
#       6
#     8   8   8   8   8   8
#     4  10  22  39  60  89 123 171 214 258 302 368
#     4  10  23  41  61  86 124 170 215 260 307 363
#     4  11  22  40  62  93 132 161 204 259 324 389
#     4  10  20  37  61  93 130 164 197 254 326 388
#     4  10  21  38  62  94 128 163 207 260 317 378
#     4  12  22  39  66  93 125 170 214 257 319 376
#
# _framework density 21.290602
#
# number of rings (size 3 to 8) (size 9 to 14) (size 15 to 20)
#    0.000    1.500    3.333    2.000    0.000    3.667 
#    0.000    0.833    0.000    6.000    0.000    0.000 
#    0.000    0.000    0.000    0.000    0.000    0.000 
#
# Total GULP energy -133680.900786 kJ/mol
# GULP energy per Si atom -5570.037533 kJ/mol
# Density = 2.124214 g / cm^3
# Si number density = 21.290602 Si / 1000 Ang^3
#
#
#
# Elastic Constant Matrix: (Units=GPa)
#
#
# Indices 1 2 3 4 5 6 
#
# 1 83.8818 19.6983 44.5549 0.0000 37.2926 0.0000
# 2 19.6983 112.3643 51.1887 0.0000 8.0828 0.0000
# 3 44.5549 51.1887 102.4056 0.0000 24.4272 0.0000
# 4 0.0000 0.0000 0.0000 692.9475 0.0000 -355.3969
# 5 37.2926 8.0828 24.4272 0.0000 37.3743 0.0000
# 6 0.0000 0.0000 0.0000 -355.3969 0.0000 219.8978
#
#
#
# Elastic Compliance Matrix: (Units=1/GPa)
#
#
# Indices 1 2 3 4 5 6 
#
# 1 0.023838 -0.000253 -0.005431 0.000000 -0.020182 0.000000
# 2 -0.000253 0.011599 -0.006101 0.000000 0.001731 0.000000
# 3 -0.005431 -0.006101 0.016076 0.000000 -0.003769 0.000000
# 4 0.000000 0.000000 0.000000 0.008435 0.000000 0.013632
# 5 -0.020182 0.001731 -0.003769 0.000000 0.048983 0.000000
# 6 0.000000 0.000000 0.000000 0.013632 0.000000 0.026580
#
#
# Mechanical properties :
#
#
# Convention : Reuss Voigt Hill
#
# Bulk Modulus (GPa) = 35.78598 58.83727 47.31162
# Shear Modulus (GPa) = 29.69216 202.25791 115.97504
#
# Velocity S-wave (km/s) = 3.73850 9.75730 7.38855
# Velocity P-wave (km/s) = 5.95651 12.43524 9.74975
#
# Compressibility (1/GPa) = 0.02794391
#
# Stress axis : x y z
#
# Youngs Moduli (GPa) = 41.94934 86.21700 62.20260
#
# Poissons Ratio (x) = 0.02182 0.33783
# Poissons Ratio (y) = 0.01062 0.37947
# Poissons Ratio (z) = 0.22783 0.52598
#
# Static dielectric constant tensor:
#      x y z
#    x 1.825660 0.000000 0.062470 
#    y 0.000000 1.791600 0.000000 
#    z 0.062470 0.000000 1.779500 
# 
# From -- ./inp_files/142752.got.cif
#   From: 2010.05.17/outbox.cif.g08.bks.cpg/sg12_72_cif.got.tgz:142752.got - 2010.06.03 13:09:07.
