data_PCOD9201098
_publ_section_title
;
Structure prediction by ZEFSAII (Michael W. Deem and Ramdas Pophale) SiO2 
 PCOD9201098
Probable space group: C 2/M
;
_chemical_formula_sum "Si O2"
_cell_formula_units_Z 56
_cell_length_a 19.724118
_cell_length_b 7.521218
_cell_length_c 16.580427
_cell_angle_alpha 90.000000
_cell_angle_beta 109.144602
_cell_angle_gamma 90.000000
_cell_volume 2323.660053
_symmetry_space_group_name_H-M "C 2/M"
_symmetry_group_IT_number 12
_symmetry_cell_setting 'monoclinic'
loop_
_space_group_symop_operation_xyz
x,y,z
-x,y,-z
-x,-y,-z
x,-y,z
1/2+x,1/2+y,z
1/2-x,1/2+y,-z
1/2-x,1/2-y,-z
1/2+x,1/2-y,z
loop_
_atom_site_type_symbol
_atom_site_label
_atom_site_fract_x
_atom_site_fract_y
_atom_site_fract_z
Si Si1 0.791249 0.205992 0.222893
Si Si2 0.568213 0.787711 0.476802
Si Si3 0.394241 0.784489 0.129684
Si Si4 0.282335 0.202559 0.401439
Si Si5 0.124076 0.212643 0.332296
Si Si6 0.049253 0.294335 0.138792
Si Si7 0.336445 0.782567 0.941239
O O1 0.865399 0.219616 0.203638
O O2 0.790366 0.299889 0.307914
O O3 0.731313 0.277243 0.137473
O O4 0.774796 0.000000 0.232980
O O5 0.500000 0.718295 0.500000
O O6 0.644963 0.712648 0.536365
O O7 0.568076 0.757786 0.380920
O O8 0.570042 0.000000 0.492118
O O9 0.473088 0.718616 0.136056
O O10 0.395085 0.000000 0.133744
O O11 0.341965 0.727581 0.036083
O O12 0.203588 0.281329 0.386966
O O13 0.279431 0.000000 0.430657
O O14 0.100433 0.285775 0.236759
O O15 0.128262 0.000000 0.325743
O O16 0.034830 0.500000 0.112878
O O17 0.092628 0.221808 0.079593
O O18 0.335590 0.000000 0.940506
#
# Coordination Sequence:
#
# PCOD9201098 Si02
#       7
#     8   8   8   8   8   8   8
#     4  11  22  36  58  87 120 155 193 241 291 345
#     4  10  23  42  65  90 116 149 193 237 281 344
#     4  10  21  36  58  84 116 156 198 246 292 339
#     4  10  22  41  62  86 117 155 196 235 283 345
#     4  11  23  39  61  89 121 153 189 238 292 344
#     4  10  20  37  61  85 114 155 201 243 285 341
#     4   9  18  36  59  85 112 151 204 245 284 338
#
# _framework density 24.099910999999999
#
# number of rings (size 3 to 8) (size 9 to 14) (size 15 to 20)
#    0.000    1.857    1.429    2.143    2.000    3.714 
#    0.000    1.429    0.000    1.714    0.000    0.000 
#    0.000    0.000    0.000    0.000    0.000    0.000 
#
# Total GULP energy -156601.036647 kJ/mol
# GULP energy per Si atom -5592.894166 kJ/mol
# Density = 2.404506 g / cm^3
# Si number density = 24.099911 Si / 1000 Ang^3
#
#
#
# Elastic Constant Matrix: (Units=GPa)
#
#
# Indices 1 2 3 4 5 6 
#
# 1 103.1832 -5.1553 23.2044 0.0000 -27.0509 0.0000
# 2 -5.1553 71.8631 -3.6261 0.0000 4.7143 0.0000
# 3 23.2044 -3.6261 71.0417 0.0000 -17.8666 0.0000
# 4 0.0000 0.0000 0.0000 24.3291 0.0000 -5.1869
# 5 -27.0509 4.7143 -17.8666 0.0000 45.3439 0.0000
# 6 0.0000 0.0000 0.0000 -5.1869 0.0000 11.7400
#
#
#
# Elastic Compliance Matrix: (Units=1/GPa)
#
#
# Indices 1 2 3 4 5 6 
#
# 1 0.011830 0.000331 -0.002310 0.000000 0.006113 0.000000
# 2 0.000331 0.014030 0.000323 0.000000 -0.001134 0.000000
# 3 -0.002310 0.000323 0.016086 0.000000 0.004927 0.000000
# 4 0.000000 0.000000 0.000000 0.045377 0.000000 0.020048
# 5 0.006113 -0.001134 0.004927 0.000000 0.027760 0.000000
# 6 0.000000 0.000000 0.000000 0.020048 0.000000 0.094036
#
#
# Mechanical properties :
#
#
# Convention : Reuss Voigt Hill
#
# Bulk Modulus (GPa) = 25.88375 30.54822 28.21598
# Shear Modulus (GPa) = 22.19172 31.72695 26.95933
#
# Velocity S-wave (km/s) = 3.03780 3.63226 3.34825
# Velocity P-wave (km/s) = 4.80289 5.50402 5.16537
#
# Compressibility (1/GPa) = 0.03863428
#
# Stress axis : x y z
#
# Youngs Moduli (GPa) = 84.53037 71.27703 62.16489
#
# Poissons Ratio (x) = -0.02360 0.14359
# Poissons Ratio (y) = -0.02799 -0.02007
# Poissons Ratio (z) = 0.19525 -0.02301
#
# Static dielectric constant tensor:
#      x y z
#    x 1.936440 0.000000 0.044660 
#    y 0.000000 1.928350 0.000000 
#    z 0.044660 0.000000 1.876600 
# 
# From -- ./inp_files/275697.got.cif
#   From: 2010.05.17/outbox.cif.g08.bks.cpg/sg12_138_cif.got.tgz:275697.got - 2010.06.03 13:09:07.
