data_PCOD9201690
_publ_section_title
;
Structure prediction by ZEFSAII (Michael W. Deem and Ramdas Pophale) SiO2 
 PCOD9201690
Probable space group: C 2/M
;
_chemical_formula_sum "Si O2"
_cell_formula_units_Z 56
_cell_length_a 11.679618
_cell_length_b 14.922244
_cell_length_c 18.092196
_cell_angle_alpha 90.000000
_cell_angle_beta 123.111206
_cell_angle_gamma 90.000000
_cell_volume 2641.173280
_symmetry_space_group_name_H-M "C 2/M"
_symmetry_group_IT_number 12
_symmetry_cell_setting 'monoclinic'
loop_
_space_group_symop_operation_xyz
x,y,z
-x,y,-z
-x,-y,-z
x,-y,z
1/2+x,1/2+y,z
1/2-x,1/2+y,-z
1/2-x,1/2-y,-z
1/2+x,1/2-y,z
loop_
_atom_site_type_symbol
_atom_site_label
_atom_site_fract_x
_atom_site_fract_y
_atom_site_fract_z
Si Si1 0.490929 0.602982 0.242988
Si Si2 0.743619 0.601816 0.240466
Si Si3 0.658494 0.294448 0.067056
Si Si4 0.431636 0.659013 0.377669
Si Si5 0.749600 0.106154 0.045026
Si Si6 0.497481 0.856054 0.417967
Si Si7 0.276572 0.601016 0.455977
O O1 0.492084 0.500000 0.269226
O O2 0.643682 0.627729 0.273225
O O3 0.426464 0.656577 0.287825
O O4 0.397234 0.607775 0.137336
O O5 0.703154 0.500000 0.204009
O O6 0.714773 0.670389 0.164633
O O7 0.898234 0.599282 0.323526
O O8 0.671487 0.186627 0.060754
O O9 0.500000 0.317508 0.000000
O O10 0.738113 0.351659 0.032306
O O11 0.427880 0.759863 0.404019
O O12 0.314580 0.609876 0.382908
O O13 0.580316 0.620555 0.452802
O O14 0.705049 0.000000 0.030536
O O15 0.500000 0.898993 0.500000
O O16 0.648937 0.842136 0.439071
O O17 0.234140 0.500000 0.457964
#
# Coordination Sequence:
#
# PCOD9201690 Si02
#       7
#     8   8   8   8   8   8   8
#     4  10  20  37  63  93 125 167 219 269 319 387
#     4  11  24  40  65  99 131 173 221 271 330 394
#     4  11  22  42  68  96 132 172 215 269 328 390
#     4  11  22  39  63  88 124 170 218 263 319 390
#     4  10  22  40  65  98 133 170 214 267 326 387
#     4  12  25  41  63  93 132 170 215 269 329 384
#     4  11  23  40  62  87 121 168 214 265 321 383
#
# _framework density 21.202698000000002
#
# number of rings (size 3 to 8) (size 9 to 14) (size 15 to 20)
#    0.000    1.143    2.857    4.714    2.000    3.143 
#    0.000    0.000    0.000    3.429    0.000    0.000 
#    0.000    0.000    0.000    0.000    0.000    0.000 
#
# Total GULP energy -156243.529441 kJ/mol
# GULP energy per Si atom -5580.126051 kJ/mol
# Density = 2.115444 g / cm^3
# Si number density = 21.202698 Si / 1000 Ang^3
#
#
#
# Elastic Constant Matrix: (Units=GPa)
#
#
# Indices 1 2 3 4 5 6 
#
# 1 91.1592 4.2145 35.9758 0.0000 -2.4845 0.0000
# 2 4.2145 108.3698 29.2439 0.0000 -13.5165 0.0000
# 3 35.9758 29.2439 80.1525 0.0000 -5.9782 0.0000
# 4 0.0000 0.0000 0.0000 13.9831 0.0000 0.4582
# 5 -2.4845 -13.5165 -5.9782 0.0000 28.8922 0.0000
# 6 0.0000 0.0000 0.0000 0.4582 0.0000 19.3400
#
#
#
# Elastic Compliance Matrix: (Units=1/GPa)
#
#
# Indices 1 2 3 4 5 6 
#
# 1 0.013482 0.001278 -0.006487 0.000000 0.000415 0.000000
# 2 0.001278 0.010853 -0.004211 0.000000 0.004316 0.000000
# 3 -0.006487 -0.004211 0.016998 0.000000 0.000989 0.000000
# 4 0.000000 0.000000 0.000000 0.071570 0.000000 -0.001696
# 5 0.000415 0.004316 0.000989 0.000000 0.036871 0.000000
# 6 0.000000 0.000000 0.000000 -0.001696 0.000000 0.051746
#
#
# Mechanical properties :
#
#
# Convention : Reuss Voigt Hill
#
# Bulk Modulus (GPa) = 44.45910 46.50555 45.48233
# Shear Modulus (GPa) = 21.94352 26.45955 24.20153
#
# Velocity S-wave (km/s) = 3.22054 3.53644 3.38218
# Velocity P-wave (km/s) = 5.90282 6.21745 6.06217
#
# Compressibility (1/GPa) = 0.02249258
#
# Stress axis : x y z
#
# Youngs Moduli (GPa) = 74.17318 92.14321 58.83070
#
# Poissons Ratio (x) = -0.11775 0.38161
# Poissons Ratio (y) = -0.09478 0.24775
# Poissons Ratio (z) = 0.48113 0.38804
#
# Static dielectric constant tensor:
#      x y z
#    x 1.750930 0.000000 -0.009850 
#    y 0.000000 1.782490 0.000000 
#    z -0.009850 0.000000 1.761930 
# 
# From -- ./inp_files/263420.got.cif
#   From: 2010.05.17/outbox.cif.g08.bks.cpg/sg12_132_cif.got.tgz:263420.got - 2010.06.03 13:09:07.
