data_PCOD9201738
_publ_section_title
;
Structure prediction by ZEFSAII (Michael W. Deem and Ramdas Pophale) SiO2 
 PCOD9201738
Probable space group: C 2/M
;
_chemical_formula_sum "Si O2"
_cell_formula_units_Z 44
_cell_length_a 18.819278
_cell_length_b 14.011349
_cell_length_c 7.847787
_cell_angle_alpha 90.000000
_cell_angle_beta 73.324728
_cell_angle_gamma 90.000000
_cell_volume 1982.308929
_symmetry_space_group_name_H-M "C 2/M"
_symmetry_group_IT_number 12
_symmetry_cell_setting 'monoclinic'
loop_
_space_group_symop_operation_xyz
x,y,z
-x,y,-z
-x,-y,-z
x,-y,z
1/2+x,1/2+y,z
1/2-x,1/2+y,-z
1/2-x,1/2-y,-z
1/2+x,1/2-y,z
loop_
_atom_site_type_symbol
_atom_site_label
_atom_site_fract_x
_atom_site_fract_y
_atom_site_fract_z
Si Si1 0.586309 0.316820 0.882103
Si Si2 0.802948 0.500000 0.539538
Si Si3 0.918737 0.850156 0.517887
Si Si4 0.417980 0.865444 0.616831
Si Si5 0.912478 0.605472 0.017974
Si Si6 0.299248 0.500000 0.712188
Si Si7 0.680737 0.500000 0.921297
O O1 0.589165 0.336384 0.678624
O O2 0.630911 0.403830 0.939124
O O3 0.500000 0.320029 0.000000
O O4 0.616386 0.208745 0.896318
O O5 0.856563 0.410422 0.536951
O O6 0.762852 0.500000 0.388077
O O7 0.739269 0.500000 0.727599
O O8 0.916858 0.747790 0.607593
O O9 0.852502 0.911055 0.637411
O O10 0.000000 0.891947 0.500000
O O11 0.500000 0.894953 0.500000
O O12 0.403868 0.894252 0.820244
O O13 0.888255 0.500000 0.097449
O O14 0.000000 0.609281 0.000000
O O15 0.278686 0.500000 0.924293
#
# Coordination Sequence:
#
# PCOD9201738 Si02
#       7
#     8   4   8   8   8   4   4
#     4  11  21  41  69 107 141 179 236 290 349 418
#     4  12  27  48  67 100 146 184 238 284 356 425
#     4  11  22  42  73 105 138 180 236 293 346 418
#     4  11  23  45  71  99 135 184 235 294 348 412
#     4  10  20  37  64 102 140 169 233 290 347 412
#     4  12  25  48  70 103 143 185 233 282 364 420
#     4  12  25  48  68 100 142 191 235 288 350 425
#
# _framework density 22.196338999999998
#
# number of rings (size 3 to 8) (size 9 to 14) (size 15 to 20)
#    0.000    0.909    2.727    7.364    0.000    0.727 
#    8.182    1.818    0.000    0.000    0.000    0.000 
#    0.000    0.000    0.000    0.000    0.000    0.000 
#
# Total GULP energy -123094.771257 kJ/mol
# GULP energy per Si atom -5595.216875 kJ/mol
# Density = 2.214582 g / cm^3
# Si number density = 22.196339 Si / 1000 Ang^3
#
#
#
# Elastic Constant Matrix: (Units=GPa)
#
#
# Indices 1 2 3 4 5 6 
#
# 1 130.4016 58.5855 42.6641 0.0000 15.9947 0.0000
# 2 58.5855 182.0949 30.5227 0.0000 2.7065 0.0000
# 3 42.6641 30.5227 120.9464 0.0000 17.7611 0.0000
# 4 0.0000 0.0000 0.0000 13.4955 0.0000 21.3362
# 5 15.9947 2.7065 17.7611 0.0000 48.5694 0.0000
# 6 0.0000 0.0000 0.0000 21.3362 0.0000 8.3378
#
#
#
# Elastic Compliance Matrix: (Units=1/GPa)
#
#
# Indices 1 2 3 4 5 6 
#
# 1 0.010003 -0.002766 -0.002504 0.000000 -0.002224 0.000000
# 2 -0.002766 0.006501 -0.000788 0.000000 0.000837 0.000000
# 3 -0.002504 -0.000788 0.009746 0.000000 -0.002695 0.000000
# 4 0.000000 0.000000 0.000000 -0.024329 0.000000 0.062257
# 5 -0.002224 0.000837 -0.002695 0.000000 0.022261 0.000000
# 6 0.000000 0.000000 0.000000 0.062257 0.000000 -0.039379
#
#
# Mechanical properties :
#
#
# Convention : Reuss Voigt Hill
#
# Bulk Modulus (GPa) = 70.74506 77.44304 74.09405
# Shear Modulus (GPa) = 3066.94081 34.19192 1550.56637
#
# Velocity S-wave (km/s) = 37.21199 3.92909 26.45912
# Velocity P-wave (km/s) = 43.33880 7.45315 31.09502
#
# Compressibility (1/GPa) = 0.01413526
#
# Stress axis : x y z
#
# Youngs Moduli (GPa) = 99.96798 153.82146 102.60492
#
# Poissons Ratio (x) = 0.42540 0.25693
# Poissons Ratio (y) = 0.27647 0.08085
# Poissons Ratio (z) = 0.25033 0.12120
#
# Static dielectric constant tensor:
#      x y z
#    x 1.778650 0.000000 0.000340 
#    y 0.000000 1.826230 0.000000 
#    z 0.000340 0.000000 1.815790 
# 
# From -- ./inp_files/73074.got.cif
#   From: 2010.05.17/outbox.cif.g08.bks.cpg/sg12_37_cif.got.tgz:73074.got - 2010.06.03 13:09:07.
