data_PCOD9201930
_publ_section_title
;
Structure prediction by ZEFSAII (Michael W. Deem and Ramdas Pophale) SiO2 
 PCOD9201930
Probable space group: C 2/M
;
_chemical_formula_sum "Si O2"
_cell_formula_units_Z 60
_cell_length_a 20.119075
_cell_length_b 9.977773
_cell_length_c 17.754307
_cell_angle_alpha 90.000000
_cell_angle_beta 57.787397
_cell_angle_gamma 90.000000
_cell_volume 3015.467799
_symmetry_space_group_name_H-M "C 2/M"
_symmetry_group_IT_number 12
_symmetry_cell_setting 'monoclinic'
loop_
_space_group_symop_operation_xyz
x,y,z
-x,y,-z
-x,-y,-z
x,-y,z
1/2+x,1/2+y,z
1/2-x,1/2+y,-z
1/2-x,1/2-y,-z
1/2+x,1/2-y,z
loop_
_atom_site_type_symbol
_atom_site_label
_atom_site_fract_x
_atom_site_fract_y
_atom_site_fract_z
Si Si1 0.985432 0.659149 0.128581
Si Si2 0.241181 0.000000 0.186381
Si Si3 0.759661 0.644272 0.927869
Si Si4 0.872218 0.249401 0.733890
Si Si5 0.323889 0.340985 0.480490
Si Si6 0.628192 0.781360 0.938730
Si Si7 0.528390 0.344573 0.717943
Si Si8 0.094069 0.347532 0.447303
O O1 0.969364 0.500000 0.147399
O O2 0.927053 0.719219 0.100816
O O3 0.974319 0.744274 0.210212
O O4 0.072319 0.676426 0.041507
O O5 0.179100 0.117540 0.247883
O O6 0.304030 0.114068 0.120654
O O7 0.769682 0.500000 0.957492
O O8 0.831434 0.675495 0.828853
O O9 0.678215 0.651689 0.930546
O O10 0.750000 0.750000 0.000000
O O11 0.874645 0.334878 0.656668
O O12 0.959322 0.203822 0.704394
O O13 0.305518 0.500000 0.506361
O O14 0.250000 0.250000 0.500000
O O15 0.388895 0.338567 0.375013
O O16 0.364087 0.264405 0.526748
O O17 0.513478 0.500000 0.749141
O O18 0.107882 0.500000 0.467627
O O19 0.000000 0.326254 0.500000
#
# Coordination Sequence:
#
# PCOD9201930 Si02
#       8
#     8   4   8   8   8   8   8   8
#     4  11  22  39  69  93 128 180 229 274 331 397
#     4  10  20  37  67  94 134 167 222 276 335 394
#     4  11  26  40  62  94 136 174 219 278 339 395
#     4  11  23  41  69  97 133 175 228 276 342 403
#     4  11  26  48  72 100 141 181 228 286 353 417
#     4  10  21  41  63  92 134 172 228 276 331 395
#     4  11  25  44  65  98 136 175 225 278 338 409
#     4  11  24  44  74 103 137 176 228 289 348 412
#
# _framework density 19.897411000000002
#
# number of rings (size 3 to 8) (size 9 to 14) (size 15 to 20)
#    0.000    1.200    3.333    2.000    4.667    7.733 
#    0.000    2.667    0.000    0.000    0.000    0.000 
#    0.000    0.000    0.000    0.000    0.000    0.000 
#
# Total GULP energy -167018.659076 kJ/mol
# GULP energy per Si atom -5567.288636 kJ/mol
# Density = 1.985212 g / cm^3
# Si number density = 19.897411 Si / 1000 Ang^3
#
#
#
# Elastic Constant Matrix: (Units=GPa)
#
#
# Indices 1 2 3 4 5 6 
#
# 1 74.8474 47.7041 40.8151 0.0000 -13.1148 0.0000
# 2 47.7041 136.0453 40.1231 0.0001 -5.3981 -0.0001
# 3 40.8151 40.1231 89.3739 0.0000 0.2106 0.0000
# 4 0.0000 0.0001 0.0000 -30.2842 0.0000 39.4902
# 5 -13.1148 -5.3981 0.2106 0.0000 30.0478 0.0000
# 6 0.0000 -0.0001 0.0000 39.4902 0.0000 -18.4848
#
#
#
# Elastic Compliance Matrix: (Units=1/GPa)
#
#
# Indices 1 2 3 4 5 6 
#
# 1 0.022632 -0.005215 -0.008015 0.000000 0.008997 0.000000
# 2 -0.005215 0.009747 -0.001993 0.000000 -0.000511 0.000000
# 3 -0.008015 -0.001993 0.015753 0.000000 -0.003967 0.000000
# 4 0.000000 0.000000 0.000000 0.018491 0.000000 0.039503
# 5 0.008997 -0.000511 -0.003967 0.000000 0.037143 0.000000
# 6 0.000000 0.000000 0.000000 0.039503 0.000000 0.030294
#
#
# Mechanical properties :
#
#
# Convention : Reuss Voigt Hill
#
# Bulk Modulus (GPa) = 56.54404 61.95013 59.24708
# Shear Modulus (GPa) = 29.34265 7.69739 18.52002
#
# Velocity S-wave (km/s) = 3.84434 1.96899 3.05417
# Velocity P-wave (km/s) = 6.94153 6.03089 6.50217
#
# Compressibility (1/GPa) = 0.01768533
#
# Stress axis : x y z
#
# Youngs Moduli (GPa) = 44.18611 102.60079 63.47814
#
# Poissons Ratio (x) = 0.53504 0.50881
# Poissons Ratio (y) = 0.23042 0.12650
# Poissons Ratio (z) = 0.35417 0.20447
#
# Static dielectric constant tensor:
#      x y z
#    x 1.745270 0.000000 0.004200 
#    y 0.000000 1.817220 0.000000 
#    z 0.004200 0.000000 1.671260 
# 
# From -- ./inp_files/320459.got.cif
#   From: 2010.05.17/outbox.cif.g08.bks.cpg/sg12_161_cif.got.tgz:320459.got - 2010.06.03 13:09:07.
