data_PCOD9201467
_publ_section_title
;
Structure prediction by ZEFSAII (Michael W. Deem and Ramdas Pophale) SiO2 
 PCOD9201467
Probable space group: C 2/M
;
_chemical_formula_sum "Si O2"
_cell_formula_units_Z 64
_cell_length_a 15.804542
_cell_length_b 8.920417
_cell_length_c 28.998276
_cell_angle_alpha 90.000000
_cell_angle_beta 123.410365
_cell_angle_gamma 90.000000
_cell_volume 3412.673783
_symmetry_space_group_name_H-M "C 2/M"
_symmetry_group_IT_number 12
_symmetry_cell_setting 'monoclinic'
loop_
_space_group_symop_operation_xyz
x,y,z
-x,y,-z
-x,-y,-z
x,-y,z
1/2+x,1/2+y,z
1/2-x,1/2+y,-z
1/2-x,1/2-y,-z
1/2+x,1/2-y,z
loop_
_atom_site_type_symbol
_atom_site_label
_atom_site_fract_x
_atom_site_fract_y
_atom_site_fract_z
Si Si1 0.868941 0.319827 0.743361
Si Si2 0.909547 0.319971 0.936746
Si Si3 0.368126 0.321240 0.332170
Si Si4 0.032592 0.679792 0.325358
Si Si5 0.780226 0.180938 0.058184
Si Si6 0.596473 0.821630 0.561446
Si Si7 0.274511 0.179262 0.556673
Si Si8 0.484705 0.320417 0.864104
O O1 0.875002 0.500000 0.750470
O O2 0.750181 0.280060 0.705950
O O3 0.921253 0.281103 0.710445
O O4 0.924734 0.242365 0.802399
O O5 0.907611 0.500000 0.929398
O O6 0.802969 0.274351 0.928339
O O7 0.936192 0.243137 0.896537
O O8 0.000000 0.286414 0.000000
O O9 0.375651 0.500000 0.339514
O O10 0.430070 0.264904 0.306732
O O11 0.415964 0.241125 0.391092
O O12 0.017278 0.500000 0.322230
O O13 0.116289 0.718508 0.389353
O O14 0.896351 0.223755 0.103345
O O15 0.775359 0.000000 0.053225
O O16 0.750000 0.250000 0.000000
O O17 0.500000 0.792849 0.500000
O O18 0.691657 0.738742 0.567578
O O19 0.613072 0.000000 0.567720
O O20 0.250000 0.250000 0.500000
O O21 0.269243 0.000000 0.551660
O O22 0.480039 0.500000 0.863530
#
# Coordination Sequence:
#
# PCOD9201467 Si02
#       8
#     8   8   8   8   8   8   8   8
#     4  10  23  45  65  84 121 167 207 249 304 366
#     4  10  20  37  62  89 122 166 204 239 300 366
#     4  11  23  41  65  92 119 158 207 257 309 365
#     4  10  22  42  64  88 122 161 202 253 309 368
#     4  10  21  37  59  89 124 159 200 247 298 355
#     4  11  23  38  58  88 124 161 201 251 311 370
#     4  11  22  38  59  88 125 160 202 252 308 371
#     4  11  24  39  60  93 126 157 203 258 301 349
#
# _framework density 18.753623999999999
#
# number of rings (size 3 to 8) (size 9 to 14) (size 15 to 20)
#    0.000    1.500    2.500    2.250    0.000    8.750 
#    0.000    3.750    0.000    0.000    0.000    0.000 
#    0.000    0.000    0.000    0.000    0.000    0.000 
#
# Total GULP energy -178845.630343 kJ/mol
# GULP energy per Si atom -5588.925948 kJ/mol
# Density = 1.871094 g / cm^3
# Si number density = 18.753624 Si / 1000 Ang^3
#
#
#
# Elastic Constant Matrix: (Units=GPa)
#
#
# Indices 1 2 3 4 5 6 
#
# 1 173.8263 47.0708 74.1158 0.0000 -2.3731 0.0000
# 2 47.0708 30.3283 51.4704 0.0000 -0.0377 0.0000
# 3 74.1158 51.4704 137.5713 0.0000 -10.2469 0.0000
# 4 0.0000 0.0000 0.0000 30.4011 0.0000 -3.2334
# 5 -2.3731 -0.0377 -10.2469 0.0000 21.9820 0.0000
# 6 0.0000 0.0000 0.0000 -3.2334 0.0000 34.4105
#
#
#
# Elastic Compliance Matrix: (Units=1/GPa)
#
#
# Indices 1 2 3 4 5 6 
#
# 1 0.010050 -0.018161 0.001511 0.000000 0.001758 0.000000
# 2 -0.018161 0.129040 -0.040014 0.000000 -0.020392 0.000000
# 3 0.001511 -0.040014 0.022204 0.000000 0.010445 0.000000
# 4 0.000000 0.000000 0.000000 0.033226 0.000000 0.003122
# 5 0.001758 -0.020392 0.010445 0.000000 0.050516 0.000000
# 6 0.000000 0.000000 0.000000 0.003122 0.000000 0.029354
#
#
# Mechanical properties :
#
#
# Convention : Reuss Voigt Hill
#
# Bulk Modulus (GPa) = 20.84738 76.33777 48.59257
# Shear Modulus (GPa) = 12.38526 28.62998 20.50762
#
# Velocity S-wave (km/s) = 2.57265 3.91146 3.31044
# Velocity P-wave (km/s) = 4.46825 7.82262 6.37019
#
# Compressibility (1/GPa) = 0.04796765
#
# Stress axis : x y z
#
# Youngs Moduli (GPa) = 99.49854 7.74951 45.03790
#
# Poissons Ratio (x) = 0.14074 -0.06805
# Poissons Ratio (y) = 1.80695 1.80213
# Poissons Ratio (z) = -0.15033 0.31009
#
# Static dielectric constant tensor:
#      x y z
#    x 1.669980 0.000000 0.001960 
#    y 0.000000 1.624240 0.000000 
#    z 0.001960 0.000000 1.635300 
# 
# From -- ./inp_files/375694.got.cif
#   From: 2010.05.17/outbox.cif.g08.bks.cpg/sg12_188_cif.got.tgz:375694.got - 2010.06.03 13:09:07.
