data_PCOD9201474
_publ_section_title
;
Structure prediction by ZEFSAII (Michael W. Deem and Ramdas Pophale) SiO2 
 PCOD9201474
Probable space group: C 2/M
;
_chemical_formula_sum "Si O2"
_cell_formula_units_Z 56
_cell_length_a 18.605058
_cell_length_b 14.256749
_cell_length_c 12.437923
_cell_angle_alpha 90.000000
_cell_angle_beta 64.991953
_cell_angle_gamma 90.000000
_cell_volume 2989.831130
_symmetry_space_group_name_H-M "C 2/M"
_symmetry_group_IT_number 12
_symmetry_cell_setting 'monoclinic'
loop_
_space_group_symop_operation_xyz
x,y,z
-x,y,-z
-x,-y,-z
x,-y,z
1/2+x,1/2+y,z
1/2-x,1/2+y,-z
1/2-x,1/2-y,-z
1/2+x,1/2-y,z
loop_
_atom_site_type_symbol
_atom_site_label
_atom_site_fract_x
_atom_site_fract_y
_atom_site_fract_z
Si Si1 0.242563 0.211626 0.683266
Si Si2 0.892565 0.888965 0.358992
Si Si3 0.180932 0.764608 0.960443
Si Si4 0.915115 0.283744 0.496802
Si Si5 0.083891 0.394732 0.932305
Si Si6 0.967012 0.108476 0.899714
Si Si7 0.343327 0.106408 0.346251
O O1 0.191586 0.140608 0.641252
O O2 0.210325 0.200267 0.824743
O O3 0.337183 0.201915 0.619930
O O4 0.220945 0.313882 0.645120
O O5 0.909741 0.820480 0.448101
O O6 0.961924 0.867225 0.227381
O O7 0.894054 0.000000 0.381470
O O8 0.147824 0.662328 0.955284
O O9 0.250000 0.750000 0.000000
O O10 0.110751 0.827652 0.053511
O O11 0.896233 0.354699 0.410227
O O12 0.000000 0.297531 0.500000
O O13 0.079004 0.500000 0.977607
O O14 0.104110 0.396903 0.794524
O O15 0.000000 0.345473 0.000000
O O16 0.945387 0.000000 0.891950
O O17 0.000000 0.113998 0.000000
O O18 0.313689 0.000000 0.384785
#
# Coordination Sequence:
#
# PCOD9201474 Si02
#       7
#     8   8   8   8   8   8   8
#     4  10  22  39  57  86 112 151 199 239 276 345
#     4  10  21  40  65  86 112 155 200 242 286 338
#     4  11  23  34  58  86 121 156 180 230 305 342
#     4  11  25  38  56  86 124 147 190 240 292 349
#     4   9  19  35  57  83 109 146 196 233 269 334
#     4  10  20  37  62  90 115 148 198 243 283 345
#     4   9  19  38  60  80 107 150 195 235 276 329
#
# _framework density 18.730153999999999
#
# number of rings (size 3 to 8) (size 9 to 14) (size 15 to 20)
#    0.000    2.000    1.429    2.143    6.000    3.429 
#    0.000    0.000    0.000    0.000    0.000    0.000 
#    0.000    0.000    0.000    0.000    0.000    0.000 
#
# Total GULP energy -156179.471894 kJ/mol
# GULP energy per Si atom -5577.838282 kJ/mol
# Density = 1.868752 g / cm^3
# Si number density = 18.730154 Si / 1000 Ang^3
#
#
#
# Elastic Constant Matrix: (Units=GPa)
#
#
# Indices 1 2 3 4 5 6 
#
# 1 122.3545 15.2486 32.3509 0.0000 -10.5495 0.0000
# 2 15.2486 71.6991 18.3714 0.0000 -8.8388 0.0000
# 3 32.3509 18.3714 48.3830 0.0000 -15.0046 0.0000
# 4 0.0000 0.0000 0.0000 23.3751 0.0000 -3.4796
# 5 -10.5495 -8.8388 -15.0046 0.0000 31.2142 0.0000
# 6 0.0000 0.0000 0.0000 -3.4796 0.0000 -44.5593
#
#
#
# Elastic Compliance Matrix: (Units=1/GPa)
#
#
# Indices 1 2 3 4 5 6 
#
# 1 0.009942 -0.000449 -0.006434 0.000000 0.000140 0.000000
# 2 -0.000449 0.015560 -0.005040 0.000000 0.001832 0.000000
# 3 -0.006434 -0.005040 0.030281 0.000000 0.010955 0.000000
# 4 0.000000 0.000000 0.000000 0.042289 0.000000 -0.003302
# 5 0.000140 0.001832 0.010955 0.000000 0.037869 0.000000
# 6 0.000000 0.000000 0.000000 -0.003302 0.000000 -0.022184
#
#
# Mechanical properties :
#
#
# Convention : Reuss Voigt Hill
#
# Bulk Modulus (GPa) = 31.31065 41.59762 36.45414
# Shear Modulus (GPa) = 33.72720 13.77036 23.74878
#
# Velocity S-wave (km/s) = 4.24806 2.71439 3.56468
# Velocity P-wave (km/s) = 6.38861 5.66401 6.03719
#
# Compressibility (1/GPa) = 0.03193801
#
# Stress axis : x y z
#
# Youngs Moduli (GPa) = 100.58223 64.26807 33.02354
#
# Poissons Ratio (x) = 0.02883 0.21247
# Poissons Ratio (y) = 0.04512 0.16645
# Poissons Ratio (z) = 0.64713 0.32393
#
# Static dielectric constant tensor:
#      x y z
#    x 1.604630 0.000000 -0.044850 
#    y 0.000000 1.675740 0.000000 
#    z -0.044850 0.000000 1.677350 
# 
# From -- ./inp_files/155996.got.cif
#   From: 2010.05.17/outbox.cif.g08.bks.cpg/sg12_78_cif.got.tgz:155996.got - 2010.06.03 13:09:07.
