data_PCOD9201337
_publ_section_title
;
Structure prediction by ZEFSAII (Michael W. Deem and Ramdas Pophale) SiO2 
 PCOD9201337
Probable space group: C 2/M
;
_chemical_formula_sum "Si O2"
_cell_formula_units_Z 48
_cell_length_a 18.629555
_cell_length_b 15.326893
_cell_length_c 18.393825
_cell_angle_alpha 90.000000
_cell_angle_beta 28.199220
_cell_angle_gamma 90.000000
_cell_volume 2481.796117
_symmetry_space_group_name_H-M "C 2/M"
_symmetry_group_IT_number 12
_symmetry_cell_setting 'monoclinic'
loop_
_space_group_symop_operation_xyz
x,y,z
-x,y,-z
-x,-y,-z
x,-y,z
1/2+x,1/2+y,z
1/2-x,1/2+y,-z
1/2-x,1/2-y,-z
1/2+x,1/2-y,z
loop_
_atom_site_type_symbol
_atom_site_label
_atom_site_fract_x
_atom_site_fract_y
_atom_site_fract_z
Si Si1 0.683131 0.405863 0.825524
Si Si2 0.088873 0.269432 0.108715
Si Si3 0.375567 0.601608 0.287116
Si Si4 0.174346 0.099092 0.369892
Si Si5 0.334316 0.773796 0.116197
Si Si6 0.324356 0.103217 0.390367
O O1 0.747814 0.500000 0.789323
O O2 0.705385 0.391566 0.719288
O O3 0.741422 0.322113 0.817008
O O4 0.500000 0.412601 0.000000
O O5 0.003041 0.176691 0.173798
O O6 0.970210 0.334169 0.253407
O O7 0.250000 0.250000 0.000000
O O8 0.135934 0.310670 0.989478
O O9 0.430762 0.500000 0.242571
O O10 0.266833 0.617304 0.453224
O O11 0.254584 0.164009 0.243626
O O12 0.215289 0.121337 0.417266
O O13 0.000000 0.100904 0.500000
O O14 0.229790 0.000000 0.309896
O O15 0.500000 0.758218 0.000000
O O16 0.364603 0.000000 0.351605
#
# Coordination Sequence:
#
# PCOD9201337 Si02
#       6
#     8   8   8   8   8   8
#     4   9  16  32  60  85 107 141 190 238 284 341
#     4  12  25  38  57  90 123 157 198 242 298 357
#     4  10  20  37  62  85 110 153 198 240 296 354
#     4  10  22  39  61  87 115 154 202 248 295 352
#     4  11  20  38  60  86 115 155 196 242 297 347
#     4  10  22  41  61  85 121 158 196 246 300 354
#
# _framework density 19.340831999999999
#
# number of rings (size 3 to 8) (size 9 to 14) (size 15 to 20)
#    0.000    1.667    5.000    0.500    2.333    1.667 
#    0.000    0.000    0.000    0.500    0.000    0.000 
#    0.000    0.000    0.000    0.000    0.000    0.000 
#
# Total GULP energy -133742.438134 kJ/mol
# GULP energy per Si atom -5572.601589 kJ/mol
# Density = 1.929681 g / cm^3
# Si number density = 19.340832 Si / 1000 Ang^3
#
#
#
# Elastic Constant Matrix: (Units=GPa)
#
#
# Indices 1 2 3 4 5 6 
#
# 1 42.7861 -3.7411 31.3511 -0.0002 11.3187 0.0001
# 2 -3.7411 75.2335 48.1084 -0.0010 5.5626 0.0005
# 3 31.3511 48.1084 68.2085 -0.0013 28.1356 0.0007
# 4 -0.0002 -0.0010 -0.0013 8.7386 0.0006 14.6495
# 5 11.3187 5.5626 28.1356 0.0006 37.6699 -0.0003
# 6 0.0001 0.0005 0.0007 14.6495 -0.0003 18.4243
#
#
#
# Elastic Compliance Matrix: (Units=1/GPa)
#
#
# Indices 1 2 3 4 5 6 
#
# 1 0.144497 0.115411 -0.177593 0.000066 0.072184 -0.000048
# 2 0.115411 0.122051 -0.169666 0.000061 0.074022 -0.000044
# 3 -0.177593 -0.169666 0.265369 -0.000106 -0.119788 0.000078
# 4 0.000066 0.000061 -0.000106 -0.343696 0.000058 0.273280
# 5 0.072184 0.074022 -0.119788 0.000058 0.083396 -0.000043
# 6 -0.000048 -0.000044 0.000078 0.273280 -0.000043 -0.163014
#
#
# Mechanical properties :
#
#
# Convention : Reuss Voigt Hill
#
# Bulk Modulus (GPa) = 14.65798 37.51831 26.08815
# Shear Modulus (GPa) = 8.40280 20.33386 14.36833
#
# Velocity S-wave (km/s) = 2.08663 3.24596 2.72858
# Velocity P-wave (km/s) = 3.66068 5.78696 4.84198
#
# Compressibility (1/GPa) = 0.06822223
#
# Stress axis : x y z
#
# Youngs Moduli (GPa) = 6.92054 8.19327 3.76834
#
# Poissons Ratio (x) = -0.94559 0.66923
# Poissons Ratio (y) = -0.79871 0.63936
# Poissons Ratio (z) = 1.22904 1.39012
#
# Static dielectric constant tensor:
#      x y z
#    x 1.969050 0.000000 -0.272370 
#    y 0.000000 1.746660 0.000000 
#    z -0.272370 0.000000 1.912550 
# 
# From -- ./inp_files/278022.got.cif
#   From: 2010.05.17/outbox.cif.g08.bks.cpg/sg12_140_cif.got.tgz:278022.got - 2010.06.03 13:09:07.
