data_PCOD9201833
_publ_section_title
;
Structure prediction by ZEFSAII (Michael W. Deem and Ramdas Pophale) SiO2 
 PCOD9201833
Probable space group: C 2/M
;
_chemical_formula_sum "Si O2"
_cell_formula_units_Z 44
_cell_length_a 18.960231
_cell_length_b 14.711295
_cell_length_c 12.561996
_cell_angle_alpha 90.000000
_cell_angle_beta 38.114794
_cell_angle_gamma 90.000000
_cell_volume 2162.751239
_symmetry_space_group_name_H-M "C 2/M"
_symmetry_group_IT_number 12
_symmetry_cell_setting 'monoclinic'
loop_
_space_group_symop_operation_xyz
x,y,z
-x,y,-z
-x,-y,-z
x,-y,z
1/2+x,1/2+y,z
1/2-x,1/2+y,-z
1/2-x,1/2-y,-z
1/2+x,1/2-y,z
loop_
_atom_site_type_symbol
_atom_site_label
_atom_site_fract_x
_atom_site_fract_y
_atom_site_fract_z
Si Si1 0.238832 0.000000 0.052417
Si Si2 0.060401 0.107564 0.814494
Si Si3 0.636844 0.000000 0.323516
Si Si4 0.026766 0.000000 0.592081
Si Si5 0.471454 0.690170 0.357505
Si Si6 0.280506 0.698138 0.854461
Si Si7 0.219683 0.319863 0.344546
O O1 0.261124 0.905654 0.086766
O O2 0.311452 0.000000 0.857320
O O3 0.099715 0.000000 0.201242
O O4 0.995574 0.167786 0.803425
O O5 0.183426 0.152698 0.687088
O O6 0.068190 0.000000 0.776445
O O7 0.000000 0.110792 0.000000
O O8 0.500000 0.000000 0.500000
O O9 0.684329 0.910956 0.325098
O O10 0.089140 0.094273 0.541650
O O11 0.000000 0.000000 0.500000
O O12 0.581076 0.698303 0.302821
O O13 0.388552 0.773979 0.470205
O O14 0.243161 0.749620 0.792532
O O15 0.250000 0.750000 0.000000
#
# Coordination Sequence:
#
# PCOD9201833 Si02
#       7
#     4   8   4   4   8   8   8
#     4  10  22  36  62  91 133 164 211 260 328 370
#     4  11  24  42  66  90 123 169 217 270 324 390
#     4  12  24  39  58  93 134 176 207 259 317 401
#     4  10  20  37  64  99 126 158 208 273 326 376
#     4  11  22  39  63  92 125 166 210 266 324 381
#     4  11  21  37  63  95 127 163 209 265 322 380
#     4  12  24  40  62  93 129 168 216 264 326 387
#
# _framework density 20.344457999999999
#
# number of rings (size 3 to 8) (size 9 to 14) (size 15 to 20)
#    0.000    0.909    3.636    5.455    2.545    0.000 
#    0.000    0.000    0.000    0.000    0.000    3.182 
#    0.000    0.000    0.000    0.000    0.000    0.000 
#
# Total GULP energy -122884.243358 kJ/mol
# GULP energy per Si atom -5585.647425 kJ/mol
# Density = 2.029815 g / cm^3
# Si number density = 20.344458 Si / 1000 Ang^3
#
#
#
# Elastic Constant Matrix: (Units=GPa)
#
#
# Indices 1 2 3 4 5 6 
#
# 1 45.5319 3.4755 5.1358 0.0000 5.2593 0.0000
# 2 3.4755 130.5588 27.4809 0.0000 6.0006 0.0000
# 3 5.1358 27.4809 82.5488 0.0000 6.1377 0.0000
# 4 0.0000 0.0000 0.0000 34.9326 0.0000 12.0925
# 5 5.2593 6.0006 6.1377 0.0000 28.3491 0.0000
# 6 0.0000 0.0000 0.0000 12.0925 0.0000 19.6362
#
#
#
# Elastic Compliance Matrix: (Units=1/GPa)
#
#
# Indices 1 2 3 4 5 6 
#
# 1 0.022548 -0.000200 -0.001045 0.000000 -0.003914 0.000000
# 2 -0.000200 0.008277 -0.002658 0.000000 -0.001139 0.000000
# 3 -0.001045 -0.002658 0.013221 0.000000 -0.002106 0.000000
# 4 0.000000 0.000000 0.000000 0.036382 0.000000 -0.022405
# 5 -0.003914 -0.001139 -0.002106 0.000000 0.036698 0.000000
# 6 0.000000 0.000000 0.000000 -0.022405 0.000000 0.064724
#
#
# Mechanical properties :
#
#
# Convention : Reuss Voigt Hill
#
# Bulk Modulus (GPa) = 27.59539 36.75819 32.17679
# Shear Modulus (GPa) = 24.78493 31.42009 28.10251
#
# Velocity S-wave (km/s) = 3.49415 3.93416 3.72066
# Velocity P-wave (km/s) = 5.46556 6.22446 5.85731
#
# Compressibility (1/GPa) = 0.03623793
#
# Stress axis : x y z
#
# Youngs Moduli (GPa) = 44.34994 120.82283 75.63983
#
# Poissons Ratio (x) = 0.02421 0.07905
# Poissons Ratio (y) = 0.00889 0.20106
# Poissons Ratio (z) = 0.04635 0.32116
#
# Static dielectric constant tensor:
#      x y z
#    x 1.723520 0.000000 0.019420 
#    y 0.000000 1.735920 0.000000 
#    z 0.019420 0.000000 1.796020 
# 
# From -- ./inp_files/156307.got.cif
#   From: 2010.05.17/outbox.cif.g08.bks.cpg/sg12_79_cif.got.tgz:156307.got - 2010.06.03 13:09:07.
