data_PCOD9201759
_publ_section_title
;
Structure prediction by ZEFSAII (Michael W. Deem and Ramdas Pophale) SiO2 
 PCOD9201759
Probable space group: C 2/M
;
_chemical_formula_sum "Si O2"
_cell_formula_units_Z 64
_cell_length_a 20.621393
_cell_length_b 14.331158
_cell_length_c 22.767811
_cell_angle_alpha 90.000000
_cell_angle_beta 28.494680
_cell_angle_gamma 90.000000
_cell_volume 3210.030692
_symmetry_space_group_name_H-M "C 2/M"
_symmetry_group_IT_number 12
_symmetry_cell_setting 'monoclinic'
loop_
_space_group_symop_operation_xyz
x,y,z
-x,y,-z
-x,-y,-z
x,-y,z
1/2+x,1/2+y,z
1/2-x,1/2+y,-z
1/2-x,1/2-y,-z
1/2+x,1/2-y,z
loop_
_atom_site_type_symbol
_atom_site_label
_atom_site_fract_x
_atom_site_fract_y
_atom_site_fract_z
Si Si1 0.406177 0.761403 0.859236
Si Si2 0.148923 0.195463 0.876577
Si Si3 0.983792 0.893082 0.706978
Si Si4 0.854878 0.897899 0.616125
Si Si5 0.212243 0.399798 0.855326
Si Si6 0.401544 0.888495 0.750002
Si Si7 0.342903 0.753183 0.263632
Si Si8 0.153503 0.737112 0.519987
O O1 0.473753 0.672924 0.771790
O O2 0.404372 0.845943 0.813775
O O3 0.503229 0.769506 0.838478
O O4 0.250000 0.750000 0.000000
O O5 0.137356 0.301293 0.911761
O O6 0.270897 0.147795 0.816220
O O7 0.175393 0.205766 0.785453
O O8 0.000000 0.149826 0.000000
O O9 0.826287 0.895979 0.813958
O O10 0.069453 0.835446 0.589842
O O11 0.031285 0.000000 0.676778
O O12 0.801470 0.902982 0.724849
O O13 0.730802 0.852394 0.682026
O O14 0.000000 0.846083 0.500000
O O15 0.879582 0.000000 0.570989
O O16 0.138351 0.500000 0.919413
O O17 0.538065 0.841608 0.615710
O O18 0.403709 0.000000 0.748275
O O19 0.250506 0.710850 0.388803
O O20 0.250000 0.750000 0.500000
#
# Coordination Sequence:
#
# PCOD9201759 Si02
#       8
#     8   8   8   8   8   8   8   8
#     4  11  23  44  66  93 130 173 223 276 333 393
#     4  11  23  42  66  94 132 179 220 277 336 397
#     4  10  20  37  64  90 122 165 207 261 329 392
#     4   9  18  31  52  87 124 155 192 247 318 387
#     4   9  17  33  57  87 118 156 203 251 313 386
#     4  11  25  46  69  96 134 180 229 279 334 398
#     4  11  23  37  63  96 126 168 219 274 333 397
#     4  11  21  42  63  95 129 169 219 277 340 404
#
# _framework density 19.937504000000001
#
# number of rings (size 3 to 8) (size 9 to 14) (size 15 to 20)
#    0.000    1.625    5.000    1.500    1.750    3.500 
#    0.000    1.875    0.000    0.000    0.000    0.000 
#    0.000    0.000    0.000    0.000    0.000    0.000 
#
# Total GULP energy -178191.919326 kJ/mol
# GULP energy per Si atom -5568.497479 kJ/mol
# Density = 1.989213 g / cm^3
# Si number density = 19.937504 Si / 1000 Ang^3
#
#
#
# Elastic Constant Matrix: (Units=GPa)
#
#
# Indices 1 2 3 4 5 6 
#
# 1 81.3355 36.9516 17.6010 0.0001 -19.4176 0.0004
# 2 36.9516 126.9027 36.9602 -0.0001 -14.3344 -0.0008
# 3 17.6010 36.9602 84.3164 -0.0002 -15.6834 -0.0007
# 4 0.0001 -0.0001 -0.0002 3.2542 0.0000 6.2604
# 5 -19.4176 -14.3344 -15.6834 0.0000 41.6836 0.0002
# 6 0.0004 -0.0008 -0.0007 6.2604 0.0002 -38.2450
#
#
#
# Elastic Compliance Matrix: (Units=1/GPa)
#
#
# Indices 1 2 3 4 5 6 
#
# 1 0.015458 -0.003697 -0.000541 -0.000001 0.005726 0.000000
# 2 -0.003697 0.010036 -0.003555 0.000000 0.000392 0.000000
# 3 -0.000541 -0.003555 0.014255 0.000001 0.003889 0.000000
# 4 -0.000001 0.000000 0.000001 0.233700 0.000000 0.038254
# 5 0.005726 0.000392 0.003889 0.000000 0.028255 0.000000
# 6 0.000000 0.000000 0.000000 0.038254 0.000000 -0.019885
#
#
# Mechanical properties :
#
#
# Convention : Reuss Voigt Hill
#
# Bulk Modulus (GPa) = 41.38494 52.84224 47.11359
# Shear Modulus (GPa) = 16.36880 14.74134 15.55507
#
# Velocity S-wave (km/s) = 2.86843 2.72210 2.79622
# Velocity P-wave (km/s) = 5.63675 6.03666 5.84013
#
# Compressibility (1/GPa) = 0.02416338
#
# Stress axis : x y z
#
# Youngs Moduli (GPa) = 64.68979 99.64100 70.15259
#
# Poissons Ratio (x) = 0.36834 0.03798
# Poissons Ratio (y) = 0.23914 0.24937
# Poissons Ratio (z) = 0.03502 0.35420
#
# Static dielectric constant tensor:
#      x y z
#    x 1.852630 0.000000 0.025450 
#    y 0.000000 1.765740 0.000000 
#    z 0.025450 0.000000 1.743540 
# 
# From -- ./inp_files/343993.got.cif
#   From: 2010.05.17/outbox.cif.g08.bks.cpg/sg12_172_cif.got.tgz:343993.got - 2010.06.03 13:09:07.
