data_PCOD9201887
_publ_section_title
;
Structure prediction by ZEFSAII (Michael W. Deem and Ramdas Pophale) SiO2 
 PCOD9201887
Probable space group: C 2/M
;
_chemical_formula_sum "Si O2"
_cell_formula_units_Z 42
_cell_length_a 14.558946
_cell_length_b 14.262839
_cell_length_c 11.849123
_cell_angle_alpha 90.000000
_cell_angle_beta 125.924741
_cell_angle_gamma 90.000000
_cell_volume 1992.478547
_symmetry_space_group_name_H-M "C 2/M"
_symmetry_group_IT_number 12
_symmetry_cell_setting 'monoclinic'
loop_
_space_group_symop_operation_xyz
x,y,z
-x,y,-z
-x,-y,-z
x,-y,z
1/2+x,1/2+y,z
1/2-x,1/2+y,-z
1/2-x,1/2-y,-z
1/2+x,1/2-y,z
loop_
_atom_site_type_symbol
_atom_site_label
_atom_site_fract_x
_atom_site_fract_y
_atom_site_fract_z
Si Si1 0.106504 0.215710 0.330251
Si Si2 0.173471 0.391705 0.822920
Si Si3 0.654926 0.830592 0.569936
Si Si4 0.468061 0.107962 0.847039
Si Si5 0.435586 0.609839 0.068734
Si Si6 0.000000 0.500000 0.500000
O O1 0.214315 0.153919 0.371378
O O2 0.115106 0.243632 0.466514
O O3 0.113201 0.313339 0.264083
O O4 0.991230 0.167341 0.209167
O O5 0.158543 0.500000 0.763220
O O6 0.154418 0.323253 0.704682
O O7 0.083323 0.384103 0.856725
O O8 0.301164 0.380150 0.957689
O O9 0.572924 0.917293 0.486045
O O10 0.427475 0.000000 0.810051
O O11 0.500000 0.126626 0.000000
O O12 0.459460 0.500000 0.101525
O O13 0.500000 0.639156 0.000000
#
# Coordination Sequence:
#
# PCOD9201887 Si02
#       6
#     8   8   8   8   8   2
#     4  11  24  40  60 102 142 177 224 292 361 410
#     4  10  20  39  70 100 126 177 243 289 345 416
#     4  11  24  39  64 100 133 173 234 294 344 413
#     4  10  23  42  64  95 137 181 228 290 358 421
#     4  10  20  37  65  99 141 183 231 298 354 418
#     4  12  24  44  72  94 132 186 248 298 332 424
#
# _framework density 21.079274000000002
#
# number of rings (size 3 to 8) (size 9 to 14) (size 15 to 20)
#    0.000    1.524    2.857    1.714    5.333    0.762 
#    3.429    0.000    0.000    0.000    0.000    6.667 
#    0.000    0.000    0.000    0.000    0.000    0.000 
#
# Total GULP energy -117153.963682 kJ/mol
# GULP energy per Si atom -5578.760175 kJ/mol
# Density = 2.103130 g / cm^3
# Si number density = 21.079274 Si / 1000 Ang^3
#
#
#
# Elastic Constant Matrix: (Units=GPa)
#
#
# Indices 1 2 3 4 5 6 
#
# 1 92.6486 31.2308 31.8488 0.0000 -11.8557 0.0000
# 2 31.2308 65.0015 35.0761 0.0000 5.2808 0.0000
# 3 31.8488 35.0761 109.8393 0.0000 -24.9387 0.0000
# 4 0.0000 0.0000 0.0000 38.4504 0.0000 4.8542
# 5 -11.8557 5.2808 -24.9387 0.0000 31.0829 0.0000
# 6 0.0000 0.0000 0.0000 4.8542 0.0000 31.1083
#
#
#
# Elastic Compliance Matrix: (Units=1/GPa)
#
#
# Indices 1 2 3 4 5 6 
#
# 1 0.014119 -0.007065 -0.000419 0.000000 0.006250 0.000000
# 2 -0.007065 0.024858 -0.009122 0.000000 -0.014237 0.000000
# 3 -0.000419 -0.009122 0.015228 0.000000 0.013608 0.000000
# 4 0.000000 0.000000 0.000000 0.026530 0.000000 -0.004140
# 5 0.006250 -0.014237 0.013608 0.000000 0.047893 0.000000
# 6 0.000000 0.000000 0.000000 -0.004140 0.000000 0.032792
#
#
# Mechanical properties :
#
#
# Convention : Reuss Voigt Hill
#
# Bulk Modulus (GPa) = 47.63459 51.53342 49.58400
# Shear Modulus (GPa) = 24.79802 31.41723 28.10762
#
# Velocity S-wave (km/s) = 3.43361 3.86480 3.65557
# Velocity P-wave (km/s) = 6.19407 6.66454 6.43361
#
# Compressibility (1/GPa) = 0.02099315
#
# Stress axis : x y z
#
# Youngs Moduli (GPa) = 70.82773 40.22873 65.66742
#
# Poissons Ratio (x) = 0.28423 0.02749
# Poissons Ratio (y) = 0.50042 0.59901
# Poissons Ratio (z) = 0.02965 0.36696
#
# Static dielectric constant tensor:
#      x y z
#    x 1.745730 0.000000 -0.026860 
#    y 0.000000 1.792020 0.000000 
#    z -0.026860 0.000000 1.623670 
# 
# From -- ./inp_files/143251.got.cif
#   From: 2010.05.17/outbox.cif.g08.bks.cpg/sg12_72_cif.got.tgz:143251.got - 2010.06.03 13:09:07.
