data_PCOD9201924
_publ_section_title
;
Structure prediction by ZEFSAII (Michael W. Deem and Ramdas Pophale) SiO2 
 PCOD9201924
Probable space group: C 2/M
;
_chemical_formula_sum "Si O2"
_cell_formula_units_Z 48
_cell_length_a 15.335813
_cell_length_b 14.269349
_cell_length_c 11.827589
_cell_angle_alpha 90.000000
_cell_angle_beta 59.986356
_cell_angle_gamma 90.000000
_cell_volume 2241.187001
_symmetry_space_group_name_H-M "C 2/M"
_symmetry_group_IT_number 12
_symmetry_cell_setting 'monoclinic'
loop_
_space_group_symop_operation_xyz
x,y,z
-x,y,-z
-x,-y,-z
x,-y,z
1/2+x,1/2+y,z
1/2-x,1/2+y,-z
1/2-x,1/2-y,-z
1/2+x,1/2-y,z
loop_
_atom_site_type_symbol
_atom_site_label
_atom_site_fract_x
_atom_site_fract_y
_atom_site_fract_z
Si Si1 0.349267 0.605044 0.399341
Si Si2 0.378422 0.100391 0.528546
Si Si3 0.109381 0.191587 0.401307
Si Si4 0.580023 0.720196 0.853825
Si Si5 0.012925 0.607605 0.214756
Si Si6 0.791757 0.728219 0.850373
O O1 0.389162 0.500000 0.389225
O O2 0.239107 0.599291 0.418748
O O3 0.329244 0.653720 0.532921
O O4 0.415874 0.663437 0.267477
O O5 0.396488 0.196044 0.582114
O O6 0.440397 0.106665 0.372033
O O7 0.399595 0.000000 0.572629
O O8 0.153230 0.183944 0.248278
O O9 0.000000 0.151722 0.500000
O O10 0.540969 0.823303 0.840656
O O11 0.691863 0.712582 0.836864
O O12 0.500000 0.685883 0.000000
O O13 0.022781 0.500000 0.169565
O O14 0.121656 0.650359 0.180035
O O15 0.750000 0.750000 0.000000
#
# Coordination Sequence:
#
# PCOD9201924 Si02
#       6
#     8   8   8   8   8   8
#     4  11  24  43  68  99 132 181 242 293 352 428
#     4  10  20  37  67 100 126 163 223 288 345 404
#     4  12  22  40  69  94 135 177 229 287 352 411
#     4  12  24  44  74  97 146 193 235 293 365 425
#     4  11  24  45  72 109 143 181 239 299 353 421
#     4  12  25  43  68 104 146 188 232 286 359 432
#
# _framework density 21.417221000000001
#
# number of rings (size 3 to 8) (size 9 to 14) (size 15 to 20)
#    0.000    0.667    6.667    1.500    0.000    2.667 
#    0.000    0.833    0.000    1.000    0.000    0.000 
#    0.000    0.000    0.000    0.000    0.000    0.000 
#
# Total GULP energy -133839.376390 kJ/mol
# GULP energy per Si atom -5576.640683 kJ/mol
# Density = 2.136847 g / cm^3
# Si number density = 21.417221 Si / 1000 Ang^3
#
#
#
# Elastic Constant Matrix: (Units=GPa)
#
#
# Indices 1 2 3 4 5 6 
#
# 1 100.7182 35.2012 14.5556 0.0000 -8.2172 0.0000
# 2 35.2012 111.3662 43.8841 0.0000 9.5709 0.0000
# 3 14.5556 43.8841 160.2085 0.0000 0.7881 0.0000
# 4 0.0000 0.0000 0.0000 -3.7293 0.0000 -7.8930
# 5 -8.2172 9.5709 0.7881 0.0000 40.4105 0.0000
# 6 0.0000 0.0000 0.0000 -7.8930 0.0000 24.6392
#
#
#
# Elastic Compliance Matrix: (Units=1/GPa)
#
#
# Indices 1 2 3 4 5 6 
#
# 1 0.011574 -0.003946 0.000013 0.000000 0.003288 0.000000
# 2 -0.003946 0.011636 -0.002811 0.000000 -0.003503 0.000000
# 3 0.000013 -0.002811 0.007008 0.000000 0.000532 0.000000
# 4 0.000000 0.000000 0.000000 -0.159800 0.000000 -0.051191
# 5 0.003288 -0.003503 0.000532 0.000000 0.026234 0.000000
# 6 0.000000 0.000000 0.000000 -0.051191 0.000000 0.024187
#
#
# Mechanical properties :
#
#
# Convention : Reuss Voigt Hill
#
# Bulk Modulus (GPa) = 59.77601 62.17498 60.97549
# Shear Modulus (GPa) = -83.20084 30.84086 -26.17999
#
# Velocity S-wave (km/s) = -6.23955 3.79885 -3.50005
# Velocity P-wave (km/s) = 4.89269 6.95235 3.49261
#
# Compressibility (1/GPa) = 0.01672912
#
# Stress axis : x y z
#
# Youngs Moduli (GPa) = 86.39872 85.94258 142.69071
#
# Poissons Ratio (x) = 0.33915 -0.00188
# Poissons Ratio (y) = 0.34095 0.40117
# Poissons Ratio (z) = -0.00114 0.24162
#
# Static dielectric constant tensor:
#      x y z
#    x 1.955440 0.000000 -0.024210 
#    y 0.000000 1.793020 0.000000 
#    z -0.024210 0.000000 1.858880 
# 
# From -- ./inp_files/143573.got.cif
#   From: 2010.05.17/outbox.cif.g08.bks.cpg/sg12_72_cif.got.tgz:143573.got - 2010.06.03 13:09:07.
