data_PCOD9201884
_publ_section_title
;
Structure prediction by ZEFSAII (Michael W. Deem and Ramdas Pophale) SiO2 
 PCOD9201884
Probable space group: C 2/M
;
_chemical_formula_sum "Si O2"
_cell_formula_units_Z 30
_cell_length_a 14.192029
_cell_length_b 16.644298
_cell_length_c 12.163836
_cell_angle_alpha 90.000000
_cell_angle_beta 29.448311
_cell_angle_gamma 90.000000
_cell_volume 1412.622522
_symmetry_space_group_name_H-M "C 2/M"
_symmetry_group_IT_number 12
_symmetry_cell_setting 'monoclinic'
loop_
_space_group_symop_operation_xyz
x,y,z
-x,y,-z
-x,-y,-z
x,-y,z
1/2+x,1/2+y,z
1/2-x,1/2+y,-z
1/2-x,1/2-y,-z
1/2+x,1/2-y,z
loop_
_atom_site_type_symbol
_atom_site_label
_atom_site_fract_x
_atom_site_fract_y
_atom_site_fract_z
Si Si1 0.000000 0.244059 0.000000
Si Si2 0.951380 0.636840 0.866360
Si Si3 0.370434 0.166386 0.536999
Si Si4 0.000000 0.500000 0.500000
Si Si5 0.263050 0.000000 0.338893
Si Si6 0.174719 0.000000 0.166880
O O1 0.103084 0.301444 0.983461
O O2 0.845211 0.192742 0.223282
O O3 0.040796 0.682029 0.671808
O O4 0.114969 0.577317 0.748363
O O5 0.775066 0.578651 0.013682
O O6 0.500000 0.206829 0.500000
O O7 0.396927 0.071452 0.531775
O O8 0.233837 0.000000 0.236573
O O9 0.053172 0.000000 0.606036
#
# Coordination Sequence:
#
# PCOD9201884 Si02
#       6
#     4   8   8   2   4   4
#     4  12  24  40  66  96 128 172 204 266 328 370
#     4  11  21  42  63  97 136 155 221 261 304 394
#     4  10  25  43  64  89 127 173 210 265 314 370
#     4   8  20  50  54  84 124 154 228 252 284 396
#     4  10  20  37  65  99 122 176 205 261 319 362
#     4  10  20  37  66  95 127 175 202 266 319 354
#
# _framework density 21.237096999999999
#
# number of rings (size 3 to 8) (size 9 to 14) (size 15 to 20)
#    0.800    0.800    2.667    3.200    0.000    5.867 
#    0.000    0.000    0.000    0.000    0.000    0.000 
#    0.000    0.000    0.000    0.000    0.000    0.000 
#
# Total GULP energy -83516.511169 kJ/mol
# GULP energy per Si atom -5567.767411 kJ/mol
# Density = 2.118876 g / cm^3
# Si number density = 21.237097 Si / 1000 Ang^3
#
#
#
# Elastic Constant Matrix: (Units=GPa)
#
#
# Indices 1 2 3 4 5 6 
#
# 1 31.0757 6.0054 11.7792 -0.0028 8.8190 0.0007
# 2 6.0054 42.9488 25.2977 0.0013 8.4541 -0.0016
# 3 11.7792 25.2977 138.7304 0.0029 3.6987 -0.0038
# 4 -0.0028 0.0013 0.0029 19.6153 0.0004 2.6984
# 5 8.8190 8.4541 3.6987 0.0004 40.7876 0.0010
# 6 0.0007 -0.0016 -0.0038 2.6984 0.0010 -0.9285
#
#
#
# Elastic Compliance Matrix: (Units=1/GPa)
#
#
# Indices 1 2 3 4 5 6 
#
# 1 0.035508 -0.002150 -0.002436 0.000001 -0.007011 0.000036
# 2 -0.002150 0.027268 -0.004663 0.000002 -0.004764 -0.000028
# 3 -0.002436 -0.004663 0.008245 0.000002 0.000745 -0.000022
# 4 0.000001 0.000002 0.000002 0.036420 -0.000004 0.105845
# 5 -0.007011 -0.004764 0.000745 -0.000004 0.026953 0.000018
# 6 0.000036 -0.000028 -0.000022 0.105845 0.000018 -0.769414
#
#
# Mechanical properties :
#
#
# Convention : Reuss Voigt Hill
#
# Bulk Modulus (GPa) = 19.03886 33.21327 26.12606
# Shear Modulus (GPa) = -8.34706 23.20639 7.42967
#
# Velocity S-wave (km/s) = -1.98468 3.30923 1.87244
# Velocity P-wave (km/s) = 1.93195 5.50223 4.12353
#
# Compressibility (1/GPa) = 0.05252416
#
# Stress axis : x y z
#
# Youngs Moduli (GPa) = 28.16266 36.67239 121.27902
#
# Poissons Ratio (x) = 0.07885 0.29542
# Poissons Ratio (y) = 0.06055 0.56551
# Poissons Ratio (z) = 0.06860 0.17100
#
# Static dielectric constant tensor:
#      x y z
#    x 1.826330 0.000000 0.022120 
#    y 0.000000 1.742350 0.000000 
#    z 0.022120 0.000000 1.761600 
# 
# From -- ./inp_files/130778.got.cif
#   From: 2010.05.17/outbox.cif.g08.bks.cpg/sg12_66_cif.got.tgz:130778.got - 2010.06.03 13:09:07.
