data_PCOD9201701
_publ_section_title
;
Structure prediction by ZEFSAII (Michael W. Deem and Ramdas Pophale) SiO2 
 PCOD9201701
Probable space group: C 2/M
;
_chemical_formula_sum "Si O2"
_cell_formula_units_Z 56
_cell_length_a 28.153396
_cell_length_b 19.999317
_cell_length_c 9.018184
_cell_angle_alpha 90.000000
_cell_angle_beta 149.241080
_cell_angle_gamma 90.000000
_cell_volume 2596.860327
_symmetry_space_group_name_H-M "C 2/M"
_symmetry_group_IT_number 12
_symmetry_cell_setting 'monoclinic'
loop_
_space_group_symop_operation_xyz
x,y,z
-x,y,-z
-x,-y,-z
x,-y,z
1/2+x,1/2+y,z
1/2-x,1/2+y,-z
1/2-x,1/2-y,-z
1/2+x,1/2-y,z
loop_
_atom_site_type_symbol
_atom_site_label
_atom_site_fract_x
_atom_site_fract_y
_atom_site_fract_z
Si Si1 0.955855 0.321365 0.228800
Si Si2 0.592149 0.421425 0.651058
Si Si3 0.735076 0.574190 0.262765
Si Si4 0.583253 0.876030 0.326897
Si Si5 0.904837 0.115664 0.669517
Si Si6 0.711349 0.923711 0.261088
Si Si7 0.146897 0.749205 0.296073
O O1 0.000000 0.298325 0.500000
O O2 0.037704 0.358588 0.359612
O O3 0.867953 0.372543 0.006395
O O4 0.920709 0.263752 0.024386
O O5 0.500000 0.422344 0.500000
O O6 0.615061 0.500000 0.676001
O O7 0.580331 0.382186 0.466555
O O8 0.667712 0.390415 0.966552
O O9 0.694669 0.500000 0.176654
O O10 0.833305 0.573095 0.444952
O O11 0.756914 0.597743 0.487357
O O12 0.625778 0.810896 0.356049
O O13 0.500000 0.901011 0.000000
O O14 0.807501 0.076937 0.429637
O O15 0.881753 0.184925 0.691360
O O16 0.000000 0.088494 0.000000
O O17 0.675272 0.000000 0.172513
O O18 0.250000 0.750000 0.500000
#
# Coordination Sequence:
#
# PCOD9201701 Si02
#       7
#     8   8   8   8   8   8   8
#     4  11  24  43  67  98 140 176 227 285 339 407
#     4  10  23  42  65  98 138 176 222 285 343 406
#     4  10  20  37  63  93 130 173 223 273 332 406
#     4  10  20  39  62  93 129 171 220 267 329 400
#     4  12  24  42  69  97 135 182 231 286 351 413
#     4  11  23  41  67 102 138 184 228 276 349 420
#     4  11  22  45  70  93 132 180 226 284 340 408
#
# _framework density 21.564502999999998
#
# number of rings (size 3 to 8) (size 9 to 14) (size 15 to 20)
#    0.000    1.286    4.286    2.571    2.000    3.429 
#    0.000   10.000    0.000    0.000    0.000    0.000 
#    0.000    0.000    0.000    0.000    0.000    0.000 
#
# Total GULP energy -156231.757529 kJ/mol
# GULP energy per Si atom -5579.705626 kJ/mol
# Density = 2.151542 g / cm^3
# Si number density = 21.564503 Si / 1000 Ang^3
#
#
#
# Elastic Constant Matrix: (Units=GPa)
#
#
# Indices 1 2 3 4 5 6 
#
# 1 110.2937 13.1340 30.6780 0.0000 9.4648 0.0000
# 2 13.1340 76.9319 31.8816 0.0000 -10.1659 0.0000
# 3 30.6780 31.8816 77.0175 0.0000 3.0727 0.0000
# 4 0.0000 0.0000 0.0000 22.5519 0.0000 2.5362
# 5 9.4648 -10.1659 3.0727 0.0000 38.5335 0.0000
# 6 0.0000 0.0000 0.0000 2.5362 0.0000 30.1660
#
#
#
# Elastic Compliance Matrix: (Units=1/GPa)
#
#
# Indices 1 2 3 4 5 6 
#
# 1 0.010399 -0.000498 -0.003841 0.000000 -0.002379 0.000000
# 2 -0.000498 0.016600 -0.006875 0.000000 0.005050 0.000000
# 3 -0.003841 -0.006875 0.017450 0.000000 -0.002262 0.000000
# 4 0.000000 0.000000 0.000000 0.044765 0.000000 -0.003764
# 5 -0.002379 0.005050 -0.002262 0.000000 0.028048 0.000000
# 6 0.000000 0.000000 0.000000 -0.003764 0.000000 0.033466
#
#
# Mechanical properties :
#
#
# Convention : Reuss Voigt Hill
#
# Bulk Modulus (GPa) = 45.41066 46.18114 45.79590
# Shear Modulus (GPa) = 27.70146 30.82026 29.26086
#
# Velocity S-wave (km/s) = 3.58800 3.78459 3.68761
# Velocity P-wave (km/s) = 6.18618 6.36862 6.27806
#
# Compressibility (1/GPa) = 0.02202126
#
# Stress axis : x y z
#
# Youngs Moduli (GPa) = 96.16748 60.24185 57.30648
#
# Poissons Ratio (x) = 0.03000 0.22011
# Poissons Ratio (y) = 0.04788 0.39396
# Poissons Ratio (z) = 0.36938 0.41414
#
# Static dielectric constant tensor:
#      x y z
#    x 1.802130 0.000000 0.002710 
#    y 0.000000 1.850910 0.000000 
#    z 0.002710 0.000000 1.794480 
# 
# From -- ./inp_files/113420.got.cif
#   From: 2010.05.17/outbox.cif.g08.bks.cpg/sg12_57_cif.got.tgz:113420.got - 2010.06.03 13:09:07.
