data_PCOD9201782
_publ_section_title
;
Structure prediction by ZEFSAII (Michael W. Deem and Ramdas Pophale) SiO2 
 PCOD9201782
Probable space group: C 2/M
;
_chemical_formula_sum "Si O2"
_cell_formula_units_Z 56
_cell_length_a 14.519691
_cell_length_b 13.758659
_cell_length_c 27.882070
_cell_angle_alpha 90.000000
_cell_angle_beta 28.055456
_cell_angle_gamma 90.000000
_cell_volume 2619.735379
_symmetry_space_group_name_H-M "C 2/M"
_symmetry_group_IT_number 12
_symmetry_cell_setting 'monoclinic'
loop_
_space_group_symop_operation_xyz
x,y,z
-x,y,-z
-x,-y,-z
x,-y,z
1/2+x,1/2+y,z
1/2-x,1/2+y,-z
1/2-x,1/2-y,-z
1/2+x,1/2-y,z
loop_
_atom_site_type_symbol
_atom_site_label
_atom_site_fract_x
_atom_site_fract_y
_atom_site_fract_z
Si Si1 0.108327 0.389373 0.589610
Si Si2 0.805909 0.385995 0.223395
Si Si3 0.045659 0.112054 0.427942
Si Si4 0.182292 0.612895 0.451189
Si Si5 0.562796 0.263581 0.260323
Si Si6 0.812941 0.267807 0.054398
Si Si7 0.229205 0.888512 0.001894
O O1 0.034529 0.500000 0.622245
O O2 0.337772 0.391493 0.497345
O O3 0.107495 0.346504 0.536596
O O4 0.993370 0.328711 0.681739
O O5 0.749551 0.500000 0.244485
O O6 0.707171 0.347625 0.317706
O O7 0.717481 0.326816 0.219903
O O8 0.039251 0.381843 0.116956
O O9 0.000000 0.160041 0.500000
O O10 0.111170 0.000000 0.408186
O O11 0.243185 0.500000 0.431570
O O12 0.365919 0.672595 0.347793
O O13 0.000000 0.612210 0.500000
O O14 0.652905 0.238853 0.167548
O O15 0.871837 0.179895 0.991340
O O16 0.722194 0.346315 0.059132
O O17 0.000000 0.300982 0.000000
O O18 0.165730 0.000000 0.028896
#
# Coordination Sequence:
#
# PCOD9201782 Si02
#       7
#     8   8   8   8   8   8   8
#     4  10  22  39  56  85 127 167 212 258 309 380
#     4  10  20  37  64  93 121 161 216 270 320 381
#     4   9  18  32  54  86 123 156 199 254 304 367
#     4  10  22  41  61  90 133 175 215 258 310 383
#     4  12  23  38  66  92 125 172 213 268 328 379
#     4  11  25  46  67 100 135 164 222 282 329 398
#     4  10  24  46  71  96 129 171 217 275 338 397
#
# _framework density 21.376204000000001
#
# number of rings (size 3 to 8) (size 9 to 14) (size 15 to 20)
#    0.000    1.714    2.857    0.857    2.000    4.000 
#    0.000    0.000    0.000    0.000    0.000    0.000 
#    0.000    0.000    0.000    0.000    0.000    0.000 
#
# Total GULP energy -156512.558795 kJ/mol
# GULP energy per Si atom -5589.734243 kJ/mol
# Density = 2.132755 g / cm^3
# Si number density = 21.376204 Si / 1000 Ang^3
#
#
#
# Elastic Constant Matrix: (Units=GPa)
#
#
# Indices 1 2 3 4 5 6 
#
# 1 87.1937 -1.2888 26.0102 -0.0027 28.9099 0.0005
# 2 -1.2888 64.7785 0.3560 -0.0049 3.9156 0.0009
# 3 26.0102 0.3560 85.7215 -0.0108 31.6520 0.0015
# 4 -0.0027 -0.0049 -0.0108 1.4847 -0.0042 9.8179
# 5 28.9099 3.9156 31.6520 -0.0042 30.3720 0.0009
# 6 0.0005 0.0009 0.0015 9.8179 0.0009 17.9618
#
#
#
# Elastic Compliance Matrix: (Units=1/GPa)
#
#
# Indices 1 2 3 4 5 6 
#
# 1 0.016974 0.001407 0.001425 0.000002 -0.017823 -0.000001
# 2 0.001407 0.015739 0.001222 -0.000021 -0.004642 0.000011
# 3 0.001425 0.001222 0.019160 -0.000035 -0.021481 0.000018
# 4 0.000002 -0.000021 -0.000035 -0.257618 -0.000003 0.140814
# 5 -0.017823 -0.004642 -0.021481 -0.000003 0.072875 0.000001
# 6 -0.000001 0.000011 0.000018 0.140814 0.000001 -0.021295
#
#
# Mechanical properties :
#
#
# Convention : Reuss Voigt Hill
#
# Bulk Modulus (GPa) = 16.67216 31.98318 24.32767
# Shear Modulus (GPa) = -35.14235 24.13814 -5.50211
#
# Velocity S-wave (km/s) = -4.05902 3.36401 -1.60609
# Velocity P-wave (km/s) = 3.76180 5.48482 2.82242
#
# Compressibility (1/GPa) = 0.05998022
#
# Stress axis : x y z
#
# Youngs Moduli (GPa) = 58.91396 63.53620 52.19188
#
# Poissons Ratio (x) = -0.08941 -0.07437
# Poissons Ratio (y) = -0.08291 -0.06375
# Poissons Ratio (z) = -0.08394 -0.07761
#
# Static dielectric constant tensor:
#      x y z
#    x 1.787110 0.000000 0.008620 
#    y 0.000000 1.823390 0.000000 
#    z 0.008620 0.000000 1.760040 
# 
# From -- ./inp_files/246619.got.cif
#   From: 2010.05.17/outbox.cif.g08.bks.cpg/sg12_124_cif.got.tgz:246619.got - 2010.06.03 13:09:07.
