data_PCOD9201495
_publ_section_title
;
Structure prediction by ZEFSAII (Michael W. Deem and Ramdas Pophale) SiO2 
 PCOD9201495
Probable space group: C 2/M
;
_chemical_formula_sum "Si O2"
_cell_formula_units_Z 24
_cell_length_a 10.601668
_cell_length_b 16.763297
_cell_length_c 4.991890
_cell_angle_alpha 90.000000
_cell_angle_beta 86.600022
_cell_angle_gamma 90.000000
_cell_volume 885.591724
_symmetry_space_group_name_H-M "C 2/M"
_symmetry_group_IT_number 12
_symmetry_cell_setting 'monoclinic'
loop_
_space_group_symop_operation_xyz
x,y,z
-x,y,-z
-x,-y,-z
x,-y,z
1/2+x,1/2+y,z
1/2-x,1/2+y,-z
1/2-x,1/2-y,-z
1/2+x,1/2-y,z
loop_
_atom_site_type_symbol
_atom_site_label
_atom_site_fract_x
_atom_site_fract_y
_atom_site_fract_z
Si Si1 0.137153 0.655009 0.846364
Si Si2 0.622826 0.674012 0.794277
Si Si3 0.351943 0.000000 0.496775
Si Si4 0.613645 0.500000 0.769966
O O1 0.128567 0.737055 0.673112
O O2 0.173388 0.580170 0.663575
O O3 0.249432 0.665980 0.046663
O O4 0.000000 0.641750 0.000000
O O5 0.603433 0.589248 0.649719
O O6 0.500000 0.679513 0.000000
O O7 0.500000 0.000000 0.500000
O O8 0.267719 0.000000 0.776813
O O9 0.500000 0.500000 0.000000
#
# Coordination Sequence:
#
# PCOD9201495 Si02
#       4
#     8   8   4   4
#     4  10  20  37  62  90 120 162 208 257 312 365
#     4   9  19  38  62  85 120 162 205 256 311 367
#     4  12  24  37  62  96 128 164 209 257 307 374
#     4  10  21  39  57  82 125 168 204 249 304 364
#
# _framework density 27.100525999999999
#
# number of rings (size 3 to 8) (size 9 to 14) (size 15 to 20)
#    0.000    2.000    0.000    3.500    0.000    1.333 
#    0.000   13.333    0.000    0.000    0.000    0.000 
#    0.000    0.000    0.000    0.000    0.000    0.000 
#
# Total GULP energy -66908.705702 kJ/mol
# GULP energy per Si atom -5575.725475 kJ/mol
# Density = 2.703884 g / cm^3
# Si number density = 27.100526 Si / 1000 Ang^3
#
#
#
# Elastic Constant Matrix: (Units=GPa)
#
#
# Indices 1 2 3 4 5 6 
#
# 1 253.4979 -3.8362 90.0863 0.0000 -47.0838 0.0000
# 2 -3.8362 343.5015 45.7779 0.0000 1.8137 0.0000
# 3 90.0863 45.7779 78.5096 0.0000 -48.8149 0.0000
# 4 0.0000 0.0000 0.0000 -64.6492 0.0000 3.5353
# 5 -47.0838 1.8137 -48.8149 0.0000 75.0050 0.0000
# 6 0.0000 0.0000 0.0000 3.5353 0.0000 32.6972
#
#
#
# Elastic Compliance Matrix: (Units=1/GPa)
#
#
# Indices 1 2 3 4 5 6 
#
# 1 0.007397 0.001558 -0.010973 0.000000 -0.002536 0.000000
# 2 0.001558 0.003703 -0.005703 0.000000 -0.002823 0.000000
# 3 -0.010973 -0.005703 0.041080 0.000000 0.019985 0.000000
# 4 0.000000 0.000000 0.000000 -0.015377 0.000000 0.001663
# 5 -0.002536 -0.002823 0.019985 0.000000 0.024816 0.000000
# 6 0.000000 0.000000 0.000000 0.001663 0.000000 0.030404
#
#
# Mechanical properties :
#
#
# Convention : Reuss Voigt Hill
#
# Bulk Modulus (GPa) = 45.56741 104.39612 74.98177
# Shear Modulus (GPa) = 38.58857 44.84267 41.71562
#
# Velocity S-wave (km/s) = 3.77756 4.07219 3.92764
# Velocity P-wave (km/s) = 5.98977 7.79203 6.94957
#
# Compressibility (1/GPa) = 0.02194551
#
# Stress axis : x y z
#
# Youngs Moduli (GPa) = 135.19226 270.01553 24.34298
#
# Poissons Ratio (x) = -0.42077 0.26711
# Poissons Ratio (y) = -0.21067 0.13882
# Poissons Ratio (z) = 1.48345 1.53981
#
# Static dielectric constant tensor:
#      x y z
#    x 2.044000 0.000000 0.017310 
#    y 0.000000 2.751000 0.000000 
#    z 0.017310 0.000000 2.065530 
# 
# From -- ./inp_files/5204.got.cif
#   From: 2010.05.17/outbox.cif.g08.bks.cpg/sg12_3_cif.got.tgz:5204.got - 2010.06.03 13:09:07.
