data_PCOD9201455
_publ_section_title
;
Structure prediction by ZEFSAII (Michael W. Deem and Ramdas Pophale) SiO2 
 PCOD9201455
Probable space group: C 2/M
;
_chemical_formula_sum "Si O2"
_cell_formula_units_Z 48
_cell_length_a 20.706655
_cell_length_b 8.182574
_cell_length_c 25.394878
_cell_angle_alpha 90.000000
_cell_angle_beta 34.396836
_cell_angle_gamma 90.000000
_cell_volume 2430.715195
_symmetry_space_group_name_H-M "C 2/M"
_symmetry_group_IT_number 12
_symmetry_cell_setting 'monoclinic'
loop_
_space_group_symop_operation_xyz
x,y,z
-x,y,-z
-x,-y,-z
x,-y,z
1/2+x,1/2+y,z
1/2-x,1/2+y,-z
1/2-x,1/2-y,-z
1/2+x,1/2-y,z
loop_
_atom_site_type_symbol
_atom_site_label
_atom_site_fract_x
_atom_site_fract_y
_atom_site_fract_z
Si Si1 0.637136 0.304419 0.748441
Si Si2 0.612289 0.199537 0.455460
Si Si3 0.968490 0.192987 0.768292
Si Si4 0.623082 0.196262 0.569953
Si Si5 0.498011 0.190957 0.060612
Si Si6 0.272428 0.310532 0.043905
O O1 0.640585 0.500000 0.740004
O O2 0.765489 0.243638 0.650003
O O3 0.546521 0.246097 0.764936
O O4 0.589683 0.265750 0.838182
O O5 0.500000 0.255862 0.500000
O O6 0.603242 0.243968 0.522817
O O7 0.613655 0.000000 0.452067
O O8 0.848057 0.283739 0.846619
O O9 0.038215 0.221433 0.668249
O O10 0.946552 0.000000 0.791070
O O11 0.750000 0.250000 0.500000
O O12 0.613035 0.000000 0.580877
O O13 0.469459 0.000000 0.076014
O O14 0.500000 0.261118 0.000000
O O15 0.624177 0.213493 0.999604
O O16 0.305517 0.500000 0.020896
O O17 0.250000 0.250000 0.000000
#
# Coordination Sequence:
#
# PCOD9201455 Si02
#       6
#     8   8   8   8   8   8
#     4  10  20  37  62  89 119 163 207 252 310 371
#     4   9  19  37  60  87 120 156 201 253 301 356
#     4  11  22  38  61  93 127 160 204 258 309 369
#     4  11  21  36  59  89 121 159 205 254 309 365
#     4  11  25  43  63  91 128 166 204 256 314 372
#     4  12  24  40  64  93 122 160 207 257 310 370
#
# _framework density 19.747274000000001
#
# number of rings (size 3 to 8) (size 9 to 14) (size 15 to 20)
#    0.000    1.333    3.333    3.000    0.000    3.333 
#    0.000    1.667    0.000    3.500    0.000    0.000 
#    0.000    0.000    0.000    0.000    0.000    0.000 
#
# Total GULP energy -134119.365857 kJ/mol
# GULP energy per Si atom -5588.306911 kJ/mol
# Density = 1.970233 g / cm^3
# Si number density = 19.747274 Si / 1000 Ang^3
#
#
#
# Elastic Constant Matrix: (Units=GPa)
#
#
# Indices 1 2 3 4 5 6 
#
# 1 124.2303 -12.1108 37.6171 0.0001 14.2232 -0.0002
# 2 -12.1108 17.9209 -17.3838 0.0003 2.2455 -0.0002
# 3 37.6171 -17.3838 116.8502 0.0000 15.0006 -0.0001
# 4 0.0001 0.0003 0.0000 32.6487 -0.0001 5.1226
# 5 14.2232 2.2455 15.0006 -0.0001 30.6686 0.0001
# 6 -0.0002 -0.0002 -0.0001 5.1226 0.0001 16.0223
#
#
#
# Elastic Compliance Matrix: (Units=1/GPa)
#
#
# Indices 1 2 3 4 5 6 
#
# 1 0.009551 0.005206 -0.001795 0.000000 -0.003932 0.000000
# 2 0.005206 0.071156 0.010551 -0.000001 -0.012785 0.000002
# 3 -0.001795 0.010551 0.011415 0.000000 -0.005523 0.000000
# 4 0.000000 -0.000001 0.000000 0.032247 0.000000 -0.010310
# 5 -0.003932 -0.012785 -0.005523 0.000000 0.038068 -0.000001
# 6 0.000000 0.000002 0.000000 -0.010310 -0.000001 0.065709
#
#
# Mechanical properties :
#
#
# Convention : Reuss Voigt Hill
#
# Bulk Modulus (GPa) = 8.33029 30.58293 19.45661
# Shear Modulus (GPa) = 20.81278 32.59317 26.70298
#
# Velocity S-wave (km/s) = 3.24999 4.06706 3.68127
# Velocity P-wave (km/s) = 4.27912 6.12988 5.28613
#
# Compressibility (1/GPa) = 0.12004383
#
# Stress axis : x y z
#
# Youngs Moduli (GPa) = 104.70190 14.05373 87.60641
#
# Poissons Ratio (x) = -0.07316 0.15729
# Poissons Ratio (y) = -0.54503 -0.92436
# Poissons Ratio (z) = 0.18799 -0.14828
#
# Static dielectric constant tensor:
#      x y z
#    x 1.681840 0.000000 0.017780 
#    y 0.000000 1.701990 0.000000 
#    z 0.017780 0.000000 1.693140 
# 
# From -- ./inp_files/221556.got.cif
#   From: 2010.05.17/outbox.cif.g08.bks.cpg/sg12_111_cif.got.tgz:221556.got - 2010.06.03 13:09:07.
