data_PCOD9201834
_publ_section_title
;
Structure prediction by ZEFSAII (Michael W. Deem and Ramdas Pophale) SiO2 
 PCOD9201834
Probable space group: C 2/M
;
_chemical_formula_sum "Si O2"
_cell_formula_units_Z 52
_cell_length_a 14.336728
_cell_length_b 9.500023
_cell_length_c 22.827149
_cell_angle_alpha 90.000000
_cell_angle_beta 48.052893
_cell_angle_gamma 90.000000
_cell_volume 2312.386851
_symmetry_space_group_name_H-M "C 2/M"
_symmetry_group_IT_number 12
_symmetry_cell_setting 'monoclinic'
loop_
_space_group_symop_operation_xyz
x,y,z
-x,y,-z
-x,-y,-z
x,-y,z
1/2+x,1/2+y,z
1/2-x,1/2+y,-z
1/2-x,1/2-y,-z
1/2+x,1/2-y,z
loop_
_atom_site_type_symbol
_atom_site_label
_atom_site_fract_x
_atom_site_fract_y
_atom_site_fract_z
Si Si1 0.825020 0.836643 0.180393
Si Si2 0.698665 0.721413 0.611089
Si Si3 0.056634 0.664114 0.106907
Si Si4 0.929928 0.165339 0.697216
Si Si5 0.679395 0.659930 0.953648
Si Si6 0.240449 0.500000 0.519622
Si Si7 0.575182 0.841979 0.408262
O O1 0.693174 0.756446 0.239418
O O2 0.861594 0.831250 0.096081
O O3 0.933658 0.755771 0.169227
O O4 0.812958 0.000000 0.201875
O O5 0.551436 0.697845 0.684758
O O6 0.740247 0.618670 0.540965
O O7 0.723198 0.876652 0.576850
O O8 0.782201 0.683116 0.632478
O O9 0.024168 0.500000 0.114563
O O10 0.169681 0.677008 0.105872
O O11 0.118797 0.725048 0.021195
O O12 0.969905 0.221151 0.616033
O O13 0.903554 0.000000 0.708728
O O14 0.652066 0.500000 0.987014
O O15 0.500000 0.834614 0.500000
O O16 0.552506 0.000000 0.392790
#
# Coordination Sequence:
#
# PCOD9201834 Si02
#       7
#     8   8   8   8   8   4   8
#     4  11  24  42  62  86 125 174 210 256 311 375
#     4  11  23  41  64  92 124 157 199 257 314 381
#     4  10  20  37  64  99 131 161 209 261 303 361
#     4  12  27  43  61  90 127 164 213 260 317 384
#     4   9  20  39  64  94 127 168 210 251 306 366
#     4  10  20  38  68  90 116 154 196 250 318 368
#     4  11  24  41  66  94 120 157 203 258 320 382
#
# _framework density 22.487587000000001
#
# number of rings (size 3 to 8) (size 9 to 14) (size 15 to 20)
#    0.000    1.385    1.538    3.692    5.385    5.231 
#    0.000    3.077    0.000    0.000    0.000    0.000 
#    0.000    0.000    0.000    0.000    0.000    0.000 
#
# Total GULP energy -144958.052214 kJ/mol
# GULP energy per Si atom -5575.309701 kJ/mol
# Density = 2.243640 g / cm^3
# Si number density = 22.487587 Si / 1000 Ang^3
#
#
#
# Elastic Constant Matrix: (Units=GPa)
#
#
# Indices 1 2 3 4 5 6 
#
# 1 84.1669 30.5915 12.5156 0.0000 -28.0689 0.0000
# 2 30.5915 190.7029 27.3183 0.0000 -18.6809 0.0000
# 3 12.5156 27.3183 56.0917 0.0000 -22.6854 0.0000
# 4 0.0000 0.0000 0.0000 29.8626 0.0000 8.2947
# 5 -28.0689 -18.6809 -22.6854 0.0000 39.1568 0.0000
# 6 0.0000 0.0000 0.0000 8.2947 0.0000 9.7155
#
#
#
# Elastic Compliance Matrix: (Units=1/GPa)
#
#
# Indices 1 2 3 4 5 6 
#
# 1 0.016197 -0.001721 0.002074 0.000000 0.011991 0.000000
# 2 -0.001721 0.005882 -0.002409 0.000000 0.000177 0.000000
# 3 0.002074 -0.002409 0.024390 0.000000 0.014467 0.000000
# 4 0.000000 0.000000 0.000000 0.043896 0.000000 -0.037477
# 5 0.011991 0.000177 0.014467 0.000000 0.042600 0.000000
# 6 0.000000 0.000000 0.000000 -0.037477 0.000000 0.134925
#
#
# Mechanical properties :
#
#
# Convention : Reuss Voigt Hill
#
# Bulk Modulus (GPa) = 23.60932 52.42358 38.01645
# Shear Modulus (GPa) = 17.47508 33.11606 25.29557
#
# Velocity S-wave (km/s) = 2.79067 3.84166 3.35754
# Velocity P-wave (km/s) = 4.57225 6.56054 5.65447
#
# Compressibility (1/GPa) = 0.04235616
#
# Stress axis : x y z
#
# Youngs Moduli (GPa) = 61.73942 170.00286 41.00107
#
# Poissons Ratio (x) = 0.29252 -0.08502
# Poissons Ratio (y) = 0.10623 0.09878
# Poissons Ratio (z) = -0.12802 0.40959
#
# Static dielectric constant tensor:
#      x y z
#    x 1.850850 0.000000 -0.041020 
#    y 0.000000 1.756770 0.000000 
#    z -0.041020 0.000000 1.929630 
# 
# From -- ./inp_files/375300.got.cif
#   From: 2010.05.17/outbox.cif.g08.bks.cpg/sg12_188_cif.got.tgz:375300.got - 2010.06.03 13:09:07.
