data_PCOD9201114
_publ_section_title
;
Structure prediction by ZEFSAII (Michael W. Deem and Ramdas Pophale) SiO2 
 PCOD9201114
Probable space group: C 2/M
;
_chemical_formula_sum "Si O2"
_cell_formula_units_Z 48
_cell_length_a 10.377447
_cell_length_b 14.127520
_cell_length_c 23.581690
_cell_angle_alpha 90.000000
_cell_angle_beta 40.866357
_cell_angle_gamma 90.000000
_cell_volume 2262.070983
_symmetry_space_group_name_H-M "C 2/M"
_symmetry_group_IT_number 12
_symmetry_cell_setting 'monoclinic'
loop_
_space_group_symop_operation_xyz
x,y,z
-x,y,-z
-x,-y,-z
x,-y,z
1/2+x,1/2+y,z
1/2-x,1/2+y,-z
1/2-x,1/2-y,-z
1/2+x,1/2-y,z
loop_
_atom_site_type_symbol
_atom_site_label
_atom_site_fract_x
_atom_site_fract_y
_atom_site_fract_z
Si Si1 0.981337 0.114199 0.725074
Si Si2 0.280869 0.231265 0.556121
Si Si3 0.376032 0.384149 0.986133
Si Si4 0.142019 0.114533 0.793082
Si Si5 0.550985 0.885635 0.835244
Si Si6 0.425682 0.112850 0.306547
O O1 0.117716 0.156452 0.630931
O O2 0.073900 0.145421 0.753952
O O3 0.755530 0.146568 0.794452
O O4 0.983548 0.000000 0.721718
O O5 0.500000 0.198384 0.500000
O O6 0.250000 0.250000 0.500000
O O7 0.236860 0.325810 0.607398
O O8 0.376340 0.500000 0.985921
O O9 0.490020 0.353928 0.891895
O O10 0.500000 0.354738 0.000000
O O11 0.150744 0.353290 0.068450
O O12 0.365231 0.138504 0.734441
O O13 0.135632 0.000000 0.795330
O O14 0.557082 0.865947 0.766049
O O15 0.548455 0.000000 0.840739
O O16 0.393462 0.000000 0.323055
#
# Coordination Sequence:
#
# PCOD9201114 Si02
#       6
#     8   8   8   8   8   8
#     4  10  22  39  57  82 118 155 190 230 287 346
#     4  12  26  42  62  85 110 145 190 244 300 349
#     4   9  14  25  51  88 120 149 196 235 262 322
#     4   9  17  31  55  85 117 155 191 228 275 331
#     4   9  17  31  55  85 117 153 189 233 279 323
#     4  10  20  37  61  86 112 145 188 236 288 342
#
# _framework density 21.219494999999998
#
# number of rings (size 3 to 8) (size 9 to 14) (size 15 to 20)
#    0.000    2.167    1.667    2.000    0.000    2.000 
#    0.000    3.333    0.000    6.000    0.000    0.000 
#    0.000    0.000    0.000    0.000    0.000    0.000 
#
# Total GULP energy -134190.059054 kJ/mol
# GULP energy per Si atom -5591.252461 kJ/mol
# Density = 2.117120 g / cm^3
# Si number density = 21.219495 Si / 1000 Ang^3
#
#
#
# Elastic Constant Matrix: (Units=GPa)
#
#
# Indices 1 2 3 4 5 6 
#
# 1 87.3207 -29.0493 8.2625 -0.0023 -4.1588 -0.0008
# 2 -29.0493 68.2439 -8.7833 -0.0012 -7.5357 -0.0002
# 3 8.2625 -8.7833 91.9944 -0.0055 -2.3229 -0.0009
# 4 -0.0023 -0.0012 -0.0055 -38.9001 0.0015 -20.9447
# 5 -4.1588 -7.5357 -2.3229 0.0015 43.2587 0.0005
# 6 -0.0008 -0.0002 -0.0009 -20.9447 0.0005 -16.7211
#
#
#
# Elastic Compliance Matrix: (Units=1/GPa)
#
#
# Indices 1 2 3 4 5 6 
#
# 1 0.013605 0.005970 -0.000593 -0.000001 0.002316 0.000001
# 2 0.005970 0.017769 0.001255 -0.000002 0.003737 0.000002
# 3 -0.000593 0.001255 0.011062 -0.000004 0.000756 0.000004
# 4 -0.000001 -0.000002 -0.000004 -0.078958 0.000001 0.098903
# 5 0.002316 0.003737 0.000756 0.000001 0.024031 -0.000001
# 6 0.000001 0.000002 0.000004 0.098903 -0.000001 -0.183689
#
#
# Mechanical properties :
#
#
# Convention : Reuss Voigt Hill
#
# Bulk Modulus (GPa) = 17.95352 20.93544 19.44448
# Shear Modulus (GPa) = -26.19479 16.00277 -5.09601
#
# Velocity S-wave (km/s) = -3.51731 2.74917 -1.55138
# Velocity P-wave (km/s) = 2.83127 4.46820 2.44425
#
# Compressibility (1/GPa) = 0.05569938
#
# Stress axis : x y z
#
# Youngs Moduli (GPa) = 73.50392 56.27822 90.39646
#
# Poissons Ratio (x) = -0.33601 0.05364
# Poissons Ratio (y) = -0.43885 -0.11341
# Poissons Ratio (z) = 0.04362 -0.07061
#
# Static dielectric constant tensor:
#      x y z
#    x 1.742550 0.000000 -0.003490 
#    y 0.000000 1.809440 0.000000 
#    z -0.003490 0.000000 1.720200 
# 
# From -- ./inp_files/204577.got.cif
#   From: 2010.05.17/outbox.cif.g08.bks.cpg/sg12_103_cif.got.tgz:204577.got - 2010.06.03 13:09:07.
