data_PCOD9201886
_publ_section_title
;
Structure prediction by ZEFSAII (Michael W. Deem and Ramdas Pophale) SiO2 
 PCOD9201886
Probable space group: C 2/M
;
_chemical_formula_sum "Si O2"
_cell_formula_units_Z 40
_cell_length_a 15.003002
_cell_length_b 22.734327
_cell_length_c 7.151292
_cell_angle_alpha 90.000000
_cell_angle_beta 39.499538
_cell_angle_gamma 90.000000
_cell_volume 1551.497421
_symmetry_space_group_name_H-M "C 2/M"
_symmetry_group_IT_number 12
_symmetry_cell_setting 'monoclinic'
loop_
_space_group_symop_operation_xyz
x,y,z
-x,y,-z
-x,-y,-z
x,-y,z
1/2+x,1/2+y,z
1/2-x,1/2+y,-z
1/2-x,1/2-y,-z
1/2+x,1/2-y,z
loop_
_atom_site_type_symbol
_atom_site_label
_atom_site_fract_x
_atom_site_fract_y
_atom_site_fract_z
Si Si1 0.992101 0.066081 0.739170
Si Si2 0.193759 0.565561 0.606895
Si Si3 0.935017 0.750320 0.399901
Si Si4 0.232706 0.638028 0.212695
Si Si5 0.679142 0.173906 0.871876
O O1 0.141029 0.066824 0.600490
O O2 0.000000 0.069608 0.500000
O O3 0.931341 0.000000 0.876409
O O4 0.895788 0.120774 0.954904
O O5 0.146818 0.500000 0.721923
O O6 0.169228 0.583549 0.431232
O O7 0.135256 0.617049 0.829992
O O8 0.831467 0.694218 0.580919
O O9 0.825511 0.802753 0.548843
O O10 0.000000 0.761225 0.500000
O O11 0.067569 0.727405 0.066218
O O12 0.198473 0.650962 0.052919
#
# Coordination Sequence:
#
# PCOD9201886 Si02
#       5
#     8   8   8   8   8
#     4  10  20  37  65  99 139 186 234 289 349 412
#     4  11  25  42  69 106 143 187 238 287 349 424
#     4  10  24  44  72 104 137 185 236 289 358 423
#     4  11  22  40  67  98 142 181 231 289 349 414
#     4  11  25  46  73 104 143 186 235 293 356 420
#
# _framework density 25.781544
#
# number of rings (size 3 to 8) (size 9 to 14) (size 15 to 20)
#    0.000    1.400    2.000    3.600    5.600    4.000 
#    0.000    7.000    0.000    9.000    0.000    0.000 
#    0.000    0.000    0.000    0.000    0.000    0.000 
#
# Total GULP energy -111848.773417 kJ/mol
# GULP energy per Si atom -5592.438671 kJ/mol
# Density = 2.572286 g / cm^3
# Si number density = 25.781544 Si / 1000 Ang^3
#
#
#
# Elastic Constant Matrix: (Units=GPa)
#
#
# Indices 1 2 3 4 5 6 
#
# 1 129.1469 34.7222 33.3766 0.0000 -3.1248 0.0000
# 2 34.7222 149.1149 44.2315 0.0000 -26.5193 0.0000
# 3 33.3766 44.2315 100.3506 0.0000 -34.1334 0.0000
# 4 0.0000 0.0000 0.0000 17.7180 0.0000 4.0844
# 5 -3.1248 -26.5193 -34.1334 0.0000 41.9050 0.0000
# 6 0.0000 0.0000 0.0000 4.0844 0.0000 21.5329
#
#
#
# Elastic Compliance Matrix: (Units=1/GPa)
#
#
# Indices 1 2 3 4 5 6 
#
# 1 0.008965 -0.001655 -0.003294 0.000000 -0.003062 0.000000
# 2 -0.001655 0.008288 -0.001882 0.000000 0.003589 0.000000
# 3 -0.003294 -0.001882 0.015771 0.000000 0.011409 0.000000
# 4 0.000000 0.000000 0.000000 0.059020 0.000000 -0.011195
# 5 -0.003062 0.003589 0.011409 0.000000 0.035200 0.000000
# 6 0.000000 0.000000 0.000000 -0.011195 0.000000 0.048564
#
#
# Mechanical properties :
#
#
# Convention : Reuss Voigt Hill
#
# Bulk Modulus (GPa) = 51.64612 67.03032 59.33822
# Shear Modulus (GPa) = 25.52005 33.98333 29.75169
#
# Velocity S-wave (km/s) = 3.14961 3.63454 3.40073
# Velocity P-wave (km/s) = 5.77083 6.60825 6.20368
#
# Compressibility (1/GPa) = 0.01936254
#
# Stress axis : x y z
#
# Youngs Moduli (GPa) = 111.54151 120.65458 63.40788
#
# Poissons Ratio (x) = 0.19970 0.20885
# Poissons Ratio (y) = 0.18461 0.11933
# Poissons Ratio (z) = 0.36739 0.22707
#
# Static dielectric constant tensor:
#      x y z
#    x 1.992120 0.000000 -0.005060 
#    y 0.000000 1.983580 0.000000 
#    z -0.005060 0.000000 2.134130 
# 
# From -- ./inp_files/78620.got.cif
#   From: 2010.05.17/outbox.cif.g08.bks.cpg/sg12_40_cif.got.tgz:78620.got - 2010.06.03 13:09:07.
