data_PCOD9201497
_publ_section_title
;
Structure prediction by ZEFSAII (Michael W. Deem and Ramdas Pophale) SiO2 
 PCOD9201497
Probable space group: C 2/M
;
_chemical_formula_sum "Si O2"
_cell_formula_units_Z 56
_cell_length_a 15.519443
_cell_length_b 8.773195
_cell_length_c 22.118647
_cell_angle_alpha 90.000000
_cell_angle_beta 103.073482
_cell_angle_gamma 90.000000
_cell_volume 2933.509081
_symmetry_space_group_name_H-M "C 2/M"
_symmetry_group_IT_number 12
_symmetry_cell_setting 'monoclinic'
loop_
_space_group_symop_operation_xyz
x,y,z
-x,y,-z
-x,-y,-z
x,-y,z
1/2+x,1/2+y,z
1/2-x,1/2+y,-z
1/2-x,1/2-y,-z
1/2+x,1/2-y,z
loop_
_atom_site_type_symbol
_atom_site_label
_atom_site_fract_x
_atom_site_fract_y
_atom_site_fract_z
Si Si1 0.174227 0.682335 0.156533
Si Si2 0.299192 0.683934 0.066360
Si Si3 0.364523 0.817374 0.384592
Si Si4 0.182455 0.817631 0.290300
Si Si5 0.547285 0.818308 0.359531
Si Si6 0.498250 0.317197 0.071522
Si Si7 0.651565 0.318211 0.489613
O O1 0.176948 0.500000 0.161975
O O2 0.247007 0.730811 0.118321
O O3 0.190415 0.755099 0.224178
O O4 0.079000 0.734448 0.116626
O O5 0.296099 0.500000 0.061785
O O6 0.402123 0.728605 0.081319
O O7 0.250000 0.750000 0.000000
O O8 0.269136 0.773354 0.343022
O O9 0.443145 0.785854 0.349955
O O10 0.382677 0.731873 0.450086
O O11 0.363871 0.000000 0.396264
O O12 0.096118 0.753269 0.310004
O O13 0.178516 0.000000 0.288726
O O14 0.593817 0.751511 0.426684
O O15 0.559415 0.000000 0.360363
O O16 0.508678 0.500000 0.080780
O O17 0.500000 0.285414 0.000000
O O18 0.654227 0.500000 0.484409
O O19 0.750000 0.250000 0.500000
#
# Coordination Sequence:
#
# PCOD9201497 Si02
#       7
#     8   8   8   8   8   8   8
#     4  11  24  40  60  89 124 158 201 252 302 359
#     4  10  21  37  60  90 121 155 194 243 298 357
#     4  10  23  42  64  91 125 162 205 256 312 368
#     4  11  24  43  64  86 120 166 209 250 302 370
#     4  11  23  41  65  93 126 162 204 259 313 365
#     4  10  20  37  62  90 121 156 195 241 297 360
#     4  12  23  37  62  94 126 164 208 257 311 364
#
# _framework density 19.089766000000001
#
# number of rings (size 3 to 8) (size 9 to 14) (size 15 to 20)
#    0.000    1.286    2.857    3.000    0.000    6.000 
#    0.000    2.857    0.000    0.000    0.000    0.000 
#    0.000    0.000    0.000    0.000    0.000    0.000 
#
# Total GULP energy -156564.072409 kJ/mol
# GULP energy per Si atom -5591.574015 kJ/mol
# Density = 1.904632 g / cm^3
# Si number density = 19.089766 Si / 1000 Ang^3
#
#
#
# Elastic Constant Matrix: (Units=GPa)
#
#
# Indices 1 2 3 4 5 6 
#
# 1 107.8766 26.7243 28.9139 0.0000 -33.7620 0.0000
# 2 26.7243 43.7003 30.5357 0.0000 -12.3602 0.0000
# 3 28.9139 30.5357 106.7392 0.0000 -31.9193 0.0000
# 4 0.0000 0.0000 0.0000 32.7268 0.0000 -0.3397
# 5 -33.7620 -12.3602 -31.9193 0.0000 30.5184 0.0000
# 6 0.0000 0.0000 0.0000 -0.3397 0.0000 26.5502
#
#
#
# Elastic Compliance Matrix: (Units=1/GPa)
#
#
# Indices 1 2 3 4 5 6 
#
# 1 0.015675 -0.006633 0.002959 0.000000 0.017750 0.000000
# 2 -0.006633 0.031820 -0.008217 0.000000 -0.003045 0.000000
# 3 0.002959 -0.008217 0.015863 0.000000 0.016537 0.000000
# 4 0.000000 0.000000 0.000000 0.030560 0.000000 0.000391
# 5 0.017750 -0.003045 0.016537 0.000000 0.068467 0.000000
# 6 0.000000 0.000000 0.000000 0.000391 0.000000 0.037669
#
#
# Mechanical properties :
#
#
# Convention : Reuss Voigt Hill
#
# Bulk Modulus (GPa) = 25.26749 47.85154 36.55952
# Shear Modulus (GPa) = 21.09462 29.43523 25.26493
#
# Velocity S-wave (km/s) = 3.32779 3.93101 3.64191
# Velocity P-wave (km/s) = 5.29438 6.76201 6.07270
#
# Compressibility (1/GPa) = 0.03957655
#
# Stress axis : x y z
#
# Youngs Moduli (GPa) = 63.79558 31.42691 63.04044
#
# Poissons Ratio (x) = 0.20847 -0.18657
# Poissons Ratio (y) = 0.42318 0.51798
# Poissons Ratio (z) = -0.18880 0.25822
#
# Static dielectric constant tensor:
#      x y z
#    x 1.674920 0.000000 -0.022590 
#    y 0.000000 1.641460 0.000000 
#    z -0.022590 0.000000 1.629300 
# 
# From -- ./inp_files/308928.got.cif
#   From: 2010.05.17/outbox.cif.g08.bks.cpg/sg12_155_cif.got.tgz:308928.got - 2010.06.03 13:09:07.
