data_PCOD9201325
_publ_section_title
;
Structure prediction by ZEFSAII (Michael W. Deem and Ramdas Pophale) SiO2 
 PCOD9201325
Probable space group: C 2/M
;
_chemical_formula_sum "Si O2"
_cell_formula_units_Z 64
_cell_length_a 14.359966
_cell_length_b 25.701543
_cell_length_c 16.766985
_cell_angle_alpha 90.000000
_cell_angle_beta 30.337937
_cell_angle_gamma 90.000000
_cell_volume 3125.678145
_symmetry_space_group_name_H-M "C 2/M"
_symmetry_group_IT_number 12
_symmetry_cell_setting 'monoclinic'
loop_
_space_group_symop_operation_xyz
x,y,z
-x,y,-z
-x,-y,-z
x,-y,z
1/2+x,1/2+y,z
1/2-x,1/2+y,-z
1/2-x,1/2-y,-z
1/2+x,1/2-y,z
loop_
_atom_site_type_symbol
_atom_site_label
_atom_site_fract_x
_atom_site_fract_y
_atom_site_fract_z
Si Si1 0.018356 0.060069 0.837404
Si Si2 0.815933 0.342166 0.329725
Si Si3 0.828390 0.720012 0.739849
Si Si4 0.939524 0.127719 0.337835
Si Si5 0.242784 0.780805 0.621999
Si Si6 0.677511 0.871415 0.143058
Si Si7 0.613456 0.060854 0.339480
Si Si8 0.717091 0.839843 0.827478
O O1 0.097856 0.080495 0.694602
O O2 0.174193 0.064043 0.790010
O O3 0.962259 0.000000 0.873773
O O4 0.848767 0.096767 0.983877
O O5 0.688055 0.369007 0.490068
O O6 0.809721 0.279680 0.346420
O O7 0.745544 0.352389 0.292825
O O8 0.024635 0.359902 0.189983
O O9 0.750028 0.705618 0.710510
O O10 0.763970 0.681932 0.856934
O O11 0.771356 0.779186 0.798304
O O12 0.050005 0.715073 0.566484
O O13 0.890568 0.180176 0.325058
O O14 0.149518 0.128622 0.212913
O O15 0.585998 0.905176 0.281892
O O16 0.500000 0.080072 0.500000
O O17 0.567028 0.000000 0.360883
O O18 0.500000 0.846597 0.000000
#
# Coordination Sequence:
#
# PCOD9201325 Si02
#       8
#     8   8   8   8   8   8   8   8
#     4  11  26  44  62  91 126 161 205 267 328 368
#     4  11  22  38  63  94 123 165 210 249 304 366
#     4  10  21  36  60  91 134 167 204 245 303 370
#     4  12  21  40  68  86 118 169 219 255 306 374
#     4  10  20  37  61  96 129 165 207 260 297 357
#     4  12  22  36  62  90 125 163 206 249 311 374
#     4  10  22  40  61  87 119 159 207 259 312 372
#     4  11  24  40  58  90 132 167 201 252 310 371
#
# _framework density 20.475556999999998
#
# number of rings (size 3 to 8) (size 9 to 14) (size 15 to 20)
#    0.000    1.125    2.500    4.500    1.750    4.000 
#    0.000    5.000    0.000    5.625    0.000    0.000 
#    0.000    0.000    0.000    0.000    0.000    0.000 
#
# Total GULP energy -179144.218733 kJ/mol
# GULP energy per Si atom -5598.256835 kJ/mol
# Density = 2.042895 g / cm^3
# Si number density = 20.475557 Si / 1000 Ang^3
#
#
#
# Elastic Constant Matrix: (Units=GPa)
#
#
# Indices 1 2 3 4 5 6 
#
# 1 90.4735 22.8006 5.0729 0.0026 -9.3459 0.0048
# 2 22.8006 48.3951 10.3193 -0.0214 -0.8562 0.0030
# 3 5.0729 10.3193 56.9276 -0.0211 -13.3294 0.0015
# 4 0.0026 -0.0214 -0.0211 31.5394 -0.0078 0.9439
# 5 -9.3459 -0.8562 -13.3294 -0.0078 30.0291 0.0091
# 6 0.0048 0.0030 0.0015 0.9439 0.0091 15.0702
#
#
#
# Elastic Compliance Matrix: (Units=1/GPa)
#
#
# Indices 1 2 3 4 5 6 
#
# 1 0.013023 -0.006270 0.000986 -0.000003 0.004312 -0.000005
# 2 -0.006270 0.024554 -0.004671 0.000013 -0.003324 -0.000001
# 3 0.000986 -0.004671 0.020496 0.000013 0.009271 -0.000008
# 4 -0.000003 0.000013 0.000013 0.031766 0.000014 -0.001990
# 5 0.004312 -0.003324 0.009271 0.000014 0.038664 -0.000026
# 6 -0.000005 -0.000001 -0.000008 -0.001990 -0.000026 0.066481
#
#
# Mechanical properties :
#
#
# Convention : Reuss Voigt Hill
#
# Bulk Modulus (GPa) = 26.20274 30.24242 28.22258
# Shear Modulus (GPa) = 21.96703 25.83464 23.90083
#
# Velocity S-wave (km/s) = 3.27898 3.55594 3.42026
# Velocity P-wave (km/s) = 5.21157 5.62687 5.42320
#
# Compressibility (1/GPa) = 0.03816395
#
# Stress axis : x y z
#
# Youngs Moduli (GPa) = 76.78652 40.72628 48.79040
#
# Poissons Ratio (x) = 0.25533 -0.04809
# Poissons Ratio (y) = 0.48141 0.22788
# Poissons Ratio (z) = -0.07568 0.19022
#
# Static dielectric constant tensor:
#      x y z
#    x 1.726610 -0.000010 0.013640 
#    y -0.000010 1.695490 0.000010 
#    z 0.013640 0.000010 1.763730 
# 
# From -- ./inp_files/272817.got.cif
#   From: 2010.05.17/outbox.cif.g08.bks.cpg/sg12_137_cif.got.tgz:272817.got - 2010.06.03 13:09:07.
