data_PCOD9201290
_publ_section_title
;
Structure prediction by ZEFSAII (Michael W. Deem and Ramdas Pophale) SiO2 
 PCOD9201290
Probable space group: C 2/M
;
_chemical_formula_sum "Si O2"
_cell_formula_units_Z 40
_cell_length_a 24.273401
_cell_length_b 8.685638
_cell_length_c 17.402977
_cell_angle_alpha 90.000000
_cell_angle_beta 147.049370
_cell_angle_gamma 90.000000
_cell_volume 1995.666085
_symmetry_space_group_name_H-M "C 2/M"
_symmetry_group_IT_number 12
_symmetry_cell_setting 'monoclinic'
loop_
_space_group_symop_operation_xyz
x,y,z
-x,y,-z
-x,-y,-z
x,-y,z
1/2+x,1/2+y,z
1/2-x,1/2+y,-z
1/2-x,1/2-y,-z
1/2+x,1/2-y,z
loop_
_atom_site_type_symbol
_atom_site_label
_atom_site_fract_x
_atom_site_fract_y
_atom_site_fract_z
Si Si1 0.862055 0.315449 0.623165
Si Si2 0.099479 0.314640 0.162716
Si Si3 0.278523 0.815968 0.271556
Si Si4 0.971313 0.313445 0.594307
Si Si5 0.302577 0.683069 0.137966
O O1 0.855289 0.500000 0.610304
O O2 0.750000 0.250000 0.500000
O O3 0.915380 0.274561 0.765512
O O4 0.919308 0.264725 0.613751
O O5 0.112492 0.500000 0.172491
O O6 0.197821 0.236695 0.240859
O O7 0.000000 0.269788 0.000000
O O8 0.391053 0.772412 0.433636
O O9 0.253582 0.741230 0.160399
O O10 0.276644 0.000000 0.262177
O O11 0.982497 0.500000 0.606187
O O12 0.081450 0.239907 0.720150
O O13 0.297526 0.500000 0.128613
O O14 0.250000 0.750000 0.000000
#
# Coordination Sequence:
#
# PCOD9201290 Si02
#       5
#     8   8   8   8   8
#     4  10  20  37  61  91 127 164 205 252 309 368
#     4  10  22  38  60  92 128 169 211 258 312 366
#     4  11  23  42  66  93 126 167 212 259 312 370
#     4  10  22  41  65  93 128 168 208 256 311 370
#     4  12  27  45  66  93 124 161 208 261 318 376
#
# _framework density 20.043431999999999
#
# number of rings (size 3 to 8) (size 9 to 14) (size 15 to 20)
#    0.000    1.400    2.000    3.000    2.800    5.200 
#    0.000    0.000    0.000    0.000    0.000    0.000 
#    0.000    0.000    0.000    0.000    0.000    0.000 
#
# Total GULP energy -111805.378264 kJ/mol
# GULP energy per Si atom -5590.268913 kJ/mol
# Density = 1.999781 g / cm^3
# Si number density = 20.043432 Si / 1000 Ang^3
#
#
#
# Elastic Constant Matrix: (Units=GPa)
#
#
# Indices 1 2 3 4 5 6 
#
# 1 92.6564 23.8659 17.4629 0.0000 -24.5317 0.0000
# 2 23.8659 51.2856 34.6285 0.0000 -12.5857 0.0000
# 3 17.4629 34.6285 104.0899 0.0000 -24.5326 0.0000
# 4 0.0000 0.0000 0.0000 29.5684 0.0000 5.3705
# 5 -24.5317 -12.5857 -24.5326 0.0000 41.7107 0.0000
# 6 0.0000 0.0000 0.0000 5.3705 0.0000 29.2562
#
#
#
# Elastic Compliance Matrix: (Units=1/GPa)
#
#
# Indices 1 2 3 4 5 6 
#
# 1 0.013895 -0.005506 0.001202 0.000000 0.007218 0.000000
# 2 -0.005506 0.027679 -0.008219 0.000000 0.000279 0.000000
# 3 0.001202 -0.008219 0.013608 0.000000 0.006231 0.000000
# 4 0.000000 0.000000 0.000000 0.034986 0.000000 -0.006422
# 5 0.007218 0.000279 0.006231 0.000000 0.031969 0.000000
# 6 0.000000 0.000000 0.000000 -0.006422 0.000000 0.035360
#
#
# Mechanical properties :
#
#
# Convention : Reuss Voigt Hill
#
# Bulk Modulus (GPa) = 33.18291 44.43849 38.81070
# Shear Modulus (GPa) = 25.96206 31.57871 28.77039
#
# Velocity S-wave (km/s) = 3.60292 3.97358 3.79278
# Velocity P-wave (km/s) = 5.82233 6.57812 6.21173
#
# Compressibility (1/GPa) = 0.03013599
#
# Stress axis : x y z
#
# Youngs Moduli (GPa) = 71.96654 36.12863 73.48573
#
# Poissons Ratio (x) = 0.19894 -0.08832
# Poissons Ratio (y) = 0.39628 0.60394
# Poissons Ratio (z) = -0.08649 0.29692
#
# Static dielectric constant tensor:
#      x y z
#    x 1.719950 0.000000 -0.024610 
#    y 0.000000 1.679600 0.000000 
#    z -0.024610 0.000000 1.694870 
# 
# From -- ./inp_files/220560.got.cif
#   From: 2010.05.17/outbox.cif.g08.bks.cpg/sg12_111_cif.got.tgz:220560.got - 2010.06.03 13:09:07.
