data_PCOD9201870
_publ_section_title
;
Structure prediction by ZEFSAII (Michael W. Deem and Ramdas Pophale) SiO2 
 PCOD9201870
Probable space group: C 2/M
;
_chemical_formula_sum "Si O2"
_cell_formula_units_Z 60
_cell_length_a 11.000774
_cell_length_b 21.535175
_cell_length_c 17.140694
_cell_angle_alpha 90.000000
_cell_angle_beta 44.284776
_cell_angle_gamma 90.000000
_cell_volume 2835.277056
_symmetry_space_group_name_H-M "C 2/M"
_symmetry_group_IT_number 12
_symmetry_cell_setting 'monoclinic'
loop_
_space_group_symop_operation_xyz
x,y,z
-x,y,-z
-x,-y,-z
x,-y,z
1/2+x,1/2+y,z
1/2-x,1/2+y,-z
1/2-x,1/2-y,-z
1/2+x,1/2-y,z
loop_
_atom_site_type_symbol
_atom_site_label
_atom_site_fract_x
_atom_site_fract_y
_atom_site_fract_z
Si Si1 0.592427 0.294224 0.205737
Si Si2 0.844384 0.396170 0.021596
Si Si3 0.996909 0.575080 0.648448
Si Si4 0.054152 0.000000 0.117773
Si Si5 0.104692 0.069921 0.573406
Si Si6 0.107694 0.185750 0.377101
Si Si7 0.483882 0.837912 0.800164
Si Si8 0.336164 0.603863 0.277723
O O1 0.748558 0.341689 0.115033
O O2 0.568455 0.285870 0.309927
O O3 0.621688 0.225873 0.160327
O O4 0.425446 0.328676 0.242469
O O5 0.701577 0.445975 0.063980
O O6 0.931918 0.367496 0.905296
O O7 0.000000 0.424176 0.000000
O O8 0.982792 0.500000 0.659233
O O9 0.948848 0.611947 0.748817
O O10 0.869805 0.601493 0.639856
O O11 0.199853 0.588638 0.539053
O O12 0.906596 0.943970 0.180504
O O13 0.102678 0.073100 0.668568
O O14 0.965153 0.116021 0.602088
O O15 0.070929 0.000000 0.564097
O O16 0.312965 0.181834 0.297069
O O17 0.000000 0.212637 0.500000
#
# Coordination Sequence:
#
# PCOD9201870 Si02
#       8
#     8   8   8   4   8   8   8   8
#     4  10  25  45  68  95 129 179 226 273 328 398
#     4  11  23  44  71  97 128 171 225 278 327 395
#     4  11  23  39  62  98 136 176 219 270 339 398
#     4  10  21  40  66 102 128 163 221 275 337 388
#     4  10  20  37  65  95 131 176 221 265 323 402
#     4  11  23  44  64  98 134 169 217 274 332 394
#     4  12  26  43  66  96 135 172 228 272 338 394
#     4  10  20  40  66  93 136 174 222 269 330 400
#
# _framework density 21.161953
#
# number of rings (size 3 to 8) (size 9 to 14) (size 15 to 20)
#    0.000    1.333    4.000    1.000    2.800    2.400 
#    0.000    3.333    0.000    0.000    0.000    0.000 
#    0.000    0.000    0.000    0.000    0.000    0.000 
#
# Total GULP energy -167035.645678 kJ/mol
# GULP energy per Si atom -5567.854856 kJ/mol
# Density = 2.111379 g / cm^3
# Si number density = 21.161953 Si / 1000 Ang^3
#
#
#
# Elastic Constant Matrix: (Units=GPa)
#
#
# Indices 1 2 3 4 5 6 
#
# 1 37.6980 14.8423 6.4046 -0.0001 -0.8391 0.0000
# 2 14.8423 29.7090 3.5409 0.0001 -4.4355 0.0001
# 3 6.4046 3.5409 69.8086 0.0000 -1.1461 0.0002
# 4 -0.0001 0.0001 0.0000 -14.1012 0.0001 6.5595
# 5 -0.8391 -4.4355 -1.1461 0.0001 31.6099 0.0000
# 6 0.0000 0.0001 0.0002 6.5595 0.0000 -2.0381
#
#
#
# Elastic Compliance Matrix: (Units=1/GPa)
#
#
# Indices 1 2 3 4 5 6 
#
# 1 0.033436 -0.016665 -0.002247 0.000003 -0.001532 0.000006
# 2 -0.016665 0.042881 -0.000555 -0.000004 0.005555 -0.000009
# 3 -0.002247 -0.000555 0.014566 -0.000002 0.000391 -0.000003
# 4 0.000003 -0.000004 -0.000002 0.142641 -0.000001 0.459091
# 5 -0.001532 0.005555 0.000391 -0.000001 0.032389 -0.000003
# 6 0.000006 -0.000009 -0.000003 0.459091 -0.000003 0.986924
#
#
# Mechanical properties :
#
#
# Convention : Reuss Voigt Hill
#
# Bulk Modulus (GPa) = 19.25018 20.75455 20.00237
# Shear Modulus (GPa) = 3.81946 10.58932 7.20439
#
# Velocity S-wave (km/s) = 1.34491 2.23938 1.84711
# Velocity P-wave (km/s) = 3.39530 4.06389 3.74455
#
# Compressibility (1/GPa) = 0.05194756
#
# Stress axis : x y z
#
# Youngs Moduli (GPa) = 29.90824 23.32043 68.65473
#
# Poissons Ratio (x) = 0.38863 0.15430
# Poissons Ratio (y) = 0.49842 0.03810
# Poissons Ratio (z) = 0.06722 0.01294
#
# Static dielectric constant tensor:
#      x y z
#    x 1.805750 0.000000 0.039390 
#    y 0.000000 1.736260 0.000000 
#    z 0.039390 0.000000 1.807690 
# 
# From -- ./inp_files/265248.got.cif
#   From: 2010.05.17/outbox.cif.g08.bks.cpg/sg12_133_cif.got.tgz:265248.got - 2010.06.03 13:09:07.
