data_PCOD9201415
_publ_section_title
;
Structure prediction by ZEFSAII (Michael W. Deem and Ramdas Pophale) SiO2 
 PCOD9201415
Probable space group: C 2/M
;
_chemical_formula_sum "Si O2"
_cell_formula_units_Z 56
_cell_length_a 16.300019
_cell_length_b 8.980258
_cell_length_c 23.220766
_cell_angle_alpha 90.000000
_cell_angle_beta 58.218101
_cell_angle_gamma 90.000000
_cell_volume 2889.366290
_symmetry_space_group_name_H-M "C 2/M"
_symmetry_group_IT_number 12
_symmetry_cell_setting 'monoclinic'
loop_
_space_group_symop_operation_xyz
x,y,z
-x,y,-z
-x,-y,-z
x,-y,z
1/2+x,1/2+y,z
1/2-x,1/2+y,-z
1/2-x,1/2-y,-z
1/2+x,1/2-y,z
loop_
_atom_site_type_symbol
_atom_site_label
_atom_site_fract_x
_atom_site_fract_y
_atom_site_fract_z
Si Si1 0.193448 0.819849 0.574144
Si Si2 0.880127 0.826165 0.200752
Si Si3 0.203465 0.679499 0.344164
Si Si4 0.032179 0.179708 0.344738
Si Si5 0.929715 0.826315 0.798193
Si Si6 0.232480 0.676006 0.068211
Si Si7 0.403873 0.174991 0.073038
O O1 0.250000 0.750000 0.500000
O O2 0.246581 0.776019 0.614075
O O3 0.080461 0.776089 0.612870
O O4 0.196230 0.000000 0.570497
O O5 0.778390 0.779269 0.265522
O O6 0.913855 0.727940 0.134861
O O7 0.960061 0.819265 0.221243
O O8 0.873699 0.000000 0.185084
O O9 0.195498 0.500000 0.347133
O O10 0.100257 0.750605 0.368238
O O11 0.074230 0.223276 0.266458
O O12 0.035818 0.000000 0.346875
O O13 0.864193 0.733253 0.865454
O O14 0.899606 0.000000 0.812518
O O15 0.230355 0.500000 0.062377
O O16 0.319113 0.728747 0.076857
O O17 0.250000 0.750000 0.000000
O O18 0.379837 0.000000 0.079507
O O19 0.500000 0.198247 0.000000
#
# Coordination Sequence:
#
# PCOD9201415 Si02
#       7
#     8   8   8   8   8   8   8
#     4  10  22  42  64  89 126 165 204 252 309 369
#     4  10  20  37  62  88 117 157 200 246 305 367
#     4  10  21  39  62  90 124 161 203 254 306 364
#     4  10  21  39  63  91 124 163 205 252 305 367
#     4  10  20  38  63  88 119 159 199 247 308 366
#     4  12  25  40  58  83 116 155 200 251 306 366
#     4  11  24  40  57  82 117 154 197 252 307 361
#
# _framework density 19.381412000000001
#
# number of rings (size 3 to 8) (size 9 to 14) (size 15 to 20)
#    0.000    1.571    1.429    3.429    0.000    9.143 
#    0.000    2.857    0.000    0.000    0.000    0.000 
#    0.000    0.000    0.000    0.000    0.000    0.000 
#
# Total GULP energy -156468.899671 kJ/mol
# GULP energy per Si atom -5588.174988 kJ/mol
# Density = 1.933730 g / cm^3
# Si number density = 19.381412 Si / 1000 Ang^3
#
#
#
# Elastic Constant Matrix: (Units=GPa)
#
#
# Indices 1 2 3 4 5 6 
#
# 1 129.4976 33.8033 53.6077 0.0000 -3.1948 0.0000
# 2 33.8033 51.6890 42.2949 0.0000 -4.5177 0.0000
# 3 53.6077 42.2949 118.6942 0.0000 -0.2235 0.0000
# 4 0.0000 0.0000 0.0000 31.1912 0.0000 -0.1913
# 5 -3.1948 -4.5177 -0.2235 0.0000 23.6053 0.0000
# 6 0.0000 0.0000 0.0000 -0.1913 0.0000 20.3408
#
#
#
# Elastic Compliance Matrix: (Units=1/GPa)
#
#
# Indices 1 2 3 4 5 6 
#
# 1 0.010070 -0.003973 -0.003131 0.000000 0.000573 0.000000
# 2 -0.003973 0.029514 -0.008713 0.000000 0.005028 0.000000
# 3 -0.003131 -0.008713 0.012940 0.000000 -0.001969 0.000000
# 4 0.000000 0.000000 0.000000 0.032062 0.000000 0.000302
# 5 0.000573 0.005028 -0.001969 0.000000 0.043385 0.000000
# 6 0.000000 0.000000 0.000000 0.000302 0.000000 0.049165
#
#
# Mechanical properties :
#
#
# Convention : Reuss Voigt Hill
#
# Bulk Modulus (GPa) = 47.87151 62.14364 55.00757
# Shear Modulus (GPa) = 23.17689 26.37246 24.77468
#
# Velocity S-wave (km/s) = 3.46183 3.69278 3.57917
# Velocity P-wave (km/s) = 6.38219 7.09333 6.74713
#
# Compressibility (1/GPa) = 0.02088925
#
# Stress axis : x y z
#
# Youngs Moduli (GPa) = 99.30929 33.88266 77.27929
#
# Poissons Ratio (x) = 0.13462 0.24196
# Poissons Ratio (y) = 0.39458 0.67332
# Poissons Ratio (z) = 0.31094 0.29521
#
# Static dielectric constant tensor:
#      x y z
#    x 1.693550 0.000000 0.020220 
#    y 0.000000 1.650710 0.000000 
#    z 0.020220 0.000000 1.725600 
# 
# From -- ./inp_files/309069.got.cif
#   From: 2010.05.17/outbox.cif.g08.bks.cpg/sg12_155_cif.got.tgz:309069.got - 2010.06.03 13:09:07.
