data_PCOD9201046
_publ_section_title
;
Structure prediction by ZEFSAII (Michael W. Deem and Ramdas Pophale) SiO2 
 PCOD9201046
Probable space group: C 2/M
;
_chemical_formula_sum "Si O2"
_cell_formula_units_Z 48
_cell_length_a 14.808388
_cell_length_b 22.393313
_cell_length_c 11.171231
_cell_angle_alpha 90.000000
_cell_angle_beta 39.349225
_cell_angle_gamma 90.000000
_cell_volume 2348.808311
_symmetry_space_group_name_H-M "C 2/M"
_symmetry_group_IT_number 12
_symmetry_cell_setting 'monoclinic'
loop_
_space_group_symop_operation_xyz
x,y,z
-x,y,-z
-x,-y,-z
x,-y,z
1/2+x,1/2+y,z
1/2-x,1/2+y,-z
1/2-x,1/2-y,-z
1/2+x,1/2-y,z
loop_
_atom_site_type_symbol
_atom_site_label
_atom_site_fract_x
_atom_site_fract_y
_atom_site_fract_z
Si Si1 0.677891 0.816113 0.730996
Si Si2 0.178886 0.121496 0.979606
Si Si3 0.051187 0.500000 0.083492
Si Si4 0.560511 0.610618 0.572398
Si Si5 0.830823 0.000000 0.154241
Si Si6 0.104044 0.368703 0.063438
Si Si7 0.000000 0.209453 0.000000
Si Si8 0.762240 0.000000 0.503725
O O1 0.837663 0.830528 0.527209
O O2 0.563803 0.855525 0.773373
O O3 0.604075 0.751377 0.813190
O O4 0.667668 0.838248 0.879721
O O5 0.069106 0.111653 0.201725
O O6 0.207861 0.059730 0.879714
O O7 0.320004 0.149891 0.893164
O O8 0.101363 0.167584 0.972825
O O9 0.132727 0.439236 0.023913
O O10 0.905492 0.500000 0.304888
O O11 0.000000 0.500000 0.000000
O O12 0.500000 0.602945 0.500000
O O13 0.662618 0.556651 0.510201
O O14 0.221587 0.000000 0.655837
O O15 0.000000 0.000000 0.000000
#
# Coordination Sequence:
#
# PCOD9201046 Si02
#       8
#     8   8   4   8   4   8   4   4
#     4  10  22  40  61  94 130 156 217 267 313 387
#     4  12  23  42  70  89 129 173 212 267 318 386
#     4  12  19  35  66  94 132 168 198 257 339 377
#     4  12  22  38  63 102 127 160 218 272 325 373
#     4  12  23  43  61  95 129 171 218 251 323 397
#     4  10  20  37  60  94 123 166 202 261 321 376
#     4  10  24  43  66  87 122 184 216 252 324 376
#     4  12  23  38  67  90 137 175 204 265 323 387
#
# _framework density 20.435894999999999
#
# number of rings (size 3 to 8) (size 9 to 14) (size 15 to 20)
#    0.000    1.000    7.500    0.750    0.000    3.333 
#    0.000    1.667    0.000    0.000    0.000    0.000 
#    0.000    0.000    0.000    0.000    0.000    0.000 
#
# Total GULP energy -134025.691700 kJ/mol
# GULP energy per Si atom -5584.403821 kJ/mol
# Density = 2.038938 g / cm^3
# Si number density = 20.435895 Si / 1000 Ang^3
#
#
#
# Elastic Constant Matrix: (Units=GPa)
#
#
# Indices 1 2 3 4 5 6 
#
# 1 160.7523 47.0294 17.1088 0.0001 4.2981 0.0000
# 2 47.0294 103.2937 12.3138 0.0001 6.7655 -0.0001
# 3 17.1088 12.3138 74.8938 0.0002 8.3476 -0.0001
# 4 0.0001 0.0001 0.0002 96.3597 0.0000 -52.9778
# 5 4.2981 6.7655 8.3476 0.0000 19.6383 0.0000
# 6 0.0000 -0.0001 -0.0001 -52.9778 0.0000 -35.0688
#
#
#
# Elastic Compliance Matrix: (Units=1/GPa)
#
#
# Indices 1 2 3 4 5 6 
#
# 1 0.007271 -0.003174 -0.001137 0.000000 -0.000014 0.000000
# 2 -0.003174 0.011414 -0.000830 0.000000 -0.002885 0.000000
# 3 -0.001137 -0.000830 0.014370 0.000000 -0.005573 0.000000
# 4 0.000000 0.000000 0.000000 0.005669 0.000000 -0.008564
# 5 -0.000014 -0.002885 -0.005573 0.000000 0.054287 0.000000
# 6 0.000000 0.000000 0.000000 -0.008564 0.000000 -0.015577
#
#
# Mechanical properties :
#
#
# Convention : Reuss Voigt Hill
#
# Bulk Modulus (GPa) = 43.91415 54.64934 49.28174
# Shear Modulus (GPa) = 52.46237 33.68504 43.07371
#
# Velocity S-wave (km/s) = 5.07222 4.06436 4.59600
# Velocity P-wave (km/s) = 7.47252 6.98751 7.23408
#
# Compressibility (1/GPa) = 0.02277170
#
# Stress axis : x y z
#
# Youngs Moduli (GPa) = 137.53798 87.61131 69.59062
#
# Poissons Ratio (x) = 0.27806 0.07916
# Poissons Ratio (y) = 0.43652 0.05777
# Poissons Ratio (z) = 0.15645 0.07273
#
# Static dielectric constant tensor:
#      x y z
#    x 1.743760 0.000000 -0.020810 
#    y 0.000000 1.808750 0.000000 
#    z -0.020810 0.000000 1.719220 
# 
# From -- ./inp_files/147992.got.cif
#   From: 2010.05.17/outbox.cif.g08.bks.cpg/sg12_74_cif.got.tgz:147992.got - 2010.06.03 13:09:07.
