data_PCOD9201900
_publ_section_title
;
Structure prediction by ZEFSAII (Michael W. Deem and Ramdas Pophale) SiO2 
 PCOD9201900
Probable space group: C 2/M
;
_chemical_formula_sum "Si O2"
_cell_formula_units_Z 40
_cell_length_a 9.015330
_cell_length_b 19.626406
_cell_length_c 13.824285
_cell_angle_alpha 90.000000
_cell_angle_beta 133.952766
_cell_angle_gamma 90.000000
_cell_volume 1760.940305
_symmetry_space_group_name_H-M "C 2/M"
_symmetry_group_IT_number 12
_symmetry_cell_setting 'monoclinic'
loop_
_space_group_symop_operation_xyz
x,y,z
-x,y,-z
-x,-y,-z
x,-y,z
1/2+x,1/2+y,z
1/2-x,1/2+y,-z
1/2-x,1/2-y,-z
1/2+x,1/2-y,z
loop_
_atom_site_type_symbol
_atom_site_label
_atom_site_fract_x
_atom_site_fract_y
_atom_site_fract_z
Si Si1 0.500000 0.286422 0.500000
Si Si2 0.723908 0.500000 0.321029
Si Si3 0.950621 0.623957 0.867432
Si Si4 0.625942 0.722915 0.217100
Si Si5 0.518962 0.375405 0.334806
Si Si6 0.222125 0.098050 0.140140
O O1 0.329821 0.242176 0.369553
O O2 0.603649 0.333205 0.464213
O O3 0.652401 0.439422 0.363867
O O4 0.774726 0.558370 0.261369
O O5 0.968976 0.705628 0.858545
O O6 0.713621 0.604521 0.741821
O O7 0.108842 0.590050 0.865542
O O8 0.000000 0.606677 0.000000
O O9 0.495552 0.675682 0.231625
O O10 0.691618 0.676531 0.157110
O O11 0.000000 0.074951 0.000000
#
# Coordination Sequence:
#
# PCOD9201900 Si02
#       6
#     4   4   8   8   8   8
#     4  10  20  37  66  91 116 148 194 250 296 342
#     4  10  23  43  58  81 119 161 202 237 287 349
#     4  11  21  35  59  91 119 149 195 246 296 346
#     4  10  21  38  61  90 122 154 189 237 299 355
#     4  10  22  38  61  87 116 156 196 241 291 344
#     4  11  23  39  60  86 122 161 193 235 291 353
#
# _framework density 22.715139000000001
#
# number of rings (size 3 to 8) (size 9 to 14) (size 15 to 20)
#    0.000    1.600    0.000    6.300    0.000    5.200 
#    0.000    2.000    0.000   33.600    0.000    0.000 
#    0.000    0.000    0.000    0.000    0.000    0.000 
#
# Total GULP energy -111373.316785 kJ/mol
# GULP energy per Si atom -5568.665839 kJ/mol
# Density = 2.266344 g / cm^3
# Si number density = 22.715139 Si / 1000 Ang^3
#
#
#
# Elastic Constant Matrix: (Units=GPa)
#
#
# Indices 1 2 3 4 5 6 
#
# 1 148.7714 21.5171 33.1574 0.0000 -21.3775 0.0000
# 2 21.5171 76.6114 6.9659 0.0000 -6.9868 0.0000
# 3 33.1574 6.9659 56.3682 0.0001 -1.6738 0.0000
# 4 0.0000 0.0000 0.0001 -18.8067 0.0000 -16.8268
# 5 -21.3775 -6.9868 -1.6738 0.0000 25.0214 0.0000
# 6 0.0000 0.0000 0.0000 -16.8268 0.0000 -8.7330
#
#
#
# Elastic Compliance Matrix: (Units=1/GPa)
#
#
# Indices 1 2 3 4 5 6 
#
# 1 0.009033 -0.001452 -0.004927 0.000000 0.006983 0.000000
# 2 -0.001452 0.013764 -0.000771 0.000000 0.002551 0.000000
# 3 -0.004927 -0.000771 0.020643 0.000000 -0.003044 0.000000
# 4 0.000000 0.000000 0.000000 0.073446 0.000000 -0.141517
# 5 0.006983 0.002551 -0.003044 0.000000 0.046440 0.000000
# 6 0.000000 0.000000 0.000000 -0.141517 0.000000 0.158168
#
#
# Mechanical properties :
#
#
# Convention : Reuss Voigt Hill
#
# Bulk Modulus (GPa) = 34.31674 45.00354 39.66014
# Shear Modulus (GPa) = 14.47145 14.17037 14.32091
#
# Velocity S-wave (km/s) = 2.52679 2.50037 2.51361
# Velocity P-wave (km/s) = 4.86345 5.30951 5.09137
#
# Compressibility (1/GPa) = 0.02914030
#
# Stress axis : x y z
#
# Youngs Moduli (GPa) = 110.70318 72.65588 48.44157
#
# Poissons Ratio (x) = 0.10552 0.23866
# Poissons Ratio (y) = 0.16077 0.03734
# Poissons Ratio (z) = 0.54541 0.05601
#
# Static dielectric constant tensor:
#      x y z
#    x 1.840500 0.000000 0.018740 
#    y 0.000000 1.850810 0.000000 
#    z 0.018740 0.000000 1.849270 
# 
# From -- ./inp_files/197340.got.cif
#   From: 2010.05.17/outbox.cif.g08.bks.cpg/sg12_99_cif.got.tgz:197340.got - 2010.06.03 13:09:07.
