data_PCOD9201599
_publ_section_title
;
Structure prediction by ZEFSAII (Michael W. Deem and Ramdas Pophale) SiO2 
 PCOD9201599
Probable space group: C 2/M
;
_chemical_formula_sum "Si O2"
_cell_formula_units_Z 60
_cell_length_a 9.565321
_cell_length_b 20.583982
_cell_length_c 21.963491
_cell_angle_alpha 90.000000
_cell_angle_beta 45.290768
_cell_angle_gamma 90.000000
_cell_volume 3073.322610
_symmetry_space_group_name_H-M "C 2/M"
_symmetry_group_IT_number 12
_symmetry_cell_setting 'monoclinic'
loop_
_space_group_symop_operation_xyz
x,y,z
-x,y,-z
-x,-y,-z
x,-y,z
1/2+x,1/2+y,z
1/2-x,1/2+y,-z
1/2-x,1/2-y,-z
1/2+x,1/2-y,z
loop_
_atom_site_type_symbol
_atom_site_label
_atom_site_fract_x
_atom_site_fract_y
_atom_site_fract_z
Si Si1 0.007476 0.312769 0.395449
Si Si2 0.853747 0.922450 0.727903
Si Si3 0.865981 0.572324 0.725087
Si Si4 0.667842 0.681752 0.600370
Si Si5 0.000000 0.252562 0.000000
Si Si6 0.193194 0.840944 0.022945
Si Si7 0.899336 0.576183 0.853974
Si Si8 0.422408 0.571541 0.836135
O O1 0.829594 0.324109 0.497391
O O2 0.961385 0.245446 0.375199
O O3 0.017468 0.370827 0.343704
O O4 0.206272 0.310696 0.375684
O O5 0.633144 0.915413 0.771911
O O6 0.838588 0.895694 0.801843
O O7 0.023676 0.880091 0.645595
O O8 0.901834 0.000000 0.713376
O O9 0.957721 0.500000 0.693115
O O10 0.819175 0.584596 0.810341
O O11 0.655862 0.569320 0.756147
O O12 0.987014 0.202200 0.947418
O O13 0.175799 0.298563 0.969679
O O14 0.313712 0.872946 0.929576
O O15 0.119417 0.898185 0.086981
O O16 0.865500 0.500000 0.883184
O O17 0.334769 0.500000 0.863370
#
# Coordination Sequence:
#
# PCOD9201599 Si02
#       8
#     8   8   8   8   4   8   8   8
#     4  10  22  41  62  88 119 154 195 236 289 356
#     4  10  21  39  59  91 120 149 197 249 292 344
#     4  10  21  39  59  91 120 149 197 249 292 344
#     4  10  22  41  62  88 119 154 195 236 289 356
#     4  10  24  38  54  78 120 146 190 256 272 350
#     4  11  21  42  56  82 115 159 196 236 296 335
#     4  10  22  39  61  84 117 153 197 244 289 346
#     4  10  20  37  63  84 111 147 199 250 285 342
#
# _framework density 19.522845
#
# number of rings (size 3 to 8) (size 9 to 14) (size 15 to 20)
#    0.000    1.867    1.333    2.000    1.867    0.533 
#   14.400    6.667    0.000    2.400    0.000    0.000 
#    0.000    0.000    0.000    0.000    0.000    0.000 
#
# Total GULP energy -167042.416210 kJ/mol
# GULP energy per Si atom -5568.080540 kJ/mol
# Density = 1.947841 g / cm^3
# Si number density = 19.522845 Si / 1000 Ang^3
#
#
#
# Elastic Constant Matrix: (Units=GPa)
#
#
# Indices 1 2 3 4 5 6 
#
# 1 82.4516 19.3982 6.1148 0.0000 1.3194 -0.0003
# 2 19.3982 100.1404 49.1100 -0.0002 2.8627 0.0002
# 3 6.1148 49.1100 41.4107 -0.0001 3.8768 -0.0001
# 4 0.0000 -0.0002 -0.0001 54.2358 -0.0002 11.7863
# 5 1.3194 2.8627 3.8768 -0.0002 20.0013 0.0003
# 6 -0.0003 0.0002 -0.0001 11.7863 0.0003 28.8713
#
#
#
# Elastic Compliance Matrix: (Units=1/GPa)
#
#
# Indices 1 2 3 4 5 6 
#
# 1 0.012829 -0.003753 0.002633 0.000000 -0.000820 0.000000
# 2 -0.003753 0.025052 -0.029376 0.000000 0.002356 0.000000
# 3 0.002633 -0.029376 0.059296 0.000000 -0.007463 0.000001
# 4 0.000000 0.000000 0.000000 0.020233 0.000000 -0.008260
# 5 -0.000820 0.002356 -0.007463 0.000000 0.051160 -0.000001
# 6 0.000000 0.000000 0.000001 -0.008260 -0.000001 0.038008
#
#
# Mechanical properties :
#
#
# Convention : Reuss Voigt Hill
#
# Bulk Modulus (GPa) = 27.63563 41.47206 34.55385
# Shear Modulus (GPa) = 17.88056 30.58033 24.23044
#
# Velocity S-wave (km/s) = 3.02963 3.96205 3.52679
# Velocity P-wave (km/s) = 5.14048 6.49765 5.85850
#
# Compressibility (1/GPa) = 0.03618517
#
# Stress axis : x y z
#
# Youngs Moduli (GPa) = 77.94768 39.91678 16.86445
#
# Poissons Ratio (x) = 0.14981 -0.04441
# Poissons Ratio (y) = 0.29254 0.49542
# Poissons Ratio (z) = -0.20525 1.17261
#
# Static dielectric constant tensor:
#      x y z
#    x 1.692310 0.000000 -0.000440 
#    y 0.000000 1.720330 0.000000 
#    z -0.000440 0.000000 1.650150 
# 
# From -- ./inp_files/301903.got.cif
#   From: 2010.05.17/outbox.cif.g08.bks.cpg/sg12_151_cif.got.tgz:301903.got - 2010.06.03 13:09:07.
