data_PCOD9201711
_publ_section_title
;
Structure prediction by ZEFSAII (Michael W. Deem and Ramdas Pophale) SiO2 
 PCOD9201711
Probable space group: C 2/M
;
_chemical_formula_sum "Si O2"
_cell_formula_units_Z 48
_cell_length_a 14.904846
_cell_length_b 11.082771
_cell_length_c 22.513150
_cell_angle_alpha 90.000000
_cell_angle_beta 40.064592
_cell_angle_gamma 90.000000
_cell_volume 2393.659812
_symmetry_space_group_name_H-M "C 2/M"
_symmetry_group_IT_number 12
_symmetry_cell_setting 'monoclinic'
loop_
_space_group_symop_operation_xyz
x,y,z
-x,y,-z
-x,-y,-z
x,-y,z
1/2+x,1/2+y,z
1/2-x,1/2+y,-z
1/2-x,1/2-y,-z
1/2+x,1/2-y,z
loop_
_atom_site_type_symbol
_atom_site_label
_atom_site_fract_x
_atom_site_fract_y
_atom_site_fract_z
Si Si1 0.616832 0.297501 0.104018
Si Si2 0.781882 0.134371 0.819227
Si Si3 0.719072 0.359212 0.472292
Si Si4 0.411641 0.639651 0.633369
Si Si5 0.371233 0.861523 0.274091
Si Si6 0.090576 0.869000 0.894294
O O1 0.671362 0.362527 0.135963
O O2 0.515054 0.196887 0.182926
O O3 0.515078 0.361154 0.107936
O O4 0.750000 0.250000 0.000000
O O5 0.907068 0.145069 0.707562
O O6 0.683230 0.248374 0.854762
O O7 0.718886 0.000000 0.839906
O O8 0.713823 0.500000 0.497061
O O9 0.750000 0.250000 0.500000
O O10 0.561221 0.327250 0.532231
O O11 0.832262 0.357435 0.362879
O O12 0.396814 0.500000 0.622540
O O13 0.266913 0.698059 0.685557
O O14 0.381207 0.000000 0.250008
O O15 0.166222 0.000000 0.852337
O O16 0.000000 0.870993 0.000000
#
# Coordination Sequence:
#
# PCOD9201711 Si02
#       6
#     8   8   8   8   8   8
#     4  12  24  40  62  95 128 172 217 272 324 383
#     4  11  23  41  65  94 124 166 218 265 315 382
#     4  10  20  37  63  94 128 164 208 262 320 385
#     4   9  18  36  63  92 124 161 208 261 313 377
#     4  10  21  37  63  95 126 166 220 268 318 386
#     4  11  24  44  62  88 128 170 212 267 333 385
#
# _framework density 20.052975
#
# number of rings (size 3 to 8) (size 9 to 14) (size 15 to 20)
#    0.000    1.500    3.333    2.000    0.000    4.333 
#    0.000    1.667    0.000    1.000    0.000    0.000 
#    0.000    0.000    0.000    0.000    0.000    0.000 
#
# Total GULP energy -133606.562719 kJ/mol
# GULP energy per Si atom -5566.940113 kJ/mol
# Density = 2.000733 g / cm^3
# Si number density = 20.052975 Si / 1000 Ang^3
#
#
#
# Elastic Constant Matrix: (Units=GPa)
#
#
# Indices 1 2 3 4 5 6 
#
# 1 90.4960 56.8021 18.6523 0.0000 6.7141 0.0000
# 2 56.8021 133.6362 50.4646 0.0000 -9.5203 0.0000
# 3 18.6523 50.4646 109.8673 0.0000 -16.0768 0.0000
# 4 0.0000 0.0000 0.0000 20.9372 0.0000 -8.5916
# 5 6.7141 -9.5203 -16.0768 0.0000 38.4993 0.0000
# 6 0.0000 0.0000 0.0000 -8.5916 0.0000 24.4571
#
#
#
# Elastic Compliance Matrix: (Units=1/GPa)
#
#
# Indices 1 2 3 4 5 6 
#
# 1 0.015802 -0.006988 -0.000137 0.000000 -0.004541 0.000000
# 2 -0.006988 0.012154 -0.004024 0.000000 0.002544 0.000000
# 3 -0.000137 -0.004024 0.011536 0.000000 0.003846 0.000000
# 4 0.000000 0.000000 0.000000 0.055807 0.000000 0.019604
# 5 -0.004541 0.002544 0.003846 0.000000 0.029002 0.000000
# 6 0.000000 0.000000 0.000000 0.019604 0.000000 0.047775
#
#
# Mechanical properties :
#
#
# Convention : Reuss Voigt Hill
#
# Bulk Modulus (GPa) = 58.16286 65.09305 61.62796
# Shear Modulus (GPa) = 24.98682 30.65076 27.81879
#
# Velocity S-wave (km/s) = 3.53376 3.91383 3.72864
# Velocity P-wave (km/s) = 6.76147 7.27703 7.02398
#
# Compressibility (1/GPa) = 0.01719310
#
# Stress axis : x y z
#
# Youngs Moduli (GPa) = 63.28414 82.27639 86.68236
#
# Poissons Ratio (x) = 0.57496 0.01191
# Poissons Ratio (y) = 0.44224 0.34881
# Poissons Ratio (z) = 0.00869 0.33108
#
# Static dielectric constant tensor:
#      x y z
#    x 1.812150 0.000000 0.012370 
#    y 0.000000 1.747310 0.000000 
#    z 0.012370 0.000000 1.719490 
# 
# From -- ./inp_files/250751.got.cif
#   From: 2010.05.17/outbox.cif.g08.bks.cpg/sg12_126_cif.got.tgz:250751.got - 2010.06.03 13:09:07.
