data_PCOD9201592
_publ_section_title
;
Structure prediction by ZEFSAII (Michael W. Deem and Ramdas Pophale) SiO2 
 PCOD9201592
Probable space group: C 2/M
;
_chemical_formula_sum "Si O2"
_cell_formula_units_Z 44
_cell_length_a 17.700135
_cell_length_b 20.233934
_cell_length_c 5.303155
_cell_angle_alpha 90.000000
_cell_angle_beta 91.148680
_cell_angle_gamma 90.000000
_cell_volume 1898.908088
_symmetry_space_group_name_H-M "C 2/M"
_symmetry_group_IT_number 12
_symmetry_cell_setting 'monoclinic'
loop_
_space_group_symop_operation_xyz
x,y,z
-x,y,-z
-x,-y,-z
x,-y,z
1/2+x,1/2+y,z
1/2-x,1/2+y,-z
1/2-x,1/2-y,-z
1/2+x,1/2-y,z
loop_
_atom_site_type_symbol
_atom_site_label
_atom_site_fract_x
_atom_site_fract_y
_atom_site_fract_z
Si Si1 0.311631 0.733164 0.713006
Si Si2 0.570503 0.000000 0.710271
Si Si3 0.197883 0.640739 0.998558
Si Si4 0.827120 0.500000 0.792814
Si Si5 0.961338 0.356045 0.251219
Si Si6 0.051736 0.000000 0.251589
Si Si7 0.050984 0.142221 0.257524
O O1 0.250000 0.750000 0.500000
O O2 0.333574 0.805164 0.812293
O O3 0.388866 0.696853 0.665519
O O4 0.270173 0.680345 0.896749
O O5 0.630151 0.000000 0.476103
O O6 0.521164 0.934162 0.728517
O O7 0.615617 0.000000 0.972387
O O8 0.213052 0.571099 0.143726
O O9 0.130070 0.640595 0.785699
O O10 0.000000 0.325042 0.500000
O O11 0.000000 0.329778 0.000000
O O12 0.092540 0.929603 0.239256
O O13 0.000000 0.000000 0.500000
O O14 0.000000 0.000000 0.000000
O O15 0.000000 0.136722 0.500000
O O16 0.000000 0.153101 0.000000
#
# Coordination Sequence:
#
# PCOD9201592 Si02
#       7
#     8   4   8   4   8   4   8
#     4  11  27  48  71  96 151 187 227 292 362 436
#     4  10  20  37  62  96 138 177 220 292 343 379
#     4  10  26  46  65 100 137 187 232 291 354 415
#     4  10  22  42  71  96 131 181 246 287 339 428
#     4  11  22  38  65  97 134 178 234 282 334 402
#     4   8  16  37  69 104 139 167 223 298 353 410
#     4  10  23  45  75 109 139 183 238 293 358 428
#
# _framework density 23.171209000000001
#
# number of rings (size 3 to 8) (size 9 to 14) (size 15 to 20)
#    0.000    1.818    0.000    2.727   12.727    1.455 
#    0.000    0.909    0.000    0.000    0.000    0.000 
#    0.000    0.000    0.000    0.000    0.000    0.000 
#
# Total GULP energy -122503.291394 kJ/mol
# GULP energy per Si atom -5568.331427 kJ/mol
# Density = 2.311847 g / cm^3
# Si number density = 23.171209 Si / 1000 Ang^3
#
#
#
# Elastic Constant Matrix: (Units=GPa)
#
#
# Indices 1 2 3 4 5 6 
#
# 1 37.1426 37.1456 11.8083 0.0000 0.6521 0.0000
# 2 37.1456 171.8933 23.5347 0.0000 -0.2068 0.0000
# 3 11.8083 23.5347 142.2105 0.0000 -0.6397 0.0000
# 4 0.0000 0.0000 0.0000 22.8356 0.0000 -4.9357
# 5 0.6521 -0.2068 -0.6397 0.0000 32.3764 0.0000
# 6 0.0000 0.0000 0.0000 -4.9357 0.0000 37.5508
#
#
#
# Elastic Compliance Matrix: (Units=1/GPa)
#
#
# Indices 1 2 3 4 5 6 
#
# 1 0.034753 -0.007280 -0.001684 0.000000 -0.000780 0.000000
# 2 -0.007280 0.007478 -0.000632 0.000000 0.000182 0.000000
# 3 -0.001684 -0.000632 0.007277 0.000000 0.000174 0.000000
# 4 0.000000 0.000000 0.000000 0.045072 0.000000 0.005924
# 5 -0.000780 0.000182 0.000174 0.000000 0.030907 0.000000
# 6 0.000000 0.000000 0.000000 0.005924 0.000000 0.027409
#
#
# Mechanical properties :
#
#
# Convention : Reuss Voigt Hill
#
# Bulk Modulus (GPa) = 32.98780 55.13596 44.06188
# Shear Modulus (GPa) = 27.44317 37.13642 32.28979
#
# Velocity S-wave (km/s) = 3.44519 4.00771 3.73705
# Velocity P-wave (km/s) = 5.48573 6.72773 6.13823
#
# Compressibility (1/GPa) = 0.03031424
#
# Stress axis : x y z
#
# Youngs Moduli (GPa) = 28.77415 133.73268 137.41761
#
# Poissons Ratio (x) = 0.97363 0.23146
# Poissons Ratio (y) = 0.20949 0.08687
# Poissons Ratio (z) = 0.04847 0.08454
#
# Static dielectric constant tensor:
#      x y z
#    x 2.022230 0.000000 -0.038070 
#    y 0.000000 1.973980 0.000000 
#    z -0.038070 0.000000 1.955580 
# 
# From -- ./inp_files/16176.got.cif
#   From: 2010.05.17/outbox.cif.g08.bks.cpg/sg12_9_cif.got.tgz:16176.got - 2010.06.03 13:09:07.
