data_PCOD9201678
_publ_section_title
;
Structure prediction by ZEFSAII (Michael W. Deem and Ramdas Pophale) SiO2 
 PCOD9201678
Probable space group: C 2/M
;
_chemical_formula_sum "Si O2"
_cell_formula_units_Z 56
_cell_length_a 18.171241
_cell_length_b 31.521145
_cell_length_c 8.312810
_cell_angle_alpha 90.000000
_cell_angle_beta 32.858454
_cell_angle_gamma 90.000000
_cell_volume 2583.369879
_symmetry_space_group_name_H-M "C 2/M"
_symmetry_group_IT_number 12
_symmetry_cell_setting 'monoclinic'
loop_
_space_group_symop_operation_xyz
x,y,z
-x,y,-z
-x,-y,-z
x,-y,z
1/2+x,1/2+y,z
1/2-x,1/2+y,-z
1/2-x,1/2-y,-z
1/2+x,1/2-y,z
loop_
_atom_site_type_symbol
_atom_site_label
_atom_site_fract_x
_atom_site_fract_y
_atom_site_fract_z
Si Si1 0.614759 0.220985 0.169586
Si Si2 0.476711 0.064865 0.864228
Si Si3 0.814795 0.803843 0.081545
Si Si4 0.052187 0.337035 0.733372
Si Si5 0.180401 0.049326 0.494324
Si Si6 0.544111 0.611164 0.235189
Si Si7 0.747761 0.953864 0.256196
O O1 0.500000 0.239972 0.500000
O O2 0.741498 0.204462 0.041694
O O3 0.546924 0.180066 0.220001
O O4 0.637467 0.255396 0.986991
O O5 0.532457 0.112765 0.770740
O O6 0.584963 0.045386 0.544606
O O7 0.500000 0.046055 0.000000
O O8 0.315896 0.060242 0.142158
O O9 0.700335 0.820175 0.414263
O O10 0.927488 0.840395 0.869721
O O11 0.000000 0.321102 0.000000
O O12 0.214796 0.051827 0.622133
O O13 0.065664 0.083621 0.662504
O O14 0.142111 0.000000 0.533506
O O15 0.500000 0.611696 0.500000
O O16 0.683553 0.584832 0.961068
O O17 0.801232 0.000000 0.106636
#
# Coordination Sequence:
#
# PCOD9201678 Si02
#       7
#     8   8   8   8   8   8   8
#     4   9  20  39  64  85 119 160 207 242 293 371
#     4   9  18  36  63  90 115 152 201 251 293 349
#     4  10  21  41  61  87 119 166 204 240 299 376
#     4  10  20  37  63  93 119 147 199 265 309 349
#     4  10  22  40  62  89 121 162 205 247 301 365
#     4  12  25  38  57  87 125 158 200 251 305 353
#     4  10  20  40  65  86 117 162 207 247 300 364
#
# _framework density 21.677112999999999
#
# number of rings (size 3 to 8) (size 9 to 14) (size 15 to 20)
#    0.000    2.000    1.429    1.714    2.000    4.571 
#    0.000    2.143    0.000    1.714    0.000    0.000 
#    0.000    0.000    0.000    0.000    0.000    0.000 
#
# Total GULP energy -156131.537633 kJ/mol
# GULP energy per Si atom -5576.126344 kJ/mol
# Density = 2.162778 g / cm^3
# Si number density = 21.677113 Si / 1000 Ang^3
#
#
#
# Elastic Constant Matrix: (Units=GPa)
#
#
# Indices 1 2 3 4 5 6 
#
# 1 19.5950 12.1957 15.0954 0.0000 -7.5142 0.0000
# 2 12.1957 103.8280 40.7852 0.0000 0.6016 0.0000
# 3 15.0954 40.7852 101.9608 0.0000 -4.9354 0.0000
# 4 0.0000 0.0000 0.0000 3.8044 0.0000 -5.8220
# 5 -7.5142 0.6016 -4.9354 0.0000 27.3842 0.0000
# 6 0.0000 0.0000 0.0000 -5.8220 0.0000 15.2807
#
#
#
# Elastic Compliance Matrix: (Units=1/GPa)
#
#
# Indices 1 2 3 4 5 6 
#
# 1 0.066072 -0.005149 -0.006899 0.000000 0.017000 0.000000
# 2 -0.005149 0.011860 -0.004099 0.000000 -0.002412 0.000000
# 3 -0.006899 -0.004099 0.012490 0.000000 0.000448 0.000000
# 4 0.000000 0.000000 0.000000 0.630458 0.000000 0.240208
# 5 0.017000 -0.002412 0.000448 0.000000 0.041316 0.000000
# 6 0.000000 0.000000 0.000000 0.240208 0.000000 0.156963
#
#
# Mechanical properties :
#
#
# Convention : Reuss Voigt Hill
#
# Bulk Modulus (GPa) = 17.20332 40.17071 28.68701
# Shear Modulus (GPa) = 5.15023 19.78102 12.46562
#
# Velocity S-wave (km/s) = 1.54306 3.02409 2.40064
# Velocity P-wave (km/s) = 3.33588 5.54663 4.57675
#
# Compressibility (1/GPa) = 0.05812832
#
# Stress axis : x y z
#
# Youngs Moduli (GPa) = 15.13492 84.31635 80.06203
#
# Poissons Ratio (x) = 0.43416 0.55239
# Poissons Ratio (y) = 0.07793 0.32814
# Poissons Ratio (z) = 0.10442 0.34558
#
# Static dielectric constant tensor:
#      x y z
#    x 1.804040 0.000000 -0.005170 
#    y 0.000000 1.785260 0.000000 
#    z -0.005170 0.000000 1.890030 
# 
# From -- ./inp_files/91544.got.cif
#   From: 2010.05.17/outbox.cif.g08.bks.cpg/sg12_46_cif.got.tgz:91544.got - 2010.06.03 13:09:07.
