data_PCOD9201993
_publ_section_title
;
Structure prediction by ZEFSAII (Michael W. Deem and Ramdas Pophale) SiO2 
 PCOD9201993
Probable space group: C 2/M
;
_chemical_formula_sum "Si O2"
_cell_formula_units_Z 36
_cell_length_a 19.156308
_cell_length_b 25.323800
_cell_length_c 16.307373
_cell_angle_alpha 90.000000
_cell_angle_beta 166.253854
_cell_angle_gamma 90.000000
_cell_volume 1879.787234
_symmetry_space_group_name_H-M "C 2/M"
_symmetry_group_IT_number 12
_symmetry_cell_setting 'monoclinic'
loop_
_space_group_symop_operation_xyz
x,y,z
-x,y,-z
-x,-y,-z
x,-y,z
1/2+x,1/2+y,z
1/2-x,1/2+y,-z
1/2-x,1/2-y,-z
1/2+x,1/2-y,z
loop_
_atom_site_type_symbol
_atom_site_label
_atom_site_fract_x
_atom_site_fract_y
_atom_site_fract_z
Si Si1 0.364349 0.277825 0.755550
Si Si2 0.990821 0.627472 0.729861
Si Si3 0.635189 0.290479 0.743833
Si Si4 0.999552 0.940368 0.257820
Si Si5 0.344022 0.500000 0.408734
O O1 0.205484 0.329123 0.540012
O O2 0.122901 0.231744 0.493191
O O3 0.500000 0.288249 0.000000
O O4 0.623655 0.255699 0.994430
O O5 0.774194 0.588365 0.530531
O O6 0.200539 0.660111 0.030241
O O7 0.206979 0.594201 0.918231
O O8 0.500000 0.302014 0.500000
O O9 0.964389 0.000000 0.184112
O O10 0.064883 0.950974 0.429122
O O11 0.500000 0.500000 0.500000
O O12 0.000000 0.500000 0.000000
#
# Coordination Sequence:
#
# PCOD9201993 Si02
#       5
#     8   8   8   8   4
#     4  10  21  37  57  84 115 148 187 237 290 338
#     4  12  20  37  61  81 112 155 193 231 281 346
#     4  10  21  35  54  85 119 144 185 235 282 345
#     4  10  24  37  55  83 111 150 191 235 281 326
#     4  10  20  38  56  76 111 148 183 228 282 328
#
# _framework density 19.151105000000001
#
# number of rings (size 3 to 8) (size 9 to 14) (size 15 to 20)
#    0.667    0.889    0.000    6.000    0.000    2.667 
#    0.000    0.000    0.000    4.000    0.000    0.000 
#    0.000    0.000    0.000    0.000    0.000    0.000 
#
# Total GULP energy -100558.747001 kJ/mol
# GULP energy per Si atom -5586.597056 kJ/mol
# Density = 1.910752 g / cm^3
# Si number density = 19.151105 Si / 1000 Ang^3
#
#
#
# Elastic Constant Matrix: (Units=GPa)
#
#
# Indices 1 2 3 4 5 6 
#
# 1 27.0535 11.7222 18.2394 -0.0004 2.1368 -0.0021
# 2 11.7222 108.6671 48.6809 -0.0042 -16.4022 -0.0007
# 3 18.2394 48.6809 110.6169 0.0100 6.5213 0.0053
# 4 -0.0004 -0.0042 0.0100 22.1501 -0.0076 8.8830
# 5 2.1368 -16.4022 6.5213 -0.0076 19.7122 0.0049
# 6 -0.0021 -0.0007 0.0053 8.8830 0.0049 13.6913
#
#
#
# Elastic Compliance Matrix: (Units=1/GPa)
#
#
# Indices 1 2 3 4 5 6 
#
# 1 0.042273 -0.002954 -0.005360 -0.000004 -0.005267 0.000013
# 2 -0.002954 0.014907 -0.006959 0.000016 0.015026 -0.000013
# 3 -0.005360 -0.006959 0.013558 -0.000013 -0.009695 0.000006
# 4 -0.000004 0.000016 -0.000013 0.061025 0.000052 -0.039593
# 5 -0.005267 0.015026 -0.009695 0.000052 0.067011 -0.000054
# 6 0.000013 -0.000013 0.000006 -0.039593 -0.000054 0.098727
#
#
# Mechanical properties :
#
#
# Convention : Reuss Voigt Hill
#
# Bulk Modulus (GPa) = 24.88035 44.84692 34.86364
# Shear Modulus (GPa) = 14.64370 22.29040 18.46705
#
# Velocity S-wave (km/s) = 2.76821 3.41533 3.10866
# Velocity P-wave (km/s) = 4.82049 6.24667 5.57934
#
# Compressibility (1/GPa) = 0.04019236
#
# Stress axis : x y z
#
# Youngs Moduli (GPa) = 23.65561 67.08447 73.75705
#
# Poissons Ratio (x) = 0.19817 0.39532
# Poissons Ratio (y) = 0.06988 0.51327
# Poissons Ratio (z) = 0.12679 0.46684
#
# Static dielectric constant tensor:
#      x y z
#    x 1.651560 0.000000 -0.006810 
#    y 0.000000 1.661600 -0.000020 
#    z -0.006810 -0.000020 1.655380 
# 
# From -- ./inp_files/326306.got.cif
#   From: 2010.05.17/outbox.cif.g08.bks.cpg/sg12_164_cif.got.tgz:326306.got - 2010.06.03 13:09:07.
