data_PCOD9201305
_publ_section_title
;
Structure prediction by ZEFSAII (Michael W. Deem and Ramdas Pophale) SiO2 
 PCOD9201305
Probable space group: C 2/M
;
_chemical_formula_sum "Si O2"
_cell_formula_units_Z 56
_cell_length_a 21.020420
_cell_length_b 11.537411
_cell_length_c 22.948900
_cell_angle_alpha 90.000000
_cell_angle_beta 28.517945
_cell_angle_gamma 90.000000
_cell_volume 2657.204344
_symmetry_space_group_name_H-M "C 2/M"
_symmetry_group_IT_number 12
_symmetry_cell_setting 'monoclinic'
loop_
_space_group_symop_operation_xyz
x,y,z
-x,y,-z
-x,-y,-z
x,-y,z
1/2+x,1/2+y,z
1/2-x,1/2+y,-z
1/2-x,1/2-y,-z
1/2+x,1/2-y,z
loop_
_atom_site_type_symbol
_atom_site_label
_atom_site_fract_x
_atom_site_fract_y
_atom_site_fract_z
Si Si1 0.836666 0.305152 0.279548
Si Si2 0.942276 0.124314 0.283093
Si Si3 0.881666 0.870896 0.455551
Si Si4 0.703178 0.264554 0.104004
Si Si5 0.441344 0.868678 0.986320
Si Si6 0.548792 0.868451 0.317359
Si Si7 0.153593 0.630086 0.356990
O O1 0.921572 0.223564 0.253746
O O2 0.738405 0.370608 0.402334
O O3 0.937604 0.371726 0.157053
O O4 0.745451 0.224651 0.312176
O O5 0.843463 0.132286 0.417811
O O6 0.088147 0.138097 0.193802
O O7 0.927231 0.000000 0.266806
O O8 0.957507 0.746552 0.401869
O O9 0.948678 0.000000 0.409149
O O10 0.625858 0.155811 0.195049
O O11 0.750000 0.250000 0.000000
O O12 0.822586 0.299254 0.050853
O O13 0.394433 0.000000 0.035982
O O14 0.500000 0.820620 0.000000
O O15 0.650608 0.865271 0.289605
O O16 0.489172 0.000000 0.365980
O O17 0.191745 0.500000 0.344910
O O18 0.000000 0.646961 0.500000
#
# Coordination Sequence:
#
# PCOD9201305 Si02
#       7
#     8   8   8   8   8   8   8
#     4  12  21  39  64  94 127 174 226 271 331 406
#     4  10  22  39  62  92 128 169 215 275 342 393
#     4  10  22  40  62  95 134 168 212 276 340 405
#     4  11  22  44  65  95 127 172 225 282 330 395
#     4  11  25  44  66  93 134 181 225 280 338 401
#     4  10  22  41  67  98 129 170 220 275 335 401
#     4  10  20  37  61  92 131 170 215 271 335 399
#
# _framework density 21.074781999999999
#
# number of rings (size 3 to 8) (size 9 to 14) (size 15 to 20)
#    0.000    1.429    2.857    2.571    0.000    2.286 
#    0.000    4.286    0.000    3.000    0.000    0.000 
#    0.000    0.000    0.000    0.000    0.000    0.000 
#
# Total GULP energy -156108.233164 kJ/mol
# GULP energy per Si atom -5575.294042 kJ/mol
# Density = 2.102682 g / cm^3
# Si number density = 21.074782 Si / 1000 Ang^3
#
#
#
# Elastic Constant Matrix: (Units=GPa)
#
#
# Indices 1 2 3 4 5 6 
#
# 1 104.3966 36.6100 25.8980 -0.0005 9.7331 -0.0012
# 2 36.6100 130.8459 33.1089 -0.0014 -9.4325 -0.0027
# 3 25.8980 33.1089 81.7253 -0.0050 18.4840 -0.0109
# 4 -0.0005 -0.0014 -0.0050 159.7416 0.0017 386.8969
# 5 9.7331 -9.4325 18.4840 0.0017 38.4098 0.0038
# 6 -0.0012 -0.0027 -0.0109 386.8969 0.0038 977.2255
#
#
#
# Elastic Compliance Matrix: (Units=1/GPa)
#
#
# Indices 1 2 3 4 5 6 
#
# 1 0.011294 -0.002903 -0.001789 0.000000 -0.002714 0.000000
# 2 -0.002903 0.009915 -0.004280 0.000000 0.005230 0.000000
# 3 -0.001789 -0.004280 0.016464 0.000002 -0.008521 0.000000
# 4 0.000000 0.000000 0.000002 0.152349 -0.000002 -0.060317
# 5 -0.002714 0.005230 -0.008521 -0.000002 0.032107 0.000000
# 6 0.000000 0.000000 0.000000 -0.060317 0.000000 0.024904
#
#
# Mechanical properties :
#
#
# Convention : Reuss Voigt Hill
#
# Bulk Modulus (GPa) = 50.68633 56.46686 53.57659
# Shear Modulus (GPa) = 18.41265 249.83210 134.12238
#
# Velocity S-wave (km/s) = 2.95902 10.89967 7.98620
# Velocity P-wave (km/s) = 5.98141 13.61086 10.51268
#
# Compressibility (1/GPa) = 0.01972918
#
# Stress axis : x y z
#
# Youngs Moduli (GPa) = 88.54524 100.86023 60.73868
#
# Poissons Ratio (x) = 0.29278 0.10867
# Poissons Ratio (y) = 0.25703 0.25994
# Poissons Ratio (z) = 0.15841 0.43165
#
# Static dielectric constant tensor:
#      x y z
#    x 1.755700 0.000000 0.007740 
#    y 0.000000 1.784170 0.000000 
#    z 0.007740 0.000000 1.811950 
# 
# From -- ./inp_files/347013.got.cif
#   From: 2010.05.17/outbox.cif.g08.bks.cpg/sg12_174_cif.got.tgz:347013.got - 2010.06.03 13:09:07.
