data_PCOD9201141
_publ_section_title
;
Structure prediction by ZEFSAII (Michael W. Deem and Ramdas Pophale) SiO2 
 PCOD9201141
Probable space group: C 2/M
;
_chemical_formula_sum "Si O2"
_cell_formula_units_Z 40
_cell_length_a 8.958826
_cell_length_b 18.198586
_cell_length_c 11.851009
_cell_angle_alpha 90.000000
_cell_angle_beta 65.780585
_cell_angle_gamma 90.000000
_cell_volume 1762.097525
_symmetry_space_group_name_H-M "C 2/M"
_symmetry_group_IT_number 12
_symmetry_cell_setting 'monoclinic'
loop_
_space_group_symop_operation_xyz
x,y,z
-x,y,-z
-x,-y,-z
x,-y,z
1/2+x,1/2+y,z
1/2-x,1/2+y,-z
1/2-x,1/2-y,-z
1/2+x,1/2-y,z
loop_
_atom_site_type_symbol
_atom_site_label
_atom_site_fract_x
_atom_site_fract_y
_atom_site_fract_z
Si Si1 0.021684 0.580676 0.835337
Si Si2 0.824632 0.131523 0.109995
Si Si3 0.144585 0.414467 0.539661
Si Si4 0.109507 0.830320 0.669076
Si Si5 0.235948 0.287347 0.789139
O O1 0.072083 0.500000 0.859729
O O2 0.826508 0.588568 0.895021
O O3 0.078436 0.587999 0.686899
O O4 0.115103 0.648112 0.862410
O O5 0.845670 0.117658 0.237596
O O6 0.775524 0.218174 0.122556
O O7 0.000000 0.119996 0.000000
O O8 0.181792 0.500000 0.502855
O O9 0.301000 0.364565 0.465170
O O10 0.000000 0.389688 0.500000
O O11 0.180110 0.751956 0.689722
O O12 0.916707 0.819135 0.721525
#
# Coordination Sequence:
#
# PCOD9201141 Si02
#       5
#     8   8   8   8   8
#     4  11  23  41  61  92 128 161 197 250 312 355
#     4  10  21  41  65  90 118 162 208 254 301 360
#     4  10  20  37  61  86 125 163 194 243 304 369
#     4  10  21  38  60  92 117 159 207 240 302 359
#     4  10  21  40  59  94 118 161 201 254 295 362
#
# _framework density 22.700219000000001
#
# number of rings (size 3 to 8) (size 9 to 14) (size 15 to 20)
#    1.200    0.600    4.000    0.000    0.000    6.000 
#    3.600    2.000    0.000    4.200    0.000    0.000 
#    0.000    0.000    0.000    0.000    0.000    0.000 
#
# Total GULP energy -111753.733870 kJ/mol
# GULP energy per Si atom -5587.686694 kJ/mol
# Density = 2.264855 g / cm^3
# Si number density = 22.700219 Si / 1000 Ang^3
#
#
#
# Elastic Constant Matrix: (Units=GPa)
#
#
# Indices 1 2 3 4 5 6 
#
# 1 92.4913 20.5843 30.0456 0.0000 -38.1899 0.0000
# 2 20.5843 88.2682 6.5726 0.0000 -12.0086 0.0000
# 3 30.0456 6.5726 106.3177 0.0000 -12.9864 0.0000
# 4 0.0000 0.0000 0.0000 -30.9018 0.0000 -14.9667
# 5 -38.1899 -12.0086 -12.9864 0.0000 39.8582 0.0000
# 6 0.0000 0.0000 0.0000 -14.9667 0.0000 27.2167
#
#
#
# Elastic Compliance Matrix: (Units=1/GPa)
#
#
# Indices 1 2 3 4 5 6 
#
# 1 0.019236 -0.001960 -0.003266 0.000000 0.016776 0.000000
# 2 -0.001960 0.012023 0.000025 0.000000 0.001752 0.000000
# 3 -0.003266 0.000025 0.010358 0.000000 0.000253 0.000000
# 4 0.000000 0.000000 0.000000 -0.025554 0.000000 -0.014053
# 5 0.016776 0.001752 0.000253 0.000000 0.041773 0.000000
# 6 0.000000 0.000000 0.000000 -0.014053 0.000000 0.029015
#
#
# Mechanical properties :
#
#
# Convention : Reuss Voigt Hill
#
# Bulk Modulus (GPa) = 32.03685 44.60914 38.32299
# Shear Modulus (GPa) = 46.44360 22.55958 34.50159
#
# Velocity S-wave (km/s) = 4.52813 3.15589 3.90279
# Velocity P-wave (km/s) = 6.44067 5.74226 6.10147
#
# Compressibility (1/GPa) = 0.03121406
#
# Stress axis : x y z
#
# Youngs Moduli (GPa) = 51.98616 83.17542 96.54295
#
# Poissons Ratio (x) = 0.16305 0.31529
# Poissons Ratio (y) = 0.10191 -0.00239
# Poissons Ratio (z) = 0.16977 -0.00206
#
# Static dielectric constant tensor:
#      x y z
#    x 1.817840 0.000000 0.056050 
#    y 0.000000 1.834900 0.000000 
#    z 0.056050 0.000000 1.870070 
# 
# From -- ./inp_files/196393.got.cif
#   From: 2010.05.17/outbox.cif.g08.bks.cpg/sg12_99_cif.got.tgz:196393.got - 2010.06.03 13:09:07.
