data_PCOD9201327
_publ_section_title
;
Structure prediction by ZEFSAII (Michael W. Deem and Ramdas Pophale) SiO2 
 PCOD9201327
Probable space group: C 2/M
;
_chemical_formula_sum "Si O2"
_cell_formula_units_Z 60
_cell_length_a 8.722172
_cell_length_b 20.218166
_cell_length_c 22.155119
_cell_angle_alpha 90.000000
_cell_angle_beta 134.524187
_cell_angle_gamma 90.000000
_cell_volume 2785.494513
_symmetry_space_group_name_H-M "C 2/M"
_symmetry_group_IT_number 12
_symmetry_cell_setting 'monoclinic'
loop_
_space_group_symop_operation_xyz
x,y,z
-x,y,-z
-x,-y,-z
x,-y,z
1/2+x,1/2+y,z
1/2-x,1/2+y,-z
1/2-x,1/2-y,-z
1/2+x,1/2-y,z
loop_
_atom_site_type_symbol
_atom_site_label
_atom_site_fract_x
_atom_site_fract_y
_atom_site_fract_z
Si Si1 0.347330 0.500000 0.849050
Si Si2 0.465434 0.927441 0.919239
Si Si3 0.475329 0.111602 0.295801
Si Si4 0.561114 0.421189 0.631482
Si Si5 0.902981 0.867174 0.036083
Si Si6 0.618294 0.656539 0.766593
Si Si7 0.905463 0.420869 0.538309
Si Si8 0.635870 0.717611 0.197101
O O1 0.184519 0.556858 0.775515
O O2 0.503552 0.439742 0.919137
O O3 0.234010 0.898833 0.839794
O O4 0.490511 0.000000 0.897176
O O5 0.500000 0.933427 0.000000
O O6 0.653583 0.878585 0.953258
O O7 0.713372 0.100662 0.335187
O O8 0.490765 0.107098 0.372569
O O9 0.360322 0.179681 0.247445
O O10 0.571887 0.500000 0.646362
O O11 0.526232 0.381477 0.683730
O O12 0.351229 0.409423 0.532790
O O13 0.963262 0.813022 0.102745
O O14 0.000000 0.844984 0.000000
O O15 0.450581 0.695626 0.761518
O O16 0.803708 0.706569 0.795276
O O17 0.940564 0.500000 0.550278
O O18 0.000000 0.397600 0.500000
#
# Coordination Sequence:
#
# PCOD9201327 Si02
#       8
#     4   8   8   8   8   8   8   8
#     4  10  21  36  61  94 136 166 210 265 323 385
#     4  11  24  42  65  95 131 168 218 279 342 390
#     4  11  21  40  67  98 136 173 218 269 330 398
#     4  11  23  40  68 103 134 176 220 273 335 392
#     4  11  24  40  63  94 126 170 218 272 328 395
#     4  12  26  46  65  92 134 175 232 277 334 403
#     4  10  20  37  62 101 140 176 217 270 330 393
#     4  11  27  45  65  94 127 182 223 279 333 397
#
# _framework density 21.540161999999999
#
# number of rings (size 3 to 8) (size 9 to 14) (size 15 to 20)
#    0.000    1.067    3.333    2.600    5.600    2.133 
#    4.800    0.667    0.000    0.000    0.000    0.000 
#    0.000    0.000    0.000    0.000    0.000    0.000 
#
# Total GULP energy -167178.227885 kJ/mol
# GULP energy per Si atom -5572.607596 kJ/mol
# Density = 2.149114 g / cm^3
# Si number density = 21.540162 Si / 1000 Ang^3
#
#
#
# Elastic Constant Matrix: (Units=GPa)
#
#
# Indices 1 2 3 4 5 6 
#
# 1 75.6154 2.3437 -1.2594 -0.0001 -0.9442 -0.0001
# 2 2.3437 44.5922 24.2117 -0.0001 8.6597 0.0000
# 3 -1.2594 24.2117 57.7728 -0.0002 8.0704 -0.0001
# 4 -0.0001 -0.0001 -0.0002 9.2435 -0.0001 0.3771
# 5 -0.9442 8.6597 8.0704 -0.0001 30.0409 -0.0001
# 6 -0.0001 0.0000 -0.0001 0.3771 -0.0001 19.4349
#
#
#
# Elastic Compliance Matrix: (Units=1/GPa)
#
#
# Indices 1 2 3 4 5 6 
#
# 1 0.013281 -0.001195 0.000710 0.000000 0.000571 0.000000
# 2 -0.001195 0.029974 -0.011819 0.000000 -0.005503 0.000000
# 3 0.000710 -0.011819 0.022649 0.000000 -0.002655 0.000000
# 4 0.000000 0.000000 0.000000 0.108269 0.000000 -0.002101
# 5 0.000571 -0.005503 -0.002655 0.000000 0.035605 0.000000
# 6 0.000000 0.000000 0.000000 -0.002101 0.000000 0.051495
#
#
# Mechanical properties :
#
#
# Convention : Reuss Voigt Hill
#
# Bulk Modulus (GPa) = 24.21470 25.39691 24.80581
# Shear Modulus (GPa) = 16.68639 21.92283 19.30461
#
# Velocity S-wave (km/s) = 2.78630 3.19370 2.99693
# Velocity P-wave (km/s) = 4.64944 5.04140 4.84939
#
# Compressibility (1/GPa) = 0.04129722
#
# Stress axis : x y z
#
# Youngs Moduli (GPa) = 75.29667 33.36215 44.15254
#
# Poissons Ratio (x) = 0.03985 -0.03137
# Poissons Ratio (y) = 0.08995 0.52184
# Poissons Ratio (z) = -0.05349 0.39431
#
# Static dielectric constant tensor:
#      x y z
#    x 1.731780 0.000000 -0.027260 
#    y 0.000000 1.770330 0.000000 
#    z -0.027260 0.000000 1.743500 
# 
# From -- ./inp_files/301925.got.cif
#   From: 2010.05.17/outbox.cif.g08.bks.cpg/sg12_151_cif.got.tgz:301925.got - 2010.06.03 13:09:07.
