data_PCOD9201029
_publ_section_title
;
Structure prediction by ZEFSAII (Michael W. Deem and Ramdas Pophale) SiO2 
 PCOD9201029
Probable space group: C 2/M
;
_chemical_formula_sum "Si O2"
_cell_formula_units_Z 48
_cell_length_a 10.980738
_cell_length_b 23.764176
_cell_length_c 10.240206
_cell_angle_alpha 90.000000
_cell_angle_beta 112.506425
_cell_angle_gamma 90.000000
_cell_volume 2468.642225
_symmetry_space_group_name_H-M "C 2/M"
_symmetry_group_IT_number 12
_symmetry_cell_setting 'monoclinic'
loop_
_space_group_symop_operation_xyz
x,y,z
-x,y,-z
-x,-y,-z
x,-y,z
1/2+x,1/2+y,z
1/2-x,1/2+y,-z
1/2-x,1/2-y,-z
1/2+x,1/2-y,z
loop_
_atom_site_type_symbol
_atom_site_label
_atom_site_fract_x
_atom_site_fract_y
_atom_site_fract_z
Si Si1 0.056675 0.500000 0.378383
Si Si2 0.848330 0.000000 0.896358
Si Si3 0.155061 0.761831 0.086791
Si Si4 0.725489 0.624368 0.044251
Si Si5 0.355203 0.500000 0.588641
Si Si6 0.508600 0.907521 0.149792
Si Si7 0.279572 0.657934 0.246720
Si Si8 0.000000 0.901185 0.500000
O O1 0.215179 0.500000 0.456045
O O2 0.006187 0.448331 0.271446
O O3 0.000000 0.500000 0.500000
O O4 0.793105 0.941049 0.929519
O O5 0.832625 0.000000 0.734059
O O6 0.000000 0.000000 0.000000
O O7 0.164001 0.828943 0.114130
O O8 0.226707 0.721947 0.221388
O O9 0.250000 0.750000 0.000000
O O10 0.000000 0.747623 0.000000
O O11 0.883074 0.633130 0.104958
O O12 0.672177 0.639022 0.878270
O O13 0.435537 0.444451 0.578058
O O14 0.647398 0.877273 0.214570
O O15 0.500000 0.933967 0.000000
O O16 0.389129 0.638368 0.392078
#
# Coordination Sequence:
#
# PCOD9201029 Si02
#       8
#     4   4   8   8   4   8   8   4
#     4  12  22  37  58  88 129 171 199 255 327 381
#     4  12  23  38  57  89 121 157 205 251 319 382
#     4  10  20  38  64  93 123 158 203 264 325 368
#     4  10  21  37  63  92 122 155 201 264 318 370
#     4  11  24  39  56  85 123 167 199 250 318 376
#     4  10  20  37  60  91 119 161 218 262 301 379
#     4  10  20  37  63  89 120 161 210 257 305 372
#     4  11  22  40  60  84 120 163 210 246 304 375
#
# _framework density 19.443887
#
# number of rings (size 3 to 8) (size 9 to 14) (size 15 to 20)
#    0.000    1.500    1.667    5.750    0.000    4.000 
#    0.000    0.000    5.500    6.000    0.000    0.000 
#    0.000    0.000    0.000    0.000    0.000    0.000 
#
# Total GULP energy -133821.404789 kJ/mol
# GULP energy per Si atom -5575.891866 kJ/mol
# Density = 1.939963 g / cm^3
# Si number density = 19.443887 Si / 1000 Ang^3
#
#
#
# Elastic Constant Matrix: (Units=GPa)
#
#
# Indices 1 2 3 4 5 6 
#
# 1 97.9199 34.9550 31.2064 0.0000 26.1478 0.0000
# 2 34.9550 141.7248 44.6730 0.0000 6.7342 0.0000
# 3 31.2064 44.6730 93.3860 0.0000 17.3757 0.0000
# 4 0.0000 0.0000 0.0000 140.9871 0.0000 9.8352
# 5 26.1478 6.7342 17.3757 0.0000 44.6848 0.0000
# 6 0.0000 0.0000 0.0000 9.8352 0.0000 16.2917
#
#
#
# Elastic Compliance Matrix: (Units=1/GPa)
#
#
# Indices 1 2 3 4 5 6 
#
# 1 0.013529 -0.002339 -0.002150 0.000000 -0.006728 0.000000
# 2 -0.002339 0.008717 -0.003664 0.000000 0.001480 0.000000
# 3 -0.002150 -0.003664 0.013844 0.000000 -0.003573 0.000000
# 4 0.000000 0.000000 0.000000 0.007405 0.000000 -0.004470
# 5 -0.006728 0.001480 -0.003573 0.000000 0.027482 0.000000
# 6 0.000000 0.000000 0.000000 -0.004470 0.000000 0.064080
#
#
# Mechanical properties :
#
#
# Convention : Reuss Voigt Hill
#
# Bulk Modulus (GPa) = 50.54459 61.63327 56.08893
# Shear Modulus (GPa) = 31.65374 55.20580 43.42977
#
# Velocity S-wave (km/s) = 4.03917 5.33423 4.73122
# Velocity P-wave (km/s) = 6.91409 8.34898 7.66519
#
# Compressibility (1/GPa) = 0.01978451
#
# Stress axis : x y z
#
# Youngs Moduli (GPa) = 73.91289 114.71228 72.23265
#
# Poissons Ratio (x) = 0.26837 0.15530
# Poissons Ratio (y) = 0.17292 0.26464
# Poissons Ratio (z) = 0.15892 0.42028
#
# Static dielectric constant tensor:
#      x y z
#    x 1.722220 0.000000 -0.032050 
#    y 0.000000 1.763710 0.000000 
#    z -0.032050 0.000000 1.664720 
# 
# From -- ./inp_files/51527.got.cif
#   From: 2010.05.17/outbox.cif.g08.bks.cpg/sg12_26_cif.got.tgz:51527.got - 2010.06.03 13:09:07.
