data_PCOD9201223
_publ_section_title
;
Structure prediction by ZEFSAII (Michael W. Deem and Ramdas Pophale) SiO2 
 PCOD9201223
Probable space group: C 2/M
;
_chemical_formula_sum "Si O2"
_cell_formula_units_Z 48
_cell_length_a 20.409118
_cell_length_b 8.849294
_cell_length_c 15.125437
_cell_angle_alpha 90.000000
_cell_angle_beta 99.029642
_cell_angle_gamma 90.000000
_cell_volume 2697.895184
_symmetry_space_group_name_H-M "C 2/M"
_symmetry_group_IT_number 12
_symmetry_cell_setting 'monoclinic'
loop_
_space_group_symop_operation_xyz
x,y,z
-x,y,-z
-x,-y,-z
x,-y,z
1/2+x,1/2+y,z
1/2-x,1/2+y,-z
1/2-x,1/2-y,-z
1/2+x,1/2-y,z
loop_
_atom_site_type_symbol
_atom_site_label
_atom_site_fract_x
_atom_site_fract_y
_atom_site_fract_z
Si Si1 0.417985 0.178278 0.724265
Si Si2 0.697008 0.179532 0.556478
Si Si3 0.707631 0.680640 0.070565
Si Si4 0.565074 0.323453 0.454660
Si Si5 0.236490 0.679232 0.264560
Si Si6 0.935352 0.682059 0.929057
O O1 0.445728 0.271878 0.648502
O O2 0.338220 0.199639 0.712825
O O3 0.444335 0.220381 0.827194
O O4 0.430383 0.000000 0.712656
O O5 0.750000 0.250000 0.500000
O O6 0.624844 0.226175 0.507136
O O7 0.713002 0.248546 0.655651
O O8 0.704444 0.000000 0.559465
O O9 0.709605 0.500000 0.068574
O O10 0.736526 0.741729 0.169533
O O11 0.631486 0.738268 0.051739
O O12 0.750000 0.750000 0.000000
O O13 0.500000 0.303288 0.500000
O O14 0.584038 0.500000 0.460348
O O15 0.247390 0.500000 0.257452
O O16 0.924674 0.500000 0.930625
O O17 0.000000 0.719209 0.000000
#
# Coordination Sequence:
#
# PCOD9201223 Si02
#       6
#     8   8   8   8   8   8
#     4   9  18  34  59  85 111 149 191 237 289 344
#     4  12  23  37  61  89 116 152 195 240 285 344
#     4  11  22  38  60  87 120 157 194 239 293 345
#     4  11  24  40  57  81 117 158 194 238 292 342
#     4  10  20  37  61  89 117 149 193 242 289 345
#     4   9  19  38  62  86 115 151 192 239 291 349
#
# _framework density 17.791647000000001
#
# number of rings (size 3 to 8) (size 9 to 14) (size 15 to 20)
#    0.000    1.667    1.667    5.000    0.000    4.333 
#    3.000    0.000    0.000    0.000    0.000    0.000 
#    0.000    0.000    0.000    0.000    0.000    0.000 
#
# Total GULP energy -134081.699782 kJ/mol
# GULP energy per Si atom -5586.737491 kJ/mol
# Density = 1.775115 g / cm^3
# Si number density = 17.791647 Si / 1000 Ang^3
#
#
#
# Elastic Constant Matrix: (Units=GPa)
#
#
# Indices 1 2 3 4 5 6 
#
# 1 61.6433 53.4332 67.8386 0.0000 4.9208 0.0000
# 2 53.4332 117.7505 75.5754 0.0000 -7.7295 0.0000
# 3 67.8386 75.5754 148.5471 0.0000 -0.9725 0.0000
# 4 0.0000 0.0000 0.0000 33.3429 0.0000 -0.8102
# 5 4.9208 -7.7295 -0.9725 0.0000 33.6150 0.0000
# 6 0.0000 0.0000 0.0000 -0.8102 0.0000 27.0680
#
#
#
# Elastic Compliance Matrix: (Units=1/GPa)
#
#
# Indices 1 2 3 4 5 6 
#
# 1 0.040613 -0.010487 -0.013269 0.000000 -0.008740 0.000000
# 2 -0.010487 0.015571 -0.003100 0.000000 0.005026 0.000000
# 3 -0.013269 -0.003100 0.014379 0.000000 0.001646 0.000000
# 4 0.000000 0.000000 0.000000 0.030013 0.000000 0.000898
# 5 -0.008740 0.005026 0.001646 0.000000 0.032231 0.000000
# 6 0.000000 0.000000 0.000000 0.000898 0.000000 0.036971
#
#
# Mechanical properties :
#
#
# Convention : Reuss Voigt Hill
#
# Bulk Modulus (GPa) = 59.34111 80.18169 69.76140
# Shear Modulus (GPa) = 21.82392 27.54476 24.68434
#
# Velocity S-wave (km/s) = 3.50614 3.93897 3.72884
# Velocity P-wave (km/s) = 7.05808 8.11493 7.60489
#
# Compressibility (1/GPa) = 0.01685172
#
# Stress axis : x y z
#
# Youngs Moduli (GPa) = 24.62289 64.22332 69.54384
#
# Poissons Ratio (x) = 0.67349 0.92278
# Poissons Ratio (y) = 0.25821 0.21557
# Poissons Ratio (z) = 0.32672 0.19908
#
# Static dielectric constant tensor:
#      x y z
#    x 1.579240 0.000000 0.010070 
#    y 0.000000 1.591080 0.000000 
#    z 0.010070 0.000000 1.607460 
# 
# From -- ./inp_files/221542.got.cif
#   From: 2010.05.17/outbox.cif.g08.bks.cpg/sg12_111_cif.got.tgz:221542.got - 2010.06.03 13:09:07.
