data_PCOD9201624
_publ_section_title
;
Structure prediction by ZEFSAII (Michael W. Deem and Ramdas Pophale) SiO2 
 PCOD9201624
Probable space group: C 2/M
;
_chemical_formula_sum "Si O2"
_cell_formula_units_Z 56
_cell_length_a 28.635153
_cell_length_b 16.806684
_cell_length_c 18.312568
_cell_angle_alpha 90.000000
_cell_angle_beta 162.405897
_cell_angle_gamma 90.000000
_cell_volume 2663.964316
_symmetry_space_group_name_H-M "C 2/M"
_symmetry_group_IT_number 12
_symmetry_cell_setting 'monoclinic'
loop_
_space_group_symop_operation_xyz
x,y,z
-x,y,-z
-x,-y,-z
x,-y,z
1/2+x,1/2+y,z
1/2-x,1/2+y,-z
1/2-x,1/2-y,-z
1/2+x,1/2-y,z
loop_
_atom_site_type_symbol
_atom_site_label
_atom_site_fract_x
_atom_site_fract_y
_atom_site_fract_z
Si Si1 0.277162 0.910264 0.046123
Si Si2 0.492342 0.302932 0.408576
Si Si3 0.177273 0.905080 0.061148
Si Si4 0.596467 0.845501 0.480330
Si Si5 0.320516 0.596712 0.519007
Si Si6 0.774200 0.595305 0.782804
Si Si7 0.886855 0.596635 0.652939
O O1 0.168320 0.847372 0.843860
O O2 0.218195 0.000000 0.945707
O O3 0.261746 0.893962 0.109525
O O4 0.452812 0.904136 0.282357
O O5 0.500000 0.264427 0.500000
O O6 0.525592 0.239659 0.395091
O O7 0.630523 0.366451 0.610063
O O8 0.266279 0.862043 0.258582
O O9 0.177768 0.000000 0.077102
O O10 0.999523 0.878745 0.787708
O O11 0.647750 0.859933 0.474341
O O12 0.319882 0.500000 0.517499
O O13 0.239981 0.620870 0.323175
O O14 0.227027 0.620745 0.451370
O O15 0.760774 0.500000 0.764978
O O16 0.938285 0.616102 0.062140
O O17 0.876332 0.500000 0.627850
#
# Coordination Sequence:
#
# PCOD9201624 Si02
#       7
#     8   8   8   8   8   8   8
#     4  11  22  40  65  90 118 156 209 260 305 359
#     4  12  25  40  61  90 125 167 200 248 309 372
#     4  10  20  37  63  89 121 163 205 249 300 364
#     4  12  25  39  56  89 132 167 201 243 302 370
#     4   9  18  37  66  96 119 155 206 258 311 353
#     4  10  20  40  66  93 121 153 205 263 311 358
#     4  10  21  38  66  95 122 158 206 261 305 353
#
# _framework density 21.021303
#
# number of rings (size 3 to 8) (size 9 to 14) (size 15 to 20)
#    0.000    1.429    1.429    4.714    0.000    6.857 
#    0.000    2.857    3.143    0.000    0.000    0.000 
#    0.000    0.000    0.000    0.000    0.000    0.000 
#
# Total GULP energy -156610.789953 kJ/mol
# GULP energy per Si atom -5593.242498 kJ/mol
# Density = 2.097346 g / cm^3
# Si number density = 21.021303 Si / 1000 Ang^3
#
#
#
# Elastic Constant Matrix: (Units=GPa)
#
#
# Indices 1 2 3 4 5 6 
#
# 1 73.7328 -0.8982 1.4707 0.0000 -12.7849 0.0000
# 2 -0.8982 30.2455 10.2371 0.0000 -18.6925 0.0000
# 3 1.4707 10.2371 34.6779 0.0000 -12.6417 0.0000
# 4 0.0000 0.0000 0.0000 19.4813 0.0000 -5.6501
# 5 -12.7849 -18.6925 -12.6417 0.0000 30.3659 0.0000
# 6 0.0000 0.0000 0.0000 -5.6501 0.0000 27.8667
#
#
#
# Elastic Compliance Matrix: (Units=1/GPa)
#
#
# Indices 1 2 3 4 5 6 
#
# 1 0.015626 0.007122 0.001452 0.000000 0.011567 0.000000
# 2 0.007122 0.057201 -0.003842 0.000000 0.036610 0.000000
# 3 0.001452 -0.003842 0.034507 0.000000 0.012612 0.000000
# 4 0.000000 0.000000 0.000000 0.054538 0.000000 0.011058
# 5 0.011567 0.036610 0.012612 0.000000 0.065589 0.000000
# 6 0.000000 0.000000 0.000000 0.011058 0.000000 0.038127
#
#
# Mechanical properties :
#
#
# Convention : Reuss Voigt Hill
#
# Bulk Modulus (GPa) = 8.56188 17.80837 13.18513
# Shear Modulus (GPa) = 16.94585 24.06588 20.50586
#
# Velocity S-wave (km/s) = 2.84232 3.38721 3.12666
# Velocity P-wave (km/s) = 3.85402 4.87725 4.39551
#
# Compressibility (1/GPa) = 0.11679674
#
# Stress axis : x y z
#
# Youngs Moduli (GPa) = 63.99600 17.48228 28.97960
#
# Poissons Ratio (x) = -0.12450 -0.04207
# Poissons Ratio (y) = -0.45575 0.11133
# Poissons Ratio (z) = -0.09291 0.06716
#
# Static dielectric constant tensor:
#      x y z
#    x 1.737720 0.000000 -0.005730 
#    y 0.000000 1.777850 0.000000 
#    z -0.005730 0.000000 1.718000 
# 
# From -- ./inp_files/293924.got.cif
#   From: 2010.05.17/outbox.cif.g08.bks.cpg/sg12_147_cif.got.tgz:293924.got - 2010.06.03 13:09:07.
