data_PCOD9201831
_publ_section_title
;
Structure prediction by ZEFSAII (Michael W. Deem and Ramdas Pophale) SiO2 
 PCOD9201831
Probable space group: C 2/M
;
_chemical_formula_sum "Si O2"
_cell_formula_units_Z 24
_cell_length_a 5.497452
_cell_length_b 19.257447
_cell_length_c 10.399160
_cell_angle_alpha 90.000000
_cell_angle_beta 65.128166
_cell_angle_gamma 90.000000
_cell_volume 998.816749
_symmetry_space_group_name_H-M "C 2/M"
_symmetry_group_IT_number 12
_symmetry_cell_setting 'monoclinic'
loop_
_space_group_symop_operation_xyz
x,y,z
-x,y,-z
-x,-y,-z
x,-y,z
1/2+x,1/2+y,z
1/2-x,1/2+y,-z
1/2-x,1/2-y,-z
1/2+x,1/2-y,z
loop_
_atom_site_type_symbol
_atom_site_label
_atom_site_fract_x
_atom_site_fract_y
_atom_site_fract_z
Si Si1 0.914888 0.277160 0.336573
Si Si2 0.765919 0.076625 0.655871
Si Si3 0.304004 0.417072 0.934714
O O1 0.750000 0.250000 0.500000
O O2 0.708866 0.254678 0.271369
O O3 0.927827 0.360207 0.333843
O O4 0.895784 0.088457 0.767017
O O5 0.000000 0.077775 0.500000
O O6 0.637040 0.000000 0.685360
O O7 0.280426 0.500000 0.966815
O O8 0.500000 0.387987 0.000000
O O9 0.000000 0.388910 0.000000
#
# Coordination Sequence:
#
# PCOD9201831 Si02
#       3
#     8   8   8
#     4  10  20  38  57  83 119 166 189 236 308 372
#     4  10  20  37  64  98 121 150 210 264 290 345
#     4   9  19  37  57  82 121 161 190 236 309 364
#
# _framework density 24.028431999999999
#
# number of rings (size 3 to 8) (size 9 to 14) (size 15 to 20)
#    0.000    2.333    3.333    0.000    0.000    2.667 
#    0.000    8.333    0.000    6.000    0.000    0.000 
#    0.000    0.000    0.000    0.000    0.000    0.000 
#
# Total GULP energy -67039.202374 kJ/mol
# GULP energy per Si atom -5586.600198 kJ/mol
# Density = 2.397374 g / cm^3
# Si number density = 24.028432 Si / 1000 Ang^3
#
#
#
# Elastic Constant Matrix: (Units=GPa)
#
#
# Indices 1 2 3 4 5 6 
#
# 1 180.4799 36.8187 51.5473 0.0000 2.6835 0.0000
# 2 36.8187 160.9824 -4.4698 0.0000 4.4911 0.0000
# 3 51.5473 -4.4698 128.7019 0.0000 17.8384 0.0000
# 4 0.0000 0.0000 0.0000 -1.5599 0.0000 3.7973
# 5 2.6835 4.4911 17.8384 0.0000 8.3122 0.0000
# 6 0.0000 0.0000 0.0000 3.7973 0.0000 19.3764
#
#
#
# Elastic Compliance Matrix: (Units=1/GPa)
#
#
# Indices 1 2 3 4 5 6 
#
# 1 0.006903 -0.001877 -0.003788 0.000000 0.006916 0.000000
# 2 -0.001877 0.006906 0.002028 0.000000 -0.007478 0.000000
# 3 -0.003788 0.002028 0.013294 0.000000 -0.028403 0.000000
# 4 0.000000 0.000000 0.000000 -0.434019 0.000000 0.085057
# 5 0.006916 -0.007478 -0.028403 0.000000 0.183067 0.000000
# 6 0.000000 0.000000 0.000000 0.085057 0.000000 0.034940
#
#
# Mechanical properties :
#
#
# Convention : Reuss Voigt Hill
#
# Bulk Modulus (GPa) = 50.43214 70.88407 60.65810
# Shear Modulus (GPa) = -28.56733 30.97695 1.20481
#
# Velocity S-wave (km/s) = -3.45178 3.59441 0.70887
# Velocity P-wave (km/s) = 2.26886 6.84036 5.09599
#
# Compressibility (1/GPa) = 0.01982862
#
# Stress axis : x y z
#
# Youngs Moduli (GPa) = 144.86707 144.80052 75.21954
#
# Poissons Ratio (x) = 0.27178 0.28497
# Poissons Ratio (y) = 0.27190 -0.15254
# Poissons Ratio (z) = 0.54882 -0.29365
#
# Static dielectric constant tensor:
#      x y z
#    x 1.932020 0.000000 0.014770 
#    y 0.000000 1.951990 0.000000 
#    z 0.014770 0.000000 1.958360 
# 
# From -- ./inp_files/114264.got.cif
#   From: 2010.05.17/outbox.cif.g08.bks.cpg/sg12_58_cif.got.tgz:114264.got - 2010.06.03 13:09:07.
