data_PCOD9201850
_publ_section_title
;
Structure prediction by ZEFSAII (Michael W. Deem and Ramdas Pophale) SiO2 
 PCOD9201850
Probable space group: C 2/M
;
_chemical_formula_sum "Si O2"
_cell_formula_units_Z 36
_cell_length_a 22.977043
_cell_length_b 13.945032
_cell_length_c 5.036382
_cell_angle_alpha 90.000000
_cell_angle_beta 109.837311
_cell_angle_gamma 90.000000
_cell_volume 1517.976277
_symmetry_space_group_name_H-M "C 2/M"
_symmetry_group_IT_number 12
_symmetry_cell_setting 'monoclinic'
loop_
_space_group_symop_operation_xyz
x,y,z
-x,y,-z
-x,-y,-z
x,-y,z
1/2+x,1/2+y,z
1/2-x,1/2+y,-z
1/2-x,1/2-y,-z
1/2+x,1/2-y,z
loop_
_atom_site_type_symbol
_atom_site_label
_atom_site_fract_x
_atom_site_fract_y
_atom_site_fract_z
Si Si1 0.877652 0.318561 0.524525
Si Si2 0.253750 0.108935 0.529928
Si Si3 0.319719 0.670879 0.070894
Si Si4 0.500000 0.175465 0.500000
Si Si5 0.939294 0.830249 0.010755
O O1 0.827071 0.373324 0.619421
O O2 0.841706 0.274055 0.216210
O O3 0.939995 0.374421 0.535517
O O4 0.903314 0.224806 0.719397
O O5 0.221230 0.124036 0.762358
O O6 0.241642 0.000000 0.425483
O O7 0.220092 0.174770 0.258400
O O8 0.384955 0.620527 0.094859
O O9 0.469202 0.245753 0.235226
O O10 0.000000 0.884838 0.000000
#
# Coordination Sequence:
#
# PCOD9201850 Si02
#       5
#     8   8   8   4   8
#     4  10  20  37  65  90 118 152 203 243 293 347
#     4  12  26  39  57  88 128 161 193 240 296 351
#     4  11  22  40  62  88 117 156 204 243 290 347
#     4   8  18  32  59  96 115 144 194 254 294 340
#     4   9  18  35  62  94 114 143 197 259 292 339
#
# _framework density 23.715788
#
# number of rings (size 3 to 8) (size 9 to 14) (size 15 to 20)
#    0.000    1.778    2.222    2.000    6.222    0.000 
#    0.000    0.556    0.000   10.000    0.000    0.000 
#    0.000    0.000    0.000    0.000    0.000    0.000 
#
# Total GULP energy -100434.479216 kJ/mol
# GULP energy per Si atom -5579.693290 kJ/mol
# Density = 2.366181 g / cm^3
# Si number density = 23.715788 Si / 1000 Ang^3
#
#
#
# Elastic Constant Matrix: (Units=GPa)
#
#
# Indices 1 2 3 4 5 6 
#
# 1 324.3577 27.3749 36.7420 0.0000 11.8073 0.0000
# 2 27.3749 37.1792 5.9716 0.0000 2.2009 0.0000
# 3 36.7420 5.9716 123.5377 0.0000 -7.4654 0.0000
# 4 0.0000 0.0000 0.0000 2.0718 0.0000 -4.2371
# 5 11.8073 2.2009 -7.4654 0.0000 37.5286 0.0000
# 6 0.0000 0.0000 0.0000 -4.2371 0.0000 -2.7513
#
#
#
# Elastic Compliance Matrix: (Units=1/GPa)
#
#
# Indices 1 2 3 4 5 6 
#
# 1 0.003429 -0.002301 -0.000978 0.000000 -0.001138 0.000000
# 2 -0.002301 0.028781 -0.000775 0.000000 -0.001118 0.000000
# 3 -0.000978 -0.000775 0.008547 0.000000 0.002053 0.000000
# 4 0.000000 0.000000 0.000000 0.116318 0.000000 -0.179134
# 5 -0.001138 -0.001118 0.002053 0.000000 0.027479 0.000000
# 6 0.000000 0.000000 0.000000 -0.179134 0.000000 -0.087591
#
#
# Mechanical properties :
#
#
# Convention : Reuss Voigt Hill
#
# Bulk Modulus (GPa) = 30.62584 69.47239 50.04912
# Shear Modulus (GPa) = 43.12096 35.03556 39.07826
#
# Velocity S-wave (km/s) = 4.26871 3.84775 4.06368
# Velocity P-wave (km/s) = 6.10226 7.00696 6.57020
#
# Compressibility (1/GPa) = 0.03265217
#
# Stress axis : x y z
#
# Youngs Moduli (GPa) = 291.59998 34.74474 117.00085
#
# Poissons Ratio (x) = 0.07993 0.11437
# Poissons Ratio (y) = 0.67086 0.09063
# Poissons Ratio (z) = 0.28505 0.02691
#
# Static dielectric constant tensor:
#      x y z
#    x 2.069280 0.000000 -0.007690 
#    y 0.000000 1.844280 0.000000 
#    z -0.007690 0.000000 1.980810 
# 
# From -- ./inp_files/19973.got.cif
#   From: 2010.05.17/outbox.cif.g08.bks.cpg/sg12_10_cif.got.tgz:19973.got - 2010.06.03 13:09:07.
