data_PCOD9201688
_publ_section_title
;
Structure prediction by ZEFSAII (Michael W. Deem and Ramdas Pophale) SiO2 
 PCOD9201688
Probable space group: C 2/M
;
_chemical_formula_sum "Si O2"
_cell_formula_units_Z 56
_cell_length_a 14.601657
_cell_length_b 8.830108
_cell_length_c 21.850628
_cell_angle_alpha 90.000000
_cell_angle_beta 65.157948
_cell_angle_gamma 90.000000
_cell_volume 2556.607512
_symmetry_space_group_name_H-M "C 2/M"
_symmetry_group_IT_number 12
_symmetry_cell_setting 'monoclinic'
loop_
_space_group_symop_operation_xyz
x,y,z
-x,y,-z
-x,-y,-z
x,-y,z
1/2+x,1/2+y,z
1/2-x,1/2+y,-z
1/2-x,1/2-y,-z
1/2+x,1/2-y,z
loop_
_atom_site_type_symbol
_atom_site_label
_atom_site_fract_x
_atom_site_fract_y
_atom_site_fract_z
Si Si1 0.425118 0.773938 0.188094
Si Si2 0.851152 0.179376 0.444712
Si Si3 0.556676 0.822579 0.387268
Si Si4 0.831866 0.000000 0.051980
Si Si5 0.901308 0.335094 0.768200
Si Si6 0.276120 0.828203 0.120726
Si Si7 0.482593 0.500000 0.905089
Si Si8 0.277784 0.681350 0.334721
O O1 0.503525 0.848178 0.213281
O O2 0.370918 0.833558 0.141694
O O3 0.496115 0.641868 0.142957
O O4 0.330919 0.731073 0.257714
O O5 0.750000 0.250000 0.500000
O O6 0.845620 0.217050 0.373941
O O7 0.956486 0.243133 0.439042
O O8 0.847664 0.000000 0.453055
O O9 0.564700 0.810832 0.311009
O O10 0.664902 0.758713 0.377692
O O11 0.549599 0.000000 0.405093
O O12 0.784278 0.170041 0.078102
O O13 0.926179 0.000000 0.071836
O O14 0.879312 0.000000 0.971106
O O15 0.846766 0.500000 0.784719
O O16 0.824684 0.206464 0.811965
O O17 0.271840 0.000000 0.094510
O O18 0.268344 0.500000 0.333628
#
# Coordination Sequence:
#
# PCOD9201688 Si02
#       8
#     8   8   8   4   8   8   4   8
#     4  11  20  37  62  98 128 158 219 266 328 378
#     4  11  24  43  63  90 125 166 211 258 312 385
#     4  10  21  38  63  92 122 164 207 257 320 376
#     4   9  20  44  62  94 129 174 219 268 322 399
#     4  11  22  37  61  95 132 166 209 272 330 385
#     4  11  23  39  65  94 130 174 217 270 329 388
#     4   9  20  36  70  92 127 173 217 265 332 388
#     4  10  20  37  63  93 124 163 209 261 313 386
#
# _framework density 21.904026000000002
#
# number of rings (size 3 to 8) (size 9 to 14) (size 15 to 20)
#    0.000    1.571    4.286    0.857    1.000    1.143 
#    0.000   11.429    0.000    0.000    0.000    0.000 
#    0.000    0.000    0.000    0.000    0.000    0.000 
#
# Total GULP energy -156052.915432 kJ/mol
# GULP energy per Si atom -5573.318408 kJ/mol
# Density = 2.185417 g / cm^3
# Si number density = 21.904026 Si / 1000 Ang^3
#
#
#
# Elastic Constant Matrix: (Units=GPa)
#
#
# Indices 1 2 3 4 5 6 
#
# 1 80.4032 22.9905 -16.3009 0.0000 1.6268 0.0000
# 2 22.9905 85.1911 41.6263 0.0000 -8.7613 0.0000
# 3 -16.3009 41.6263 54.0153 0.0000 -14.3183 0.0000
# 4 0.0000 0.0000 0.0000 17.3484 0.0000 -10.5000
# 5 1.6268 -8.7613 -14.3183 0.0000 23.3847 0.0000
# 6 0.0000 0.0000 0.0000 -10.5000 0.0000 22.3764
#
#
#
# Elastic Compliance Matrix: (Units=1/GPa)
#
#
# Indices 1 2 3 4 5 6 
#
# 1 0.019695 -0.013366 0.017373 0.000000 0.004260 0.000000
# 2 -0.013366 0.027993 -0.026954 0.000000 -0.005086 0.000000
# 3 0.017373 -0.026954 0.049578 0.000000 0.019049 0.000000
# 4 0.000000 0.000000 0.000000 0.080507 0.000000 0.037777
# 5 0.004260 -0.005086 0.019049 0.000000 0.052225 0.000000
# 6 0.000000 0.000000 0.000000 0.037777 0.000000 0.062417
#
#
# Mechanical properties :
#
#
# Convention : Reuss Voigt Hill
#
# Bulk Modulus (GPa) = 19.46602 35.13792 27.30197
# Shear Modulus (GPa) = 14.06741 24.04148 19.05445
#
# Velocity S-wave (km/s) = 2.53697 3.31657 2.95262
# Velocity P-wave (km/s) = 4.18185 5.54462 4.91074
#
# Compressibility (1/GPa) = 0.05137156
#
# Stress axis : x y z
#
# Youngs Moduli (GPa) = 50.77373 35.72360 20.17042
#
# Poissons Ratio (x) = 0.47748 -0.35042
# Poissons Ratio (y) = 0.67864 0.54368
# Poissons Ratio (z) = -0.88210 0.96290
#
# Static dielectric constant tensor:
#      x y z
#    x 1.869470 0.000000 0.040840 
#    y 0.000000 1.812570 0.000000 
#    z 0.040840 0.000000 1.804820 
# 
# From -- ./inp_files/338591.got.cif
#   From: 2010.05.17/outbox.cif.g08.bks.cpg/sg12_170_cif.got.tgz:338591.got - 2010.06.03 13:09:07.
