data_PCOD9201962
_publ_section_title
;
Structure prediction by ZEFSAII (Michael W. Deem and Ramdas Pophale) SiO2 
 PCOD9201962
Probable space group: C 2/M
;
_chemical_formula_sum "Si O2"
_cell_formula_units_Z 44
_cell_length_a 14.894416
_cell_length_b 19.954914
_cell_length_c 8.989868
_cell_angle_alpha 90.000000
_cell_angle_beta 121.633956
_cell_angle_gamma 90.000000
_cell_volume 2274.932884
_symmetry_space_group_name_H-M "C 2/M"
_symmetry_group_IT_number 12
_symmetry_cell_setting 'monoclinic'
loop_
_space_group_symop_operation_xyz
x,y,z
-x,y,-z
-x,-y,-z
x,-y,z
1/2+x,1/2+y,z
1/2-x,1/2+y,-z
1/2-x,1/2-y,-z
1/2+x,1/2-y,z
loop_
_atom_site_type_symbol
_atom_site_label
_atom_site_fract_x
_atom_site_fract_y
_atom_site_fract_z
Si Si1 0.596776 0.614027 0.686876
Si Si2 0.765365 0.683478 0.312675
Si Si3 0.000000 0.677702 0.000000
Si Si4 0.625937 0.757592 0.840968
Si Si5 0.382270 0.573103 0.961612
Si Si6 0.206710 0.340060 0.324629
O O1 0.500000 0.591788 0.500000
O O2 0.579595 0.689810 0.732327
O O3 0.699801 0.620033 0.673860
O O4 0.613966 0.575744 0.855927
O O5 0.863574 0.690653 0.285885
O O6 0.682383 0.635221 0.159806
O O7 0.790496 0.654899 0.496172
O O8 0.723908 0.760067 0.303271
O O9 0.903985 0.638857 0.841466
O O10 0.054240 0.720027 0.914932
O O11 0.750000 0.750000 0.000000
O O12 0.339321 0.500000 0.878525
O O13 0.500000 0.578405 0.000000
#
# Coordination Sequence:
#
# PCOD9201962 Si02
#       6
#     8   8   4   8   8   8
#     4  11  22  36  55  83 121 153 193 242 291 351
#     4  10  20  38  52  80 119 145 198 233 283 367
#     4  12  20  32  52  84 124 144 186 238 282 370
#     4  11  21  34  53  84 117 155 195 226 313 347
#     4  11  23  37  57  82 114 164 203 236 287 345
#     4  10  22  34  58  88 112 155 189 235 316 338
#
# _framework density 19.341229999999999
#
# number of rings (size 3 to 8) (size 9 to 14) (size 15 to 20)
#    0.000    1.273    5.455    1.091   12.727    0.364 
#    0.000    0.909    0.000    0.000    0.000   21.000 
#    0.000    0.000    0.000    0.000    0.000    0.000 
#
# Total GULP energy -122778.657426 kJ/mol
# GULP energy per Si atom -5580.848065 kJ/mol
# Density = 1.929721 g / cm^3
# Si number density = 19.341230 Si / 1000 Ang^3
#
#
#
# Elastic Constant Matrix: (Units=GPa)
#
#
# Indices 1 2 3 4 5 6 
#
# 1 135.2428 19.8770 51.9083 0.0000 -25.1542 0.0000
# 2 19.8770 53.9101 10.3670 0.0000 -2.2787 0.0000
# 3 51.9083 10.3670 128.9042 0.0000 -15.2676 0.0000
# 4 0.0000 0.0000 0.0000 3.0455 0.0000 4.2336
# 5 -25.1542 -2.2787 -15.2676 0.0000 45.7498 0.0000
# 6 0.0000 0.0000 0.0000 4.2336 0.0000 -6.0175
#
#
#
# Elastic Compliance Matrix: (Units=1/GPa)
#
#
# Indices 1 2 3 4 5 6 
#
# 1 0.009829 -0.002825 -0.003235 0.000000 0.004184 0.000000
# 2 -0.002825 0.019662 -0.000533 0.000000 -0.000752 0.000000
# 3 -0.003235 -0.000533 0.009255 0.000000 0.001283 0.000000
# 4 0.000000 0.000000 0.000000 0.166000 0.000000 0.116790
# 5 0.004184 -0.000752 0.001283 0.000000 0.024549 0.000000
# 6 0.000000 0.000000 0.000000 0.116790 0.000000 -0.084015
#
#
# Mechanical properties :
#
#
# Convention : Reuss Voigt Hill
#
# Bulk Modulus (GPa) = 39.12357 53.59574 46.35966
# Shear Modulus (GPa) = 29.94245 24.28255 27.11250
#
# Velocity S-wave (km/s) = 3.93888 3.54712 3.74812
# Velocity P-wave (km/s) = 6.39987 6.67434 6.53855
#
# Compressibility (1/GPa) = 0.02556004
#
# Stress axis : x y z
#
# Youngs Moduli (GPa) = 101.73666 50.86027 108.04516
#
# Poissons Ratio (x) = 0.14369 0.34957
# Poissons Ratio (y) = 0.28742 0.05755
# Poissons Ratio (z) = 0.32916 0.02709
#
# Static dielectric constant tensor:
#      x y z
#    x 1.685150 0.000000 -0.004460 
#    y 0.000000 1.653380 0.000000 
#    z -0.004460 0.000000 1.719990 
# 
# From -- ./inp_files/63709.got.cif
#   From: 2010.05.17/outbox.cif.g08.bks.cpg/sg12_32_cif.got.tgz:63709.got - 2010.06.03 13:09:07.
