data_PCOD9201647
_publ_section_title
;
Structure prediction by ZEFSAII (Michael W. Deem and Ramdas Pophale) SiO2 
 PCOD9201647
Probable space group: C 2/M
;
_chemical_formula_sum "Si O2"
_cell_formula_units_Z 58
_cell_length_a 21.227393
_cell_length_b 7.622138
_cell_length_c 18.690839
_cell_angle_alpha 90.000000
_cell_angle_beta 61.329023
_cell_angle_gamma 90.000000
_cell_volume 2653.350371
_symmetry_space_group_name_H-M "C 2/M"
_symmetry_group_IT_number 12
_symmetry_cell_setting 'monoclinic'
loop_
_space_group_symop_operation_xyz
x,y,z
-x,y,-z
-x,-y,-z
x,-y,z
1/2+x,1/2+y,z
1/2-x,1/2+y,-z
1/2-x,1/2-y,-z
1/2+x,1/2-y,z
loop_
_atom_site_type_symbol
_atom_site_label
_atom_site_fract_x
_atom_site_fract_y
_atom_site_fract_z
Si Si1 0.419296 0.292203 0.046501
Si Si2 0.167439 0.215472 0.768822
Si Si3 0.331583 0.787131 0.669012
Si Si4 0.085674 0.793390 0.671702
Si Si5 0.500000 0.500000 0.500000
Si Si6 0.417175 0.212825 0.762389
Si Si7 0.834347 0.291323 0.949035
Si Si8 0.583072 0.201826 0.518781
O O1 0.426443 0.500000 0.056126
O O2 0.372931 0.222502 0.137970
O O3 0.500000 0.218491 0.000000
O O4 0.377264 0.271429 0.995258
O O5 0.249979 0.272039 0.722024
O O6 0.125275 0.272770 0.720984
O O7 0.167934 0.000000 0.769287
O O8 0.379555 0.726322 0.709532
O O9 0.364225 0.739202 0.574067
O O10 0.331701 0.000000 0.670271
O O11 0.112830 0.712184 0.582596
O O12 0.000273 0.762976 0.723862
O O13 0.099397 0.000000 0.660154
O O14 0.520375 0.343860 0.546690
O O15 0.371470 0.275051 0.855886
O O16 0.415060 0.000000 0.761969
O O17 0.841015 0.500000 0.943921
O O18 0.750000 0.250000 0.000000
O O19 0.561038 0.000000 0.518815
#
# Coordination Sequence:
#
# PCOD9201647 Si02
#       8
#     8   8   8   8   2   8   8   8
#     4  10  20  37  63  91 122 163 209 259 315 378
#     4   9  19  37  61  88 123 167 213 255 310 378
#     4   9  19  37  61  86 117 167 212 254 314 377
#     4  11  22  38  62  93 126 162 208 263 314 378
#     4  12  22  40  64  94 128 164 214 258 312 382
#     4  10  21  38  60  85 118 160 207 260 319 378
#     4  11  23  38  60  88 122 162 206 261 322 385
#     4  11  23  39  64  94 129 170 210 265 320 374
#
# _framework density 21.859155000000001
#
# number of rings (size 3 to 8) (size 9 to 14) (size 15 to 20)
#    0.000    1.793    0.690    3.517    0.000    6.345 
#    0.000    1.379    4.552    0.000    0.000    0.000 
#    0.000    0.000    0.000    0.000    0.000    0.000 
#
# Total GULP energy -161855.537780 kJ/mol
# GULP energy per Si atom -5581.225441 kJ/mol
# Density = 2.180940 g / cm^3
# Si number density = 21.859155 Si / 1000 Ang^3
#
#
#
# Elastic Constant Matrix: (Units=GPa)
#
#
# Indices 1 2 3 4 5 6 
#
# 1 164.9814 -1.4492 93.3702 0.0000 3.6477 0.0002
# 2 -1.4492 72.7968 9.5358 0.0002 -0.6632 0.0006
# 3 93.3702 9.5358 189.7095 -0.0001 18.0637 0.0000
# 4 0.0000 0.0002 -0.0001 23.2975 0.0001 11.4372
# 5 3.6477 -0.6632 18.0637 0.0001 30.1527 0.0000
# 6 0.0002 0.0006 0.0000 11.4372 0.0000 16.9451
#
#
#
# Elastic Compliance Matrix: (Units=1/GPa)
#
#
# Indices 1 2 3 4 5 6 
#
# 1 0.008512 0.000758 -0.004381 0.000000 0.001611 0.000000
# 2 0.000758 0.013912 -0.001159 0.000000 0.000909 -0.000001
# 3 -0.004381 -0.001159 0.007887 0.000000 -0.004221 0.000000
# 4 0.000000 0.000000 0.000000 0.064194 0.000000 -0.043328
# 5 0.001611 0.000909 -0.004221 0.000000 0.035518 0.000000
# 6 0.000000 -0.000001 0.000000 -0.043328 0.000000 0.088258
#
#
# Mechanical properties :
#
#
# Convention : Reuss Voigt Hill
#
# Bulk Modulus (GPa) = 48.19781 70.04458 59.12120
# Shear Modulus (GPa) = 21.29833 35.81445 28.55639
#
# Velocity S-wave (km/s) = 3.12483 4.05213 3.61831
# Velocity P-wave (km/s) = 5.92592 7.34889 6.67543
#
# Compressibility (1/GPa) = 0.02074783
#
# Stress axis : x y z
#
# Youngs Moduli (GPa) = 117.48741 71.88021 126.78417
#
# Poissons Ratio (x) = -0.05448 0.55540
# Poissons Ratio (y) = -0.08905 0.14692
# Poissons Ratio (z) = 0.51468 0.08330
#
# Static dielectric constant tensor:
#      x y z
#    x 1.768200 0.000000 -0.004360 
#    y 0.000000 1.801830 0.000000 
#    z -0.004360 0.000000 1.818520 
# 
# From -- ./inp_files/282176.got.cif
#   From: 2010.05.17/outbox.cif.g08.bks.cpg/sg12_142_cif.got.tgz:282176.got - 2010.06.03 13:09:07.
