data_PCOD9201294
_publ_section_title
;
Structure prediction by ZEFSAII (Michael W. Deem and Ramdas Pophale) SiO2 
 PCOD9201294
Probable space group: C 2/M
;
_chemical_formula_sum "Si O2"
_cell_formula_units_Z 58
_cell_length_a 17.550840
_cell_length_b 9.649180
_cell_length_c 17.139520
_cell_angle_alpha 90.000000
_cell_angle_beta 115.427864
_cell_angle_gamma 90.000000
_cell_volume 2621.413899
_symmetry_space_group_name_H-M "C 2/M"
_symmetry_group_IT_number 12
_symmetry_cell_setting 'monoclinic'
loop_
_space_group_symop_operation_xyz
x,y,z
-x,y,-z
-x,-y,-z
x,-y,z
1/2+x,1/2+y,z
1/2-x,1/2+y,-z
1/2-x,1/2-y,-z
1/2+x,1/2-y,z
loop_
_atom_site_type_symbol
_atom_site_label
_atom_site_fract_x
_atom_site_fract_y
_atom_site_fract_z
Si Si1 0.550085 0.349504 0.694756
Si Si2 0.333391 0.842058 0.046103
Si Si3 0.269646 0.844976 0.604812
Si Si4 0.510000 0.337024 0.863272
Si Si5 0.156816 0.339458 0.189025
Si Si6 0.000000 0.500000 0.500000
Si Si7 0.192035 0.346558 0.784748
Si Si8 0.103337 0.755107 0.468179
O O1 0.593396 0.500000 0.709120
O O2 0.519916 0.334057 0.772227
O O3 0.615242 0.226353 0.706533
O O4 0.472804 0.344213 0.601002
O O5 0.412958 0.744879 0.061693
O O6 0.340560 0.861637 0.142063
O O7 0.330219 0.000000 0.011486
O O8 0.250000 0.750000 0.000000
O O9 0.307745 0.839608 0.707322
O O10 0.170979 0.807524 0.561084
O O11 0.332124 0.760771 0.576575
O O12 0.274875 0.000000 0.575536
O O13 0.507598 0.500000 0.883589
O O14 0.427153 0.251540 0.848998
O O15 0.144020 0.500000 0.160557
O O16 0.229160 0.256571 0.175577
O O17 0.942455 0.620292 0.518785
O O18 0.213435 0.500000 0.762798
#
# Coordination Sequence:
#
# PCOD9201294 Si02
#       8
#     8   8   8   8   8   2   8   8
#     4  10  21  38  61  86 118 160 203 259 313 369
#     4  10  21  40  66  95 125 163 198 242 299 362
#     4  10  22  41  59  80 117 166 206 259 322 386
#     4  10  20  37  61  92 121 159 204 245 299 370
#     4  11  22  38  60  88 121 163 206 256 309 368
#     4  12  28  40  58  92 116 162 218 280 332 376
#     4  10  23  39  61  91 127 159 202 254 306 361
#     4  11  23  40  58  85 119 158 214 267 323 379
#
# _framework density 22.125464000000001
#
# number of rings (size 3 to 8) (size 9 to 14) (size 15 to 20)
#    0.000    1.655    2.069    2.069    2.897    2.207 
#    1.241    1.379    0.000    4.138    0.000    0.000 
#    0.000    0.000    0.000    0.000    0.000    0.000 
#
# Total GULP energy -161575.241289 kJ/mol
# GULP energy per Si atom -5571.560044 kJ/mol
# Density = 2.207511 g / cm^3
# Si number density = 22.125464 Si / 1000 Ang^3
#
#
#
# Elastic Constant Matrix: (Units=GPa)
#
#
# Indices 1 2 3 4 5 6 
#
# 1 62.5420 55.5915 30.3837 0.0000 26.7526 0.0000
# 2 55.5915 187.1375 32.7624 0.0000 37.6650 0.0000
# 3 30.3837 32.7624 63.3444 0.0000 26.8961 0.0000
# 4 0.0000 0.0000 0.0000 -724.9651 0.0000 -716.1062
# 5 26.7526 37.6650 26.8961 0.0000 48.7331 0.0000
# 6 0.0000 0.0000 0.0000 -716.1062 0.0000 -663.8116
#
#
#
# Elastic Compliance Matrix: (Units=1/GPa)
#
#
# Indices 1 2 3 4 5 6 
#
# 1 0.027318 -0.005472 -0.007447 0.000000 -0.006658 0.000000
# 2 -0.005472 0.007545 -0.000101 0.000000 -0.002772 0.000000
# 3 -0.007447 -0.000101 0.023041 0.000000 -0.008551 0.000000
# 4 0.000000 0.000000 0.000000 0.021028 0.000000 -0.022685
# 5 -0.006658 -0.002772 -0.008551 0.000000 0.031037 0.000000
# 6 0.000000 0.000000 0.000000 -0.022685 0.000000 0.022965
#
#
# Mechanical properties :
#
#
# Convention : Reuss Voigt Hill
#
# Bulk Modulus (GPa) = 31.38072 61.16656 46.27364
# Shear Modulus (GPa) = 29.48217 -255.05631 -112.78707
#
# Velocity S-wave (km/s) = 3.65430 -10.74837 -7.14750
# Velocity P-wave (km/s) = 5.65854 11.23972 6.86703
#
# Compressibility (1/GPa) = 0.03186670
#
# Stress axis : x y z
#
# Youngs Moduli (GPa) = 36.60546 132.54567 43.40017
#
# Poissons Ratio (x) = 0.72523 0.32318
# Poissons Ratio (y) = 0.20029 0.00437
# Poissons Ratio (z) = 0.27258 0.01335
#
# Static dielectric constant tensor:
#      x y z
#    x 1.816270 0.000000 -0.030610 
#    y 0.000000 1.828970 0.000000 
#    z -0.030610 0.000000 1.870630 
# 
# From -- ./inp_files/313842.got.cif
#   From: 2010.05.17/outbox.cif.g08.bks.cpg/sg12_157_cif.got.tgz:313842.got - 2010.06.03 13:09:07.
