data_PCOD9201575
_publ_section_title
;
Structure prediction by ZEFSAII (Michael W. Deem and Ramdas Pophale) SiO2 
 PCOD9201575
Probable space group: C 2/M
;
_chemical_formula_sum "Si O2"
_cell_formula_units_Z 44
_cell_length_a 13.026654
_cell_length_b 23.198630
_cell_length_c 9.338286
_cell_angle_alpha 90.000000
_cell_angle_beta 130.353071
_cell_angle_gamma 90.000000
_cell_volume 2150.585079
_symmetry_space_group_name_H-M "C 2/M"
_symmetry_group_IT_number 12
_symmetry_cell_setting 'monoclinic'
loop_
_space_group_symop_operation_xyz
x,y,z
-x,y,-z
-x,-y,-z
x,-y,z
1/2+x,1/2+y,z
1/2-x,1/2+y,-z
1/2-x,1/2-y,-z
1/2+x,1/2-y,z
loop_
_atom_site_type_symbol
_atom_site_label
_atom_site_fract_x
_atom_site_fract_y
_atom_site_fract_z
Si Si1 0.895555 0.934816 0.775340
Si Si2 0.538135 0.321095 0.313435
Si Si3 0.129953 0.570123 0.704202
Si Si4 0.000000 0.745488 0.000000
Si Si5 0.144397 0.433005 0.051255
Si Si6 0.724799 0.322563 0.737588
O O1 0.948670 0.888785 0.711094
O O2 0.758991 0.913050 0.727533
O O3 0.875465 0.000000 0.700798
O O4 0.000000 0.938172 0.000000
O O5 0.664403 0.306444 0.528746
O O6 0.397550 0.309307 0.266081
O O7 0.533963 0.285591 0.164680
O O8 0.127662 0.500000 0.703599
O O9 0.000000 0.590727 0.500000
O O10 0.133855 0.586704 0.874943
O O11 0.865899 0.707512 0.902452
O O12 0.186765 0.500000 0.090174
O O13 0.244648 0.390658 0.223194
O O14 0.000000 0.429828 0.000000
#
# Coordination Sequence:
#
# PCOD9201575 Si02
#       6
#     8   8   8   4   8   8
#     4  10  20  37  62  93 129 166 203 252 315 377
#     4  11  25  43  67  97 126 163 212 268 321 378
#     4   9  19  34  57  89 126 167 213 251 290 368
#     4  12  24  48  70  86 120 174 218 264 316 372
#     4  10  21  38  62  94 134 171 202 251 319 380
#     4  11  25  44  66  96 129 162 212 267 320 380
#
# _framework density 20.459548000000002
#
# number of rings (size 3 to 8) (size 9 to 14) (size 15 to 20)
#    0.000    1.636    1.818    2.182    2.545    2.909 
#    0.000    1.818    0.000    0.000    0.000    0.000 
#    0.000    0.000    0.000    0.000    0.000    0.000 
#
# Total GULP energy -122874.445424 kJ/mol
# GULP energy per Si atom -5585.202065 kJ/mol
# Density = 2.041298 g / cm^3
# Si number density = 20.459548 Si / 1000 Ang^3
#
#
#
# Elastic Constant Matrix: (Units=GPa)
#
#
# Indices 1 2 3 4 5 6 
#
# 1 74.5829 29.8215 53.5263 0.0000 5.3543 0.0000
# 2 29.8215 64.6048 36.3397 0.0000 -5.2473 0.0000
# 3 53.5263 36.3397 118.1753 0.0000 7.7541 0.0000
# 4 0.0000 0.0000 0.0000 -96.2286 0.0000 64.4270
# 5 5.3543 -5.2473 7.7541 0.0000 38.4559 0.0000
# 6 0.0000 0.0000 0.0000 64.4270 0.0000 -16.7569
#
#
#
# Elastic Compliance Matrix: (Units=1/GPa)
#
#
# Indices 1 2 3 4 5 6 
#
# 1 0.021452 -0.005677 -0.007828 0.000000 -0.002183 0.000000
# 2 -0.005677 0.020772 -0.004108 0.000000 0.004453 0.000000
# 3 -0.007828 -0.004108 0.013414 0.000000 -0.002175 0.000000
# 4 0.000000 0.000000 0.000000 0.006602 0.000000 0.025382
# 5 -0.002183 0.004453 -0.002175 0.000000 0.027354 0.000000
# 6 0.000000 0.000000 0.000000 0.025382 0.000000 0.037910
#
#
# Mechanical properties :
#
#
# Convention : Reuss Voigt Hill
#
# Bulk Modulus (GPa) = 48.99095 55.19310 52.09203
# Shear Modulus (GPa) = 29.49286 -5.72756 11.88265
#
# Velocity S-wave (km/s) = 3.80085 -1.67497 2.41257
# Velocity P-wave (km/s) = 6.57718 4.82644 5.76861
#
# Compressibility (1/GPa) = 0.02041193
#
# Stress axis : x y z
#
# Youngs Moduli (GPa) = 46.61543 48.14242 74.55116
#
# Poissons Ratio (x) = 0.27328 0.58356
# Poissons Ratio (y) = 0.26462 0.30629
# Poissons Ratio (z) = 0.36489 0.19779
#
# Static dielectric constant tensor:
#      x y z
#    x 1.739790 0.000000 -0.009330 
#    y 0.000000 1.739700 0.000000 
#    z -0.009330 0.000000 1.689960 
# 
# From -- ./inp_files/53427.got.cif
#   From: 2010.05.17/outbox.cif.g08.bks.cpg/sg12_27_cif.got.tgz:53427.got - 2010.06.03 13:09:07.
