data_PCOD9201551
_publ_section_title
;
Structure prediction by ZEFSAII (Michael W. Deem and Ramdas Pophale) SiO2 
 PCOD9201551
Probable space group: C 2/M
;
_chemical_formula_sum "Si O2"
_cell_formula_units_Z 48
_cell_length_a 28.892869
_cell_length_b 17.251682
_cell_length_c 9.251506
_cell_angle_alpha 90.000000
_cell_angle_beta 148.277685
_cell_angle_gamma 90.000000
_cell_volume 2424.697630
_symmetry_space_group_name_H-M "C 2/M"
_symmetry_group_IT_number 12
_symmetry_cell_setting 'monoclinic'
loop_
_space_group_symop_operation_xyz
x,y,z
-x,y,-z
-x,-y,-z
x,-y,z
1/2+x,1/2+y,z
1/2-x,1/2+y,-z
1/2-x,1/2-y,-z
1/2+x,1/2-y,z
loop_
_atom_site_type_symbol
_atom_site_label
_atom_site_fract_x
_atom_site_fract_y
_atom_site_fract_z
Si Si1 0.979645 0.090719 0.775541
Si Si2 0.398936 0.911570 0.695262
Si Si3 0.638807 0.309609 0.092132
Si Si4 0.262045 0.823155 0.144131
Si Si5 0.307793 0.855776 0.724504
Si Si6 0.283246 0.588937 0.238616
O O1 0.881263 0.124254 0.500717
O O2 0.983311 0.000000 0.738118
O O3 0.051697 0.140544 0.882105
O O4 0.000000 0.092280 0.000000
O O5 0.350396 0.844831 0.470297
O O6 0.349667 0.912227 0.719238
O O7 0.394009 0.000000 0.621350
O O8 0.500000 0.893553 0.000000
O O9 0.685417 0.317700 0.060293
O O10 0.629399 0.218860 0.099401
O O11 0.712169 0.335891 0.403441
O O12 0.250000 0.750000 0.000000
O O13 0.251001 0.896845 0.011731
O O14 0.285102 0.880359 0.825807
O O15 0.296824 0.500000 0.312172
#
# Coordination Sequence:
#
# PCOD9201551 Si02
#       6
#     8   8   8   8   8   8
#     4  10  21  36  59  92 129 167 210 259 317 389
#     4  10  23  43  66  92 123 168 224 273 317 380
#     4  10  21  37  60  88 127 167 215 257 314 392
#     4  11  23  41  63  92 132 168 210 266 332 392
#     4  10  20  37  62  92 117 166 215 269 320 376
#     4  11  22  38  62  92 127 166 211 267 328 390
#
# _framework density 19.796284
#
# number of rings (size 3 to 8) (size 9 to 14) (size 15 to 20)
#    0.000    1.667    3.333    1.000    0.000    6.000 
#    0.000    2.500    0.000    3.000    0.000    0.000 
#    0.000    0.000    0.000    0.000    0.000    0.000 
#
# Total GULP energy -133727.153259 kJ/mol
# GULP energy per Si atom -5571.964719 kJ/mol
# Density = 1.975123 g / cm^3
# Si number density = 19.796284 Si / 1000 Ang^3
#
#
#
# Elastic Constant Matrix: (Units=GPa)
#
#
# Indices 1 2 3 4 5 6 
#
# 1 75.6698 31.7899 39.2017 0.0000 -1.9065 0.0000
# 2 31.7899 76.8349 29.3425 0.0000 16.7619 0.0000
# 3 39.2017 29.3425 81.6657 0.0000 9.8328 0.0000
# 4 0.0000 0.0000 0.0000 20.7181 0.0000 -0.9590
# 5 -1.9065 16.7619 9.8328 0.0000 32.1916 0.0000
# 6 0.0000 0.0000 0.0000 -0.9590 0.0000 28.1366
#
#
#
# Elastic Compliance Matrix: (Units=1/GPa)
#
#
# Indices 1 2 3 4 5 6 
#
# 1 0.020625 -0.006982 -0.008281 0.000000 0.007387 0.000000
# 2 -0.006982 0.018852 -0.002274 0.000000 -0.009535 0.000000
# 3 -0.008281 -0.002274 0.017601 0.000000 -0.004683 0.000000
# 4 0.000000 0.000000 0.000000 0.048343 0.000000 0.001648
# 5 0.007387 -0.009535 -0.004683 0.000000 0.037897 0.000000
# 6 0.000000 0.000000 0.000000 0.001648 0.000000 0.035597
#
#
# Mechanical properties :
#
#
# Convention : Reuss Voigt Hill
#
# Bulk Modulus (GPa) = 45.44711 48.31541 46.88126
# Shear Modulus (GPa) = 22.59125 25.13167 23.86146
#
# Velocity S-wave (km/s) = 3.38181 3.56689 3.47558
# Velocity P-wave (km/s) = 6.18515 6.43606 6.31185
#
# Compressibility (1/GPa) = 0.02200360
#
# Stress axis : x y z
#
# Youngs Moduli (GPa) = 48.48496 53.04376 56.81492
#
# Poissons Ratio (x) = 0.37037 0.47049
# Poissons Ratio (y) = 0.33854 0.12919
# Poissons Ratio (z) = 0.40151 0.12061
#
# Static dielectric constant tensor:
#      x y z
#    x 1.676120 0.000000 -0.003910 
#    y 0.000000 1.766820 0.000000 
#    z -0.003910 0.000000 1.707070 
# 
# From -- ./inp_files/77252.got.cif
#   From: 2010.05.17/outbox.cif.g08.bks.cpg/sg12_39_cif.got.tgz:77252.got - 2010.06.03 13:09:07.
