data_PCOD9201482
_publ_section_title
;
Structure prediction by ZEFSAII (Michael W. Deem and Ramdas Pophale) SiO2 
 PCOD9201482
Probable space group: C 2/M
;
_chemical_formula_sum "Si O2"
_cell_formula_units_Z 56
_cell_length_a 9.309210
_cell_length_b 24.967941
_cell_length_c 14.677072
_cell_angle_alpha 90.000000
_cell_angle_beta 124.513446
_cell_angle_gamma 90.000000
_cell_volume 2810.985673
_symmetry_space_group_name_H-M "C 2/M"
_symmetry_group_IT_number 12
_symmetry_cell_setting 'monoclinic'
loop_
_space_group_symop_operation_xyz
x,y,z
-x,y,-z
-x,-y,-z
x,-y,z
1/2+x,1/2+y,z
1/2-x,1/2+y,-z
1/2-x,1/2-y,-z
1/2+x,1/2-y,z
loop_
_atom_site_type_symbol
_atom_site_label
_atom_site_fract_x
_atom_site_fract_y
_atom_site_fract_z
Si Si1 0.294001 0.202804 0.944149
Si Si2 0.694244 0.777596 0.386482
Si Si3 0.703469 0.061275 0.600727
Si Si4 0.293072 0.222994 0.238066
Si Si5 0.808717 0.130484 0.937784
Si Si6 0.939687 0.563633 0.261556
Si Si7 0.312362 0.393242 0.457964
O O1 0.210158 0.221398 0.819815
O O2 0.500000 0.199035 0.000000
O O3 0.250000 0.250000 0.000000
O O4 0.221748 0.152036 0.971329
O O5 0.750000 0.750000 0.500000
O O6 0.492425 0.794653 0.319094
O O7 0.719195 0.737860 0.310164
O O8 0.802282 0.832403 0.418893
O O9 0.500000 0.058283 0.500000
O O10 0.687354 0.079326 0.699052
O O11 0.791857 0.100221 0.559896
O O12 0.772221 0.000000 0.618628
O O13 0.196249 0.179964 0.138170
O O14 0.646487 0.093443 0.853686
O O15 0.000000 0.105304 0.000000
O O16 0.930363 0.500000 0.250589
O O17 0.139656 0.578764 0.354617
O O18 0.500000 0.416779 0.500000
#
# Coordination Sequence:
#
# PCOD9201482 Si02
#       7
#     8   8   8   8   8   8   8
#     4  10  20  37  62  90 117 157 217 259 294 360
#     4  12  25  37  54  92 130 167 198 242 303 370
#     4   8  17  35  60  85 112 154 203 248 296 365
#     4  11  21  39  59  83 127 164 206 247 292 366
#     4  11  22  40  64  92 117 163 213 261 315 357
#     4  10  22  41  66  92 120 158 208 263 316 365
#     4  11  22  38  58  91 128 163 206 246 307 379
#
# _framework density 19.921837
#
# number of rings (size 3 to 8) (size 9 to 14) (size 15 to 20)
#    0.000    1.571    1.429    6.857    2.000    2.571 
#    2.571    0.000    0.000    0.429    0.000    0.000 
#    0.000    0.000    0.000    0.000    0.000    0.000 
#
# Total GULP energy -156217.149040 kJ/mol
# GULP energy per Si atom -5579.183894 kJ/mol
# Density = 1.987649 g / cm^3
# Si number density = 19.921837 Si / 1000 Ang^3
#
#
#
# Elastic Constant Matrix: (Units=GPa)
#
#
# Indices 1 2 3 4 5 6 
#
# 1 99.4740 12.3709 15.8039 0.0000 12.1993 0.0000
# 2 12.3709 42.0614 15.5854 0.0000 -0.3626 0.0000
# 3 15.8039 15.5854 75.6509 0.0000 -2.7275 0.0000
# 4 0.0000 0.0000 0.0000 19.6194 0.0000 -2.3925
# 5 12.1993 -0.3626 -2.7275 0.0000 33.4744 0.0000
# 6 0.0000 0.0000 0.0000 -2.3925 0.0000 9.7982
#
#
#
# Elastic Compliance Matrix: (Units=1/GPa)
#
#
# Indices 1 2 3 4 5 6 
#
# 1 0.011213 -0.002609 -0.001959 0.000000 -0.004274 0.000000
# 2 -0.002609 0.026347 -0.004853 0.000000 0.000841 0.000000
# 3 -0.001959 -0.004853 0.014695 0.000000 0.001859 0.000000
# 4 0.000000 0.000000 0.000000 0.052534 0.000000 0.012828
# 5 -0.004274 0.000841 0.001859 0.000000 0.031592 0.000000
# 6 0.000000 0.000000 0.000000 0.012828 0.000000 0.105191
#
#
# Mechanical properties :
#
#
# Convention : Reuss Voigt Hill
#
# Bulk Modulus (GPa) = 29.92788 33.85630 31.89209
# Shear Modulus (GPa) = 18.41274 24.14016 21.27645
#
# Velocity S-wave (km/s) = 3.04344 3.48479 3.27157
# Velocity P-wave (km/s) = 5.23501 5.76395 5.50584
#
# Compressibility (1/GPa) = 0.03341366
#
# Stress axis : x y z
#
# Youngs Moduli (GPa) = 89.18431 37.95441 68.05206
#
# Poissons Ratio (x) = 0.09901 0.13332
# Poissons Ratio (y) = 0.23266 0.33024
# Poissons Ratio (z) = 0.17472 0.18418
#
# Static dielectric constant tensor:
#      x y z
#    x 1.922510 0.000000 -0.060320 
#    y 0.000000 1.727430 0.000000 
#    z -0.060320 0.000000 1.745470 
# 
# From -- ./inp_files/198951.got.cif
#   From: 2010.05.17/outbox.cif.g08.bks.cpg/sg12_100_cif.got.tgz:198951.got - 2010.06.03 13:09:07.
