data_PCOD9201246
_publ_section_title
;
Structure prediction by ZEFSAII (Michael W. Deem and Ramdas Pophale) SiO2 
 PCOD9201246
Probable space group: C 2/M
;
_chemical_formula_sum "Si O2"
_cell_formula_units_Z 40
_cell_length_a 32.125182
_cell_length_b 8.676669
_cell_length_c 25.273471
_cell_angle_alpha 90.000000
_cell_angle_beta 15.614685
_cell_angle_gamma 90.000000
_cell_volume 1896.202884
_symmetry_space_group_name_H-M "C 2/M"
_symmetry_group_IT_number 12
_symmetry_cell_setting 'monoclinic'
loop_
_space_group_symop_operation_xyz
x,y,z
-x,y,-z
-x,-y,-z
x,-y,z
1/2+x,1/2+y,z
1/2-x,1/2+y,-z
1/2-x,1/2-y,-z
1/2+x,1/2-y,z
loop_
_atom_site_type_symbol
_atom_site_label
_atom_site_fract_x
_atom_site_fract_y
_atom_site_fract_z
Si Si1 0.867005 0.181720 0.201292
Si Si2 0.878956 0.319338 0.586438
Si Si3 0.284061 0.316831 0.515733
Si Si4 0.636035 0.685271 0.094428
Si Si5 0.712088 0.317673 0.195915
O O1 0.711853 0.198090 0.356679
O O2 0.840956 0.261359 0.288789
O O3 0.897520 0.000000 0.172708
O O4 0.000000 0.243851 0.000000
O O5 0.918527 0.500000 0.544387
O O6 0.773377 0.266267 0.765189
O O7 0.033883 0.218918 0.398286
O O8 0.281948 0.500000 0.515280
O O9 0.250000 0.250000 0.500000
O O10 0.457131 0.269515 0.322055
O O11 0.647669 0.500000 0.080243
O O12 0.750000 0.750000 0.000000
O O13 0.685771 0.748723 0.976121
O O14 0.736011 0.500000 0.171834
#
# Coordination Sequence:
#
# PCOD9201246 Si02
#       5
#     8   8   8   8   8
#     4  10  23  42  65  92 125 166 211 261 315 377
#     4  10  20  37  61  89 125 165 209 260 316 374
#     4  11  26  45  67  96 132 172 216 268 323 388
#     4  11  24  42  65  93 127 167 214 266 324 386
#     4  11  22  36  59  91 126 162 207 261 315 378
#
# _framework density 21.094788000000001
#
# number of rings (size 3 to 8) (size 9 to 14) (size 15 to 20)
#    0.000    1.400    0.000    6.000    2.800    8.400 
#    0.000    0.000    0.000    0.000    0.000    0.000 
#    0.000    0.000    0.000    0.000    0.000    0.000 
#
# Total GULP energy -111881.036720 kJ/mol
# GULP energy per Si atom -5594.051836 kJ/mol
# Density = 2.104678 g / cm^3
# Si number density = 21.094788 Si / 1000 Ang^3
#
#
#
# Elastic Constant Matrix: (Units=GPa)
#
#
# Indices 1 2 3 4 5 6 
#
# 1 105.5562 28.2704 40.7555 0.0003 23.0550 -0.0003
# 2 28.2704 57.9794 23.4355 -0.0029 5.3446 0.0008
# 3 40.7555 23.4355 99.9104 -0.0019 30.4540 0.0009
# 4 0.0003 -0.0029 -0.0019 30.5919 0.0007 7.5018
# 5 23.0550 5.3446 30.4540 0.0007 40.2293 -0.0005
# 6 -0.0003 0.0008 0.0009 7.5018 -0.0005 31.0703
#
#
#
# Elastic Compliance Matrix: (Units=1/GPa)
#
#
# Indices 1 2 3 4 5 6 
#
# 1 0.012797 -0.004722 -0.002689 -0.000001 -0.004671 0.000000
# 2 -0.004722 0.020835 -0.003824 0.000002 0.002833 -0.000001
# 3 -0.002689 -0.003824 0.014791 0.000001 -0.009148 -0.000001
# 4 -0.000001 0.000002 0.000001 0.034746 -0.000001 -0.008389
# 5 -0.004671 0.002833 -0.009148 -0.000001 0.034083 0.000001
# 6 0.000000 -0.000001 -0.000001 -0.008389 0.000001 0.034211
#
#
# Mechanical properties :
#
#
# Convention : Reuss Voigt Hill
#
# Bulk Modulus (GPa) = 38.53257 49.81875 44.17566
# Shear Modulus (GPa) = 27.38474 31.77727 29.58100
#
# Velocity S-wave (km/s) = 3.60693 3.88545 3.74878
# Velocity P-wave (km/s) = 5.97098 6.61792 6.30276
#
# Compressibility (1/GPa) = 0.02595207
#
# Stress axis : x y z
#
# Youngs Moduli (GPa) = 78.14564 47.99680 67.60731
#
# Poissons Ratio (x) = 0.22665 0.18177
# Poissons Ratio (y) = 0.36902 0.25856
# Poissons Ratio (z) = 0.21010 0.18356
#
# Static dielectric constant tensor:
#      x y z
#    x 1.739520 0.000000 -0.013980 
#    y 0.000000 1.708830 0.000000 
#    z -0.013980 0.000000 1.791600 
# 
# From -- ./inp_files/352957.got.cif
#   From: 2010.05.17/outbox.cif.g08.bks.cpg/sg12_177_cif.got.tgz:352957.got - 2010.06.03 13:09:07.
