data_PCOD9201201
_publ_section_title
;
Structure prediction by ZEFSAII (Michael W. Deem and Ramdas Pophale) SiO2 
 PCOD9201201
Probable space group: C 2/M
;
_chemical_formula_sum "Si O2"
_cell_formula_units_Z 48
_cell_length_a 17.335241
_cell_length_b 8.119984
_cell_length_c 15.228182
_cell_angle_alpha 90.000000
_cell_angle_beta 90.390327
_cell_angle_gamma 90.000000
_cell_volume 2143.497780
_symmetry_space_group_name_H-M "C 2/M"
_symmetry_group_IT_number 12
_symmetry_cell_setting 'monoclinic'
loop_
_space_group_symop_operation_xyz
x,y,z
-x,y,-z
-x,-y,-z
x,-y,z
1/2+x,1/2+y,z
1/2-x,1/2+y,-z
1/2-x,1/2-y,-z
1/2+x,1/2-y,z
loop_
_atom_site_type_symbol
_atom_site_label
_atom_site_fract_x
_atom_site_fract_y
_atom_site_fract_z
Si Si1 0.585521 0.309143 0.206683
Si Si2 0.674590 0.809010 0.364694
Si Si3 0.923183 0.300674 0.126627
Si Si4 0.331084 0.197810 0.959209
Si Si5 0.835995 0.695572 0.294109
Si Si6 0.915265 0.297950 0.469086
O O1 0.583932 0.500000 0.229913
O O2 0.605100 0.209337 0.294600
O O3 0.505867 0.257310 0.160722
O O4 0.651301 0.275804 0.134569
O O5 0.748953 0.725528 0.323160
O O6 0.646650 0.743205 0.458353
O O7 0.693711 0.000000 0.375565
O O8 0.924397 0.500000 0.124123
O O9 0.861127 0.241613 0.198951
O O10 0.896291 0.248071 0.029993
O O11 0.333817 0.000000 0.950121
O O12 0.250000 0.250000 0.000000
O O13 0.847654 0.500000 0.290310
O O14 0.891002 0.759691 0.372483
O O15 0.914630 0.500000 0.469327
O O16 0.000000 0.246091 0.500000
#
# Coordination Sequence:
#
# PCOD9201201 Si02
#       6
#     8   8   8   8   8   8
#     4  12  25  40  60  86 117 155 199 247 296 344
#     4  11  22  37  59  86 118 156 198 243 293 350
#     4  10  22  40  62  87 116 153 193 237 293 353
#     4  11  23  40  63  91 123 157 195 238 288 349
#     4  10  20  37  61  88 120 154 192 239 292 355
#     4   9  18  34  58  86 116 154 196 238 290 352
#
# _framework density 22.393304000000001
#
# number of rings (size 3 to 8) (size 9 to 14) (size 15 to 20)
#    0.000    1.500    0.000    5.500    0.000    8.000 
#    0.000    0.833    0.000    3.500    0.000    0.000 
#    0.000    0.000    0.000    0.000    0.000    0.000 
#
# Total GULP energy -134270.525840 kJ/mol
# GULP energy per Si atom -5594.605243 kJ/mol
# Density = 2.234234 g / cm^3
# Si number density = 22.393304 Si / 1000 Ang^3
#
#
#
# Elastic Constant Matrix: (Units=GPa)
#
#
# Indices 1 2 3 4 5 6 
#
# 1 51.1359 -12.3008 -19.7405 0.0000 2.2901 0.0000
# 2 -12.3008 11.9795 5.2767 0.0000 0.1073 0.0000
# 3 -19.7405 5.2767 73.3630 0.0000 -3.5688 0.0000
# 4 0.0000 0.0000 0.0000 5.5683 0.0000 -3.5740
# 5 2.2901 0.1073 -3.5688 0.0000 40.1892 0.0000
# 6 0.0000 0.0000 0.0000 -3.5740 0.0000 31.7415
#
#
#
# Elastic Compliance Matrix: (Units=1/GPa)
#
#
# Indices 1 2 3 4 5 6 
#
# 1 0.028131 0.026424 0.005612 0.000000 -0.001175 0.000000
# 2 0.026424 0.111052 -0.000969 0.000000 -0.001888 0.000000
# 3 0.005612 -0.000969 0.015261 0.000000 0.001038 0.000000
# 4 0.000000 0.000000 0.000000 0.193578 0.000000 0.021796
# 5 -0.001175 -0.001888 0.001038 0.000000 0.025046 0.000000
# 6 0.000000 0.000000 0.000000 0.021796 0.000000 0.033959
#
#
# Mechanical properties :
#
#
# Convention : Reuss Voigt Hill
#
# Bulk Modulus (GPa) = 4.61727 9.21658 6.91692
# Shear Modulus (GPa) = 11.98791 26.38268 19.18530
#
# Velocity S-wave (km/s) = 2.31624 3.43614 2.93019
# Velocity P-wave (km/s) = 3.03639 4.45730 3.81360
#
# Compressibility (1/GPa) = 0.21657835
#
# Stress axis : x y z
#
# Youngs Moduli (GPa) = 35.54785 9.00476 65.52628
#
# Poissons Ratio (x) = -0.23794 -0.36772
# Poissons Ratio (y) = -0.93932 0.06350
# Poissons Ratio (z) = -0.19949 0.00873
#
# Static dielectric constant tensor:
#      x y z
#    x 1.826650 0.000000 0.002470 
#    y 0.000000 1.793630 0.000000 
#    z 0.002470 0.000000 1.813570 
# 
# From -- ./inp_files/221715.got.cif
#   From: 2010.05.17/outbox.cif.g08.bks.cpg/sg12_111_cif.got.tgz:221715.got - 2010.06.03 13:09:07.
