data_PCOD9201413
_publ_section_title
;
Structure prediction by ZEFSAII (Michael W. Deem and Ramdas Pophale) SiO2 
 PCOD9201413
Probable space group: C 2/M
;
_chemical_formula_sum "Si O2"
_cell_formula_units_Z 56
_cell_length_a 15.548161
_cell_length_b 8.937237
_cell_length_c 24.991651
_cell_angle_alpha 90.000000
_cell_angle_beta 120.250200
_cell_angle_gamma 90.000000
_cell_volume 2999.904418
_symmetry_space_group_name_H-M "C 2/M"
_symmetry_group_IT_number 12
_symmetry_cell_setting 'monoclinic'
loop_
_space_group_symop_operation_xyz
x,y,z
-x,y,-z
-x,-y,-z
x,-y,z
1/2+x,1/2+y,z
1/2-x,1/2+y,-z
1/2-x,1/2-y,-z
1/2+x,1/2-y,z
loop_
_atom_site_type_symbol
_atom_site_label
_atom_site_fract_x
_atom_site_fract_y
_atom_site_fract_z
Si Si1 0.687789 0.321566 0.118539
Si Si2 0.917160 0.679921 0.212078
Si Si3 0.848176 0.321114 0.004594
Si Si4 0.224609 0.819785 0.434708
Si Si5 0.917121 0.679875 0.429025
Si Si6 0.968784 0.320638 0.858755
Si Si7 0.003797 0.179162 0.654870
O O1 0.679374 0.500000 0.110525
O O2 0.804413 0.282651 0.159503
O O3 0.642512 0.243344 0.051961
O O4 0.628339 0.264149 0.151422
O O5 0.921328 0.500000 0.219387
O O6 0.946141 0.756250 0.276385
O O7 0.991776 0.721956 0.187464
O O8 0.837711 0.500000 0.999365
O O9 0.750000 0.250000 0.000000
O O10 0.942573 0.286810 0.071482
O O11 0.250000 0.750000 0.500000
O O12 0.309650 0.776152 0.418944
O O13 0.113026 0.776916 0.383216
O O14 0.228495 0.000000 0.440842
O O15 0.918831 0.500000 0.422179
O O16 0.944917 0.757320 0.382366
O O17 0.000000 0.716568 0.500000
O O18 0.952532 0.500000 0.854701
O O19 0.009564 0.000000 0.656604
#
# Coordination Sequence:
#
# PCOD9201413 Si02
#       7
#     8   8   8   8   8   8   8
#     4  11  23  40  62  91 121 157 205 253 302 357
#     4  10  23  44  62  80 119 165 202 242 296 362
#     4  11  21  37  62  91 124 159 200 251 306 358
#     4  10  21  37  59  88 119 149 188 237 288 347
#     4  10  20  37  62  88 117 156 192 227 290 359
#     4  10  22  41  62  88 122 160 201 248 304 360
#     4  11  24  39  59  90 122 151 196 250 294 343
#
# _framework density 18.667262999999998
#
# number of rings (size 3 to 8) (size 9 to 14) (size 15 to 20)
#    0.000    1.571    2.857    1.714    0.000    7.143 
#    0.000    4.286    0.000    0.000    0.000    0.000 
#    0.000    0.000    0.000    0.000    0.000    0.000 
#
# Total GULP energy -156494.469509 kJ/mol
# GULP energy per Si atom -5589.088197 kJ/mol
# Density = 1.862478 g / cm^3
# Si number density = 18.667263 Si / 1000 Ang^3
#
#
#
# Elastic Constant Matrix: (Units=GPa)
#
#
# Indices 1 2 3 4 5 6 
#
# 1 127.1712 28.8964 31.0417 0.0000 -29.4191 0.0000
# 2 28.8964 21.9621 30.3482 0.0000 -9.4321 0.0000
# 3 31.0417 30.3482 100.7072 0.0000 -30.9409 0.0000
# 4 0.0000 0.0000 0.0000 29.0531 0.0000 -4.6460
# 5 -29.4191 -9.4321 -30.9409 0.0000 26.6209 0.0000
# 6 0.0000 0.0000 0.0000 -4.6460 0.0000 34.7307
#
#
#
# Elastic Compliance Matrix: (Units=1/GPa)
#
#
# Indices 1 2 3 4 5 6 
#
# 1 0.015363 -0.023276 0.007717 0.000000 0.017701 0.000000
# 2 -0.023276 0.113291 -0.035054 0.000000 -0.026324 0.000000
# 3 0.007717 -0.035054 0.026316 0.000000 0.026695 0.000000
# 4 0.000000 0.000000 0.000000 0.035172 0.000000 0.004705
# 5 0.017701 -0.026324 0.026695 0.000000 0.078826 0.000000
# 6 0.000000 0.000000 0.000000 0.004705 0.000000 0.029422
#
#
# Mechanical properties :
#
#
# Convention : Reuss Voigt Hill
#
# Bulk Modulus (GPa) = 18.60618 47.82366 33.21492
# Shear Modulus (GPa) = 11.97513 28.71788 20.34651
#
# Velocity S-wave (km/s) = 2.53554 3.92651 3.30503
# Velocity P-wave (km/s) = 4.30823 6.79936 5.69175
#
# Compressibility (1/GPa) = 0.05374557
#
# Stress axis : x y z
#
# Youngs Moduli (GPa) = 65.08984 8.82679 37.99929
#
# Poissons Ratio (x) = 0.20545 -0.29324
# Poissons Ratio (y) = 1.51503 1.33202
# Poissons Ratio (z) = -0.50229 0.30941
#
# Static dielectric constant tensor:
#      x y z
#    x 1.649730 0.000000 0.006130 
#    y 0.000000 1.622040 0.000000 
#    z 0.006130 0.000000 1.611610 
# 
# From -- ./inp_files/338460.got.cif
#   From: 2010.05.17/outbox.cif.g08.bks.cpg/sg12_170_cif.got.tgz:338460.got - 2010.06.03 13:09:07.
