data_PCOD9201215
_publ_section_title
;
Structure prediction by ZEFSAII (Michael W. Deem and Ramdas Pophale) SiO2 
 PCOD9201215
Probable space group: C 2/M
;
_chemical_formula_sum "Si O2"
_cell_formula_units_Z 58
_cell_length_a 21.016440
_cell_length_b 26.448584
_cell_length_c 12.684931
_cell_angle_alpha 90.000000
_cell_angle_beta 154.293961
_cell_angle_gamma 90.000000
_cell_volume 3058.392614
_symmetry_space_group_name_H-M "C 2/M"
_symmetry_group_IT_number 12
_symmetry_cell_setting 'monoclinic'
loop_
_space_group_symop_operation_xyz
x,y,z
-x,y,-z
-x,-y,-z
x,-y,z
1/2+x,1/2+y,z
1/2-x,1/2+y,-z
1/2-x,1/2-y,-z
1/2+x,1/2-y,z
loop_
_atom_site_type_symbol
_atom_site_label
_atom_site_fract_x
_atom_site_fract_y
_atom_site_fract_z
Si Si1 0.114301 0.558090 0.910648
Si Si2 0.647115 0.680159 0.393463
Si Si3 0.500000 0.500000 0.000000
Si Si4 0.072963 0.291175 0.329012
Si Si5 0.626935 0.137227 0.106154
Si Si6 0.930566 0.941515 0.288816
Si Si7 0.092033 0.370876 0.529792
Si Si8 0.072359 0.094171 0.950530
O O1 0.076718 0.500000 0.876659
O O2 0.982127 0.587964 0.658727
O O3 0.156493 0.588991 0.077921
O O4 0.255552 0.559056 0.045825
O O5 0.773523 0.693970 0.498175
O O6 0.564999 0.731012 0.307437
O O7 0.734852 0.657124 0.623459
O O8 0.537735 0.639098 0.183272
O O9 0.546149 0.544891 0.982601
O O10 0.076620 0.316794 0.448858
O O11 0.943035 0.318349 0.069941
O O12 0.500000 0.123585 0.000000
O O13 0.962336 0.917186 0.224288
O O14 0.000000 0.919239 0.500000
O O15 0.980862 0.000000 0.358761
O O16 0.000000 0.371407 0.500000
O O17 0.260472 0.386528 0.794703
#
# Coordination Sequence:
#
# PCOD9201215 Si02
#       8
#     8   8   2   8   8   8   8   8
#     4  10  21  37  59  87 120 171 215 250 312 383
#     4  10  21  40  65  93 121 164 211 259 333 379
#     4  12  28  44  60 100 142 156 220 274 314 390
#     4   9  21  40  65  91 122 162 210 265 316 392
#     4   9  19  38  59  88 122 157 209 271 312 374
#     4  10  20  37  61  88 123 169 212 254 311 383
#     4  11  23  41  63  92 130 166 214 264 320 391
#     4  12  24  41  64  96 129 175 206 268 331 376
#
# _framework density 18.964210999999999
#
# number of rings (size 3 to 8) (size 9 to 14) (size 15 to 20)
#    0.000    1.793    2.069    1.655    2.897    0.552 
#    2.483    2.759    0.000    0.000    0.000    0.000 
#    0.000    0.000    0.000    0.000    0.000    0.000 
#
# Total GULP energy -161637.918440 kJ/mol
# GULP energy per Si atom -5573.721326 kJ/mol
# Density = 1.892105 g / cm^3
# Si number density = 18.964211 Si / 1000 Ang^3
#
#
#
# Elastic Constant Matrix: (Units=GPa)
#
#
# Indices 1 2 3 4 5 6 
#
# 1 78.2961 35.9861 20.8914 0.0000 -15.9455 0.0000
# 2 35.9861 133.8339 30.7540 0.0000 4.3942 0.0000
# 3 20.8914 30.7540 79.7723 0.0000 3.8947 0.0000
# 4 0.0000 0.0000 0.0000 13.5694 0.0000 6.2476
# 5 -15.9455 4.3942 3.8947 0.0000 17.9336 0.0000
# 6 0.0000 0.0000 0.0000 6.2476 0.0000 23.6149
#
#
#
# Elastic Compliance Matrix: (Units=1/GPa)
#
#
# Indices 1 2 3 4 5 6 
#
# 1 0.020472 -0.005172 -0.004364 0.000000 0.020417 0.000000
# 2 -0.005172 0.009537 -0.002005 0.000000 -0.006500 0.000000
# 3 -0.004364 -0.002005 0.014774 0.000000 -0.006598 0.000000
# 4 0.000000 0.000000 0.000000 0.083917 0.000000 -0.022201
# 5 0.020417 -0.006500 -0.006598 0.000000 0.076941 0.000000
# 6 0.000000 0.000000 0.000000 -0.022201 0.000000 0.048220
#
#
# Mechanical properties :
#
#
# Convention : Reuss Voigt Hill
#
# Bulk Modulus (GPa) = 46.08287 51.90729 48.99508
# Shear Modulus (GPa) = 17.59475 24.64162 21.11819
#
# Velocity S-wave (km/s) = 3.04926 3.60860 3.34066
# Velocity P-wave (km/s) = 6.06218 6.69277 6.38527
#
# Compressibility (1/GPa) = 0.02170004
#
# Stress axis : x y z
#
# Youngs Moduli (GPa) = 48.84754 104.85742 67.68827
#
# Poissons Ratio (x) = 0.54233 0.29541
# Poissons Ratio (y) = 0.25265 0.13570
# Poissons Ratio (z) = 0.21318 0.21021
#
# Static dielectric constant tensor:
#      x y z
#    x 1.663620 0.000000 -0.010950 
#    y 0.000000 1.643160 0.000000 
#    z -0.010950 0.000000 1.665160 
# 
# From -- ./inp_files/160936.got.cif
#   From: 2010.05.17/outbox.cif.g08.bks.cpg/sg12_81_cif.got.tgz:160936.got - 2010.06.03 13:09:07.
