data_PCOD9201002
_publ_section_title
;
Structure prediction by ZEFSAII (Michael W. Deem and Ramdas Pophale) SiO2 
 PCOD9201002
Probable space group: C 2/M
;
_chemical_formula_sum "Si O2"
_cell_formula_units_Z 56
_cell_length_a 14.326138
_cell_length_b 17.476492
_cell_length_c 15.071202
_cell_angle_alpha 90.000000
_cell_angle_beta 53.089019
_cell_angle_gamma 90.000000
_cell_volume 3017.084969
_symmetry_space_group_name_H-M "C 2/M"
_symmetry_group_IT_number 12
_symmetry_cell_setting 'monoclinic'
loop_
_space_group_symop_operation_xyz
x,y,z
-x,y,-z
-x,-y,-z
x,-y,z
1/2+x,1/2+y,z
1/2-x,1/2+y,-z
1/2-x,1/2-y,-z
1/2+x,1/2-y,z
loop_
_atom_site_type_symbol
_atom_site_label
_atom_site_fract_x
_atom_site_fract_y
_atom_site_fract_z
Si Si1 0.273759 0.805698 0.900948
Si Si2 0.048879 0.682912 0.717500
Si Si3 0.569625 0.707465 0.544711
Si Si4 0.085563 0.774793 0.874240
Si Si5 0.084726 0.911427 0.079310
Si Si6 0.749157 0.913267 0.638784
Si Si7 0.889911 0.913127 0.727264
O O1 0.409091 0.818891 0.805532
O O2 0.211379 0.774651 0.848124
O O3 0.250000 0.750000 0.000000
O O4 0.198168 0.881592 0.962890
O O5 0.089814 0.727531 0.605993
O O6 0.087855 0.729970 0.781909
O O7 0.116191 0.603210 0.688887
O O8 0.500000 0.740260 0.500000
O O9 0.675639 0.654206 0.450317
O O10 0.481832 0.647208 0.639562
O O11 0.023000 0.856151 0.885859
O O12 0.000000 0.741637 0.000000
O O13 0.119535 0.900993 0.162660
O O14 0.058008 0.000000 0.078602
O O15 0.776957 0.907057 0.728405
O O16 0.784249 0.000000 0.592970
O O17 0.933797 0.000000 0.689646
#
# Coordination Sequence:
#
# PCOD9201002 Si02
#       7
#     8   8   8   8   8   8   8
#     4  11  22  37  56  86 120 155 190 234 290 339
#     4  12  23  37  62  87 118 152 194 233 296 348
#     4  10  20  37  61  88 111 146 196 250 286 334
#     4  10  21  36  59  87 116 156 194 237 281 341
#     4  10  20  37  60  89 120 153 199 239 281 340
#     4  10  23  38  57  85 120 153 189 239 296 350
#     4   9  17  34  60  88 118 149 188 242 292 333
#
# _framework density 18.560963000000001
#
# number of rings (size 3 to 8) (size 9 to 14) (size 15 to 20)
#    0.000    1.714    4.286    0.857    6.000    4.857 
#    0.000    0.000    0.000    3.429    0.000    0.000 
#    0.000    0.000    0.000    0.000    0.000    0.000 
#
# Total GULP energy -156099.104589 kJ/mol
# GULP energy per Si atom -5574.968021 kJ/mol
# Density = 1.851872 g / cm^3
# Si number density = 18.560963 Si / 1000 Ang^3
#
#
#
# Elastic Constant Matrix: (Units=GPa)
#
#
# Indices 1 2 3 4 5 6 
#
# 1 128.2294 26.6664 30.5789 0.0000 2.5865 0.0000
# 2 26.6664 54.4042 16.5405 0.0000 10.1321 0.0000
# 3 30.5789 16.5405 44.6944 0.0000 12.8705 0.0000
# 4 0.0000 0.0000 0.0000 21.4395 0.0000 0.4949
# 5 2.5865 10.1321 12.8705 0.0000 37.0488 0.0000
# 6 0.0000 0.0000 0.0000 0.4949 0.0000 24.0719
#
#
#
# Elastic Compliance Matrix: (Units=1/GPa)
#
#
# Indices 1 2 3 4 5 6 
#
# 1 0.009949 -0.003431 -0.006231 0.000000 0.002408 0.000000
# 2 -0.003431 0.022272 -0.004678 0.000000 -0.004226 0.000000
# 3 -0.006231 -0.004678 0.030973 0.000000 -0.009046 0.000000
# 4 0.000000 0.000000 0.000000 0.046665 0.000000 -0.000959
# 5 0.002408 -0.004226 -0.009046 0.000000 0.031121 0.000000
# 6 0.000000 0.000000 0.000000 -0.000959 0.000000 0.041562
#
#
# Mechanical properties :
#
#
# Convention : Reuss Voigt Hill
#
# Bulk Modulus (GPa) = 28.97296 41.65550 35.31423
# Shear Modulus (GPa) = 22.44897 26.74820 24.59859
#
# Velocity S-wave (km/s) = 3.48152 3.80030 3.64440
# Velocity P-wave (km/s) = 5.63958 6.46124 6.06434
#
# Compressibility (1/GPa) = 0.03451494
#
# Stress axis : x y z
#
# Youngs Moduli (GPa) = 100.50966 44.89957 32.28585
#
# Poissons Ratio (x) = 0.15404 0.20117
# Poissons Ratio (y) = 0.34483 0.15104
# Poissons Ratio (z) = 0.62627 0.21005
#
# Static dielectric constant tensor:
#      x y z
#    x 1.677560 0.000000 0.008490 
#    y 0.000000 1.652350 0.000000 
#    z 0.008490 0.000000 1.660440 
# 
# From -- ./inp_files/206754.got.cif
#   From: 2010.05.17/outbox.cif.g08.bks.cpg/sg12_104_cif.got.tgz:206754.got - 2010.06.03 13:09:07.
