data_PCOD9201622
_publ_section_title
;
Structure prediction by ZEFSAII (Michael W. Deem and Ramdas Pophale) SiO2 
 PCOD9201622
Probable space group: C 2/M
;
_chemical_formula_sum "Si O2"
_cell_formula_units_Z 56
_cell_length_a 30.177339
_cell_length_b 7.787132
_cell_length_c 12.860332
_cell_angle_alpha 90.000000
_cell_angle_beta 120.819183
_cell_angle_gamma 90.000000
_cell_volume 2595.355386
_symmetry_space_group_name_H-M "C 2/M"
_symmetry_group_IT_number 12
_symmetry_cell_setting 'monoclinic'
loop_
_space_group_symop_operation_xyz
x,y,z
-x,y,-z
-x,-y,-z
x,-y,z
1/2+x,1/2+y,z
1/2-x,1/2+y,-z
1/2-x,1/2-y,-z
1/2+x,1/2-y,z
loop_
_atom_site_type_symbol
_atom_site_label
_atom_site_fract_x
_atom_site_fract_y
_atom_site_fract_z
Si Si1 0.642105 0.707866 0.280686
Si Si2 0.248676 0.801783 0.323399
Si Si3 0.442904 0.703582 0.409927
Si Si4 0.600886 0.291587 0.860752
Si Si5 0.216784 0.698809 0.059982
Si Si6 0.446328 0.709626 0.984086
Si Si7 0.363587 0.796210 0.492780
O O1 0.643876 0.500000 0.277491
O O2 0.700042 0.774350 0.327423
O O3 0.602201 0.765799 0.144214
O O4 0.623376 0.759351 0.371997
O O5 0.232980 0.797532 0.183467
O O6 0.305512 0.724445 0.405369
O O7 0.252972 0.000000 0.362698
O O8 0.500000 0.775404 0.500000
O O9 0.449244 0.500000 0.399448
O O10 0.417166 0.772493 0.273346
O O11 0.404896 0.725216 0.461387
O O12 0.603359 0.500000 0.861854
O O13 0.657476 0.229528 0.960076
O O14 0.562483 0.240050 0.907329
O O15 0.225780 0.500000 0.093948
O O16 0.250000 0.750000 0.000000
O O17 0.446669 0.500000 0.981981
O O18 0.500000 0.769065 0.000000
O O19 0.362332 0.000000 0.473459
#
# Coordination Sequence:
#
# PCOD9201622 Si02
#       7
#     8   8   8   8   8   8   8
#     4  10  20  37  63  89 121 158 199 246 292 355
#     4  10  21  40  61  87 121 159 199 243 297 356
#     4  10  23  41  64  90 116 154 207 254 293 352
#     4  10  20  39  63  89 122 154 196 249 299 350
#     4  12  24  37  59  88 121 158 199 245 295 357
#     4   9  18  33  61  94 119 152 196 245 299 350
#     4  11  24  39  59  87 124 161 199 247 302 360
#
# _framework density 21.577006000000001
#
# number of rings (size 3 to 8) (size 9 to 14) (size 15 to 20)
#    0.000    1.714    1.429    3.000    2.000    4.857 
#    0.000    0.000    0.000    0.857    0.000    0.000 
#    0.000    0.000    0.000    0.000    0.000    0.000 
#
# Total GULP energy -156517.532006 kJ/mol
# GULP energy per Si atom -5589.911857 kJ/mol
# Density = 2.152790 g / cm^3
# Si number density = 21.577006 Si / 1000 Ang^3
#
#
#
# Elastic Constant Matrix: (Units=GPa)
#
#
# Indices 1 2 3 4 5 6 
#
# 1 131.5722 -7.2478 27.2333 0.0000 -15.8646 0.0000
# 2 -7.2478 33.9234 -12.6078 0.0000 9.4421 0.0000
# 3 27.2333 -12.6078 94.9589 0.0000 -18.7726 0.0000
# 4 0.0000 0.0000 0.0000 7.7180 0.0000 -8.5930
# 5 -15.8646 9.4421 -18.7726 0.0000 36.6388 0.0000
# 6 0.0000 0.0000 0.0000 -8.5930 0.0000 3.2945
#
#
#
# Elastic Compliance Matrix: (Units=1/GPa)
#
#
# Indices 1 2 3 4 5 6 
#
# 1 0.008308 0.000383 -0.001825 0.000000 0.002564 0.000000
# 2 0.000383 0.032503 0.002874 0.000000 -0.006738 0.000000
# 3 -0.001825 0.002874 0.012388 0.000000 0.004816 0.000000
# 4 0.000000 0.000000 0.000000 -0.068050 0.000000 -0.177494
# 5 0.002564 -0.006738 0.004816 0.000000 0.032608 0.000000
# 6 0.000000 0.000000 0.000000 -0.177494 0.000000 -0.159420
#
#
# Mechanical properties :
#
#
# Convention : Reuss Voigt Hill
#
# Bulk Modulus (GPa) = 17.83699 30.57886 24.20793
# Shear Modulus (GPa) = -39.73366 26.40206 -6.66580
#
# Velocity S-wave (km/s) = -4.29590 3.50182 -1.75955
# Velocity P-wave (km/s) = 4.04002 5.52748 2.66752
#
# Compressibility (1/GPa) = 0.05606327
#
# Stress axis : x y z
#
# Youngs Moduli (GPa) = 120.36041 30.76593 80.72343
#
# Poissons Ratio (x) = -0.01179 0.14733
# Poissons Ratio (y) = -0.04613 -0.23196
# Poissons Ratio (z) = 0.21967 -0.08841
#
# Static dielectric constant tensor:
#      x y z
#    x 1.761900 0.000000 0.014540 
#    y 0.000000 1.791960 0.000000 
#    z 0.014540 0.000000 1.708840 
# 
# From -- ./inp_files/180871.got.cif
#   From: 2010.05.17/outbox.cif.g08.bks.cpg/sg12_91_cif.got.tgz:180871.got - 2010.06.03 13:09:07.
