data_PCOD9201090
_publ_section_title
;
Structure prediction by ZEFSAII (Michael W. Deem and Ramdas Pophale) SiO2 
 PCOD9201090
Probable space group: C 2/M
;
_chemical_formula_sum "Si O2"
_cell_formula_units_Z 60
_cell_length_a 8.535633
_cell_length_b 22.758764
_cell_length_c 17.003799
_cell_angle_alpha 90.000000
_cell_angle_beta 57.097925
_cell_angle_gamma 90.000000
_cell_volume 2773.338613
_symmetry_space_group_name_H-M "C 2/M"
_symmetry_group_IT_number 12
_symmetry_cell_setting 'monoclinic'
loop_
_space_group_symop_operation_xyz
x,y,z
-x,y,-z
-x,-y,-z
x,-y,z
1/2+x,1/2+y,z
1/2-x,1/2+y,-z
1/2-x,1/2-y,-z
1/2+x,1/2-y,z
loop_
_atom_site_type_symbol
_atom_site_label
_atom_site_fract_x
_atom_site_fract_y
_atom_site_fract_z
Si Si1 0.290912 0.807299 0.084888
Si Si2 0.575453 0.196239 0.323561
Si Si3 0.429726 0.758045 0.199401
Si Si4 0.600403 0.431433 0.298624
Si Si5 0.500000 0.725994 0.500000
Si Si6 0.292352 0.933112 0.560768
Si Si7 0.269475 0.119064 0.409393
Si Si8 0.720885 0.935949 0.920811
O O1 0.322904 0.803696 0.171582
O O2 0.131007 0.760305 0.111903
O O3 0.225515 0.870014 0.067906
O O4 0.500000 0.794965 0.000000
O O5 0.465596 0.221516 0.277938
O O6 0.537027 0.234091 0.413050
O O7 0.490044 0.131563 0.349406
O O8 0.791387 0.202836 0.243642
O O9 0.579836 0.500000 0.327423
O O10 0.387778 0.407794 0.344585
O O11 0.694756 0.397774 0.344839
O O12 0.722679 0.432671 0.186431
O O13 0.670678 0.679917 0.464207
O O14 0.500000 0.905830 0.500000
O O15 0.226901 0.928292 0.487701
O O16 0.318112 0.000000 0.581209
O O17 0.795294 0.000000 0.929174
O O18 0.500000 0.937389 0.000000
#
# Coordination Sequence:
#
# PCOD9201090 Si02
#       8
#     8   8   8   8   4   8   8   8
#     4  10  20  37  61  88 118 149 188 241 299 356
#     4  11  24  38  52  79 115 153 196 234 282 342
#     4  10  22  37  57  83 117 152 193 240 289 351
#     4  10  20  37  61  85 112 150 194 236 288 348
#     4  12  24  38  53  78 113 154 198 238 280 338
#     4  10  22  37  55  83 114 148 192 237 284 341
#     4  12  22  36  58  79 113 156 190 240 284 343
#     4   9  19  35  58  87 113 143 189 242 290 342
#
# _framework density 21.634574000000001
#
# number of rings (size 3 to 8) (size 9 to 14) (size 15 to 20)
#    0.000    1.600    2.667    2.000    2.800    2.133 
#    0.000    0.000    0.000    0.800    0.000    5.600 
#    0.000   36.267    0.000    0.000    0.000    0.000 
#
# Total GULP energy -167026.263467 kJ/mol
# GULP energy per Si atom -5567.542116 kJ/mol
# Density = 2.158533 g / cm^3
# Si number density = 21.634574 Si / 1000 Ang^3
#
#
#
# Elastic Constant Matrix: (Units=GPa)
#
#
# Indices 1 2 3 4 5 6 
#
# 1 65.9767 4.7396 27.7991 0.0000 -6.1930 0.0000
# 2 4.7396 57.5255 0.8777 0.0000 -6.9989 0.0000
# 3 27.7991 0.8777 113.3418 0.0000 -20.8290 0.0000
# 4 0.0000 0.0000 0.0000 13.9617 0.0000 6.5811
# 5 -6.1930 -6.9989 -20.8290 0.0000 27.8768 0.0000
# 6 0.0000 0.0000 0.0000 6.5811 0.0000 18.5899
#
#
#
# Elastic Compliance Matrix: (Units=1/GPa)
#
#
# Indices 1 2 3 4 5 6 
#
# 1 0.017010 -0.001290 -0.004088 0.000000 0.000400 0.000000
# 2 -0.001290 0.018092 0.001111 0.000000 0.005086 0.000000
# 3 -0.004088 0.001111 0.011246 0.000000 0.007773 0.000000
# 4 0.000000 0.000000 0.000000 0.085970 0.000000 -0.030435
# 5 0.000400 0.005086 0.007773 0.000000 0.043046 0.000000
# 6 0.000000 0.000000 0.000000 -0.030435 0.000000 0.064567
#
#
# Mechanical properties :
#
#
# Convention : Reuss Voigt Hill
#
# Bulk Modulus (GPa) = 26.44711 33.74185 30.09448
# Shear Modulus (GPa) = 19.15201 25.64752 22.39976
#
# Velocity S-wave (km/s) = 2.97854 3.44683 3.22121
# Velocity P-wave (km/s) = 4.90713 5.60990 5.27024
#
# Compressibility (1/GPa) = 0.03781132
#
# Stress axis : x y z
#
# Youngs Moduli (GPa) = 58.78968 55.27389 88.92439
#
# Poissons Ratio (x) = 0.07133 0.36356
# Poissons Ratio (y) = 0.07586 -0.09880
# Poissons Ratio (z) = 0.24036 -0.06141
#
# Static dielectric constant tensor:
#      x y z
#    x 1.815580 0.000000 -0.033780 
#    y 0.000000 1.852830 0.000000 
#    z -0.033780 0.000000 1.872420 
# 
# From -- ./inp_files/259699.got.cif
#   From: 2010.05.17/outbox.cif.g08.bks.cpg/sg12_130_cif.got.tgz:259699.got - 2010.06.03 13:09:07.
