data_PCOD9201737
_publ_section_title
;
Structure prediction by ZEFSAII (Michael W. Deem and Ramdas Pophale) SiO2 
 PCOD9201737
Probable space group: C 2/M
;
_chemical_formula_sum "Si O2"
_cell_formula_units_Z 64
_cell_length_a 13.765754
_cell_length_b 29.320627
_cell_length_c 18.948943
_cell_angle_alpha 90.000000
_cell_angle_beta 159.682395
_cell_angle_gamma 90.000000
_cell_volume 2655.631138
_symmetry_space_group_name_H-M "C 2/M"
_symmetry_group_IT_number 12
_symmetry_cell_setting 'monoclinic'
loop_
_space_group_symop_operation_xyz
x,y,z
-x,y,-z
-x,-y,-z
x,-y,z
1/2+x,1/2+y,z
1/2-x,1/2+y,-z
1/2-x,1/2-y,-z
1/2+x,1/2-y,z
loop_
_atom_site_type_symbol
_atom_site_label
_atom_site_fract_x
_atom_site_fract_y
_atom_site_fract_z
Si Si1 0.244817 0.193620 0.718455
Si Si2 0.378007 0.552760 0.336549
Si Si3 0.750812 0.875211 0.497090
Si Si4 0.779730 0.449550 0.989233
Si Si5 0.451449 0.277224 0.050746
Si Si6 0.023145 0.786450 0.316917
Si Si7 0.142018 0.643649 0.894884
Si Si8 0.127501 0.448945 0.509706
O O1 0.501989 0.162042 0.871390
O O2 0.000000 0.179095 0.500000
O O3 0.160280 0.194432 0.741987
O O4 0.312485 0.246800 0.752605
O O5 0.500000 0.557326 0.500000
O O6 0.440134 0.500000 0.355812
O O7 0.519823 0.592348 0.386265
O O8 0.041247 0.556664 0.114041
O O9 0.846071 0.835019 0.615487
O O10 0.578066 0.849929 0.318340
O O11 0.553206 0.910038 0.404200
O O12 0.819587 0.500000 0.047282
O O13 0.801801 0.409235 0.059602
O O14 0.467501 0.447409 0.745888
O O15 0.400322 0.324981 0.051619
O O16 0.178927 0.244076 0.868634
O O17 0.500000 0.283305 0.000000
O O18 0.250000 0.750000 0.500000
O O19 0.045462 0.500000 0.431807
O O20 0.000000 0.441117 0.500000
#
# Coordination Sequence:
#
# PCOD9201737 Si02
#       8
#     8   8   8   8   8   8   8   8
#     4  11  22  41  64  93 133 177 214 276 343 394
#     4  10  20  37  64 101 137 166 209 273 345 407
#     4  12  23  38  70  97 134 173 225 273 341 403
#     4  10  23  42  67 100 139 174 218 278 341 409
#     4  10  24  42  60  88 131 176 226 281 325 395
#     4  11  22  41  60  90 133 174 216 273 334 399
#     4  12  23  40  67  99 131 170 228 274 338 404
#     4  10  25  50  69  93 135 182 229 278 332 398
#
# _framework density 24.099733000000001
#
# number of rings (size 3 to 8) (size 9 to 14) (size 15 to 20)
#    0.000    1.250    3.750    1.500    1.750    2.000 
#    2.250    1.875    0.000    2.625    0.000    0.000 
#    0.000    0.000    0.000    0.000    0.000    0.000 
#
# Total GULP energy -178937.695370 kJ/mol
# GULP energy per Si atom -5591.802980 kJ/mol
# Density = 2.404488 g / cm^3
# Si number density = 24.099733 Si / 1000 Ang^3
#
#
#
# Elastic Constant Matrix: (Units=GPa)
#
#
# Indices 1 2 3 4 5 6 
#
# 1 78.9381 38.0546 -4.6173 0.0172 2.3175 0.0038
# 2 38.0546 166.7494 -1.9751 0.0104 2.6058 -0.0008
# 3 -4.6173 -1.9751 41.6300 0.0589 -2.8500 0.0101
# 4 0.0172 0.0104 0.0589 13.8432 0.0228 -1.6601
# 5 2.3175 2.6058 -2.8500 0.0228 18.5382 0.0026
# 6 0.0038 -0.0008 0.0101 -1.6601 0.0026 40.9098
#
#
#
# Elastic Compliance Matrix: (Units=1/GPa)
#
#
# Indices 1 2 3 4 5 6 
#
# 1 0.014342 -0.003239 0.001360 -0.000020 -0.001129 -0.000002
# 2 -0.003239 0.006744 -0.000077 0.000000 -0.000555 0.000001
# 3 0.001360 -0.000077 0.024414 -0.000113 0.003594 -0.000011
# 4 -0.000020 0.000000 -0.000113 0.072591 -0.000105 0.002946
# 5 -0.001129 -0.000555 0.003594 -0.000105 0.054714 -0.000009
# 6 -0.000002 0.000001 -0.000011 0.002946 -0.000009 0.024564
#
#
# Mechanical properties :
#
#
# Convention : Reuss Voigt Hill
#
# Bulk Modulus (GPa) = 24.04584 38.91578 31.48081
# Shear Modulus (GPa) = 23.23997 31.71527 27.47762
#
# Velocity S-wave (km/s) = 3.10873 3.63161 3.38029
# Velocity P-wave (km/s) = 4.78381 5.81099 5.32224
#
# Compressibility (1/GPa) = 0.04158724
#
# Stress axis : x y z
#
# Youngs Moduli (GPa) = 69.72291 148.27864 40.95927
#
# Poissons Ratio (x) = 0.48034 -0.05570
# Poissons Ratio (y) = 0.22586 0.00317
# Poissons Ratio (z) = -0.09481 0.01146
#
# Static dielectric constant tensor:
#      x y z
#    x 1.965640 -0.000010 -0.002640 
#    y -0.000010 1.921740 -0.000010 
#    z -0.002640 -0.000010 1.989280 
# 
# From -- ./inp_files/312936.got.cif
#   From: 2010.05.17/outbox.cif.g08.bks.cpg/sg12_157_cif.got.tgz:312936.got - 2010.06.03 13:09:07.
