data_PCOD9201703
_publ_section_title
;
Structure prediction by ZEFSAII (Michael W. Deem and Ramdas Pophale) SiO2 
 PCOD9201703
Probable space group: C 2/M
;
_chemical_formula_sum "Si O2"
_cell_formula_units_Z 64
_cell_length_a 18.000276
_cell_length_b 13.759482
_cell_length_c 15.905987
_cell_angle_alpha 90.000000
_cell_angle_beta 52.415463
_cell_angle_gamma 90.000000
_cell_volume 3121.879152
_symmetry_space_group_name_H-M "C 2/M"
_symmetry_group_IT_number 12
_symmetry_cell_setting 'monoclinic'
loop_
_space_group_symop_operation_xyz
x,y,z
-x,y,-z
-x,-y,-z
x,-y,z
1/2+x,1/2+y,z
1/2-x,1/2+y,-z
1/2-x,1/2-y,-z
1/2+x,1/2-y,z
loop_
_atom_site_type_symbol
_atom_site_label
_atom_site_fract_x
_atom_site_fract_y
_atom_site_fract_z
Si Si1 0.592660 0.115371 0.837984
Si Si2 0.713749 0.383960 0.983919
Si Si3 0.890794 0.796406 0.406449
Si Si4 0.497614 0.888308 0.400138
Si Si5 0.246294 0.724242 0.635598
Si Si6 0.587076 0.614151 0.222269
Si Si7 0.113765 0.381900 0.016507
Si Si8 0.810261 0.293339 0.766543
O O1 0.672611 0.147268 0.720827
O O2 0.489274 0.150956 0.882657
O O3 0.586084 0.000000 0.846025
O O4 0.617464 0.147287 0.915981
O O5 0.720423 0.500000 0.966220
O O6 0.800970 0.351999 0.983395
O O7 0.731009 0.331358 0.884264
O O8 0.620102 0.367155 0.103236
O O9 0.929429 0.688924 0.403354
O O10 0.812221 0.789417 0.389165
O O11 0.834585 0.825431 0.529208
O O12 0.979814 0.859347 0.316953
O O13 0.500000 0.872105 0.500000
O O14 0.600564 0.865428 0.292210
O O15 0.471492 0.000000 0.402974
O O16 0.278184 0.786400 0.693110
O O17 0.606285 0.500000 0.226026
O O18 0.650570 0.687422 0.233271
O O19 0.116650 0.500000 0.015430
#
# Coordination Sequence:
#
# PCOD9201703 Si02
#       8
#     8   8   8   8   8   8   8   8
#     4   9  18  32  54  84 119 154 194 247 309 365
#     4  10  20  37  63  94 124 158 207 260 312 368
#     4  10  24  44  61  84 125 163 209 256 302 367
#     4  10  20  39  66  91 117 153 201 261 315 356
#     4  11  23  40  58  85 123 164 205 257 303 363
#     4  10  23  42  64  90 126 168 206 253 310 371
#     4   8  16  32  53  86 123 150 186 246 309 364
#     4  11  22  38  62  93 125 159 209 257 308 370
#
# _framework density 20.500474000000001
#
# number of rings (size 3 to 8) (size 9 to 14) (size 15 to 20)
#    0.000    2.125    1.250    2.250    3.500    2.500 
#    2.250    3.750    0.000    1.500    0.000    0.000 
#    0.000    0.000    0.000    0.000    0.000    0.000 
#
# Total GULP energy -178727.368600 kJ/mol
# GULP energy per Si atom -5585.230269 kJ/mol
# Density = 2.045381 g / cm^3
# Si number density = 20.500474 Si / 1000 Ang^3
#
#
#
# Elastic Constant Matrix: (Units=GPa)
#
#
# Indices 1 2 3 4 5 6 
#
# 1 64.8572 12.1010 47.6119 0.0000 -2.3509 0.0000
# 2 12.1010 70.7955 36.6030 0.0000 -6.6673 0.0000
# 3 47.6119 36.6030 165.8018 0.0000 -16.7812 0.0000
# 4 0.0000 0.0000 0.0000 28.9094 0.0000 -1.5293
# 5 -2.3509 -6.6673 -16.7812 0.0000 28.7800 0.0000
# 6 0.0000 0.0000 0.0000 -1.5293 0.0000 17.0278
#
#
#
# Elastic Compliance Matrix: (Units=1/GPa)
#
#
# Indices 1 2 3 4 5 6 
#
# 1 0.019645 -0.000586 -0.005700 0.000000 -0.001854 0.000000
# 2 -0.000586 0.016045 -0.003191 0.000000 0.001809 0.000000
# 3 -0.005700 -0.003191 0.008768 0.000000 0.003908 0.000000
# 4 0.000000 0.000000 0.000000 0.034756 0.000000 0.003121
# 5 -0.001854 0.001809 0.003908 0.000000 0.037292 0.000000
# 6 0.000000 0.000000 0.000000 0.003121 0.000000 0.059008
#
#
# Mechanical properties :
#
#
# Convention : Reuss Voigt Hill
#
# Bulk Modulus (GPa) = 39.20715 54.89849 47.05282
# Shear Modulus (GPa) = 24.63433 28.61932 26.62682
#
# Velocity S-wave (km/s) = 3.47024 3.74041 3.60785
# Velocity P-wave (km/s) = 5.93492 6.74473 6.35274
#
# Compressibility (1/GPa) = 0.02550555
#
# Stress axis : x y z
#
# Youngs Moduli (GPa) = 50.90448 62.32290 114.05155
#
# Poissons Ratio (x) = 0.03650 0.65005
# Poissons Ratio (y) = 0.02981 0.36394
# Poissons Ratio (z) = 0.29013 0.19887
#
# Static dielectric constant tensor:
#      x y z
#    x 1.733870 0.000000 -0.009680 
#    y 0.000000 1.730090 0.000000 
#    z -0.009680 0.000000 1.772970 
# 
# From -- ./inp_files/225657.got.cif
#   From: 2010.05.17/outbox.cif.g08.bks.cpg/sg12_113_cif.got.tgz:225657.got - 2010.06.03 13:09:07.
