data_PCOD9201148
_publ_section_title
;
Structure prediction by ZEFSAII (Michael W. Deem and Ramdas Pophale) SiO2 
 PCOD9201148
Probable space group: C 2/M
;
_chemical_formula_sum "Si O2"
_cell_formula_units_Z 56
_cell_length_a 19.388870
_cell_length_b 8.588431
_cell_length_c 19.735440
_cell_angle_alpha 90.000000
_cell_angle_beta 67.466075
_cell_angle_gamma 90.000000
_cell_volume 3035.441629
_symmetry_space_group_name_H-M "C 2/M"
_symmetry_group_IT_number 12
_symmetry_cell_setting 'monoclinic'
loop_
_space_group_symop_operation_xyz
x,y,z
-x,y,-z
-x,-y,-z
x,-y,z
1/2+x,1/2+y,z
1/2-x,1/2+y,-z
1/2-x,1/2-y,-z
1/2+x,1/2-y,z
loop_
_atom_site_type_symbol
_atom_site_label
_atom_site_fract_x
_atom_site_fract_y
_atom_site_fract_z
Si Si1 0.201808 0.312604 0.580084
Si Si2 0.044314 0.323713 0.675424
Si Si3 0.122808 0.689222 0.233528
Si Si4 0.245190 0.316028 0.296239
Si Si5 0.968743 0.319202 0.936517
Si Si6 0.107445 0.677064 0.803158
Si Si7 0.677937 0.316125 0.066772
O O1 0.198169 0.500000 0.579939
O O2 0.250000 0.250000 0.500000
O O3 0.240294 0.263529 0.636659
O O4 0.115228 0.252480 0.608927
O O5 0.032104 0.500000 0.653346
O O6 0.961904 0.254839 0.718363
O O7 0.080249 0.335052 0.736372
O O8 0.120522 0.500000 0.229047
O O9 0.174509 0.732867 0.277955
O O10 0.157604 0.749055 0.149430
O O11 0.240693 0.500000 0.309425
O O12 0.317658 0.274668 0.223967
O O13 0.955893 0.500000 0.919424
O O14 0.893653 0.226887 0.952098
O O15 0.037223 0.252832 0.867801
O O16 0.000000 0.321343 0.000000
O O17 0.121190 0.500000 0.823452
O O18 0.687186 0.500000 0.070090
O O19 0.750000 0.250000 0.000000
#
# Coordination Sequence:
#
# PCOD9201148 Si02
#       7
#     8   8   8   8   8   8   8
#     4  10  20  37  61  87 116 151 189 232 282 342
#     4   8  15  32  58  80 104 144 188 223 271 335
#     4  10  20  39  61  83 114 152 194 241 288 346
#     4  10  21  34  56  87 117 146 185 235 284 337
#     4  10  21  38  59  82 110 148 192 240 295 353
#     4   9  17  33  55  77 108 147 188 231 279 340
#     4  12  26  41  58  82 115 156 199 248 301 350
#
# _framework density 18.448716999999998
#
# number of rings (size 3 to 8) (size 9 to 14) (size 15 to 20)
#    0.000    2.143    1.429    3.000    2.000    2.000 
#    0.000    1.429    0.000    4.286    0.000    0.000 
#    0.000    0.000    0.000    0.000    0.000    0.000 
#
# Total GULP energy -155982.206953 kJ/mol
# GULP energy per Si atom -5570.793105 kJ/mol
# Density = 1.840673 g / cm^3
# Si number density = 18.448717 Si / 1000 Ang^3
#
#
#
# Elastic Constant Matrix: (Units=GPa)
#
#
# Indices 1 2 3 4 5 6 
#
# 1 127.2720 32.0152 68.6238 0.0000 -20.9521 0.0000
# 2 32.0152 46.2082 30.0063 0.0000 -4.4416 -0.0001
# 3 68.6238 30.0063 138.6965 0.0000 -34.7785 0.0000
# 4 0.0000 0.0000 0.0000 11.5754 0.0000 13.6561
# 5 -20.9521 -4.4416 -34.7785 0.0000 27.1414 0.0000
# 6 0.0000 -0.0001 0.0000 13.6561 0.0000 7.8364
#
#
#
# Elastic Compliance Matrix: (Units=1/GPa)
#
#
# Indices 1 2 3 4 5 6 
#
# 1 0.011837 -0.005374 -0.003865 0.000000 0.003306 0.000000
# 2 -0.005374 0.027949 -0.004835 0.000000 -0.005769 0.000000
# 3 -0.003865 -0.004835 0.013588 0.000000 0.013636 0.000000
# 4 0.000000 0.000000 0.000000 -0.081816 0.000000 0.142577
# 5 0.003306 -0.005769 0.013636 0.000000 0.055924 0.000000
# 6 0.000000 0.000000 0.000000 0.142577 0.000000 -0.120853
#
#
# Mechanical properties :
#
#
# Convention : Reuss Voigt Hill
#
# Bulk Modulus (GPa) = 39.64029 63.71858 51.67943
# Shear Modulus (GPa) = -88.00561 21.41274 -33.29643
#
# Velocity S-wave (km/s) = -6.91422 3.41055 -4.25291
# Velocity P-wave (km/s) = 6.49680 7.07971 1.98920
#
# Compressibility (1/GPa) = 0.02522686
#
# Stress axis : x y z
#
# Youngs Moduli (GPa) = 84.47905 35.77928 73.59623
#
# Poissons Ratio (x) = 0.19226 0.28448
# Poissons Ratio (y) = 0.45396 0.35581
# Poissons Ratio (z) = 0.32654 0.17298
#
# Static dielectric constant tensor:
#      x y z
#    x 1.653780 0.000000 -0.000170 
#    y 0.000000 1.655670 0.000000 
#    z -0.000170 0.000000 1.695410 
# 
# From -- ./inp_files/341914.got.cif
#   From: 2010.05.17/outbox.cif.g08.bks.cpg/sg12_171_cif.got.tgz:341914.got - 2010.06.03 13:09:07.
