data_PCOD9201527
_publ_section_title
;
Structure prediction by ZEFSAII (Michael W. Deem and Ramdas Pophale) SiO2 
 PCOD9201527
Probable space group: C 2/M
;
_chemical_formula_sum "Si O2"
_cell_formula_units_Z 52
_cell_length_a 20.801580
_cell_length_b 13.057138
_cell_length_c 21.838564
_cell_angle_alpha 90.000000
_cell_angle_beta 27.546061
_cell_angle_gamma 90.000000
_cell_volume 2743.115046
_symmetry_space_group_name_H-M "C 2/M"
_symmetry_group_IT_number 12
_symmetry_cell_setting 'monoclinic'
loop_
_space_group_symop_operation_xyz
x,y,z
-x,y,-z
-x,-y,-z
x,-y,z
1/2+x,1/2+y,z
1/2-x,1/2+y,-z
1/2-x,1/2-y,-z
1/2+x,1/2-y,z
loop_
_atom_site_type_symbol
_atom_site_label
_atom_site_fract_x
_atom_site_fract_y
_atom_site_fract_z
Si Si1 0.981210 0.121092 0.624815
Si Si2 0.413939 0.121251 0.864666
Si Si3 0.782143 0.708898 0.404900
Si Si4 0.728007 0.881576 0.360861
Si Si5 0.000000 0.743407 0.500000
Si Si6 0.230590 0.761920 0.115110
Si Si7 0.335239 0.385513 0.132254
O O1 0.143866 0.150401 0.497795
O O2 0.927550 0.178243 0.608452
O O3 0.890823 0.164408 0.757262
O O4 0.967079 0.000000 0.631192
O O5 0.578229 0.142606 0.717545
O O6 0.335209 0.180524 0.876492
O O7 0.387454 0.000000 0.886424
O O8 0.349644 0.173194 0.980057
O O9 0.750000 0.750000 0.500000
O O10 0.806093 0.808506 0.341875
O O11 0.575465 0.833470 0.483177
O O12 0.780148 0.870212 0.247414
O O13 0.730649 0.000000 0.376287
O O14 0.288350 0.698235 0.123599
O O15 0.290649 0.500000 0.149743
O O16 0.500000 0.384580 0.000000
#
# Coordination Sequence:
#
# PCOD9201527 Si02
#       7
#     8   8   8   8   4   8   8
#     4  11  22  39  63  89 124 168 207 251 311 370
#     4  11  24  42  63  89 126 167 210 257 310 369
#     4  11  23  42  59  92 126 167 205 260 306 370
#     4  10  21  36  60  90 119 154 197 252 311 361
#     4  10  20  38  58  88 124 152 202 256 298 372
#     4  11  22  41  64  92 124 160 212 259 306 372
#     4  10  20  37  62  91 121 155 195 253 317 369
#
# _framework density 18.956551000000001
#
# number of rings (size 3 to 8) (size 9 to 14) (size 15 to 20)
#    0.000    1.385    3.077    2.769    0.000    1.231 
#    0.000    0.769    0.000    1.846    0.000    0.000 
#    0.000    0.000    0.000    0.000    0.000    0.000 
#
# Total GULP energy -145039.649640 kJ/mol
# GULP energy per Si atom -5578.448063 kJ/mol
# Density = 1.891340 g / cm^3
# Si number density = 18.956551 Si / 1000 Ang^3
#
#
#
# Elastic Constant Matrix: (Units=GPa)
#
#
# Indices 1 2 3 4 5 6 
#
# 1 39.6197 29.2766 12.2607 0.0001 7.5865 0.0000
# 2 29.2766 141.1016 46.0869 0.0002 14.8855 -0.0001
# 3 12.2607 46.0869 96.5369 0.0003 6.9451 -0.0002
# 4 0.0001 0.0002 0.0003 24.0216 -0.0002 1.9587
# 5 7.5865 14.8855 6.9451 -0.0002 26.3170 0.0001
# 6 0.0000 -0.0001 -0.0002 1.9587 0.0001 27.0733
#
#
#
# Elastic Compliance Matrix: (Units=1/GPa)
#
#
# Indices 1 2 3 4 5 6 
#
# 1 0.030617 -0.005488 -0.000873 0.000000 -0.005491 0.000000
# 2 -0.005488 0.009762 -0.003751 0.000000 -0.002950 0.000000
# 3 -0.000873 -0.003751 0.012324 0.000000 -0.000879 0.000000
# 4 0.000000 0.000000 0.000000 0.041876 0.000000 -0.003030
# 5 -0.005491 -0.002950 -0.000879 0.000000 0.041482 0.000000
# 6 0.000000 0.000000 0.000000 -0.003030 0.000000 0.037156
#
#
# Mechanical properties :
#
#
# Convention : Reuss Voigt Hill
#
# Bulk Modulus (GPa) = 30.79054 50.27851 40.53453
# Shear Modulus (GPa) = 24.47763 28.12465 26.30114
#
# Velocity S-wave (km/s) = 3.59729 3.85598 3.72888
# Velocity P-wave (km/s) = 5.79068 6.81215 6.32208
#
# Compressibility (1/GPa) = 0.03247750
#
# Stress axis : x y z
#
# Youngs Moduli (GPa) = 32.66153 102.43593 81.14410
#
# Poissons Ratio (x) = 0.56217 0.07088
# Poissons Ratio (y) = 0.17925 0.30439
# Poissons Ratio (z) = 0.02853 0.38427
#
# Static dielectric constant tensor:
#      x y z
#    x 1.653940 0.000000 0.011040 
#    y 0.000000 1.634840 0.000000 
#    z 0.011040 0.000000 1.515200 
# 
# From -- ./inp_files/321519.got.cif
#   From: 2010.05.17/outbox.cif.g08.bks.cpg/sg12_161_cif.got.tgz:321519.got - 2010.06.03 13:09:07.
