data_PCOD9201658
_publ_section_title
;
Structure prediction by ZEFSAII (Michael W. Deem and Ramdas Pophale) SiO2 
 PCOD9201658
Probable space group: C 2/M
;
_chemical_formula_sum "Si O2"
_cell_formula_units_Z 56
_cell_length_a 23.281173
_cell_length_b 14.264377
_cell_length_c 9.162365
_cell_angle_alpha 90.000000
_cell_angle_beta 86.446931
_cell_angle_gamma 90.000000
_cell_volume 3036.894200
_symmetry_space_group_name_H-M "C 2/M"
_symmetry_group_IT_number 12
_symmetry_cell_setting 'monoclinic'
loop_
_space_group_symop_operation_xyz
x,y,z
-x,y,-z
-x,-y,-z
x,-y,z
1/2+x,1/2+y,z
1/2-x,1/2+y,-z
1/2-x,1/2-y,-z
1/2+x,1/2-y,z
loop_
_atom_site_type_symbol
_atom_site_label
_atom_site_fract_x
_atom_site_fract_y
_atom_site_fract_z
Si Si1 0.088845 0.108484 0.017233
Si Si2 0.520781 0.219305 0.156682
Si Si3 0.368518 0.110572 0.746647
Si Si4 0.802671 0.891534 0.794509
Si Si5 0.601868 0.744166 0.754685
Si Si6 0.183093 0.750853 0.465242
Si Si7 0.176608 0.611486 0.928202
O O1 0.046706 0.178212 0.112331
O O2 0.150619 0.115698 0.085500
O O3 0.070913 0.000000 0.020761
O O4 0.096125 0.151757 0.855581
O O5 0.570936 0.159582 0.222958
O O6 0.463934 0.226174 0.263824
O O7 0.500000 0.181321 0.000000
O O8 0.337922 0.156627 0.612514
O O9 0.376216 0.000000 0.726353
O O10 0.329985 0.126943 0.897838
O O11 0.822692 0.830071 0.656488
O O12 0.739958 0.862805 0.861883
O O13 0.798713 0.000000 0.750959
O O14 0.641869 0.731731 0.608895
O O15 0.631246 0.824168 0.850732
O O16 0.250000 0.750000 0.500000
O O17 0.167037 0.500000 0.903530
#
# Coordination Sequence:
#
# PCOD9201658 Si02
#       7
#     8   8   8   8   8   8   8
#     4  10  21  40  66  92 120 159 212 264 307 358
#     4  10  20  40  65  94 122 160 208 262 306 361
#     4  11  24  42  65  94 125 164 212 257 309 370
#     4  10  21  39  63  88 119 162 208 257 313 367
#     4  11  23  37  61  93 124 164 205 249 313 370
#     4  12  25  40  61  87 132 169 195 256 312 378
#     4  10  20  37  63  92 121 156 208 261 305 366
#
# _framework density 18.439890999999999
#
# number of rings (size 3 to 8) (size 9 to 14) (size 15 to 20)
#    0.000    1.429    5.714    0.000    2.000    6.857 
#    0.000    0.714    0.000    1.714    0.000    0.000 
#    0.000    0.000    0.000    0.000    0.000    0.000 
#
# Total GULP energy -156342.753129 kJ/mol
# GULP energy per Si atom -5583.669755 kJ/mol
# Density = 1.839792 g / cm^3
# Si number density = 18.439891 Si / 1000 Ang^3
#
#
#
# Elastic Constant Matrix: (Units=GPa)
#
#
# Indices 1 2 3 4 5 6 
#
# 1 126.8674 54.1674 52.7549 0.0000 -14.8092 0.0000
# 2 54.1674 86.6141 44.4460 0.0000 1.2687 0.0000
# 3 52.7549 44.4460 82.0247 0.0000 -13.8593 0.0000
# 4 0.0000 0.0000 0.0000 10.8766 0.0000 -8.0893
# 5 -14.8092 1.2687 -13.8593 0.0000 37.4376 0.0000
# 6 0.0000 0.0000 0.0000 -8.0893 0.0000 16.1109
#
#
#
# Elastic Compliance Matrix: (Units=1/GPa)
#
#
# Indices 1 2 3 4 5 6 
#
# 1 0.012529 -0.005618 -0.004421 0.000000 0.003510 0.000000
# 2 -0.005618 0.019094 -0.007699 0.000000 -0.005720 0.000000
# 3 -0.004421 -0.007699 0.020220 0.000000 0.005998 0.000000
# 4 0.000000 0.000000 0.000000 0.146735 0.000000 0.073676
# 5 0.003510 -0.005720 0.005998 0.000000 0.030514 0.000000
# 6 0.000000 0.000000 0.000000 0.073676 0.000000 0.099062
#
#
# Mechanical properties :
#
#
# Convention : Reuss Voigt Hill
#
# Bulk Modulus (GPa) = 61.10122 66.47142 63.78632
# Shear Modulus (GPa) = 13.54701 22.49421 18.02061
#
# Velocity S-wave (km/s) = 2.71340 3.49645 3.12951
# Velocity P-wave (km/s) = 6.55927 7.24059 6.90833
#
# Compressibility (1/GPa) = 0.01636628
#
# Stress axis : x y z
#
# Youngs Moduli (GPa) = 79.81436 52.37329 49.45651
#
# Poissons Ratio (x) = 0.29426 0.21863
# Poissons Ratio (y) = 0.44843 0.38076
# Poissons Ratio (z) = 0.35283 0.40322
#
# Static dielectric constant tensor:
#      x y z
#    x 1.643670 0.000000 0.006180 
#    y 0.000000 1.642660 0.000000 
#    z 0.006180 0.000000 1.622060 
# 
# From -- ./inp_files/86310.got.cif
#   From: 2010.05.17/outbox.cif.g08.bks.cpg/sg12_44_cif.got.tgz:86310.got - 2010.06.03 13:09:07.
