data_PCOD9201463
_publ_section_title
;
Structure prediction by ZEFSAII (Michael W. Deem and Ramdas Pophale) SiO2 
 PCOD9201463
Probable space group: C 2/M
;
_chemical_formula_sum "Si O2"
_cell_formula_units_Z 48
_cell_length_a 23.229918
_cell_length_b 8.596706
_cell_length_c 12.622658
_cell_angle_alpha 90.000000
_cell_angle_beta 92.595336
_cell_angle_gamma 90.000000
_cell_volume 2518.168950
_symmetry_space_group_name_H-M "C 2/M"
_symmetry_group_IT_number 12
_symmetry_cell_setting 'monoclinic'
loop_
_space_group_symop_operation_xyz
x,y,z
-x,y,-z
-x,-y,-z
x,-y,z
1/2+x,1/2+y,z
1/2-x,1/2+y,-z
1/2-x,1/2-y,-z
1/2+x,1/2-y,z
loop_
_atom_site_type_symbol
_atom_site_label
_atom_site_fract_x
_atom_site_fract_y
_atom_site_fract_z
Si Si1 0.126383 0.318309 0.154147
Si Si2 0.196922 0.183941 0.352313
Si Si3 0.994804 0.185148 0.874822
Si Si4 0.109027 0.685590 0.777017
Si Si5 0.311534 0.683264 0.039421
Si Si6 0.328036 0.813240 0.426530
O O1 0.130714 0.500000 0.128033
O O2 0.168170 0.276404 0.254335
O O3 0.060961 0.272497 0.174776
O O4 0.145484 0.218828 0.054012
O O5 0.264432 0.222303 0.374226
O O6 0.167206 0.227940 0.461176
O O7 0.192030 0.000000 0.331005
O O8 0.052605 0.233163 0.818961
O O9 0.986421 0.000000 0.867032
O O10 0.000000 0.226512 0.000000
O O11 0.101656 0.500000 0.781625
O O12 0.162521 0.733136 0.855910
O O13 0.125247 0.728820 0.658177
O O14 0.307581 0.500000 0.058064
O O15 0.250000 0.750000 0.000000
O O16 0.329897 0.000000 0.444025
#
# Coordination Sequence:
#
# PCOD9201463 Si02
#       6
#     8   8   8   8   8   8
#     4  12  24  39  61  87 118 156 199 246 297 355
#     4  10  20  37  62  89 121 158 196 241 294 354
#     4  11  23  40  61  85 117 158 200 248 297 353
#     4  11  22  38  61  88 119 156 198 245 296 354
#     4  12  24  38  57  86 121 155 194 242 296 354
#     4   9  20  38  60  88 121 156 195 240 293 352
#
# _framework density 19.061471000000001
#
# number of rings (size 3 to 8) (size 9 to 14) (size 15 to 20)
#    0.000    1.167    1.667    5.500    0.000    4.000 
#    0.000    0.833    0.000    5.000    0.000    0.000 
#    0.000    0.000    0.000    0.000    0.000    0.000 
#
# Total GULP energy -134228.692507 kJ/mol
# GULP energy per Si atom -5592.862188 kJ/mol
# Density = 1.901809 g / cm^3
# Si number density = 19.061471 Si / 1000 Ang^3
#
#
#
# Elastic Constant Matrix: (Units=GPa)
#
#
# Indices 1 2 3 4 5 6 
#
# 1 43.7564 -2.9330 -12.0436 0.0000 -16.4593 0.0000
# 2 -2.9330 38.1104 1.9136 0.0000 -0.7813 0.0000
# 3 -12.0436 1.9136 42.1926 0.0000 -18.3803 0.0000
# 4 0.0000 0.0000 0.0000 30.9022 0.0000 -1.6797
# 5 -16.4593 -0.7813 -18.3803 0.0000 32.3616 0.0000
# 6 0.0000 0.0000 0.0000 -1.6797 0.0000 32.5170
#
#
#
# Elastic Compliance Matrix: (Units=1/GPa)
#
#
# Indices 1 2 3 4 5 6 
#
# 1 0.048009 0.002955 0.032206 0.000000 0.042781 0.000000
# 2 0.002955 0.026481 0.000765 0.000000 0.002576 0.000000
# 3 0.032206 0.000765 0.053154 0.000000 0.046588 0.000000
# 4 0.000000 0.000000 0.000000 0.032451 0.000000 0.001676
# 5 0.042781 0.002576 0.046588 0.000000 0.079182 0.000000
# 6 0.000000 0.000000 0.000000 0.001676 0.000000 0.030840
#
#
# Mechanical properties :
#
#
# Convention : Reuss Voigt Hill
#
# Bulk Modulus (GPa) = 5.01265 10.88150 7.94707
# Shear Modulus (GPa) = 18.88469 28.29766 23.59118
#
# Velocity S-wave (km/s) = 3.15099 3.85716 3.52182
# Velocity P-wave (km/s) = 3.98419 5.05549 4.55147
#
# Compressibility (1/GPa) = 0.19949543
#
# Stress axis : x y z
#
# Youngs Moduli (GPa) = 20.82962 37.76240 18.81312
#
# Poissons Ratio (x) = -0.11158 -0.60590
# Poissons Ratio (y) = -0.06155 -0.01439
# Poissons Ratio (z) = -0.67084 -0.02888
#
# Static dielectric constant tensor:
#      x y z
#    x 1.671040 0.000000 -0.013230 
#    y 0.000000 1.639310 0.000000 
#    z -0.013230 0.000000 1.643010 
# 
# From -- ./inp_files/172442.got.cif
#   From: 2010.05.17/outbox.cif.g08.bks.cpg/sg12_87_cif.got.tgz:172442.got - 2010.06.03 13:09:07.
