data_PCOD9201753
_publ_section_title
;
Structure prediction by ZEFSAII (Michael W. Deem and Ramdas Pophale) SiO2 
 PCOD9201753
Probable space group: C 2/M
;
_chemical_formula_sum "Si O2"
_cell_formula_units_Z 48
_cell_length_a 21.825665
_cell_length_b 18.142828
_cell_length_c 18.345115
_cell_angle_alpha 90.000000
_cell_angle_beta 19.815669
_cell_angle_gamma 90.000000
_cell_volume 2462.558043
_symmetry_space_group_name_H-M "C 2/M"
_symmetry_group_IT_number 12
_symmetry_cell_setting 'monoclinic'
loop_
_space_group_symop_operation_xyz
x,y,z
-x,y,-z
-x,-y,-z
x,-y,z
1/2+x,1/2+y,z
1/2-x,1/2+y,-z
1/2-x,1/2-y,-z
1/2+x,1/2-y,z
loop_
_atom_site_type_symbol
_atom_site_label
_atom_site_fract_x
_atom_site_fract_y
_atom_site_fract_z
Si Si1 0.018750 0.153200 0.115955
Si Si2 0.647974 0.804138 0.460960
Si Si3 0.377764 0.920497 0.708456
Si Si4 0.850847 0.085713 0.732078
Si Si5 0.418037 0.307509 0.796458
Si Si6 0.163189 0.714249 0.872526
O O1 0.026292 0.146820 0.194260
O O2 0.827278 0.153469 0.288612
O O3 0.172844 0.097880 0.915426
O O4 0.103308 0.233333 0.004778
O O5 0.476997 0.857872 0.643688
O O6 0.588847 0.743173 0.584839
O O7 0.685744 0.759281 0.343206
O O8 0.500000 0.923543 0.500000
O O9 0.382562 0.000000 0.740372
O O10 0.890841 0.135733 0.759092
O O11 0.698609 0.133663 0.862673
O O12 0.000000 0.086236 0.500000
O O13 0.814840 0.000000 0.790301
O O14 0.250000 0.250000 0.000000
O O15 0.000000 0.711187 0.000000
#
# Coordination Sequence:
#
# PCOD9201753 Si02
#       6
#     8   8   8   8   8   8
#     4  11  23  39  63  94 121 163 212 263 312 373
#     4  11  22  40  64  90 124 163 217 258 306 383
#     4  11  23  38  60  91 127 164 203 255 316 374
#     4  11  23  40  63  89 123 166 206 254 319 380
#     4  12  22  38  66  92 123 162 211 263 314 371
#     4  10  20  37  64  90 118 161 212 261 308 374
#
# _framework density 19.491925999999999
#
# number of rings (size 3 to 8) (size 9 to 14) (size 15 to 20)
#    0.000    1.000    6.667    0.500    0.000    1.667 
#    0.000    1.667    0.000    0.000    0.000    0.000 
#    0.000    0.000    0.000    0.000    0.000    0.000 
#
# Total GULP energy -133683.641670 kJ/mol
# GULP energy per Si atom -5570.151736 kJ/mol
# Density = 1.944756 g / cm^3
# Si number density = 19.491926 Si / 1000 Ang^3
#
#
#
# Elastic Constant Matrix: (Units=GPa)
#
#
# Indices 1 2 3 4 5 6 
#
# 1 90.2434 27.2268 22.6729 -0.0044 0.8496 -0.0007
# 2 27.2268 108.2775 25.0715 0.0193 -11.5222 0.0590
# 3 22.6729 25.0715 69.5339 0.0085 -13.1220 0.0372
# 4 -0.0044 0.0193 0.0085 -9.5806 -0.0049 9.7427
# 5 0.8496 -11.5222 -13.1220 -0.0049 26.1906 -0.0079
# 6 -0.0007 0.0590 0.0372 9.7427 -0.0079 131.6512
#
#
#
# Elastic Compliance Matrix: (Units=1/GPa)
#
#
# Indices 1 2 3 4 5 6 
#
# 1 0.012918 -0.002724 -0.003904 -0.000010 -0.003574 0.000003
# 2 -0.002724 0.010853 -0.002327 0.000014 0.003697 -0.000005
# 3 -0.003904 -0.002327 0.018029 0.000005 0.008136 -0.000004
# 4 -0.000010 0.000014 0.000005 -0.097072 -0.000007 0.007184
# 5 -0.003574 0.003697 0.008136 -0.000007 0.044000 -0.000001
# 6 0.000003 -0.000005 -0.000004 0.007184 -0.000001 0.007064
#
#
# Mechanical properties :
#
#
# Convention : Reuss Voigt Hill
#
# Bulk Modulus (GPa) = 41.86207 46.44414 44.15310
# Shear Modulus (GPa) = 230.78015 42.52448 136.65231
#
# Velocity S-wave (km/s) = 10.89288 4.67588 8.38208
# Velocity P-wave (km/s) = 13.40633 7.28223 10.78797
#
# Compressibility (1/GPa) = 0.02388798
#
# Stress axis : x y z
#
# Youngs Moduli (GPa) = 77.41347 92.14160 55.46660
#
# Poissons Ratio (x) = 0.25104 0.21655
# Poissons Ratio (y) = 0.21091 0.12908
# Poissons Ratio (z) = 0.30223 0.21442
#
# Static dielectric constant tensor:
#      x y z
#    x 1.767260 -0.000020 0.056080 
#    y -0.000020 1.688190 -0.000010 
#    z 0.056080 -0.000010 1.753200 
# 
# From -- ./inp_files/285353.got.cif
#   From: 2010.05.17/outbox.cif.g08.bks.cpg/sg12_143_cif.got.tgz:285353.got - 2010.06.03 13:09:07.
