data_PCOD9201352
_publ_section_title
;
Structure prediction by ZEFSAII (Michael W. Deem and Ramdas Pophale) SiO2 
 PCOD9201352
Probable space group: C 2/M
;
_chemical_formula_sum "Si O2"
_cell_formula_units_Z 56
_cell_length_a 18.234991
_cell_length_b 21.471332
_cell_length_c 15.831446
_cell_angle_alpha 90.000000
_cell_angle_beta 150.326175
_cell_angle_gamma 90.000000
_cell_volume 3068.630048
_symmetry_space_group_name_H-M "C 2/M"
_symmetry_group_IT_number 12
_symmetry_cell_setting 'monoclinic'
loop_
_space_group_symop_operation_xyz
x,y,z
-x,y,-z
-x,-y,-z
x,-y,z
1/2+x,1/2+y,z
1/2-x,1/2+y,-z
1/2-x,1/2-y,-z
1/2+x,1/2-y,z
loop_
_atom_site_type_symbol
_atom_site_label
_atom_site_fract_x
_atom_site_fract_y
_atom_site_fract_z
Si Si1 0.116864 0.927610 0.039278
Si Si2 0.757523 0.678530 0.423852
Si Si3 0.327315 0.177698 0.304032
Si Si4 0.909757 0.929547 0.669317
Si Si5 0.493244 0.758340 0.233832
Si Si6 0.772133 0.198042 0.139405
Si Si7 0.591256 0.428978 0.678238
O O1 0.250857 0.878374 0.175961
O O2 0.166304 0.000000 0.094788
O O3 0.000000 0.918192 0.000000
O O4 0.030382 0.919556 0.864353
O O5 0.747388 0.672829 0.314231
O O6 0.720314 0.617621 0.440079
O O7 0.628183 0.725925 0.320926
O O8 0.921759 0.700269 0.612451
O O9 0.500000 0.170155 0.500000
O O10 0.297575 0.244403 0.229738
O O11 0.982472 0.922712 0.650209
O O12 0.856455 0.000000 0.624338
O O13 0.391141 0.710194 0.183313
O O14 0.387140 0.794298 0.063598
O O15 0.799707 0.130095 0.205963
O O16 0.500000 0.423996 0.500000
O O17 0.653939 0.500000 0.744945
#
# Coordination Sequence:
#
# PCOD9201352 Si02
#       7
#     8   8   8   8   8   8   8
#     4  10  21  37  59  86 123 164 200 238 289 361
#     4  11  21  39  57  88 117 158 196 245 296 370
#     4  12  24  35  57  90 124 155 199 247 304 356
#     4  10  20  37  62  86 116 161 204 243 289 358
#     4  10  23  36  59  82 121 155 196 243 306 352
#     4  11  22  39  58  89 120 155 196 258 300 358
#     4  10  22  39  63  90 118 159 207 255 304 355
#
# _framework density 18.249186000000002
#
# number of rings (size 3 to 8) (size 9 to 14) (size 15 to 20)
#    0.000    1.429    4.286    1.286    2.000    0.286 
#    0.000    0.714    0.000    0.000    0.000    5.000 
#    0.000    0.000    0.000    0.000    0.000    0.000 
#
# Total GULP energy -156174.331362 kJ/mol
# GULP energy per Si atom -5577.654691 kJ/mol
# Density = 1.820765 g / cm^3
# Si number density = 18.249186 Si / 1000 Ang^3
#
#
#
# Elastic Constant Matrix: (Units=GPa)
#
#
# Indices 1 2 3 4 5 6 
#
# 1 65.1405 17.3198 24.9372 0.0000 -17.5305 0.0000
# 2 17.3198 129.6940 52.0827 0.0000 2.8968 0.0000
# 3 24.9372 52.0827 86.8084 0.0000 1.9655 0.0000
# 4 0.0000 0.0000 0.0000 19.8174 0.0000 -4.0012
# 5 -17.5305 2.8968 1.9655 0.0000 25.6776 0.0000
# 6 0.0000 0.0000 0.0000 -4.0012 0.0000 24.9062
#
#
#
# Elastic Compliance Matrix: (Units=1/GPa)
#
#
# Indices 1 2 3 4 5 6 
#
# 1 0.022186 -0.000806 -0.006246 0.000000 0.015716 0.000000
# 2 -0.000806 0.010199 -0.005859 0.000000 -0.001252 0.000000
# 3 -0.006246 -0.005859 0.016940 0.000000 -0.004900 0.000000
# 4 0.000000 0.000000 0.000000 0.052152 0.000000 0.008378
# 5 0.015716 -0.001252 -0.004900 0.000000 0.050190 0.000000
# 6 0.000000 0.000000 0.000000 0.008378 0.000000 0.041497
#
#
# Mechanical properties :
#
#
# Convention : Reuss Voigt Hill
#
# Bulk Modulus (GPa) = 42.54642 52.25802 47.40222
# Shear Modulus (GPa) = 22.04385 26.56712 24.30549
#
# Velocity S-wave (km/s) = 3.47931 3.81963 3.65343
# Velocity P-wave (km/s) = 6.28534 6.93907 6.62028
#
# Compressibility (1/GPa) = 0.02350374
#
# Stress axis : x y z
#
# Youngs Moduli (GPa) = 45.07327 98.04872 59.03099
#
# Poissons Ratio (x) = 0.07899 0.36870
# Poissons Ratio (y) = 0.03631 0.34588
# Poissons Ratio (z) = 0.28152 0.57450
#
# Static dielectric constant tensor:
#      x y z
#    x 1.631620 0.000000 -0.015170 
#    y 0.000000 1.664400 0.000000 
#    z -0.015170 0.000000 1.605830 
# 
# From -- ./inp_files/77608.got.cif
#   From: 2010.05.17/outbox.cif.g08.bks.cpg/sg12_39_cif.got.tgz:77608.got - 2010.06.03 13:09:07.
