data_PCOD9201865
_publ_section_title
;
Structure prediction by ZEFSAII (Michael W. Deem and Ramdas Pophale) SiO2 
 PCOD9201865
Probable space group: C 2/M
;
_chemical_formula_sum "Si O2"
_cell_formula_units_Z 64
_cell_length_a 9.960222
_cell_length_b 31.518433
_cell_length_c 15.610915
_cell_angle_alpha 90.000000
_cell_angle_beta 46.264767
_cell_angle_gamma 90.000000
_cell_volume 3540.993995
_symmetry_space_group_name_H-M "C 2/M"
_symmetry_group_IT_number 12
_symmetry_cell_setting 'monoclinic'
loop_
_space_group_symop_operation_xyz
x,y,z
-x,y,-z
-x,-y,-z
x,-y,z
1/2+x,1/2+y,z
1/2-x,1/2+y,-z
1/2-x,1/2-y,-z
1/2+x,1/2-y,z
loop_
_atom_site_type_symbol
_atom_site_label
_atom_site_fract_x
_atom_site_fract_y
_atom_site_fract_z
Si Si1 0.630728 0.679247 0.262786
Si Si2 0.531637 0.758255 0.582624
Si Si3 0.957738 0.547615 0.121214
Si Si4 0.503114 0.862462 0.822366
Si Si5 0.301837 0.382901 0.390984
Si Si6 0.441847 0.857180 0.649652
Si Si7 0.535027 0.450728 0.384395
Si Si8 0.674375 0.208757 0.985324
O O1 0.599280 0.727416 0.305528
O O2 0.436892 0.655484 0.356864
O O3 0.688168 0.683796 0.138788
O O4 0.785620 0.652843 0.247349
O O5 0.500000 0.745152 0.500000
O O6 0.750000 0.750000 0.500000
O O7 0.470243 0.806884 0.620873
O O8 0.021781 0.500000 0.120339
O O9 0.745685 0.550949 0.252976
O O10 0.041562 0.591433 0.119188
O O11 0.000000 0.548803 0.000000
O O12 0.457910 0.864160 0.742800
O O13 0.388341 0.825138 0.917124
O O14 0.237254 0.375213 0.321600
O O15 0.410834 0.424447 0.372498
O O16 0.116665 0.379630 0.528264
O O17 0.500000 0.435844 0.500000
O O18 0.479952 0.500000 0.409036
O O19 0.500000 0.219797 0.000000
O O20 0.750000 0.250000 0.000000
#
# Coordination Sequence:
#
# PCOD9201865 Si02
#       8
#     8   8   8   8   8   8   8   8
#     4  11  22  35  61  82 112 152 201 251 292 345
#     4  12  21  35  52  81 113 151 199 242 293 345
#     4  10  20  37  65  95 121 150 196 258 306 350
#     4  11  22  38  61  86 117 155 204 244 293 357
#     4  11  22  38  57  86 122 153 191 245 309 354
#     4  11  23  39  53  85 123 157 194 244 298 363
#     4  10  21  38  65  97 122 153 201 250 304 368
#     4  10  23  40  57  84 117 160 202 248 290 353
#
# _framework density 18.074020999999998
#
# number of rings (size 3 to 8) (size 9 to 14) (size 15 to 20)
#    0.000    1.250    3.750    3.375    0.000    4.000 
#    0.000    1.875    0.000    0.000    0.000    2.625 
#    0.000    0.000    0.000    0.000    0.000    0.000 
#
# Total GULP energy -178322.355243 kJ/mol
# GULP energy per Si atom -5572.573601 kJ/mol
# Density = 1.803288 g / cm^3
# Si number density = 18.074021 Si / 1000 Ang^3
#
#
#
# Elastic Constant Matrix: (Units=GPa)
#
#
# Indices 1 2 3 4 5 6 
#
# 1 93.4299 45.1441 36.7396 0.0000 28.1833 0.0000
# 2 45.1441 98.2320 16.6930 0.0000 1.6814 0.0000
# 3 36.7396 16.6930 71.7727 0.0000 21.0669 0.0000
# 4 0.0000 0.0000 0.0000 48.7897 0.0000 8.2119
# 5 28.1833 1.6814 21.0669 0.0000 25.1924 0.0000
# 6 0.0000 0.0000 0.0000 8.2119 0.0000 34.0265
#
#
#
# Elastic Compliance Matrix: (Units=1/GPa)
#
#
# Indices 1 2 3 4 5 6 
#
# 1 0.023795 -0.010031 -0.002956 0.000000 -0.023479 0.000000
# 2 -0.010031 0.014889 -0.001763 0.000000 0.011703 0.000000
# 3 -0.002956 -0.001763 0.019682 0.000000 -0.013034 0.000000
# 4 0.000000 0.000000 0.000000 0.021364 0.000000 -0.005156
# 5 -0.023479 0.011703 -0.013034 0.000000 0.076079 0.000000
# 6 0.000000 0.000000 0.000000 -0.005156 0.000000 0.030633
#
#
# Mechanical properties :
#
#
# Convention : Reuss Voigt Hill
#
# Bulk Modulus (GPa) = 34.64301 51.17646 42.90974
# Shear Modulus (GPa) = 22.16663 32.59225 27.37944
#
# Velocity S-wave (km/s) = 3.50585 4.25109 3.89633
# Velocity P-wave (km/s) = 5.96631 7.24377 6.63585
#
# Compressibility (1/GPa) = 0.02886585
#
# Stress axis : x y z
#
# Youngs Moduli (GPa) = 42.02611 67.16250 50.80825
#
# Poissons Ratio (x) = 0.67371 0.15017
# Poissons Ratio (y) = 0.42157 0.08958
# Poissons Ratio (z) = 0.12422 0.11842
#
# Static dielectric constant tensor:
#      x y z
#    x 1.638370 0.000000 -0.004140 
#    y 0.000000 1.620790 0.000000 
#    z -0.004140 0.000000 1.670720 
# 
# From -- ./inp_files/201281.got.cif
#   From: 2010.05.17/outbox.cif.g08.bks.cpg/sg12_101_cif.got.tgz:201281.got - 2010.06.03 13:09:07.
