data_PCOD9201775
_publ_section_title
;
Structure prediction by ZEFSAII (Michael W. Deem and Ramdas Pophale) SiO2 
 PCOD9201775
Probable space group: C 2/M
;
_chemical_formula_sum "Si O2"
_cell_formula_units_Z 52
_cell_length_a 14.854031
_cell_length_b 17.591697
_cell_length_c 14.685847
_cell_angle_alpha 90.000000
_cell_angle_beta 43.032357
_cell_angle_gamma 90.000000
_cell_volume 2618.769378
_symmetry_space_group_name_H-M "C 2/M"
_symmetry_group_IT_number 12
_symmetry_cell_setting 'monoclinic'
loop_
_space_group_symop_operation_xyz
x,y,z
-x,y,-z
-x,-y,-z
x,-y,z
1/2+x,1/2+y,z
1/2-x,1/2+y,-z
1/2-x,1/2-y,-z
1/2+x,1/2-y,z
loop_
_atom_site_type_symbol
_atom_site_label
_atom_site_fract_x
_atom_site_fract_y
_atom_site_fract_z
Si Si1 0.960059 0.411368 0.227448
Si Si2 0.745981 0.592013 0.047033
Si Si3 0.500000 0.703334 0.500000
Si Si4 0.641421 0.804113 0.537371
Si Si5 0.715154 0.410894 0.277436
Si Si6 0.140319 0.907614 0.936675
Si Si7 0.160151 0.412363 0.369575
O O1 0.964687 0.500000 0.254956
O O2 0.916968 0.358634 0.342296
O O3 0.857526 0.407212 0.219865
O O4 0.103434 0.389028 0.086602
O O5 0.737509 0.500000 0.053518
O O6 0.660691 0.620247 0.024802
O O7 0.712801 0.614155 0.174012
O O8 0.531427 0.755838 0.563893
O O9 0.377283 0.647410 0.602126
O O10 0.750000 0.750000 0.500000
O O11 0.710304 0.856735 0.410358
O O12 0.673000 0.500000 0.314588
O O13 0.267746 0.890353 0.778405
O O14 0.135569 0.000000 0.943462
O O15 0.000000 0.881631 0.000000
O O16 0.197055 0.500000 0.358876
O O17 0.000000 0.409398 0.500000
#
# Coordination Sequence:
#
# PCOD9201775 Si02
#       7
#     8   8   4   8   8   8   8
#     4  10  20  39  66  96 119 154 210 260 303 361
#     4   9  18  34  63  93 119 153 202 262 311 352
#     4  12  25  42  59  86 132 166 204 248 309 372
#     4  12  24  40  60  86 128 166 201 250 313 363
#     4  10  21  40  65  92 122 160 206 253 304 370
#     4   9  18  33  55  88 125 155 194 253 313 365
#     4  10  20  37  64  92 118 157 210 260 305 362
#
# _framework density 19.856655
#
# number of rings (size 3 to 8) (size 9 to 14) (size 15 to 20)
#    0.000    1.846    2.308    2.077    0.000    5.538 
#    0.000    2.308    3.385    0.000    0.000    0.000 
#    0.000    0.000    0.000    0.000    0.000    0.000 
#
# Total GULP energy -145065.035721 kJ/mol
# GULP energy per Si atom -5579.424451 kJ/mol
# Density = 1.981146 g / cm^3
# Si number density = 19.856655 Si / 1000 Ang^3
#
#
#
# Elastic Constant Matrix: (Units=GPa)
#
#
# Indices 1 2 3 4 5 6 
#
# 1 103.4517 27.9370 18.8091 0.0000 5.9430 0.0000
# 2 27.9370 55.9467 15.1202 0.0000 6.8084 0.0000
# 3 18.8091 15.1202 53.1939 0.0000 9.5160 0.0000
# 4 0.0000 0.0000 0.0000 -29.2395 0.0000 29.3284
# 5 5.9430 6.8084 9.5160 0.0000 33.6517 0.0000
# 6 0.0000 0.0000 0.0000 29.3284 0.0000 23.5448
#
#
#
# Elastic Compliance Matrix: (Units=1/GPa)
#
#
# Indices 1 2 3 4 5 6 
#
# 1 0.011507 -0.005011 -0.002594 0.000000 -0.000285 0.000000
# 2 -0.005011 0.021743 -0.003981 0.000000 -0.002388 0.000000
# 3 -0.002594 -0.003981 0.021721 0.000000 -0.004879 0.000000
# 4 0.000000 0.000000 0.000000 -0.015204 0.000000 0.018939
# 5 -0.000285 -0.002388 -0.004879 0.000000 0.031629 0.000000
# 6 0.000000 0.000000 0.000000 0.018939 0.000000 0.018881
#
#
# Mechanical properties :
#
#
# Convention : Reuss Voigt Hill
#
# Bulk Modulus (GPa) = 31.44689 37.36941 34.40815
# Shear Modulus (GPa) = 40.30673 15.63979 27.97326
#
# Velocity S-wave (km/s) = 4.51031 2.80953 3.75742
# Velocity P-wave (km/s) = 6.55707 5.42080 6.01582
#
# Compressibility (1/GPa) = 0.03179965
#
# Stress axis : x y z
#
# Youngs Moduli (GPa) = 86.90071 45.99222 46.03899
#
# Poissons Ratio (x) = 0.23045 0.11941
# Poissons Ratio (y) = 0.43542 0.18330
# Poissons Ratio (z) = 0.22540 0.18311
#
# Static dielectric constant tensor:
#      x y z
#    x 1.720190 0.000000 0.009240 
#    y 0.000000 1.690960 0.000000 
#    z 0.009240 0.000000 1.694580 
# 
# From -- ./inp_files/216712.got.cif
#   From: 2010.05.17/outbox.cif.g08.bks.cpg/sg12_109_cif.got.tgz:216712.got - 2010.06.03 13:09:07.
