data_PCOD9201742
_publ_section_title
;
Structure prediction by ZEFSAII (Michael W. Deem and Ramdas Pophale) SiO2 
 PCOD9201742
Probable space group: C 2/M
;
_chemical_formula_sum "Si O2"
_cell_formula_units_Z 64
_cell_length_a 17.681587
_cell_length_b 24.732582
_cell_length_c 13.615335
_cell_angle_alpha 90.000000
_cell_angle_beta 29.904671
_cell_angle_gamma 90.000000
_cell_volume 2968.486506
_symmetry_space_group_name_H-M "C 2/M"
_symmetry_group_IT_number 12
_symmetry_cell_setting 'monoclinic'
loop_
_space_group_symop_operation_xyz
x,y,z
-x,y,-z
-x,-y,-z
x,-y,z
1/2+x,1/2+y,z
1/2-x,1/2+y,-z
1/2-x,1/2-y,-z
1/2+x,1/2-y,z
loop_
_atom_site_type_symbol
_atom_site_label
_atom_site_fract_x
_atom_site_fract_y
_atom_site_fract_z
Si Si1 0.473356 0.127643 0.829347
Si Si2 0.901268 0.161849 0.513317
Si Si3 0.196331 0.811915 0.059756
Si Si4 0.618283 0.776822 0.775870
Si Si5 0.483273 0.666015 0.902642
Si Si6 0.360089 0.442420 0.299114
Si Si7 0.313656 0.938658 0.297965
Si Si8 0.561319 0.936761 0.536837
O O1 0.581474 0.177956 0.735568
O O2 0.518452 0.085459 0.865470
O O3 0.503194 0.100144 0.690895
O O4 0.307997 0.153082 0.002134
O O5 0.780776 0.210347 0.638592
O O6 0.797392 0.106928 0.624176
O O7 0.000000 0.161299 0.500000
O O8 0.028301 0.173809 0.287836
O O9 0.180480 0.824565 0.961432
O O10 0.250000 0.750000 0.000000
O O11 0.588910 0.718310 0.762824
O O12 0.500000 0.783539 0.000000
O O13 0.535722 0.608232 0.807464
O O14 0.500000 0.662845 0.000000
O O15 0.439946 0.500000 0.199799
O O16 0.257218 0.443841 0.512558
O O17 0.243677 0.434892 0.340329
O O18 0.314616 0.000000 0.255393
O O19 0.500000 0.920699 0.500000
O O20 0.518716 0.000000 0.601942
#
# Coordination Sequence:
#
# PCOD9201742 Si02
#       8
#     8   8   8   8   8   8   8   8
#     4  10  20  37  64  87 125 169 206 264 332 384
#     4  11  24  40  69  98 128 176 215 267 339 390
#     4  12  25  43  61  96 138 170 215 274 322 395
#     4  10  22  43  66  92 127 165 215 273 332 402
#     4  11  24  39  61  89 127 173 216 266 326 380
#     4   9  18  37  59  83 120 161 212 264 315 375
#     4   9  19  40  65  91 124 167 218 271 327 393
#     4   9  19  36  60  89 122 165 218 267 310 375
#
# _framework density 21.559809000000001
#
# number of rings (size 3 to 8) (size 9 to 14) (size 15 to 20)
#    0.000    1.875    2.500    1.875    3.500    3.000 
#    0.000    3.750    0.000   19.125    0.000    0.000 
#    0.000    0.000    0.000    0.000    0.000    0.000 
#
# Total GULP energy -178398.585869 kJ/mol
# GULP energy per Si atom -5574.955808 kJ/mol
# Density = 2.151074 g / cm^3
# Si number density = 21.559809 Si / 1000 Ang^3
#
#
#
# Elastic Constant Matrix: (Units=GPa)
#
#
# Indices 1 2 3 4 5 6 
#
# 1 155.9791 48.4850 30.2130 0.0229 -22.6925 0.0115
# 2 48.4850 145.5886 33.6895 0.0381 -16.9029 0.0273
# 3 30.2130 33.6895 52.9758 0.0563 -19.6922 0.0330
# 4 0.0229 0.0381 0.0563 28.5628 -0.0299 -1.5354
# 5 -22.6925 -16.9029 -19.6922 -0.0299 34.7802 -0.0143
# 6 0.0115 0.0273 0.0330 -1.5354 -0.0143 34.5678
#
#
#
# Elastic Compliance Matrix: (Units=1/GPa)
#
#
# Indices 1 2 3 4 5 6 
#
# 1 0.007821 -0.001738 -0.002244 0.000004 0.002987 0.000002
# 2 -0.001738 0.008486 -0.004172 -0.000001 0.000628 -0.000002
# 3 -0.002244 -0.004172 0.027246 -0.000035 0.011935 -0.000019
# 4 0.000004 -0.000001 -0.000035 0.035095 0.000013 0.001559
# 5 0.002987 0.000628 0.011935 0.000013 0.037763 0.000003
# 6 0.000002 -0.000002 -0.000019 0.001559 0.000003 0.028998
#
#
# Mechanical properties :
#
#
# Convention : Reuss Voigt Hill
#
# Bulk Modulus (GPa) = 36.70602 64.36873 50.53737
# Shear Modulus (GPa) = 29.27427 35.72588 32.50007
#
# Velocity S-wave (km/s) = 3.68885 4.07512 3.88679
# Velocity P-wave (km/s) = 5.93344 7.21545 6.60562
#
# Compressibility (1/GPa) = 0.02724349
#
# Stress axis : x y z
#
# Youngs Moduli (GPa) = 127.86419 117.84365 36.70278
#
# Poissons Ratio (x) = 0.20485 0.08238
# Poissons Ratio (y) = 0.22227 0.15311
# Poissons Ratio (z) = 0.28699 0.49160
#
# Static dielectric constant tensor:
#      x y z
#    x 1.843030 0.000000 0.048300 
#    y 0.000000 1.827610 0.000020 
#    z 0.048300 0.000020 1.865480 
# 
# From -- ./inp_files/228112.got.cif
#   From: 2010.05.17/outbox.cif.g08.bks.cpg/sg12_115_cif.got.tgz:228112.got - 2010.06.03 13:09:07.
