data_PCOD9201511
_publ_section_title
;
Structure prediction by ZEFSAII (Michael W. Deem and Ramdas Pophale) SiO2 
 PCOD9201511
Probable space group: C 2/M
;
_chemical_formula_sum "Si O2"
_cell_formula_units_Z 58
_cell_length_a 20.243960
_cell_length_b 7.657702
_cell_length_c 18.685657
_cell_angle_alpha 90.000000
_cell_angle_beta 63.044800
_cell_angle_gamma 90.000000
_cell_volume 2581.998855
_symmetry_space_group_name_H-M "C 2/M"
_symmetry_group_IT_number 12
_symmetry_cell_setting 'monoclinic'
loop_
_space_group_symop_operation_xyz
x,y,z
-x,y,-z
-x,-y,-z
x,-y,z
1/2+x,1/2+y,z
1/2-x,1/2+y,-z
1/2-x,1/2-y,-z
1/2+x,1/2-y,z
loop_
_atom_site_type_symbol
_atom_site_label
_atom_site_fract_x
_atom_site_fract_y
_atom_site_fract_z
Si Si1 0.181691 0.300652 0.584235
Si Si2 0.391464 0.289135 0.029527
Si Si3 0.500000 0.000000 0.000000
Si Si4 0.565171 0.787064 0.415835
Si Si5 0.518782 0.792437 0.679076
Si Si6 0.580131 0.298246 0.144917
Si Si7 0.271399 0.212040 0.674280
Si Si8 0.274492 0.208174 0.837551
O O1 0.169414 0.500000 0.570589
O O2 0.250000 0.250000 0.500000
O O3 0.099900 0.216501 0.621769
O O4 0.209524 0.282542 0.651878
O O5 0.405476 0.500000 0.031969
O O6 0.304307 0.262677 0.086310
O O7 0.440428 0.157704 0.051965
O O8 0.409531 0.224692 0.939624
O O9 0.500000 0.729848 0.500000
O O10 0.542050 0.728099 0.347914
O O11 0.647804 0.732429 0.394443
O O12 0.566922 0.000000 0.416710
O O13 0.487040 0.768792 0.773806
O O14 0.522186 0.000000 0.666272
O O15 0.565491 0.500000 0.140603
O O16 0.656435 0.279553 0.151739
O O17 0.268584 0.268460 0.758229
O O18 0.266499 0.000000 0.674755
O O19 0.287817 0.000000 0.827504
#
# Coordination Sequence:
#
# PCOD9201511 Si02
#       8
#     8   8   2   8   8   8   8   8
#     4  11  24  41  62  89 124 167 213 267 324 400
#     4  10  25  45  66 102 139 179 227 277 331 397
#     4  12  26  44  72  94 132 188 222 270 332 406
#     4   9  16  31  57  85 114 154 206 262 315 374
#     4  10  21  39  62  89 123 167 219 266 319 393
#     4  11  23  39  65  97 135 168 214 278 332 392
#     4  10  20  37  62  90 122 168 210 264 327 384
#     4  10  21  41  68  94 133 172 218 276 329 394
#
# _framework density 22.463217
#
# number of rings (size 3 to 8) (size 9 to 14) (size 15 to 20)
#    0.000    1.793    1.379    2.276    2.897    4.966 
#    2.483    2.759    0.000    1.655    0.000    0.000 
#    0.000    0.000    0.000    0.000    0.000    0.000 
#
# Total GULP energy -161667.278885 kJ/mol
# GULP energy per Si atom -5574.733755 kJ/mol
# Density = 2.241209 g / cm^3
# Si number density = 22.463217 Si / 1000 Ang^3
#
#
#
# Elastic Constant Matrix: (Units=GPa)
#
#
# Indices 1 2 3 4 5 6 
#
# 1 59.0385 1.5205 -0.2737 0.0000 -23.5951 -0.0002
# 2 1.5205 57.8450 2.5468 0.0000 -14.3526 0.0000
# 3 -0.2737 2.5468 78.7040 0.0000 -7.5965 0.0000
# 4 0.0000 0.0000 0.0000 19.6330 0.0000 -2.6549
# 5 -23.5951 -14.3526 -7.5965 0.0000 31.6621 0.0000
# 6 -0.0002 0.0000 0.0000 -2.6549 0.0000 6.3856
#
#
#
# Elastic Compliance Matrix: (Units=1/GPa)
#
#
# Indices 1 2 3 4 5 6 
#
# 1 0.025425 0.004579 0.002016 0.000000 0.021506 0.000001
# 2 0.004579 0.020307 0.000590 0.000000 0.012759 0.000000
# 3 0.002016 0.000590 0.013170 0.000000 0.004930 0.000000
# 4 0.000000 0.000000 0.000000 0.053969 0.000000 0.022438
# 5 0.021506 0.012759 0.004930 0.000000 0.054577 0.000001
# 6 0.000001 0.000000 0.000000 0.022438 0.000001 0.165930
#
#
# Mechanical properties :
#
#
# Convention : Reuss Voigt Hill
#
# Bulk Modulus (GPa) = 13.64771 22.57496 18.11133
# Shear Modulus (GPa) = 14.55898 24.32240 19.44069
#
# Velocity S-wave (km/s) = 2.54859 3.29411 2.94504
# Velocity P-wave (km/s) = 3.84047 4.95376 4.43221
#
# Compressibility (1/GPa) = 0.07327238
#
# Stress axis : x y z
#
# Youngs Moduli (GPa) = 39.33191 49.24377 75.93272
#
# Poissons Ratio (x) = -0.22549 -0.15308
# Poissons Ratio (y) = -0.18011 -0.04483
# Poissons Ratio (z) = -0.07929 -0.02907
#
# Static dielectric constant tensor:
#      x y z
#    x 1.865970 0.000000 0.035550 
#    y 0.000000 1.849120 0.000000 
#    z 0.035550 0.000000 1.938990 
# 
# From -- ./inp_files/282123.got.cif
#   From: 2010.05.17/outbox.cif.g08.bks.cpg/sg12_142_cif.got.tgz:282123.got - 2010.06.03 13:09:07.
