data_PCOD9201112
_publ_section_title
;
Structure prediction by ZEFSAII (Michael W. Deem and Ramdas Pophale) SiO2 
 PCOD9201112
Probable space group: C 2/M
;
_chemical_formula_sum "Si O2"
_cell_formula_units_Z 56
_cell_length_a 31.911068
_cell_length_b 7.614949
_cell_length_c 12.396792
_cell_angle_alpha 90.000000
_cell_angle_beta 128.519567
_cell_angle_gamma 90.000000
_cell_volume 2356.915467
_symmetry_space_group_name_H-M "C 2/M"
_symmetry_group_IT_number 12
_symmetry_cell_setting 'monoclinic'
loop_
_space_group_symop_operation_xyz
x,y,z
-x,y,-z
-x,-y,-z
x,-y,z
1/2+x,1/2+y,z
1/2-x,1/2+y,-z
1/2-x,1/2-y,-z
1/2+x,1/2-y,z
loop_
_atom_site_type_symbol
_atom_site_label
_atom_site_fract_x
_atom_site_fract_y
_atom_site_fract_z
Si Si1 0.540176 0.209168 0.298295
Si Si2 0.156217 0.206338 0.068236
Si Si3 0.932762 0.287251 0.238634
Si Si4 0.275569 0.204400 0.237195
Si Si5 0.110639 0.715195 0.608868
Si Si6 0.404424 0.693023 0.822979
Si Si7 0.805676 0.299084 0.535557
O O1 0.484070 0.277280 0.254381
O O2 0.586275 0.273614 0.455128
O O3 0.551406 0.238198 0.190017
O O4 0.539799 0.000000 0.311403
O O5 0.215694 0.281523 0.142479
O O6 0.120083 0.282293 0.108880
O O7 0.164988 0.000000 0.111275
O O8 0.120404 0.223696 0.905895
O O9 0.933120 0.500000 0.235773
O O10 0.929231 0.237471 0.358258
O O11 0.329008 0.278514 0.266911
O O12 0.295184 0.210901 0.392402
O O13 0.270083 0.000000 0.193487
O O14 0.114020 0.500000 0.610525
O O15 0.422718 0.500000 0.885869
O O16 0.352433 0.687185 0.662049
O O17 0.820697 0.500000 0.584200
O O18 0.750000 0.250000 0.500000
#
# Coordination Sequence:
#
# PCOD9201112 Si02
#       7
#     8   8   8   8   8   8   8
#     4  10  20  37  61  86 111 144 186 240 296 336
#     4  10  22  39  55  77 116 158 187 220 281 347
#     4  10  22  38  58  84 111 145 196 240 275 335
#     4   9  17  32  56  83 111 146 183 219 275 342
#     4   9  17  34  61  87 110 141 184 237 290 337
#     4  11  22  36  56  85 116 149 192 234 281 342
#     4  11  19  32  55  85 118 151 185 231 288 338
#
# _framework density 23.759867
#
# number of rings (size 3 to 8) (size 9 to 14) (size 15 to 20)
#    0.000    2.000    2.857    1.286    0.000    4.571 
#    0.000    3.571    0.000    1.714    0.000    0.000 
#    0.000    0.000    0.000    0.000    0.000    0.000 
#
# Total GULP energy -156234.057275 kJ/mol
# GULP energy per Si atom -5579.787760 kJ/mol
# Density = 2.370579 g / cm^3
# Si number density = 23.759867 Si / 1000 Ang^3
#
#
#
# Elastic Constant Matrix: (Units=GPa)
#
#
# Indices 1 2 3 4 5 6 
#
# 1 137.4267 7.4607 10.3120 0.0000 2.0979 0.0000
# 2 7.4607 46.9190 -2.3282 0.0000 0.5674 0.0000
# 3 10.3120 -2.3282 50.3279 0.0000 1.2353 0.0000
# 4 0.0000 0.0000 0.0000 15.6269 0.0000 0.7095
# 5 2.0979 0.5674 1.2353 0.0000 17.3575 0.0000
# 6 0.0000 0.0000 0.0000 0.7095 0.0000 -0.1496
#
#
#
# Elastic Compliance Matrix: (Units=1/GPa)
#
#
# Indices 1 2 3 4 5 6 
#
# 1 0.007474 -0.001257 -0.001571 0.000000 -0.000750 0.000000
# 2 -0.001257 0.021584 0.001272 0.000000 -0.000644 0.000001
# 3 -0.001571 0.001272 0.020282 0.000000 -0.001295 0.000000
# 4 0.000000 0.000000 0.000000 0.052656 0.000000 0.249667
# 5 -0.000750 -0.000644 -0.001295 0.000000 0.057816 0.000000
# 6 0.000000 0.000001 0.000000 0.249667 0.000000 -5.498800
#
#
# Mechanical properties :
#
#
# Convention : Reuss Voigt Hill
#
# Bulk Modulus (GPa) = 21.63219 29.50695 25.56957
# Shear Modulus (GPa) = -0.93977 21.18223 10.12123
#
# Velocity S-wave (km/s) = -0.62959 2.98906 2.06617
# Velocity P-wave (km/s) = 2.93185 4.93543 4.05920
#
# Compressibility (1/GPa) = 0.04622741
#
# Stress axis : x y z
#
# Youngs Moduli (GPa) = 133.79325 46.33022 49.30419
#
# Poissons Ratio (x) = 0.05825 0.07747
# Poissons Ratio (y) = 0.16823 -0.06271
# Poissons Ratio (z) = 0.21022 -0.05893
#
# Static dielectric constant tensor:
#      x y z
#    x 1.988800 0.000000 0.009330 
#    y 0.000000 1.946480 0.000000 
#    z 0.009330 0.000000 1.821110 
# 
# From -- ./inp_files/187752.got.cif
#   From: 2010.05.17/outbox.cif.g08.bks.cpg/sg12_94_cif.got.tgz:187752.got - 2010.06.03 13:09:07.
