data_PCOD9201088
_publ_section_title
;
Structure prediction by ZEFSAII (Michael W. Deem and Ramdas Pophale) SiO2 
 PCOD9201088
Probable space group: C 2/M
;
_chemical_formula_sum "Si O2"
_cell_formula_units_Z 40
_cell_length_a 31.183028
_cell_length_b 8.213433
_cell_length_c 21.793110
_cell_angle_alpha 90.000000
_cell_angle_beta 162.606520
_cell_angle_gamma 90.000000
_cell_volume 1668.533443
_symmetry_space_group_name_H-M "C 2/M"
_symmetry_group_IT_number 12
_symmetry_cell_setting 'monoclinic'
loop_
_space_group_symop_operation_xyz
x,y,z
-x,y,-z
-x,-y,-z
x,-y,z
1/2+x,1/2+y,z
1/2-x,1/2+y,-z
1/2-x,1/2-y,-z
1/2+x,1/2-y,z
loop_
_atom_site_type_symbol
_atom_site_label
_atom_site_fract_x
_atom_site_fract_y
_atom_site_fract_z
Si Si1 0.090558 0.182919 0.212036
Si Si2 0.642495 0.300881 0.729678
Si Si3 0.516701 0.694536 0.682001
Si Si4 0.457663 0.809164 0.145814
Si Si5 0.806791 0.686419 0.768397
O O1 0.073504 0.227428 0.259744
O O2 0.179402 0.294086 0.286499
O O3 0.143823 0.000000 0.277689
O O4 0.927803 0.202035 0.963599
O O5 0.500000 0.246537 0.500000
O O6 0.642425 0.500000 0.728525
O O7 0.625707 0.251318 0.777950
O O8 0.794915 0.248565 0.910927
O O9 0.532801 0.500000 0.713772
O O10 0.523933 0.780744 0.756959
O O11 0.356091 0.719831 0.436531
O O12 0.463904 0.000000 0.141090
O O13 0.841256 0.500000 0.832148
#
# Coordination Sequence:
#
# PCOD9201088 Si02
#       5
#     8   8   8   8   8
#     4  11  22  37  58  83 114 148 186 234 280 326
#     4   9  18  35  59  84 110 144 186 229 276 331
#     4  10  21  37  58  84 115 148 183 229 281 332
#     4  11  22  36  57  83 114 151 188 228 276 332
#     4  10  20  37  61  85 111 146 188 230 277 334
#
# _framework density 23.973147999999998
#
# number of rings (size 3 to 8) (size 9 to 14) (size 15 to 20)
#    0.000    1.800    0.000    6.000    0.000    5.600 
#    0.000    1.000    0.000    4.200    0.000    0.000 
#    0.000    0.000    0.000    0.000    0.000    0.000 
#
# Total GULP energy -111896.656778 kJ/mol
# GULP energy per Si atom -5594.832839 kJ/mol
# Density = 2.391858 g / cm^3
# Si number density = 23.973148 Si / 1000 Ang^3
#
#
#
# Elastic Constant Matrix: (Units=GPa)
#
#
# Indices 1 2 3 4 5 6 
#
# 1 129.7249 -0.0586 3.3531 0.0000 2.9688 0.0000
# 2 -0.0586 28.5571 1.6218 0.0000 2.6492 0.0000
# 3 3.3531 1.6218 46.3841 0.0000 2.6860 0.0000
# 4 0.0000 0.0000 0.0000 12.9515 0.0000 -9.0350
# 5 2.9688 2.6492 2.6860 0.0000 41.6671 0.0000
# 6 0.0000 0.0000 0.0000 -9.0350 0.0000 11.9950
#
#
#
# Elastic Compliance Matrix: (Units=1/GPa)
#
#
# Indices 1 2 3 4 5 6 
#
# 1 0.007734 0.000095 -0.000532 0.000000 -0.000523 0.000000
# 2 0.000095 0.035283 -0.001114 0.000000 -0.002178 0.000000
# 3 -0.000532 -0.001114 0.021711 0.000000 -0.001291 0.000000
# 4 0.000000 0.000000 0.000000 0.162705 0.000000 0.122554
# 5 -0.000523 -0.002178 -0.001291 0.000000 0.024259 0.000000
# 6 0.000000 0.000000 0.000000 0.122554 0.000000 0.175679
#
#
# Mechanical properties :
#
#
# Convention : Reuss Voigt Hill
#
# Bulk Modulus (GPa) = 16.22717 23.83318 20.03018
# Shear Modulus (GPa) = 11.08606 26.63938 18.86272
#
# Velocity S-wave (km/s) = 2.15277 3.33711 2.80809
# Velocity P-wave (km/s) = 3.60039 4.98112 4.34594
#
# Compressibility (1/GPa) = 0.06162503
#
# Stress axis : x y z
#
# Youngs Moduli (GPa) = 129.29282 28.34217 46.05894
#
# Poissons Ratio (x) = -0.00268 0.02451
# Poissons Ratio (y) = -0.01223 0.05132
# Poissons Ratio (z) = 0.06880 0.03158
#
# Static dielectric constant tensor:
#      x y z
#    x 1.915800 0.000000 -0.051470 
#    y 0.000000 1.827250 0.000000 
#    z -0.051470 0.000000 1.953240 
# 
# From -- ./inp_files/151839.got.cif
#   From: 2010.05.17/outbox.cif.g08.bks.cpg/sg12_76_cif.got.tgz:151839.got - 2010.06.03 13:09:07.
