data_PCOD9201698
_publ_section_title
;
Structure prediction by ZEFSAII (Michael W. Deem and Ramdas Pophale) SiO2 
 PCOD9201698
Probable space group: C 2/M
;
_chemical_formula_sum "Si O2"
_cell_formula_units_Z 42
_cell_length_a 25.785199
_cell_length_b 7.667817
_cell_length_c 11.021705
_cell_angle_alpha 90.000000
_cell_angle_beta 118.697685
_cell_angle_gamma 90.000000
_cell_volume 1911.492439
_symmetry_space_group_name_H-M "C 2/M"
_symmetry_group_IT_number 12
_symmetry_cell_setting 'monoclinic'
loop_
_space_group_symop_operation_xyz
x,y,z
-x,y,-z
-x,-y,-z
x,-y,z
1/2+x,1/2+y,z
1/2-x,1/2+y,-z
1/2-x,1/2-y,-z
1/2+x,1/2-y,z
loop_
_atom_site_type_symbol
_atom_site_label
_atom_site_fract_x
_atom_site_fract_y
_atom_site_fract_z
Si Si1 0.601577 0.698084 0.333977
Si Si2 0.000000 0.500000 0.000000
Si Si3 0.170185 0.196821 0.652622
Si Si4 0.781098 0.792889 0.907927
Si Si5 0.403328 0.294786 0.947795
Si Si6 0.022304 0.500000 0.334036
Si Si7 0.094985 0.500000 0.668058
O O1 0.580734 0.500000 0.330922
O O2 0.650556 0.735414 0.492185
O O3 0.622416 0.709856 0.219434
O O4 0.548683 0.834019 0.294284
O O5 0.955095 0.654834 0.001729
O O6 0.239212 0.213596 0.757234
O O7 0.136044 0.331442 0.700795
O O8 0.151194 0.000000 0.659046
O O9 0.849339 0.741260 0.973992
O O10 0.780373 0.000000 0.890658
O O11 0.750000 0.750000 0.000000
O O12 0.420607 0.500000 0.989845
O O13 0.055229 0.500000 0.500659
O O14 0.952926 0.500000 0.279788
#
# Coordination Sequence:
#
# PCOD9201698 Si02
#       7
#     8   2   8   8   8   4   4
#     4   9  19  38  62  94 131 165 209 272 330 392
#     4  12  24  44  74  98 126 186 220 268 332 396
#     4  10  20  37  63  93 130 169 214 262 332 394
#     4  11  24  44  67  94 133 177 222 276 325 396
#     4  10  24  45  68  98 134 169 222 279 328 391
#     4   9  17  32  57  86 129 171 213 258 312 383
#     4   9  18  34  54  87 128 172 213 260 310 381
#
# _framework density 21.972359000000001
#
# number of rings (size 3 to 8) (size 9 to 14) (size 15 to 20)
#    0.000    2.095    0.952    1.429    2.667    1.524 
#    6.857    3.810    0.000    0.000    0.000    0.000 
#    0.000    0.000    0.000    0.000    0.000    0.000 
#
# Total GULP energy -117052.949511 kJ/mol
# GULP energy per Si atom -5573.949977 kJ/mol
# Density = 2.192235 g / cm^3
# Si number density = 21.972359 Si / 1000 Ang^3
#
#
#
# Elastic Constant Matrix: (Units=GPa)
#
#
# Indices 1 2 3 4 5 6 
#
# 1 151.1037 67.6780 27.8169 0.0000 4.0616 0.0000
# 2 67.6780 118.5443 24.9948 0.0000 9.5236 0.0000
# 3 27.8169 24.9948 87.1748 0.0000 5.7518 0.0000
# 4 0.0000 0.0000 0.0000 36.2324 0.0000 21.8409
# 5 4.0616 9.5236 5.7518 0.0000 30.0017 0.0000
# 6 0.0000 0.0000 0.0000 21.8409 0.0000 35.4387
#
#
#
# Elastic Compliance Matrix: (Units=1/GPa)
#
#
# Indices 1 2 3 4 5 6 
#
# 1 0.009084 -0.004913 -0.001531 0.000000 0.000623 0.000000
# 2 -0.004913 0.011808 -0.001635 0.000000 -0.002770 0.000000
# 3 -0.001531 -0.001635 0.012539 0.000000 -0.001678 0.000000
# 4 0.000000 0.000000 0.000000 0.043914 0.000000 -0.027064
# 5 0.000623 -0.002770 -0.001678 0.000000 0.034448 0.000000
# 6 0.000000 0.000000 0.000000 -0.027064 0.000000 0.044897
#
#
# Mechanical properties :
#
#
# Convention : Reuss Voigt Hill
#
# Bulk Modulus (GPa) = 57.89600 66.42245 62.15923
# Shear Modulus (GPa) = 27.99463 36.09011 32.04237
#
# Velocity S-wave (km/s) = 3.57330 4.05720 3.82292
# Velocity P-wave (km/s) = 6.59025 7.22797 6.91646
#
# Compressibility (1/GPa) = 0.01727235
#
# Stress axis : x y z
#
# Youngs Moduli (GPa) = 110.08807 84.68891 79.74980
#
# Poissons Ratio (x) = 0.41610 0.12209
# Poissons Ratio (y) = 0.54089 0.13040
# Poissons Ratio (z) = 0.16854 0.13847
#
# Static dielectric constant tensor:
#      x y z
#    x 1.771960 0.000000 -0.002630 
#    y 0.000000 1.770790 0.000000 
#    z -0.002630 0.000000 1.891610 
# 
# From -- ./inp_files/163337.got.cif
#   From: 2010.05.17/outbox.cif.g08.bks.cpg/sg12_82_cif.got.tgz:163337.got - 2010.06.03 13:09:07.
