data_PCOD9201733
_publ_section_title
;
Structure prediction by ZEFSAII (Michael W. Deem and Ramdas Pophale) SiO2 
 PCOD9201733
Probable space group: C 2/M
;
_chemical_formula_sum "Si O2"
_cell_formula_units_Z 64
_cell_length_a 9.148715
_cell_length_b 15.502821
_cell_length_c 28.874238
_cell_angle_alpha 90.000000
_cell_angle_beta 130.796334
_cell_angle_gamma 90.000000
_cell_volume 3100.261951
_symmetry_space_group_name_H-M "C 2/M"
_symmetry_group_IT_number 12
_symmetry_cell_setting 'monoclinic'
loop_
_space_group_symop_operation_xyz
x,y,z
-x,y,-z
-x,-y,-z
x,-y,z
1/2+x,1/2+y,z
1/2-x,1/2+y,-z
1/2-x,1/2-y,-z
1/2+x,1/2-y,z
loop_
_atom_site_type_symbol
_atom_site_label
_atom_site_fract_x
_atom_site_fract_y
_atom_site_fract_z
Si Si1 0.990897 0.210138 0.587525
Si Si2 0.373644 0.896216 0.521086
Si Si3 0.717120 0.147416 0.033451
Si Si4 0.919779 0.272069 0.670601
Si Si5 0.160892 0.175374 0.249282
Si Si6 0.699658 0.588647 0.850636
Si Si7 0.007871 0.719708 0.130285
Si Si8 0.711056 0.596318 0.052334
O O1 0.838519 0.144400 0.533196
O O2 0.960556 0.313294 0.568437
O O3 0.959644 0.206921 0.636341
O O4 0.209342 0.186862 0.618905
O O5 0.500000 0.896272 0.500000
O O6 0.369898 0.000000 0.535374
O O7 0.788941 0.091040 0.091648
O O8 0.879195 0.222077 0.069024
O O9 0.500000 0.175584 0.000000
O O10 0.704121 0.099252 0.982068
O O11 0.893761 0.222780 0.714025
O O12 0.108444 0.333121 0.708064
O O13 0.094279 0.232182 0.191659
O O14 0.016822 0.095685 0.213289
O O15 0.792379 0.500000 0.852690
O O16 0.819958 0.670392 0.858901
O O17 0.848317 0.650607 0.113320
O O18 0.689194 0.500000 0.065372
O O19 0.500000 0.632787 0.000000
#
# Coordination Sequence:
#
# PCOD9201733 Si02
#       8
#     8   8   8   8   8   8   8   8
#     4  10  20  38  65  95 127 175 198 253 298 354
#     4  10  20  37  63  99 135 168 206 242 295 363
#     4  11  23  37  60  84 112 147 191 234 293 380
#     4  10  20  39  63  85 123 162 210 241 298 341
#     4  10  22  39  61  87 109 160 202 255 283 355
#     4  11  23  39  60  87 114 148 194 246 305 361
#     4  11  22  36  60  81 111 146 195 236 296 356
#     4  11  24  37  54  83 119 146 177 240 311 367
#
# _framework density 20.643415999999998
#
# number of rings (size 3 to 8) (size 9 to 14) (size 15 to 20)
#    0.000    1.500    3.750    1.500    3.500    0.500 
#    0.000    5.000    0.000    2.250    0.000    0.000 
#    0.000    0.000    0.000    0.000    0.000    0.000 
#
# Total GULP energy -178252.912890 kJ/mol
# GULP energy per Si atom -5570.403528 kJ/mol
# Density = 2.059643 g / cm^3
# Si number density = 20.643416 Si / 1000 Ang^3
#
#
#
# Elastic Constant Matrix: (Units=GPa)
#
#
# Indices 1 2 3 4 5 6 
#
# 1 98.4043 22.3220 28.7285 0.0000 28.1653 0.0000
# 2 22.3220 105.4541 25.0081 0.0000 10.1767 0.0000
# 3 28.7285 25.0081 86.0689 0.0000 27.5217 0.0000
# 4 0.0000 0.0000 0.0000 -42.8651 0.0000 5.2041
# 5 28.1653 10.1767 27.5217 0.0000 50.3374 0.0000
# 6 0.0000 0.0000 0.0000 5.2041 0.0000 10.9456
#
#
#
# Elastic Compliance Matrix: (Units=1/GPa)
#
#
# Indices 1 2 3 4 5 6 
#
# 1 0.012751 -0.001687 -0.001931 0.000000 -0.005738 0.000000
# 2 -0.001687 0.010420 -0.002536 0.000000 0.000224 0.000000
# 3 -0.001931 -0.002536 0.015137 0.000000 -0.006683 0.000000
# 4 0.000000 0.000000 0.000000 -0.022056 0.000000 0.010486
# 5 -0.005738 0.000224 -0.006683 0.000000 0.026685 0.000000
# 6 0.000000 0.000000 0.000000 0.010486 0.000000 0.086375
#
#
# Mechanical properties :
#
#
# Convention : Reuss Voigt Hill
#
# Bulk Modulus (GPa) = 38.46360 49.11606 43.78983
# Shear Modulus (GPa) = 33.26969 17.94148 25.60559
#
# Velocity S-wave (km/s) = 4.01888 2.95127 3.52572
# Velocity P-wave (km/s) = 6.34098 5.95463 6.15084
#
# Compressibility (1/GPa) = 0.02599861
#
# Stress axis : x y z
#
# Youngs Moduli (GPa) = 78.42586 95.97153 66.06342
#
# Poissons Ratio (x) = 0.16194 0.12758
# Poissons Ratio (y) = 0.13233 0.16754
# Poissons Ratio (z) = 0.15145 0.24338
#
# Static dielectric constant tensor:
#      x y z
#    x 1.795400 0.000000 0.029220 
#    y 0.000000 1.858920 0.000000 
#    z 0.029220 0.000000 1.755230 
# 
# From -- ./inp_files/372614.got.cif
#   From: 2010.05.17/outbox.cif.g08.bks.cpg/sg12_187_cif.got.tgz:372614.got - 2010.06.03 13:09:07.
