data_PCOD9201274
_publ_section_title
;
Structure prediction by ZEFSAII (Michael W. Deem and Ramdas Pophale) SiO2 
 PCOD9201274
Probable space group: C 2/M
;
_chemical_formula_sum "Si O2"
_cell_formula_units_Z 58
_cell_length_a 21.526498
_cell_length_b 12.052091
_cell_length_c 18.476635
_cell_angle_alpha 90.000000
_cell_angle_beta 35.022373
_cell_angle_gamma 90.000000
_cell_volume 2751.009292
_symmetry_space_group_name_H-M "C 2/M"
_symmetry_group_IT_number 12
_symmetry_cell_setting 'monoclinic'
loop_
_space_group_symop_operation_xyz
x,y,z
-x,y,-z
-x,-y,-z
x,-y,z
1/2+x,1/2+y,z
1/2-x,1/2+y,-z
1/2-x,1/2-y,-z
1/2+x,1/2-y,z
loop_
_atom_site_type_symbol
_atom_site_label
_atom_site_fract_x
_atom_site_fract_y
_atom_site_fract_z
Si Si1 0.500000 0.000000 0.000000
Si Si2 0.229336 0.376362 0.308611
Si Si3 0.064481 0.795427 0.505181
Si Si4 0.357774 0.655500 0.330097
Si Si5 0.761716 0.618283 0.405264
Si Si6 0.607834 0.624462 0.073800
Si Si7 0.833237 0.697010 0.104107
Si Si8 0.119709 0.872031 0.226430
O O1 0.414752 0.100564 0.052334
O O2 0.226287 0.500000 0.279359
O O3 0.111672 0.321656 0.432671
O O4 0.282911 0.384370 0.336390
O O5 0.300770 0.286972 0.196659
O O6 0.172127 0.857217 0.429789
O O7 0.000000 0.848918 0.500000
O O8 0.978743 0.795045 0.652334
O O9 0.304931 0.622220 0.456314
O O10 0.350826 0.788094 0.328435
O O11 0.478976 0.617561 0.207235
O O12 0.812927 0.500000 0.342419
O O13 0.646132 0.500000 0.014919
O O14 0.651310 0.649338 0.113041
O O15 0.627172 0.722606 0.998789
O O16 0.721432 0.644556 0.181518
O O17 0.081368 0.000000 0.266737
#
# Coordination Sequence:
#
# PCOD9201274 Si02
#       8
#     2   8   8   8   8   8   8   8
#     4  12  28  48  74  98 152 180 222 300 352 412
#     4  11  24  43  68  98 139 180 227 285 338 414
#     4  11  22  40  63 101 132 172 224 274 345 415
#     4  10  21  38  59  93 130 164 221 273 331 401
#     4  10  20  37  61  90 129 173 216 271 336 407
#     4  11  23  43  73  98 131 181 236 289 335 403
#     4  12  25  48  68 101 135 183 231 279 354 409
#     4  11  23  44  70  99 139 179 230 288 340 417
#
# _framework density 21.083171
#
# number of rings (size 3 to 8) (size 9 to 14) (size 15 to 20)
#    0.000    1.103    3.448    3.310    0.000    1.379 
#   12.414    2.069    1.517    0.000    0.000    0.000 
#    0.000    0.000    0.000    0.000    0.000    0.000 
#
# Total GULP energy -161648.899175 kJ/mol
# GULP energy per Si atom -5574.099972 kJ/mol
# Density = 2.103519 g / cm^3
# Si number density = 21.083171 Si / 1000 Ang^3
#
#
#
# Elastic Constant Matrix: (Units=GPa)
#
#
# Indices 1 2 3 4 5 6 
#
# 1 93.7140 31.8655 9.9962 0.0000 7.0596 0.0000
# 2 31.8655 177.4741 36.7244 0.0000 6.6374 0.0000
# 3 9.9962 36.7244 54.9111 0.0000 9.6928 0.0000
# 4 0.0000 0.0000 0.0000 1.4929 0.0000 -1.9713
# 5 7.0596 6.6374 9.6928 0.0000 31.6464 0.0000
# 6 0.0000 0.0000 0.0000 -1.9713 0.0000 11.2091
#
#
#
# Elastic Compliance Matrix: (Units=1/GPa)
#
#
# Indices 1 2 3 4 5 6 
#
# 1 0.011518 -0.001895 -0.000472 0.000000 -0.002028 0.000000
# 2 -0.001895 0.006851 -0.004290 0.000000 0.000300 0.000000
# 3 -0.000472 -0.004290 0.022189 0.000000 -0.005791 0.000000
# 4 0.000000 0.000000 0.000000 0.872411 0.000000 0.153431
# 5 -0.002028 0.000300 -0.005791 0.000000 0.033762 0.000000
# 6 0.000000 0.000000 0.000000 0.153431 0.000000 0.116197
#
#
# Mechanical properties :
#
#
# Convention : Reuss Voigt Hill
#
# Bulk Modulus (GPa) = 36.70412 53.69683 45.20048
# Shear Modulus (GPa) = 4.60692 25.37057 14.98875
#
# Velocity S-wave (km/s) = 1.47982 3.47271 2.66923
# Velocity P-wave (km/s) = 4.51296 6.45011 5.56645
#
# Compressibility (1/GPa) = 0.02724489
#
# Stress axis : x y z
#
# Youngs Moduli (GPa) = 86.82027 145.95665 45.06824
#
# Poissons Ratio (x) = 0.27653 0.02126
# Poissons Ratio (y) = 0.16449 0.19335
# Poissons Ratio (z) = 0.04096 0.62618
#
# Static dielectric constant tensor:
#      x y z
#    x 1.756370 0.000000 0.048310 
#    y 0.000000 1.790620 0.000000 
#    z 0.048310 0.000000 1.776320 
# 
# From -- ./inp_files/283512.got.cif
#   From: 2010.05.17/outbox.cif.g08.bks.cpg/sg12_142_cif.got.tgz:283512.got - 2010.06.03 13:09:07.
