data_PCOD9201268
_publ_section_title
;
Structure prediction by ZEFSAII (Michael W. Deem and Ramdas Pophale) SiO2 
 PCOD9201268
Probable space group: C 2/M
;
_chemical_formula_sum "Si O2"
_cell_formula_units_Z 42
_cell_length_a 17.937983
_cell_length_b 7.442459
_cell_length_c 15.049557
_cell_angle_alpha 90.000000
_cell_angle_beta 112.701709
_cell_angle_gamma 90.000000
_cell_volume 1853.500307
_symmetry_space_group_name_H-M "C 2/M"
_symmetry_group_IT_number 12
_symmetry_cell_setting 'monoclinic'
loop_
_space_group_symop_operation_xyz
x,y,z
-x,y,-z
-x,-y,-z
x,-y,z
1/2+x,1/2+y,z
1/2-x,1/2+y,-z
1/2-x,1/2-y,-z
1/2+x,1/2-y,z
loop_
_atom_site_type_symbol
_atom_site_label
_atom_site_fract_x
_atom_site_fract_y
_atom_site_fract_z
Si Si1 0.000000 0.000000 0.000000
Si Si2 0.126964 0.717300 0.351239
Si Si3 0.261373 0.291898 0.279059
Si Si4 0.011385 0.704482 0.848422
Si Si5 0.806121 0.214511 0.110110
Si Si6 0.407273 0.782213 0.467968
O O1 0.002201 0.843067 0.078793
O O2 0.134644 0.500000 0.361096
O O3 0.198694 0.786741 0.321298
O O4 0.126126 0.781521 0.452026
O O5 0.043601 0.754178 0.261702
O O6 0.237287 0.500000 0.257487
O O7 0.265304 0.214940 0.181850
O O8 0.349581 0.281522 0.362950
O O9 0.988679 0.500000 0.863671
O O10 0.105240 0.708105 0.864735
O O11 0.816434 0.000000 0.123713
O O12 0.750000 0.250000 0.000000
O O13 0.500000 0.726200 0.500000
O O14 0.405910 0.000000 0.465578
#
# Coordination Sequence:
#
# PCOD9201268 Si02
#       6
#     2   8   8   8   8   8
#     4  12  26  44  68 102 134 164 238 272 310 414
#     4   9  20  39  63  91 128 169 214 263 330 394
#     4  10  22  39  60  90 126 165 212 271 327 386
#     4  11  24  45  69  95 134 177 214 277 337 382
#     4  11  24  42  63  93 131 171 226 279 331 401
#     4  10  20  37  61  90 125 165 214 265 319 396
#
# _framework density 22.659829999999999
#
# number of rings (size 3 to 8) (size 9 to 14) (size 15 to 20)
#    0.000    1.714    0.952    2.571    2.667    3.429 
#    3.429    0.000    0.000    0.000    0.000    0.000 
#    0.000    0.000    0.000    0.000    0.000    0.000 
#
# Total GULP energy -117206.356177 kJ/mol
# GULP energy per Si atom -5581.255056 kJ/mol
# Density = 2.260826 g / cm^3
# Si number density = 22.659830 Si / 1000 Ang^3
#
#
#
# Elastic Constant Matrix: (Units=GPa)
#
#
# Indices 1 2 3 4 5 6 
#
# 1 70.4752 -7.3152 62.8529 0.0000 3.7745 0.0000
# 2 -7.3152 103.6919 -3.2139 0.0000 -17.0599 0.0000
# 3 62.8529 -3.2139 135.8686 0.0000 -32.2696 0.0000
# 4 0.0000 0.0000 0.0000 1.5320 0.0000 10.8985
# 5 3.7745 -17.0599 -32.2696 0.0000 44.3553 0.0000
# 6 0.0000 0.0000 0.0000 10.8985 0.0000 -9.2222
#
#
#
# Elastic Compliance Matrix: (Units=1/GPa)
#
#
# Indices 1 2 3 4 5 6 
#
# 1 0.031491 -0.001080 -0.018531 0.000000 -0.016577 0.000000
# 2 -0.001080 0.010568 0.002100 0.000000 0.005684 0.000000
# 3 -0.018531 0.002100 0.020005 0.000000 0.016939 0.000000
# 4 0.000000 0.000000 0.000000 0.069390 0.000000 0.082002
# 5 -0.016577 0.005684 0.016939 0.000000 0.038465 0.000000
# 6 0.000000 0.000000 0.000000 0.082002 0.000000 -0.011527
#
#
# Mechanical properties :
#
#
# Convention : Reuss Voigt Hill
#
# Bulk Modulus (GPa) = 36.97880 46.07591 41.52736
# Shear Modulus (GPa) = 24.70005 24.51380 24.60693
#
# Velocity S-wave (km/s) = 3.30515 3.29267 3.29892
# Velocity P-wave (km/s) = 5.56057 5.90199 5.73382
#
# Compressibility (1/GPa) = 0.02704252
#
# Stress axis : x y z
#
# Youngs Moduli (GPa) = 31.75461 94.62507 49.98749
#
# Poissons Ratio (x) = 0.10220 0.92630
# Poissons Ratio (y) = 0.03430 -0.10495
# Poissons Ratio (z) = 0.58843 -0.19868
#
# Static dielectric constant tensor:
#      x y z
#    x 1.835800 0.000000 -0.021950 
#    y 0.000000 1.864940 0.000000 
#    z -0.021950 0.000000 1.785150 
# 
# From -- ./inp_files/221458.got.cif
#   From: 2010.05.17/outbox.cif.g08.bks.cpg/sg12_111_cif.got.tgz:221458.got - 2010.06.03 13:09:07.
