data_PCOD9201675
_publ_section_title
;
Structure prediction by ZEFSAII (Michael W. Deem and Ramdas Pophale) SiO2 
 PCOD9201675
Probable space group: C 2/M
;
_chemical_formula_sum "Si O2"
_cell_formula_units_Z 56
_cell_length_a 21.850337
_cell_length_b 19.084130
_cell_length_c 19.401804
_cell_angle_alpha 90.000000
_cell_angle_beta 19.484563
_cell_angle_gamma 90.000000
_cell_volume 2698.592484
_symmetry_space_group_name_H-M "C 2/M"
_symmetry_group_IT_number 12
_symmetry_cell_setting 'monoclinic'
loop_
_space_group_symop_operation_xyz
x,y,z
-x,y,-z
-x,-y,-z
x,-y,z
1/2+x,1/2+y,z
1/2-x,1/2+y,-z
1/2-x,1/2-y,-z
1/2+x,1/2-y,z
loop_
_atom_site_type_symbol
_atom_site_label
_atom_site_fract_x
_atom_site_fract_y
_atom_site_fract_z
Si Si1 0.116691 0.303166 0.707273
Si Si2 0.214799 0.816612 0.095394
Si Si3 0.596198 0.926217 0.824002
Si Si4 0.740690 0.850185 0.436178
Si Si5 0.975836 0.920577 0.601169
Si Si6 0.934053 0.916820 0.991423
Si Si7 0.662326 0.161849 0.180528
O O1 0.051785 0.354183 0.835501
O O2 0.206179 0.231235 0.636418
O O3 0.237111 0.345639 0.523616
O O4 0.926360 0.290668 0.870547
O O5 0.151488 0.877359 0.213207
O O6 0.123959 0.745776 0.221708
O O7 0.204826 0.845888 0.027867
O O8 0.816330 0.925064 0.593308
O O9 0.543097 0.000000 0.845162
O O10 0.500000 0.926851 0.000000
O O11 0.538764 0.869787 0.622106
O O12 0.892766 0.899084 0.241279
O O13 0.000000 0.887707 0.500000
O O14 0.904297 0.000000 0.668034
O O15 0.766917 0.870986 0.135455
O O16 0.890089 0.000000 0.036290
O O17 0.000000 0.899249 0.000000
#
# Coordination Sequence:
#
# PCOD9201675 Si02
#       7
#     8   8   8   8   8   8   8
#     4  10  20  37  63  92 128 165 209 269 321 382
#     4  10  20  38  64  93 127 166 213 267 318 386
#     4  10  21  35  53  81 122 171 212 253 308 375
#     4  10  22  41  66  96 126 164 213 267 331 392
#     4  10  21  36  53  83 129 172 208 251 311 379
#     4  11  26  47  68  94 131 172 219 278 336 392
#     4  10  22  42  67  95 127 164 215 271 330 386
#
# _framework density 20.751560000000001
#
# number of rings (size 3 to 8) (size 9 to 14) (size 15 to 20)
#    0.000    1.857    1.429    1.714    4.000    4.571 
#    5.143    4.286    0.000    0.000    0.000    0.000 
#    0.000    0.000    0.000    0.000    0.000    0.000 
#
# Total GULP energy -155927.808519 kJ/mol
# GULP energy per Si atom -5568.850304 kJ/mol
# Density = 2.070433 g / cm^3
# Si number density = 20.751560 Si / 1000 Ang^3
#
#
#
# Elastic Constant Matrix: (Units=GPa)
#
#
# Indices 1 2 3 4 5 6 
#
# 1 81.3197 44.8159 12.9233 -0.0188 -1.1508 0.0008
# 2 44.8159 70.5270 16.8083 -0.0127 16.1665 -0.0068
# 3 12.9233 16.8083 78.2700 -0.0662 -4.2250 0.0179
# 4 -0.0188 -0.0127 -0.0662 67.5837 0.0036 -1.2460
# 5 -1.1508 16.1665 -4.2250 0.0036 38.5400 0.0048
# 6 0.0008 -0.0068 0.0179 -1.2460 0.0048 30.3850
#
#
#
# Elastic Compliance Matrix: (Units=1/GPa)
#
#
# Indices 1 2 3 4 5 6 
#
# 1 0.020369 -0.014508 0.000114 0.000003 0.006707 -0.000005
# 2 -0.014508 0.027194 -0.004108 -0.000002 -0.012291 0.000011
# 3 0.000114 -0.004108 0.013815 0.000012 0.003241 -0.000009
# 4 0.000003 -0.000002 0.000012 0.014808 0.000001 0.000607
# 5 0.006707 -0.012291 0.003241 0.000001 0.031658 -0.000010
# 6 -0.000005 0.000011 -0.000009 0.000607 -0.000010 0.032936
#
#
# Mechanical properties :
#
#
# Convention : Reuss Voigt Hill
#
# Bulk Modulus (GPa) = 41.02568 42.13463 41.58016
# Shear Modulus (GPa) = 26.89490 37.67303 32.28397
#
# Velocity S-wave (km/s) = 3.60396 4.26541 3.94856
# Velocity P-wave (km/s) = 6.09352 6.67882 6.39287
#
# Compressibility (1/GPa) = 0.02437497
#
# Stress axis : x y z
#
# Youngs Moduli (GPa) = 49.09308 36.77215 72.38755
#
# Poissons Ratio (x) = 0.53350 -0.00828
# Poissons Ratio (y) = 0.71225 0.29736
# Poissons Ratio (z) = -0.00562 0.15106
#
# Static dielectric constant tensor:
#      x y z
#    x 1.877730 0.000010 -0.094030 
#    y 0.000010 1.751160 0.000000 
#    z -0.094030 0.000000 1.799460 
# 
# From -- ./inp_files/285992.got.cif
#   From: 2010.05.17/outbox.cif.g08.bks.cpg/sg12_143_cif.got.tgz:285992.got - 2010.06.03 13:09:07.
