data_PCOD9201710
_publ_section_title
;
Structure prediction by ZEFSAII (Michael W. Deem and Ramdas Pophale) SiO2 
 PCOD9201710
Probable space group: C 2/M
;
_chemical_formula_sum "Si O2"
_cell_formula_units_Z 48
_cell_length_a 11.052145
_cell_length_b 22.025489
_cell_length_c 9.435270
_cell_angle_alpha 90.000000
_cell_angle_beta 104.618708
_cell_angle_gamma 90.000000
_cell_volume 2222.462084
_symmetry_space_group_name_H-M "C 2/M"
_symmetry_group_IT_number 12
_symmetry_cell_setting 'monoclinic'
loop_
_space_group_symop_operation_xyz
x,y,z
-x,y,-z
-x,-y,-z
x,-y,z
1/2+x,1/2+y,z
1/2-x,1/2+y,-z
1/2-x,1/2-y,-z
1/2+x,1/2-y,z
loop_
_atom_site_type_symbol
_atom_site_label
_atom_site_fract_x
_atom_site_fract_y
_atom_site_fract_z
Si Si1 0.885577 0.429779 0.280642
Si Si2 0.981715 0.173832 0.147951
Si Si3 0.782116 0.069067 0.053139
Si Si4 0.417608 0.142527 0.836551
Si Si5 0.774633 0.154566 0.596755
Si Si6 0.697459 0.282379 0.671225
O O1 0.922932 0.500000 0.310604
O O2 0.813392 0.401994 0.393857
O O3 0.997826 0.386405 0.261546
O O4 0.788644 0.427664 0.118911
O O5 0.898004 0.114203 0.094095
O O6 0.899549 0.213874 0.230178
O O7 0.109852 0.155895 0.261196
O O8 0.000000 0.202782 0.000000
O O9 0.682722 0.092485 0.139844
O O10 0.818979 0.000000 0.089771
O O11 0.336405 0.200325 0.765849
O O12 0.500000 0.154956 0.000000
O O13 0.695880 0.215820 0.604831
O O14 0.826737 0.166110 0.454755
#
# Coordination Sequence:
#
# PCOD9201710 Si02
#       6
#     8   8   8   8   8   8
#     4  10  20  37  63  94 127 161 207 256 308 370
#     4  11  22  40  63  94 117 156 211 261 298 363
#     4   9  18  36  61  91 127 163 200 251 312 365
#     4   9  19  38  62  94 121 163 209 259 308 360
#     4  11  24  42  61  90 126 169 203 248 320 373
#     4  10  25  43  62  85 128 168 204 253 314 379
#
# _framework density 21.597669
#
# number of rings (size 3 to 8) (size 9 to 14) (size 15 to 20)
#    0.000    2.000    1.667    1.000    2.333    5.000 
#    0.000    5.000    0.000    5.000    0.000    0.000 
#    0.000    0.000    0.000    0.000    0.000    0.000 
#
# Total GULP energy -134193.058604 kJ/mol
# GULP energy per Si atom -5591.377442 kJ/mol
# Density = 2.154851 g / cm^3
# Si number density = 21.597669 Si / 1000 Ang^3
#
#
#
# Elastic Constant Matrix: (Units=GPa)
#
#
# Indices 1 2 3 4 5 6 
#
# 1 86.7118 8.3478 28.3217 0.0000 -25.8061 0.0000
# 2 8.3478 64.3371 -9.3554 0.0000 -13.3761 0.0000
# 3 28.3217 -9.3554 88.7340 0.0000 -13.7671 0.0000
# 4 0.0000 0.0000 0.0000 24.5331 0.0000 0.0452
# 5 -25.8061 -13.3761 -13.7671 0.0000 28.3437 0.0000
# 6 0.0000 0.0000 0.0000 0.0452 0.0000 6.0910
#
#
#
# Elastic Compliance Matrix: (Units=1/GPa)
#
#
# Indices 1 2 3 4 5 6 
#
# 1 0.016620 0.000236 -0.003152 0.000000 0.013712 0.000000
# 2 0.000236 0.018198 0.003471 0.000000 0.010489 0.000000
# 3 -0.003152 0.003471 0.013465 0.000000 0.005308 0.000000
# 4 0.000000 0.000000 0.000000 0.040762 0.000000 -0.000302
# 5 0.013712 0.010489 0.005308 0.000000 0.055294 0.000000
# 6 0.000000 0.000000 0.000000 -0.000302 0.000000 0.164180
#
#
# Mechanical properties :
#
#
# Convention : Reuss Voigt Hill
#
# Bulk Modulus (GPa) = 20.24627 32.71235 26.47931
# Shear Modulus (GPa) = 15.43808 25.95814 20.69811
#
# Velocity S-wave (km/s) = 2.67648 3.47060 3.09908
# Velocity P-wave (km/s) = 4.35270 5.58920 5.00925
#
# Compressibility (1/GPa) = 0.04939183
#
# Stress axis : x y z
#
# Youngs Moduli (GPa) = 60.16729 54.95158 74.26512
#
# Poissons Ratio (x) = -0.01297 0.23412
# Poissons Ratio (y) = -0.01420 -0.25775
# Poissons Ratio (z) = 0.18967 -0.19072
#
# Static dielectric constant tensor:
#      x y z
#    x 1.785430 0.000000 -0.002500 
#    y 0.000000 1.760120 0.000000 
#    z -0.002500 0.000000 1.813420 
# 
# From -- ./inp_files/50631.got.cif
#   From: 2010.05.17/outbox.cif.g08.bks.cpg/sg12_26_cif.got.tgz:50631.got - 2010.06.03 13:09:07.
