data_PCOD9201616
_publ_section_title
;
Structure prediction by ZEFSAII (Michael W. Deem and Ramdas Pophale) SiO2 
 PCOD9201616
Probable space group: C 2/M
;
_chemical_formula_sum "Si O2"
_cell_formula_units_Z 48
_cell_length_a 27.600562
_cell_length_b 8.893155
_cell_length_c 12.585607
_cell_angle_alpha 90.000000
_cell_angle_beta 129.547275
_cell_angle_gamma 90.000000
_cell_volume 2382.091114
_symmetry_space_group_name_H-M "C 2/M"
_symmetry_group_IT_number 12
_symmetry_cell_setting 'monoclinic'
loop_
_space_group_symop_operation_xyz
x,y,z
-x,y,-z
-x,-y,-z
x,-y,z
1/2+x,1/2+y,z
1/2-x,1/2+y,-z
1/2-x,1/2-y,-z
1/2+x,1/2-y,z
loop_
_atom_site_type_symbol
_atom_site_label
_atom_site_fract_x
_atom_site_fract_y
_atom_site_fract_z
Si Si1 0.926209 0.169547 0.928935
Si Si2 0.851559 0.821137 0.156166
Si Si3 0.904468 0.819231 0.661602
Si Si4 0.959980 0.677837 0.187922
Si Si5 0.222428 0.320588 0.567828
Si Si6 0.247129 0.320340 0.833489
O O1 0.894985 0.216124 0.774507
O O2 0.904916 0.000000 0.929005
O O3 0.925339 0.275951 0.029071
O O4 0.000000 0.159345 0.000000
O O5 0.916714 0.739932 0.221856
O O6 0.814129 0.762044 0.205976
O O7 0.860329 0.000000 0.173023
O O8 0.804612 0.785312 0.992024
O O9 0.848363 0.740975 0.521003
O O10 0.972291 0.757922 0.721904
O O11 0.902958 0.000000 0.650316
O O12 0.967651 0.500000 0.204016
O O13 0.222881 0.500000 0.558189
O O14 0.250000 0.250000 0.500000
O O15 0.258469 0.280209 0.726834
O O16 0.236753 0.500000 0.824676
#
# Coordination Sequence:
#
# PCOD9201616 Si02
#       6
#     8   8   8   8   8   8
#     4   8  16  31  50  74 109 150 188 232 285 336
#     4  10  20  37  63  89 116 152 195 242 294 349
#     4  10  21  38  57  81 116 156 197 243 292 345
#     4  11  21  33  55  87 119 151 192 242 294 350
#     4  11  24  41  61  87 120 159 198 238 289 351
#     4   9  21  41  61  85 118 154 194 243 293 341
#
# _framework density 20.150362000000001
#
# number of rings (size 3 to 8) (size 9 to 14) (size 15 to 20)
#    0.000    2.167    0.000    4.000    2.333    5.667 
#    0.000    0.833    0.000    5.000    0.000    0.000 
#    0.000    0.000    0.000    0.000    0.000    0.000 
#
# Total GULP energy -134068.127219 kJ/mol
# GULP energy per Si atom -5586.171967 kJ/mol
# Density = 2.010450 g / cm^3
# Si number density = 20.150362 Si / 1000 Ang^3
#
#
#
# Elastic Constant Matrix: (Units=GPa)
#
#
# Indices 1 2 3 4 5 6 
#
# 1 109.9539 42.2786 14.5420 0.0000 -11.7200 0.0000
# 2 42.2786 55.0033 17.3606 0.0000 -7.7563 0.0000
# 3 14.5420 17.3606 61.2378 0.0000 -9.3277 0.0000
# 4 0.0000 0.0000 0.0000 22.5617 0.0000 -0.9979
# 5 -11.7200 -7.7563 -9.3277 0.0000 23.0138 0.0000
# 6 0.0000 0.0000 0.0000 -0.9979 0.0000 34.3413
#
#
#
# Elastic Compliance Matrix: (Units=1/GPa)
#
#
# Indices 1 2 3 4 5 6 
#
# 1 0.013169 -0.009675 0.000150 0.000000 0.003506 0.000000
# 2 -0.009675 0.027570 -0.005173 0.000000 0.002268 0.000000
# 3 0.000150 -0.005173 0.018659 0.000000 0.005895 0.000000
# 4 0.000000 0.000000 0.000000 0.044380 0.000000 0.001290
# 5 0.003506 0.002268 0.005895 0.000000 0.048392 0.000000
# 6 0.000000 0.000000 0.000000 0.001290 0.000000 0.029157
#
#
# Mechanical properties :
#
#
# Convention : Reuss Voigt Hill
#
# Bulk Modulus (GPa) = 33.33226 41.61747 37.47487
# Shear Modulus (GPa) = 22.65280 26.11761 24.38521
#
# Velocity S-wave (km/s) = 3.35653 3.60409 3.48251
# Velocity P-wave (km/s) = 5.62133 6.16584 5.89987
#
# Compressibility (1/GPa) = 0.03000096
#
# Stress axis : x y z
#
# Youngs Moduli (GPa) = 75.93678 36.27118 53.59426
#
# Poissons Ratio (x) = 0.35093 -0.00803
# Poissons Ratio (y) = 0.73470 0.27724
# Poissons Ratio (z) = -0.01137 0.18763
#
# Static dielectric constant tensor:
#      x y z
#    x 1.729620 0.000000 0.009690 
#    y 0.000000 1.665080 0.000000 
#    z 0.009690 0.000000 1.759280 
# 
# From -- ./inp_files/180244.got.cif
#   From: 2010.05.17/outbox.cif.g08.bks.cpg/sg12_91_cif.got.tgz:180244.got - 2010.06.03 13:09:07.
