data_PCOD9201587
_publ_section_title
;
Structure prediction by ZEFSAII (Michael W. Deem and Ramdas Pophale) SiO2 
 PCOD9201587
Probable space group: C 2/M
;
_chemical_formula_sum "Si O2"
_cell_formula_units_Z 56
_cell_length_a 14.069498
_cell_length_b 20.108184
_cell_length_c 18.931570
_cell_angle_alpha 90.000000
_cell_angle_beta 30.508003
_cell_angle_gamma 90.000000
_cell_volume 2719.004495
_symmetry_space_group_name_H-M "C 2/M"
_symmetry_group_IT_number 12
_symmetry_cell_setting 'monoclinic'
loop_
_space_group_symop_operation_xyz
x,y,z
-x,y,-z
-x,-y,-z
x,-y,z
1/2+x,1/2+y,z
1/2-x,1/2+y,-z
1/2-x,1/2-y,-z
1/2+x,1/2-y,z
loop_
_atom_site_type_symbol
_atom_site_label
_atom_site_fract_x
_atom_site_fract_y
_atom_site_fract_z
Si Si1 0.722499 0.922991 0.369979
Si Si2 0.201442 0.077346 0.835444
Si Si3 0.785124 0.813351 0.818142
Si Si4 0.645818 0.500000 0.504005
Si Si5 0.278106 0.000000 0.257249
Si Si6 0.197639 0.859702 0.536626
Si Si7 0.500635 0.137488 0.105251
Si Si8 0.552368 0.821842 0.234433
O O1 0.500000 0.923698 0.500000
O O2 0.810760 0.902939 0.238701
O O3 0.768425 0.871395 0.402150
O O4 0.779235 0.000000 0.350660
O O5 0.348619 0.119957 0.784658
O O6 0.259731 0.000000 0.798608
O O7 0.000000 0.083332 0.000000
O O8 0.639739 0.812485 0.846246
O O9 0.984352 0.838305 0.662785
O O10 0.824780 0.743427 0.830263
O O11 0.690065 0.860807 0.937801
O O12 0.709653 0.500000 0.382078
O O13 0.419622 0.500000 0.657289
O O14 0.723114 0.433032 0.487916
O O15 0.400018 0.934132 0.166259
O O16 0.347550 0.813897 0.400881
O O17 0.534078 0.159128 0.164195
#
# Coordination Sequence:
#
# PCOD9201587 Si02
#       8
#     8   8   8   4   4   8   8   8
#     4  10  20  37  62  95 133 168 215 278 339 397
#     4  10  24  42  64 100 135 175 227 286 346 407
#     4  11  28  47  64 101 142 180 233 282 340 422
#     4  11  22  39  71 109 137 181 230 293 363 409
#     4  11  22  44  75 106 139 180 231 301 353 410
#     4  12  23  42  68 103 135 183 230 287 347 415
#     4  11  26  47  73 102 139 182 232 290 351 410
#     4  12  26  45  73  95 136 189 232 280 345 426
#
# _framework density 20.595772
#
# number of rings (size 3 to 8) (size 9 to 14) (size 15 to 20)
#    0.000    1.000    5.000    0.857    6.000    3.429 
#    0.000    0.000    0.000    0.000    0.000    0.000 
#    0.000    0.000    0.000    0.000    0.000    0.000 
#
# Total GULP energy -156531.407355 kJ/mol
# GULP energy per Si atom -5590.407406 kJ/mol
# Density = 2.054890 g / cm^3
# Si number density = 20.595772 Si / 1000 Ang^3
#
#
#
# Elastic Constant Matrix: (Units=GPa)
#
#
# Indices 1 2 3 4 5 6 
#
# 1 64.0328 12.0369 10.8711 0.0492 16.0005 0.0613
# 2 12.0369 54.9104 15.4033 -0.0188 -5.0058 0.0699
# 3 10.8711 15.4033 92.8217 0.0443 7.5357 0.1118
# 4 0.0492 -0.0188 0.0443 16.0711 -0.0251 -14.6754
# 5 16.0005 -5.0058 7.5357 -0.0251 37.7921 -0.0447
# 6 0.0613 0.0699 0.1118 -14.6754 -0.0447 31.1015
#
#
#
# Elastic Compliance Matrix: (Units=1/GPa)
#
#
# Indices 1 2 3 4 5 6 
#
# 1 0.018716 -0.004661 -0.000737 -0.000187 -0.008395 -0.000124
# 2 -0.004661 0.020654 -0.003318 0.000070 0.005371 0.000015
# 3 -0.000737 -0.003318 0.011609 -0.000124 -0.002442 -0.000095
# 4 -0.000187 0.000070 -0.000124 0.109336 0.000247 0.051592
# 5 -0.008395 0.005371 -0.002442 0.000247 0.031214 0.000175
# 6 -0.000124 0.000015 -0.000095 0.051592 0.000175 0.056498
#
#
# Mechanical properties :
#
#
# Convention : Reuss Voigt Hill
#
# Bulk Modulus (GPa) = 29.80866 32.04307 30.92587
# Shear Modulus (GPa) = 18.07407 28.55651 23.31529
#
# Velocity S-wave (km/s) = 2.96558 3.72764 3.36823
# Velocity P-wave (km/s) = 5.12161 5.84114 5.49317
#
# Compressibility (1/GPa) = 0.03354730
#
# Stress axis : x y z
#
# Youngs Moduli (GPa) = 53.42939 48.41784 86.14290
#
# Poissons Ratio (x) = 0.22569 0.06346
# Poissons Ratio (y) = 0.24905 0.28578
# Poissons Ratio (z) = 0.03936 0.16063
#
# Static dielectric constant tensor:
#      x y z
#    x 1.713830 0.000000 -0.003570 
#    y 0.000000 1.735690 0.000010 
#    z -0.003570 0.000010 1.729860 
# 
# From -- ./inp_files/272384.got.cif
#   From: 2010.05.17/outbox.cif.g08.bks.cpg/sg12_137_cif.got.tgz:272384.got - 2010.06.03 13:09:07.
