data_PCOD9201654
_publ_section_title
;
Structure prediction by ZEFSAII (Michael W. Deem and Ramdas Pophale) SiO2 
 PCOD9201654
Probable space group: C 2/M
;
_chemical_formula_sum "Si O2"
_cell_formula_units_Z 48
_cell_length_a 31.062487
_cell_length_b 7.657532
_cell_length_c 19.246710
_cell_angle_alpha 90.000000
_cell_angle_beta 32.780147
_cell_angle_gamma 90.000000
_cell_volume 2478.639533
_symmetry_space_group_name_H-M "C 2/M"
_symmetry_group_IT_number 12
_symmetry_cell_setting 'monoclinic'
loop_
_space_group_symop_operation_xyz
x,y,z
-x,y,-z
-x,-y,-z
x,-y,z
1/2+x,1/2+y,z
1/2-x,1/2+y,-z
1/2-x,1/2-y,-z
1/2+x,1/2-y,z
loop_
_atom_site_type_symbol
_atom_site_label
_atom_site_fract_x
_atom_site_fract_y
_atom_site_fract_z
Si Si1 0.224584 0.296850 0.820354
Si Si2 0.700783 0.293340 0.135602
Si Si3 0.134681 0.288413 0.474995
Si Si4 0.018213 0.707776 0.398399
Si Si5 0.840388 0.292520 0.397901
Si Si6 0.388077 0.500000 0.085148
Si Si7 0.575514 0.500000 0.804303
O O1 0.199457 0.500000 0.860536
O O2 0.257180 0.229381 0.850673
O O3 0.297655 0.285635 0.667135
O O4 0.156294 0.169741 0.884986
O O5 0.698548 0.500000 0.146119
O O6 0.609480 0.235156 0.254899
O O7 0.750000 0.250000 0.000000
O O8 0.140300 0.500000 0.462154
O O9 0.147624 0.244948 0.537626
O O10 0.048431 0.228574 0.564726
O O11 0.006379 0.500000 0.418116
O O12 0.000000 0.780266 0.500000
O O13 0.855150 0.500000 0.369263
O O14 0.750000 0.250000 0.500000
O O15 0.895728 0.171146 0.275786
O O16 0.384307 0.500000 0.174028
O O17 0.480778 0.500000 0.940518
#
# Coordination Sequence:
#
# PCOD9201654 Si02
#       7
#     8   8   8   8   8   4   4
#     4  11  24  41  68  97 126 174 224 262 325 399
#     4  11  25  41  61  92 129 172 222 271 324 391
#     4  10  21  38  64  96 131 172 214 271 336 389
#     4  10  20  37  63  91 127 168 214 271 327 384
#     4  11  23  41  66  99 138 167 213 275 328 392
#     4  11  26  46  70  91 137 172 219 269 324 400
#     4  11  26  46  66 102 128 174 218 265 336 394
#
# _framework density 19.365462999999998
#
# number of rings (size 3 to 8) (size 9 to 14) (size 15 to 20)
#    0.000    1.333    3.333    1.500    3.500    5.000 
#    0.000    5.000    0.000    0.000    0.000    0.000 
#    0.000    0.000    0.000    0.000    0.000    0.000 
#
# Total GULP energy -134133.723484 kJ/mol
# GULP energy per Si atom -5588.905145 kJ/mol
# Density = 1.932139 g / cm^3
# Si number density = 19.365463 Si / 1000 Ang^3
#
#
#
# Elastic Constant Matrix: (Units=GPa)
#
#
# Indices 1 2 3 4 5 6 
#
# 1 197.8804 54.2362 81.8617 -0.0075 1.0780 0.0019
# 2 54.2362 79.6095 26.5257 -0.0163 3.6445 0.0102
# 3 81.8617 26.5257 116.8244 -0.0169 7.6398 0.0080
# 4 -0.0075 -0.0163 -0.0169 11.8701 0.0108 3.2706
# 5 1.0780 3.6445 7.6398 0.0108 34.0627 -0.0027
# 6 0.0019 0.0102 0.0080 3.2706 -0.0027 27.4692
#
#
#
# Elastic Compliance Matrix: (Units=1/GPa)
#
#
# Indices 1 2 3 4 5 6 
#
# 1 0.008167 -0.003989 -0.004900 -0.000009 0.001267 0.000004
# 2 -0.003989 0.015558 -0.000646 0.000021 -0.001394 -0.000008
# 3 -0.004900 -0.000646 0.012306 0.000017 -0.002536 -0.000005
# 4 -0.000009 0.000021 0.000017 0.087103 -0.000034 -0.010371
# 5 0.001267 -0.001394 -0.002536 -0.000034 0.030035 0.000008
# 6 0.000004 -0.000008 -0.000005 -0.010371 0.000008 0.037639
#
#
# Mechanical properties :
#
#
# Convention : Reuss Voigt Hill
#
# Bulk Modulus (GPa) = 58.96042 79.95129 69.45585
# Shear Modulus (GPa) = 23.19825 30.12644 26.66235
#
# Velocity S-wave (km/s) = 3.46485 3.94849 3.71455
# Velocity P-wave (km/s) = 6.82050 7.88432 7.37163
#
# Compressibility (1/GPa) = 0.01696053
#
# Stress axis : x y z
#
# Youngs Moduli (GPa) = 122.44083 64.27441 81.26176
#
# Poissons Ratio (x) = 0.25642 0.39818
# Poissons Ratio (y) = 0.48848 0.05249
# Poissons Ratio (z) = 0.59996 0.04152
#
# Static dielectric constant tensor:
#      x y z
#    x 1.683350 0.000000 0.001150 
#    y 0.000000 1.691190 0.000000 
#    z 0.001150 0.000000 1.607680 
# 
# From -- ./inp_files/295390.got.cif
#   From: 2010.05.17/outbox.cif.g08.bks.cpg/sg12_148_cif.got.tgz:295390.got - 2010.06.03 13:09:07.
