data_PCOD9201972
_publ_section_title
;
Structure prediction by ZEFSAII (Michael W. Deem and Ramdas Pophale) SiO2 
 PCOD9201972
Probable space group: C 2/M
;
_chemical_formula_sum "Si O2"
_cell_formula_units_Z 40
_cell_length_a 25.292741
_cell_length_b 11.304199
_cell_length_c 13.455655
_cell_angle_alpha 90.000000
_cell_angle_beta 29.334988
_cell_angle_gamma 90.000000
_cell_volume 1884.782227
_symmetry_space_group_name_H-M "C 2/M"
_symmetry_group_IT_number 12
_symmetry_cell_setting 'monoclinic'
loop_
_space_group_symop_operation_xyz
x,y,z
-x,y,-z
-x,-y,-z
x,-y,z
1/2+x,1/2+y,z
1/2-x,1/2+y,-z
1/2-x,1/2-y,-z
1/2+x,1/2-y,z
loop_
_atom_site_type_symbol
_atom_site_label
_atom_site_fract_x
_atom_site_fract_y
_atom_site_fract_z
Si Si1 0.447871 0.864103 0.903718
Si Si2 0.012003 0.253872 0.589624
Si Si3 0.802589 0.126279 0.949228
Si Si4 0.810532 0.632402 0.438191
Si Si5 0.252724 0.202840 0.747117
O O1 0.471266 0.831169 0.749778
O O2 0.560660 0.846835 0.776494
O O3 0.418360 0.000000 0.959302
O O4 0.349675 0.785985 0.103067
O O5 0.137189 0.227691 0.404761
O O6 0.000000 0.311865 0.500000
O O7 0.929975 0.144124 0.722748
O O8 0.765691 0.000000 0.966485
O O9 0.750000 0.250000 0.000000
O O10 0.777485 0.127158 0.107213
O O11 0.786433 0.500000 0.435660
O O12 0.750000 0.750000 0.500000
O O13 0.780264 0.630147 0.604373
#
# Coordination Sequence:
#
# PCOD9201972 Si02
#       5
#     8   8   8   8   8
#     4   9  21  38  61  91 124 160 205 254 303 367
#     4  10  20  38  54  88 122 164 208 251 301 354
#     4  11  23  39  58  87 122 163 208 251 300 359
#     4  10  22  43  67  93 123 158 204 254 312 371
#     4  10  21  41  61  88 125 165 203 254 308 361
#
# _framework density 21.222612000000002
#
# number of rings (size 3 to 8) (size 9 to 14) (size 15 to 20)
#    0.000    2.000    2.000    0.600    0.000    7.200 
#    0.000   12.000    0.000    0.000    0.000    0.000 
#    0.000    0.000    0.000    0.000    0.000    0.000 
#
# Total GULP energy -111539.561210 kJ/mol
# GULP energy per Si atom -5576.978060 kJ/mol
# Density = 2.117431 g / cm^3
# Si number density = 21.222612 Si / 1000 Ang^3
#
#
#
# Elastic Constant Matrix: (Units=GPa)
#
#
# Indices 1 2 3 4 5 6 
#
# 1 55.3432 48.2973 16.1614 0.0000 -12.6787 0.0000
# 2 48.2973 165.7736 38.0626 0.0000 -35.6499 0.0000
# 3 16.1614 38.0626 118.2582 0.0000 -27.5264 0.0000
# 4 0.0000 0.0000 0.0000 -6.8951 0.0000 -8.3634
# 5 -12.6787 -35.6499 -27.5264 0.0000 33.4528 0.0000
# 6 0.0000 0.0000 0.0000 -8.3634 0.0000 21.7241
#
#
#
# Elastic Compliance Matrix: (Units=1/GPa)
#
#
# Indices 1 2 3 4 5 6 
#
# 1 0.024420 -0.006589 -0.000862 0.000000 0.001525 0.000000
# 2 -0.006589 0.009653 -0.000486 0.000000 0.007389 0.000000
# 3 -0.000862 -0.000486 0.010555 0.000000 0.007840 0.000000
# 4 0.000000 0.000000 0.000000 -0.098864 0.000000 -0.038061
# 5 0.001525 0.007389 0.007840 0.000000 0.044797 0.000000
# 6 0.000000 0.000000 0.000000 -0.038061 0.000000 0.031379
#
#
# Mechanical properties :
#
#
# Convention : Reuss Voigt Hill
#
# Bulk Modulus (GPa) = 34.77779 60.49085 47.63432
# Shear Modulus (GPa) = 105.48921 25.44661 65.46791
#
# Velocity S-wave (km/s) = 7.05790 3.46646 5.56014
# Velocity P-wave (km/s) = 9.10172 6.67733 7.98211
#
# Compressibility (1/GPa) = 0.02875398
#
# Stress axis : x y z
#
# Youngs Moduli (GPa) = 40.94993 103.59767 94.73841
#
# Poissons Ratio (x) = 0.68260 0.08164
# Poissons Ratio (y) = 0.26982 0.04608
# Poissons Ratio (z) = 0.03529 0.05039
#
# Static dielectric constant tensor:
#      x y z
#    x 1.816010 0.000000 0.005440 
#    y 0.000000 1.772140 0.000000 
#    z 0.005440 0.000000 1.775080 
# 
# From -- ./inp_files/250346.got.cif
#   From: 2010.05.17/outbox.cif.g08.bks.cpg/sg12_126_cif.got.tgz:250346.got - 2010.06.03 13:09:07.
