data_PCOD9201767
_publ_section_title
;
Structure prediction by ZEFSAII (Michael W. Deem and Ramdas Pophale) SiO2 
 PCOD9201767
Probable space group: C 2/M
;
_chemical_formula_sum "Si O2"
_cell_formula_units_Z 40
_cell_length_a 8.474419
_cell_length_b 30.866379
_cell_length_c 15.185690
_cell_angle_alpha 90.000000
_cell_angle_beta 154.065118
_cell_angle_gamma 90.000000
_cell_volume 1737.235302
_symmetry_space_group_name_H-M "C 2/M"
_symmetry_group_IT_number 12
_symmetry_cell_setting 'monoclinic'
loop_
_space_group_symop_operation_xyz
x,y,z
-x,y,-z
-x,-y,-z
x,-y,z
1/2+x,1/2+y,z
1/2-x,1/2+y,-z
1/2-x,1/2-y,-z
1/2+x,1/2-y,z
loop_
_atom_site_type_symbol
_atom_site_label
_atom_site_fract_x
_atom_site_fract_y
_atom_site_fract_z
Si Si1 0.441093 0.500000 0.743866
Si Si2 0.936840 0.729117 0.716823
Si Si3 0.806994 0.069653 0.809156
Si Si4 0.208040 0.684324 0.182263
Si Si5 0.314779 0.500000 0.498661
Si Si6 0.038137 0.341216 0.415341
O O1 0.517715 0.542516 0.839811
O O2 0.583236 0.500000 0.716528
O O3 0.000000 0.500000 0.500000
O O4 0.500000 0.733297 0.500000
O O5 0.014806 0.705053 0.848492
O O6 0.053686 0.698508 0.694672
O O7 0.112587 0.774875 0.780537
O O8 0.701321 0.117835 0.729213
O O9 0.438415 0.042303 0.628468
O O10 0.000000 0.068255 0.000000
O O11 0.528834 0.654872 0.381490
O O12 0.000000 0.660351 0.000000
O O13 0.500000 0.500000 0.500000
O O14 0.000000 0.333600 0.500000
#
# Coordination Sequence:
#
# PCOD9201767 Si02
#       6
#     4   8   8   8   4   8
#     4   8  16  37  62  87 114 151 185 219 273 341
#     4  10  21  38  57  80 112 151 191 239 290 345
#     4  10  21  39  62  85 115 157 196 225 272 347
#     4  11  22  37  58  83 113 149 191 240 292 346
#     4  10  20  37  64  91 120 151 182 233 285 327
#     4  11  22  38  58  83 114 152 192 238 285 334
#
# _framework density 23.025092000000001
#
# number of rings (size 3 to 8) (size 9 to 14) (size 15 to 20)
#    0.000    2.000    0.000    7.800    0.000    4.800 
#    0.000    2.000    0.000    0.000    0.000    0.700 
#    0.000    0.000    0.000    0.000    0.000    0.000 
#
# Total GULP energy -111721.445245 kJ/mol
# GULP energy per Si atom -5586.072262 kJ/mol
# Density = 2.297269 g / cm^3
# Si number density = 23.025092 Si / 1000 Ang^3
#
#
#
# Elastic Constant Matrix: (Units=GPa)
#
#
# Indices 1 2 3 4 5 6 
#
# 1 139.0312 27.9701 32.8487 0.0000 -43.7527 0.0000
# 2 27.9701 91.2662 34.1317 0.0000 -13.5628 0.0000
# 3 32.8487 34.1317 92.0134 0.0000 -41.7203 0.0000
# 4 0.0000 0.0000 0.0000 14.4855 0.0000 22.7822
# 5 -43.7527 -13.5628 -41.7203 0.0000 49.3028 0.0000
# 6 0.0000 0.0000 0.0000 22.7822 0.0000 -104.6268
#
#
#
# Elastic Compliance Matrix: (Units=1/GPa)
#
#
# Indices 1 2 3 4 5 6 
#
# 1 0.010422 -0.002337 0.001701 0.000000 0.010045 0.000000
# 2 -0.002337 0.013266 -0.005472 0.000000 -0.003055 0.000000
# 3 0.001701 -0.005472 0.019945 0.000000 0.016882 0.000000
# 4 0.000000 0.000000 0.000000 0.051424 0.000000 0.011197
# 5 0.010045 -0.003055 0.016882 0.000000 0.042642 0.000000
# 6 0.000000 0.000000 0.000000 0.011197 0.000000 -0.007120
#
#
# Mechanical properties :
#
#
# Convention : Reuss Voigt Hill
#
# Bulk Modulus (GPa) = 31.83009 56.91242 44.37126
# Shear Modulus (GPa) = 32.62282 6.98968 19.80625
#
# Velocity S-wave (km/s) = 3.76817 1.74421 2.93610
# Velocity P-wave (km/s) = 5.72593 5.36913 5.55040
#
# Compressibility (1/GPa) = 0.03141681
#
# Stress axis : x y z
#
# Youngs Moduli (GPa) = 95.94892 75.38340 50.13848
#
# Poissons Ratio (x) = 0.17620 -0.08529
# Poissons Ratio (y) = 0.22427 0.27433
# Poissons Ratio (z) = -0.16322 0.41246
#
# Static dielectric constant tensor:
#      x y z
#    x 1.982380 0.000000 0.042000 
#    y 0.000000 1.877950 0.000000 
#    z 0.042000 0.000000 1.969680 
# 
# From -- ./inp_files/201428.got.cif
#   From: 2010.05.17/outbox.cif.g08.bks.cpg/sg12_101_cif.got.tgz:201428.got - 2010.06.03 13:09:07.
