data_PCOD9201695
_publ_section_title
;
Structure prediction by ZEFSAII (Michael W. Deem and Ramdas Pophale) SiO2 
 PCOD9201695
Probable space group: C 2/M
;
_chemical_formula_sum "Si O2"
_cell_formula_units_Z 48
_cell_length_a 11.959651
_cell_length_b 16.303870
_cell_length_c 26.665605
_cell_angle_alpha 90.000000
_cell_angle_beta 153.413898
_cell_angle_gamma 90.000000
_cell_volume 2326.990596
_symmetry_space_group_name_H-M "C 2/M"
_symmetry_group_IT_number 12
_symmetry_cell_setting 'monoclinic'
loop_
_space_group_symop_operation_xyz
x,y,z
-x,y,-z
-x,-y,-z
x,-y,z
1/2+x,1/2+y,z
1/2-x,1/2+y,-z
1/2-x,1/2-y,-z
1/2+x,1/2-y,z
loop_
_atom_site_type_symbol
_atom_site_label
_atom_site_fract_x
_atom_site_fract_y
_atom_site_fract_z
Si Si1 0.339630 0.909018 0.857923
Si Si2 0.000057 0.709893 0.621160
Si Si3 0.427868 0.845559 0.786516
Si Si4 0.798613 0.594211 0.625630
Si Si5 0.761424 0.288943 0.948966
Si Si6 0.388192 0.404732 0.741899
O O1 0.418873 0.901964 0.831994
O O2 0.048652 0.899160 0.755037
O O3 0.410569 0.000000 0.904884
O O4 0.477571 0.836453 0.942441
O O5 0.750000 0.750000 0.500000
O O6 0.938082 0.659716 0.646623
O O7 0.204896 0.781055 0.708427
O O8 0.130061 0.644011 0.636439
O O9 0.372883 0.890824 0.712922
O O10 0.678256 0.790040 0.883028
O O11 0.500000 0.606050 0.500000
O O12 0.855423 0.500000 0.633919
O O13 0.558454 0.358906 0.852435
O O14 0.750000 0.250000 0.000000
O O15 0.354821 0.500000 0.740649
#
# Coordination Sequence:
#
# PCOD9201695 Si02
#       6
#     8   8   8   8   8   8
#     4  10  20  37  63  93 127 162 204 259 315 374
#     4  11  23  40  62  89 121 161 210 260 312 373
#     4  10  22  38  63  93 123 166 213 256 306 375
#     4  11  23  41  64  89 123 168 212 258 318 380
#     4   9  19  35  57  92 124 163 206 252 302 371
#     4  10  21  38  61  90 124 162 202 256 320 376
#
# _framework density 20.627500999999999
#
# number of rings (size 3 to 8) (size 9 to 14) (size 15 to 20)
#    0.000    1.833    1.667    2.000    4.667    1.333 
#    3.000    0.000    0.000    2.000    0.000   10.500 
#    0.000    0.000    0.000    0.000    0.000    0.000 
#
# Total GULP energy -133838.549423 kJ/mol
# GULP energy per Si atom -5576.606226 kJ/mol
# Density = 2.058055 g / cm^3
# Si number density = 20.627501 Si / 1000 Ang^3
#
#
#
# Elastic Constant Matrix: (Units=GPa)
#
#
# Indices 1 2 3 4 5 6 
#
# 1 88.4219 33.8701 22.6252 0.0000 -1.7139 -0.0002
# 2 33.8701 98.2280 23.4766 0.0004 12.9003 0.0002
# 3 22.6252 23.4766 68.7030 0.0002 7.4913 0.0001
# 4 0.0000 0.0004 0.0002 15.5161 -0.0003 3.7967
# 5 -1.7139 12.9003 7.4913 -0.0003 34.4985 -0.0004
# 6 -0.0002 0.0002 0.0001 3.7967 -0.0004 38.5033
#
#
#
# Elastic Compliance Matrix: (Units=1/GPa)
#
#
# Indices 1 2 3 4 5 6 
#
# 1 0.013925 -0.004388 -0.003422 0.000000 0.003076 0.000000
# 2 -0.004388 0.012873 -0.002463 0.000000 -0.004497 0.000000
# 3 -0.003422 -0.002463 0.016841 0.000000 -0.002906 0.000000
# 4 0.000000 0.000000 0.000000 0.066043 0.000001 -0.006512
# 5 0.003076 -0.004497 -0.002906 0.000001 0.031452 0.000000
# 6 0.000000 0.000000 0.000000 -0.006512 0.000000 0.026614
#
#
# Mechanical properties :
#
#
# Convention : Reuss Voigt Hill
#
# Bulk Modulus (GPa) = 43.30361 46.14410 44.72386
# Shear Modulus (GPa) = 25.51135 29.39565 27.45350
#
# Velocity S-wave (km/s) = 3.52058 3.77911 3.65213
# Velocity P-wave (km/s) = 6.12901 6.43902 6.28592
#
# Compressibility (1/GPa) = 0.02309276
#
# Stress axis : x y z
#
# Youngs Moduli (GPa) = 71.81160 77.68418 59.37908
#
# Poissons Ratio (x) = 0.34085 0.20319
# Poissons Ratio (y) = 0.31509 0.14628
# Poissons Ratio (z) = 0.24573 0.19137
#
# Static dielectric constant tensor:
#      x y z
#    x 1.822320 0.000000 0.043920 
#    y 0.000000 1.736190 0.000000 
#    z 0.043920 0.000000 1.755500 
# 
# From -- ./inp_files/358502.got.cif
#   From: 2010.05.17/outbox.cif.g08.bks.cpg/sg12_180_cif.got.tgz:358502.got - 2010.06.03 13:09:07.
