data_PCOD9201130
_publ_section_title
;
Structure prediction by ZEFSAII (Michael W. Deem and Ramdas Pophale) SiO2 
 PCOD9201130
Probable space group: C 2/M
;
_chemical_formula_sum "Si O2"
_cell_formula_units_Z 56
_cell_length_a 11.609314
_cell_length_b 25.311725
_cell_length_c 10.844584
_cell_angle_alpha 90.000000
_cell_angle_beta 69.643261
_cell_angle_gamma 90.000000
_cell_volume 2987.674490
_symmetry_space_group_name_H-M "C 2/M"
_symmetry_group_IT_number 12
_symmetry_cell_setting 'monoclinic'
loop_
_space_group_symop_operation_xyz
x,y,z
-x,y,-z
-x,-y,-z
x,-y,z
1/2+x,1/2+y,z
1/2-x,1/2+y,-z
1/2-x,1/2-y,-z
1/2+x,1/2-y,z
loop_
_atom_site_type_symbol
_atom_site_label
_atom_site_fract_x
_atom_site_fract_y
_atom_site_fract_z
Si Si1 0.667179 0.057617 0.781505
Si Si2 0.460597 0.561926 0.654694
Si Si3 0.031779 0.857653 0.847548
Si Si4 0.632666 0.160282 0.936044
Si Si5 0.665458 0.730857 0.148172
Si Si6 0.031591 0.557768 0.346069
Si Si7 0.311766 0.843889 0.803206
O O1 0.612013 0.105472 0.877328
O O2 0.596473 0.059204 0.679234
O O3 0.812671 0.064237 0.714908
O O4 0.644224 0.000000 0.847435
O O5 0.500000 0.577231 0.500000
O O6 0.497368 0.500000 0.658842
O O7 0.508641 0.599291 0.747909
O O8 0.174898 0.842780 0.800869
O O9 0.946380 0.806475 0.850141
O O10 0.000000 0.876025 0.000000
O O11 0.732919 0.194037 0.824091
O O12 0.500000 0.187802 0.000000
O O13 0.688383 0.146887 0.048975
O O14 0.631385 0.784856 0.229554
O O15 0.750000 0.750000 0.000000
O O16 0.089795 0.500000 0.295246
O O17 0.000000 0.559487 0.500000
O O18 0.113058 0.607815 0.280396
#
# Coordination Sequence:
#
# PCOD9201130 Si02
#       7
#     8   8   8   8   8   8   8
#     4  10  20  37  61  86 116 157 203 251 305 371
#     4  10  23  42  64  90 126 171 209 253 316 379
#     4  12  22  40  64  97 126 164 213 260 313 372
#     4  11  20  35  60  88 119 156 194 247 308 362
#     4  10  22  37  59  89 124 160 198 249 306 380
#     4  10  23  42  62  86 119 160 209 258 306 366
#     4  11  24  36  62  93 121 159 203 255 312 367
#
# _framework density 18.743676000000001
#
# number of rings (size 3 to 8) (size 9 to 14) (size 15 to 20)
#    0.000    1.429    5.714    0.000    6.000    1.714 
#    0.000    0.714    0.000    2.571    0.000    0.000 
#    0.000    0.000    0.000    0.000    0.000    0.000 
#
# Total GULP energy -156021.242290 kJ/mol
# GULP energy per Si atom -5572.187225 kJ/mol
# Density = 1.870101 g / cm^3
# Si number density = 18.743676 Si / 1000 Ang^3
#
#
#
# Elastic Constant Matrix: (Units=GPa)
#
#
# Indices 1 2 3 4 5 6 
#
# 1 113.1537 41.3762 25.0334 0.0000 22.4541 0.0000
# 2 41.3762 125.9544 58.5197 0.0000 23.5783 0.0000
# 3 25.0334 58.5197 71.5447 0.0000 18.6727 0.0000
# 4 0.0000 0.0000 0.0000 -22.4034 0.0000 -51.2701
# 5 22.4541 23.5783 18.6727 0.0000 16.3901 0.0000
# 6 0.0000 0.0000 0.0000 -51.2701 0.0000 -19.2778
#
#
#
# Elastic Compliance Matrix: (Units=1/GPa)
#
#
# Indices 1 2 3 4 5 6 
#
# 1 0.012322 -0.001610 0.001148 0.000000 -0.015873 0.000000
# 2 -0.001610 0.014080 -0.008884 0.000000 -0.007928 0.000000
# 3 0.001148 -0.008884 0.025499 0.000000 -0.017843 0.000000
# 4 0.000000 0.000000 0.000000 0.008776 0.000000 -0.023339
# 5 -0.015873 -0.007928 -0.017843 0.000000 0.114491 0.000000
# 6 0.000000 0.000000 0.000000 -0.023339 0.000000 0.010198
#
#
# Mechanical properties :
#
#
# Convention : Reuss Voigt Hill
#
# Bulk Modulus (GPa) = 30.11206 62.27903 46.19555
# Shear Modulus (GPa) = 23.24193 7.32336 15.28264
#
# Velocity S-wave (km/s) = 3.52517 1.97878 2.85853
# Velocity P-wave (km/s) = 5.71569 6.20642 5.96610
#
# Compressibility (1/GPa) = 0.03320928
#
# Stress axis : x y z
#
# Youngs Moduli (GPa) = 81.15543 71.02249 39.21692
#
# Poissons Ratio (x) = 0.11433 -0.04502
# Poissons Ratio (y) = 0.13064 0.34841
# Poissons Ratio (z) = -0.09317 0.63098
#
# Static dielectric constant tensor:
#      x y z
#    x 1.684570 0.000000 -0.001870 
#    y 0.000000 1.751480 0.000000 
#    z -0.001870 0.000000 1.635760 
# 
# From -- ./inp_files/133177.got.cif
#   From: 2010.05.17/outbox.cif.g08.bks.cpg/sg12_67_cif.got.tgz:133177.got - 2010.06.03 13:09:07.
