data_PCOD9201795
_publ_section_title
;
Structure prediction by ZEFSAII (Michael W. Deem and Ramdas Pophale) SiO2 
 PCOD9201795
Probable space group: C 2/M
;
_chemical_formula_sum "Si O2"
_cell_formula_units_Z 64
_cell_length_a 22.750747
_cell_length_b 13.877679
_cell_length_c 16.968293
_cell_angle_alpha 90.000000
_cell_angle_beta 150.750370
_cell_angle_gamma 90.000000
_cell_volume 2617.688640
_symmetry_space_group_name_H-M "C 2/M"
_symmetry_group_IT_number 12
_symmetry_cell_setting 'monoclinic'
loop_
_space_group_symop_operation_xyz
x,y,z
-x,y,-z
-x,-y,-z
x,-y,z
1/2+x,1/2+y,z
1/2-x,1/2+y,-z
1/2-x,1/2-y,-z
1/2+x,1/2-y,z
loop_
_atom_site_type_symbol
_atom_site_label
_atom_site_fract_x
_atom_site_fract_y
_atom_site_fract_z
Si Si1 0.938601 0.818067 0.677330
Si Si2 0.190735 0.885030 0.898789
Si Si3 0.495370 0.101261 0.892048
Si Si4 0.713131 0.742436 0.771435
Si Si5 0.400610 0.894736 0.276387
Si Si6 0.224078 0.896759 0.639971
Si Si7 0.603776 0.103933 0.391701
Si Si8 0.453421 0.682805 0.028947
O O1 0.857908 0.889356 0.533021
O O2 0.864116 0.716813 0.580392
O O3 0.072435 0.828893 0.794845
O O4 0.962544 0.838651 0.797849
O O5 0.230521 0.834812 0.863221
O O6 0.164408 0.000000 0.857579
O O7 0.298171 0.879029 0.088519
O O8 0.359781 0.105984 0.765860
O O9 0.486658 0.098897 0.788336
O O10 0.552951 0.200213 0.984163
O O11 0.552043 0.000000 0.983302
O O12 0.602275 0.804868 0.670344
O O13 0.699891 0.687223 0.673906
O O14 0.813531 0.828814 0.883101
O O15 0.527866 0.897943 0.381814
O O16 0.378838 0.000000 0.286875
O O17 0.200260 0.000000 0.650808
O O18 0.673277 0.000000 0.468380
O O19 0.500000 0.644522 0.000000
#
# Coordination Sequence:
#
# PCOD9201795 Si02
#       8
#     8   8   8   8   8   8   8   8
#     4  11  22  40  64  88 131 172 209 257 314 385
#     4  11  21  35  61  93 128 169 210 261 312 376
#     4   9  19  36  58  90 126 160 207 262 316 371
#     4  12  22  40  62  94 130 166 214 262 318 374
#     4  10  20  37  64  94 123 160 212 271 322 368
#     4  11  25  42  62  93 132 173 209 257 320 386
#     4   9  18  35  61  90 116 154 212 265 312 364
#     4  11  22  38  64  97 122 162 210 263 320 375
#
# _framework density 24.449051000000001
#
# number of rings (size 3 to 8) (size 9 to 14) (size 15 to 20)
#    0.000    1.500    3.750    2.625    0.000    4.750 
#    0.000    1.875    0.000    4.875    0.000    0.000 
#    0.000    0.000    0.000    0.000    0.000    0.000 
#
# Total GULP energy -178573.016651 kJ/mol
# GULP energy per Si atom -5580.406770 kJ/mol
# Density = 2.439340 g / cm^3
# Si number density = 24.449051 Si / 1000 Ang^3
#
#
#
# Elastic Constant Matrix: (Units=GPa)
#
#
# Indices 1 2 3 4 5 6 
#
# 1 130.9081 29.0826 28.2163 0.0000 -25.8858 0.0000
# 2 29.0826 96.8961 17.9966 0.0000 -13.5388 0.0000
# 3 28.2163 17.9966 69.4675 0.0000 -24.2665 0.0000
# 4 0.0000 0.0000 0.0000 16.6123 0.0000 -0.8091
# 5 -25.8858 -13.5388 -24.2665 0.0000 25.0414 0.0000
# 6 0.0000 0.0000 0.0000 -0.8091 0.0000 10.8347
#
#
#
# Elastic Compliance Matrix: (Units=1/GPa)
#
#
# Indices 1 2 3 4 5 6 
#
# 1 0.009853 -0.001632 -0.000498 0.000000 0.008820 0.000000
# 2 -0.001632 0.011499 -0.001109 0.000000 0.003455 0.000000
# 3 -0.000498 -0.001109 0.021914 0.000000 0.020121 0.000000
# 4 0.000000 0.000000 0.000000 0.060416 0.000000 0.004511
# 5 0.008820 0.003455 0.020121 0.000000 0.070417 0.000000
# 6 0.000000 0.000000 0.000000 0.004511 0.000000 0.092633
#
#
# Mechanical properties :
#
#
# Convention : Reuss Voigt Hill
#
# Bulk Modulus (GPa) = 27.18425 49.76251 38.47338
# Shear Modulus (GPa) = 17.51481 25.29610 21.40545
#
# Velocity S-wave (km/s) = 2.67943 3.22008 2.96212
# Velocity P-wave (km/s) = 4.55141 5.85004 5.24110
#
# Compressibility (1/GPa) = 0.03678600
#
# Stress axis : x y z
#
# Youngs Moduli (GPa) = 101.49150 86.96409 45.63394
#
# Poissons Ratio (x) = 0.14196 0.02274
# Poissons Ratio (y) = 0.16568 0.05061
# Poissons Ratio (z) = 0.05057 0.09645
#
# Static dielectric constant tensor:
#      x y z
#    x 2.044930 0.000000 0.070370 
#    y 0.000000 2.002980 0.000000 
#    z 0.070370 0.000000 1.963510 
# 
# From -- ./inp_files/290149.got.cif
#   From: 2010.05.17/outbox.cif.g08.bks.cpg/sg12_146_cif.got.tgz:290149.got - 2010.06.03 13:09:07.
