data_PCOD9201401
_publ_section_title
;
Structure prediction by ZEFSAII (Michael W. Deem and Ramdas Pophale) SiO2 
 PCOD9201401
Probable space group: C 2/M
;
_chemical_formula_sum "Si O2"
_cell_formula_units_Z 56
_cell_length_a 29.186777
_cell_length_b 12.656095
_cell_length_c 7.747778
_cell_angle_alpha 90.000000
_cell_angle_beta 67.667466
_cell_angle_gamma 90.000000
_cell_volume 2647.292925
_symmetry_space_group_name_H-M "C 2/M"
_symmetry_group_IT_number 12
_symmetry_cell_setting 'monoclinic'
loop_
_space_group_symop_operation_xyz
x,y,z
-x,y,-z
-x,-y,-z
x,-y,z
1/2+x,1/2+y,z
1/2-x,1/2+y,-z
1/2-x,1/2-y,-z
1/2+x,1/2-y,z
loop_
_atom_site_type_symbol
_atom_site_label
_atom_site_fract_x
_atom_site_fract_y
_atom_site_fract_z
Si Si1 0.441788 0.000000 0.292883
Si Si2 0.298393 0.319686 0.464754
Si Si3 0.316731 0.322467 0.055947
Si Si4 0.244643 0.609066 0.864114
Si Si5 0.988198 0.121382 0.315096
Si Si6 0.942089 0.500000 0.871467
Si Si7 0.418915 0.763997 0.915898
Si Si8 0.598832 0.775782 0.648505
O O1 0.499613 0.000000 0.254751
O O2 0.417394 0.108640 0.391520
O O3 0.438387 0.000000 0.087305
O O4 0.250000 0.250000 0.500000
O O5 0.314070 0.365920 0.255875
O O6 0.280422 0.390137 0.647543
O O7 0.344092 0.249669 0.465413
O O8 0.293160 0.205067 0.094873
O O9 0.280336 0.380741 0.977698
O O10 0.372918 0.305699 0.912815
O O11 0.215648 0.500000 0.911859
O O12 0.030411 0.198312 0.176433
O O13 0.000000 0.115228 0.500000
O O14 0.936395 0.182383 0.367673
O O15 0.987862 0.000000 0.247333
O O16 0.921862 0.384780 0.841919
O O17 0.408340 0.775604 0.134479
#
# Coordination Sequence:
#
# PCOD9201401 Si02
#       8
#     4   8   8   8   8   4   8   8
#     4   9  16  32  58  88 112 146 184 236 305 354
#     4   9  20  40  60  87 122 159 201 251 300 362
#     4   9  21  39  60  88 124 153 203 254 300 362
#     4  10  21  38  63  87 120 163 201 251 306 357
#     4  11  25  40  56  82 120 163 202 244 295 357
#     4   9  16  30  58  88 112 142 184 240 299 357
#     4  10  20  37  62  88 115 152 196 246 298 365
#     4  10  20  38  63  86 119 152 198 248 301 361
#
# _framework density 21.153683999999998
#
# number of rings (size 3 to 8) (size 9 to 14) (size 15 to 20)
#    0.000    2.286    1.429    0.429    3.000    2.857 
#    7.714    4.286    6.286    0.000    0.000    0.000 
#    0.000    0.000    0.000    0.000    0.000    0.000 
#
# Total GULP energy -156173.454805 kJ/mol
# GULP energy per Si atom -5577.623386 kJ/mol
# Density = 2.110554 g / cm^3
# Si number density = 21.153684 Si / 1000 Ang^3
#
#
#
# Elastic Constant Matrix: (Units=GPa)
#
#
# Indices 1 2 3 4 5 6 
#
# 1 84.9733 16.3097 7.8054 0.0000 -26.8851 0.0000
# 2 16.3097 128.6144 10.5581 0.0000 -17.1381 0.0000
# 3 7.8054 10.5581 25.8100 0.0000 -1.8706 0.0000
# 4 0.0000 0.0000 0.0000 -77.3500 0.0000 13.4447
# 5 -26.8851 -17.1381 -1.8706 0.0000 33.5714 0.0000
# 6 0.0000 0.0000 0.0000 13.4447 0.0000 -50.0904
#
#
#
# Elastic Compliance Matrix: (Units=1/GPa)
#
#
# Indices 1 2 3 4 5 6 
#
# 1 0.016156 -0.000032 -0.003952 0.000000 0.012702 0.000000
# 2 -0.000032 0.008600 -0.003205 0.000000 0.004186 0.000000
# 3 -0.003952 -0.003205 0.041069 0.000000 -0.002513 0.000000
# 4 0.000000 0.000000 0.000000 -0.013561 0.000000 -0.003640
# 5 0.012702 0.004186 -0.002513 0.000000 0.041957 0.000000
# 6 0.000000 0.000000 0.000000 -0.003640 0.000000 -0.020941
#
#
# Mechanical properties :
#
#
# Convention : Reuss Voigt Hill
#
# Bulk Modulus (GPa) = 19.43747 34.30490 26.87118
# Shear Modulus (GPa) = 47.70644 -5.12549 21.29048
#
# Velocity S-wave (km/s) = 4.75408 -1.55828 3.17593
# Velocity P-wave (km/s) = 6.27245 3.60757 5.11655
#
# Compressibility (1/GPa) = 0.05144704
#
# Stress axis : x y z
#
# Youngs Moduli (GPa) = 61.89483 116.27701 24.34934
#
# Poissons Ratio (x) = 0.00369 0.09624
# Poissons Ratio (y) = 0.00197 0.07804
# Poissons Ratio (z) = 0.24463 0.37267
#
# Static dielectric constant tensor:
#      x y z
#    x 1.752880 0.000000 0.022930 
#    y 0.000000 1.754850 0.000000 
#    z 0.022930 0.000000 1.786010 
# 
# From -- ./inp_files/109893.got.cif
#   From: 2010.05.17/outbox.cif.g08.bks.cpg/sg12_55_cif.got.tgz:109893.got - 2010.06.03 13:09:07.
