data_PCOD9201027
_publ_section_title
;
Structure prediction by ZEFSAII (Michael W. Deem and Ramdas Pophale) SiO2 
 PCOD9201027
Probable space group: C 2/M
;
_chemical_formula_sum "Si O2"
_cell_formula_units_Z 58
_cell_length_a 29.006982
_cell_length_b 7.534716
_cell_length_c 11.906431
_cell_angle_alpha 90.000000
_cell_angle_beta 98.428675
_cell_angle_gamma 90.000000
_cell_volume 2574.155298
_symmetry_space_group_name_H-M "C 2/M"
_symmetry_group_IT_number 12
_symmetry_cell_setting 'monoclinic'
loop_
_space_group_symop_operation_xyz
x,y,z
-x,y,-z
-x,-y,-z
x,-y,z
1/2+x,1/2+y,z
1/2-x,1/2+y,-z
1/2-x,1/2-y,-z
1/2+x,1/2-y,z
loop_
_atom_site_type_symbol
_atom_site_label
_atom_site_fract_x
_atom_site_fract_y
_atom_site_fract_z
Si Si1 0.854715 0.210987 0.521487
Si Si2 0.043016 0.701140 0.657430
Si Si3 0.500000 0.500000 0.500000
Si Si4 0.556620 0.293789 0.309144
Si Si5 0.116057 0.290495 0.867639
Si Si6 0.810048 0.785724 0.279080
Si Si7 0.116025 0.283477 0.121584
Si Si8 0.206302 0.713139 0.292398
O O1 0.900426 0.280207 0.601945
O O2 0.842260 0.279495 0.393970
O O3 0.811036 0.240215 0.589081
O O4 0.861381 0.000000 0.517154
O O5 0.055275 0.500000 0.626831
O O6 0.078768 0.774185 0.763128
O O7 0.991740 0.696025 0.694918
O O8 0.036354 0.841849 0.556820
O O9 0.545172 0.500000 0.339624
O O10 0.576161 0.287303 0.190040
O O11 0.107086 0.500000 0.872445
O O12 0.166419 0.263735 0.829668
O O13 0.112063 0.221129 0.992237
O O14 0.757499 0.720876 0.279280
O O15 0.809355 0.000000 0.285297
O O16 0.114207 0.500000 0.124090
O O17 0.165377 0.227312 0.193644
O O18 0.207702 0.500000 0.286549
#
# Coordination Sequence:
#
# PCOD9201027 Si02
#       8
#     8   8   2   8   8   8   8   8
#     4   9  19  33  54  81 117 151 190 245 303 364
#     4  11  25  43  65  94 127 166 210 249 306 369
#     4  12  26  44  68  92 132 168 198 260 302 374
#     4  10  20  37  60  91 118 158 208 254 308 365
#     4  10  24  41  57  84 116 158 205 251 306 369
#     4  10  21  34  54  82 117 155 196 246 307 368
#     4   9  19  39  61  81 118 157 201 260 309 360
#     4   9  18  34  56  84 112 151 199 246 302 365
#
# _framework density 22.531665
#
# number of rings (size 3 to 8) (size 9 to 14) (size 15 to 20)
#    0.000    2.207    0.690    1.034    2.897    3.310 
#    0.000    2.759    0.000    0.000    0.000    0.000 
#    0.000    0.000    0.000    0.000    0.000    0.000 
#
# Total GULP energy -161933.298615 kJ/mol
# GULP energy per Si atom -5583.906849 kJ/mol
# Density = 2.248038 g / cm^3
# Si number density = 22.531665 Si / 1000 Ang^3
#
#
#
# Elastic Constant Matrix: (Units=GPa)
#
#
# Indices 1 2 3 4 5 6 
#
# 1 108.1306 -0.5642 29.5082 0.0000 -19.3192 0.0000
# 2 -0.5642 82.5758 22.4608 0.0000 4.7224 0.0000
# 3 29.5082 22.4608 120.3709 0.0000 -16.5065 0.0000
# 4 0.0000 0.0000 0.0000 17.3730 0.0000 -13.6731
# 5 -19.3192 4.7224 -16.5065 0.0000 23.2547 0.0000
# 6 0.0000 0.0000 0.0000 -13.6731 0.0000 20.2108
#
#
#
# Elastic Compliance Matrix: (Units=1/GPa)
#
#
# Indices 1 2 3 4 5 6 
#
# 1 0.011138 0.000058 -0.001633 0.000000 0.008082 0.000000
# 2 0.000058 0.013248 -0.003156 0.000000 -0.004882 0.000000
# 3 -0.001633 -0.003156 0.010191 0.000000 0.006518 0.000000
# 4 0.000000 0.000000 0.000000 0.123109 0.000000 0.083286
# 5 0.008082 -0.004882 0.006518 0.000000 0.055334 0.000000
# 6 0.000000 0.000000 0.000000 0.083286 0.000000 0.105823
#
#
# Mechanical properties :
#
#
# Convention : Reuss Voigt Hill
#
# Bulk Modulus (GPa) = 39.81624 45.98742 42.90183
# Shear Modulus (GPa) = 14.85109 29.47922 22.16515
#
# Velocity S-wave (km/s) = 2.57012 3.62103 3.13986
# Velocity P-wave (km/s) = 5.14946 6.15930 5.67688
#
# Compressibility (1/GPa) = 0.02511538
#
# Stress axis : x y z
#
# Youngs Moduli (GPa) = 89.78265 75.48276 98.12987
#
# Poissons Ratio (x) = -0.00438 0.16024
# Poissons Ratio (y) = -0.00521 0.30967
# Poissons Ratio (z) = 0.14661 0.23820
#
# Static dielectric constant tensor:
#      x y z
#    x 1.793790 0.000000 0.042850 
#    y 0.000000 1.859680 0.000000 
#    z 0.042850 0.000000 1.754060 
# 
# From -- ./inp_files/186722.got.cif
#   From: 2010.05.17/outbox.cif.g08.bks.cpg/sg12_94_cif.got.tgz:186722.got - 2010.06.03 13:09:07.
