data_PCOD9201034
_publ_section_title
;
Structure prediction by ZEFSAII (Michael W. Deem and Ramdas Pophale) SiO2 
 PCOD9201034
Probable space group: C 2/M
;
_chemical_formula_sum "Si O2"
_cell_formula_units_Z 64
_cell_length_a 9.890072
_cell_length_b 29.731149
_cell_length_c 14.186994
_cell_angle_alpha 90.000000
_cell_angle_beta 55.116435
_cell_angle_gamma 90.000000
_cell_volume 3422.021175
_symmetry_space_group_name_H-M "C 2/M"
_symmetry_group_IT_number 12
_symmetry_cell_setting 'monoclinic'
loop_
_space_group_symop_operation_xyz
x,y,z
-x,y,-z
-x,-y,-z
x,-y,z
1/2+x,1/2+y,z
1/2-x,1/2+y,-z
1/2-x,1/2-y,-z
1/2+x,1/2-y,z
loop_
_atom_site_type_symbol
_atom_site_label
_atom_site_fract_x
_atom_site_fract_y
_atom_site_fract_z
Si Si1 0.929761 0.762111 0.624331
Si Si2 0.270226 0.607247 0.854342
Si Si3 0.614592 0.117262 0.541875
Si Si4 0.438152 0.121264 0.893772
Si Si5 0.384652 0.053036 0.747722
Si Si6 0.530478 0.638556 0.597571
Si Si7 0.511840 0.552485 0.887425
Si Si8 0.920222 0.696204 0.292079
O O1 0.743289 0.778287 0.678902
O O2 0.000000 0.740543 0.500000
O O3 0.039200 0.807186 0.595184
O O4 0.959316 0.730127 0.701073
O O5 0.382012 0.628128 0.727903
O O6 0.385004 0.572215 0.863028
O O7 0.098808 0.595651 0.871618
O O8 0.194638 0.634068 0.973712
O O9 0.500000 0.129429 0.500000
O O10 0.527756 0.074321 0.625605
O O11 0.804326 0.113461 0.436215
O O12 0.622761 0.157324 0.615062
O O13 0.375584 0.085601 0.842077
O O14 0.497395 0.167498 0.823379
O O15 0.200904 0.057196 0.778313
O O16 0.411642 0.000000 0.757406
O O17 0.500000 0.625914 0.500000
O O18 0.473276 0.500000 0.911271
O O19 0.500000 0.571115 0.000000
#
# Coordination Sequence:
#
# PCOD9201034 Si02
#       8
#     8   8   8   8   8   8   8   8
#     4  11  21  37  61  88 120 162 204 254 306 358
#     4  11  21  39  65  85 121 165 198 248 313 361
#     4  11  22  36  58  91 123 158 208 253 303 369
#     4  10  22  39  62  91 121 157 205 251 303 369
#     4  10  21  40  62  87 126 164 201 256 306 357
#     4  11  21  40  61  88 120 159 203 251 304 365
#     4  10  20  37  60  92 124 155 207 258 298 356
#     4  11  22  39  58  92 121 156 202 259 304 357
#
# _framework density 18.702397999999999
#
# number of rings (size 3 to 8) (size 9 to 14) (size 15 to 20)
#    0.000    1.375    5.000    2.250    1.750    0.750 
#    0.000    2.500    0.000    1.500    0.000    0.000 
#    0.000    0.000    0.000    0.000    0.000    0.000 
#
# Total GULP energy -178240.200827 kJ/mol
# GULP energy per Si atom -5570.006276 kJ/mol
# Density = 1.865983 g / cm^3
# Si number density = 18.702398 Si / 1000 Ang^3
#
#
#
# Elastic Constant Matrix: (Units=GPa)
#
#
# Indices 1 2 3 4 5 6 
#
# 1 117.3309 51.3682 42.8589 0.0000 -1.9427 0.0000
# 2 51.3682 70.7782 35.7359 0.0000 -0.8083 0.0000
# 3 42.8589 35.7359 118.4320 0.0000 -10.5435 0.0000
# 4 0.0000 0.0000 0.0000 -3.0134 0.0000 -4.6193
# 5 -1.9427 -0.8083 -10.5435 0.0000 27.2365 0.0000
# 6 0.0000 0.0000 0.0000 -4.6193 0.0000 18.4489
#
#
#
# Elastic Compliance Matrix: (Units=1/GPa)
#
#
# Indices 1 2 3 4 5 6 
#
# 1 0.012955 -0.008293 -0.002201 0.000000 -0.000174 0.000000
# 2 -0.008293 0.022036 -0.003773 0.000000 -0.001398 0.000000
# 3 -0.002201 -0.003773 0.010724 0.000000 0.003883 0.000000
# 4 0.000000 0.000000 0.000000 -0.239807 0.000000 -0.060043
# 5 -0.000174 -0.001398 0.003883 0.000000 0.038164 0.000000
# 6 0.000000 0.000000 0.000000 -0.060043 0.000000 0.039170
#
#
# Mechanical properties :
#
#
# Convention : Reuss Voigt Hill
#
# Bulk Modulus (GPa) = 58.20143 62.94078 60.57111
# Shear Modulus (GPa) = -60.60791 20.30628 -20.15082
#
# Velocity S-wave (km/s) = -5.69885 3.29866 -3.28601
# Velocity P-wave (km/s) = 3.48068 6.94515 4.24971
#
# Compressibility (1/GPa) = 0.01718171
#
# Stress axis : x y z
#
# Youngs Moduli (GPa) = 77.19222 45.38050 93.24580
#
# Poissons Ratio (x) = 0.37632 0.20527
# Poissons Ratio (y) = 0.64012 0.35178
# Poissons Ratio (z) = 0.16993 0.17120
#
# Static dielectric constant tensor:
#      x y z
#    x 1.678100 0.000000 -0.000860 
#    y 0.000000 1.617270 0.000000 
#    z -0.000860 0.000000 1.705940 
# 
# From -- ./inp_files/200893.got.cif
#   From: 2010.05.17/outbox.cif.g08.bks.cpg/sg12_101_cif.got.tgz:200893.got - 2010.06.03 13:09:07.
