data_PCOD9201375
_publ_section_title
;
Structure prediction by ZEFSAII (Michael W. Deem and Ramdas Pophale) SiO2 
 PCOD9201375
Probable space group: C 2/M
;
_chemical_formula_sum "Si O2"
_cell_formula_units_Z 48
_cell_length_a 15.469874
_cell_length_b 8.860123
_cell_length_c 30.246283
_cell_angle_alpha 90.000000
_cell_angle_beta 140.048740
_cell_angle_gamma 90.000000
_cell_volume 2662.106159
_symmetry_space_group_name_H-M "C 2/M"
_symmetry_group_IT_number 12
_symmetry_cell_setting 'monoclinic'
loop_
_space_group_symop_operation_xyz
x,y,z
-x,y,-z
-x,-y,-z
x,-y,z
1/2+x,1/2+y,z
1/2-x,1/2+y,-z
1/2-x,1/2-y,-z
1/2+x,1/2-y,z
loop_
_atom_site_type_symbol
_atom_site_label
_atom_site_fract_x
_atom_site_fract_y
_atom_site_fract_z
Si Si1 0.332657 0.681946 0.073205
Si Si2 0.356873 0.181544 0.921204
Si Si3 0.637580 0.681793 0.675147
Si Si4 0.170283 0.818956 0.427212
Si Si5 0.148653 0.181676 0.576615
Si Si6 0.637695 0.319243 0.173530
O O1 0.325592 0.500000 0.067279
O O2 0.260088 0.725563 0.090371
O O3 0.488216 0.727657 0.130914
O O4 0.250000 0.750000 0.000000
O O5 0.343872 0.258863 0.868876
O O6 0.353723 0.000000 0.914089
O O7 0.500000 0.219682 0.000000
O O8 0.647229 0.500000 0.681786
O O9 0.486430 0.724464 0.630457
O O10 0.657282 0.723706 0.631457
O O11 0.748899 0.754457 0.749912
O O12 0.250000 0.750000 0.500000
O O13 0.240421 0.759595 0.410376
O O14 0.178448 0.000000 0.432711
O O15 0.000000 0.220502 0.500000
O O16 0.162389 0.000000 0.578287
O O17 0.643250 0.500000 0.175770
#
# Coordination Sequence:
#
# PCOD9201375 Si02
#       6
#     8   8   8   8   8   8
#     4  10  21  37  59  87 116 150 193 241 288 344
#     4  10  20  37  62  87 115 156 197 233 290 359
#     4  10  23  42  61  83 121 163 194 237 299 360
#     4  11  22  38  62  91 119 155 201 248 296 351
#     4  10  20  39  63  89 121 156 198 244 295 355
#     4  11  24  39  58  88 123 152 192 250 295 339
#
# _framework density 18.030836999999998
#
# number of rings (size 3 to 8) (size 9 to 14) (size 15 to 20)
#    0.000    1.667    3.333    1.000    0.000    5.333 
#    0.000    5.000    0.000    0.000    0.000    0.000 
#    0.000    0.000    0.000    0.000    0.000    0.000 
#
# Total GULP energy -134091.266758 kJ/mol
# GULP energy per Si atom -5587.136115 kJ/mol
# Density = 1.798980 g / cm^3
# Si number density = 18.030837 Si / 1000 Ang^3
#
#
#
# Elastic Constant Matrix: (Units=GPa)
#
#
# Indices 1 2 3 4 5 6 
#
# 1 216.9378 58.0362 120.3464 0.0000 1.7498 0.0000
# 2 58.0362 28.3180 56.1950 0.0000 0.9092 0.0000
# 3 120.3464 56.1950 193.0880 0.0000 0.8588 0.0000
# 4 0.0000 0.0000 0.0000 26.7077 0.0000 1.3417
# 5 1.7498 0.9092 0.8588 0.0000 31.3833 0.0000
# 6 0.0000 0.0000 0.0000 1.3417 0.0000 30.9072
#
#
#
# Elastic Compliance Matrix: (Units=1/GPa)
#
#
# Indices 1 2 3 4 5 6 
#
# 1 0.010239 -0.019695 -0.000650 0.000000 0.000018 0.000000
# 2 -0.019695 0.121570 -0.023097 0.000000 -0.001792 0.000000
# 3 -0.000650 -0.023097 0.012304 0.000000 0.000369 0.000000
# 4 0.000000 0.000000 0.000000 0.037524 0.000000 -0.001629
# 5 0.000018 -0.001792 0.000369 0.000000 0.031905 0.000000
# 6 0.000000 0.000000 0.000000 -0.001629 0.000000 0.032426
#
#
# Mechanical properties :
#
#
# Convention : Reuss Voigt Hill
#
# Bulk Modulus (GPa) = 17.47378 100.83323 59.15350
# Shear Modulus (GPa) = 14.20740 31.38406 22.79573
#
# Velocity S-wave (km/s) = 2.81009 4.17655 3.55951
# Velocity P-wave (km/s) = 4.49899 8.90517 7.05489
#
# Compressibility (1/GPa) = 0.05722862
#
# Stress axis : x y z
#
# Youngs Moduli (GPa) = 97.66719 8.22571 81.27155
#
# Poissons Ratio (x) = 0.16201 0.05280
# Poissons Ratio (y) = 1.92357 1.87717
# Poissons Ratio (z) = 0.06346 0.18999
#
# Static dielectric constant tensor:
#      x y z
#    x 1.610980 0.000000 0.010430 
#    y 0.000000 1.605240 0.000000 
#    z 0.010430 0.000000 1.576060 
# 
# From -- ./inp_files/308318.got.cif
#   From: 2010.05.17/outbox.cif.g08.bks.cpg/sg12_155_cif.got.tgz:308318.got - 2010.06.03 13:09:07.
