data_PCOD9201830
_publ_section_title
;
Structure prediction by ZEFSAII (Michael W. Deem and Ramdas Pophale) SiO2 
 PCOD9201830
Probable space group: C 2/M
;
_chemical_formula_sum "Si O2"
_cell_formula_units_Z 32
_cell_length_a 14.456402
_cell_length_b 12.396336
_cell_length_c 26.558302
_cell_angle_alpha 90.000000
_cell_angle_beta 162.835500
_cell_angle_gamma 90.000000
_cell_volume 1404.580968
_symmetry_space_group_name_H-M "C 2/M"
_symmetry_group_IT_number 12
_symmetry_cell_setting 'monoclinic'
loop_
_space_group_symop_operation_xyz
x,y,z
-x,y,-z
-x,-y,-z
x,-y,z
1/2+x,1/2+y,z
1/2-x,1/2+y,-z
1/2-x,1/2-y,-z
1/2+x,1/2-y,z
loop_
_atom_site_type_symbol
_atom_site_label
_atom_site_fract_x
_atom_site_fract_y
_atom_site_fract_z
Si Si1 0.969669 0.378349 0.155738
Si Si2 0.871993 0.000000 0.195685
Si Si3 0.742784 0.685167 0.237116
Si Si4 0.378062 0.253743 0.200922
Si Si5 0.956930 0.500000 0.539974
O O1 0.068001 0.500000 0.200718
O O2 0.028584 0.330467 0.241427
O O3 0.140571 0.298944 0.206793
O O4 0.592857 0.369673 0.951232
O O5 0.949830 0.123870 0.219304
O O6 0.083128 0.000000 0.355251
O O7 0.500000 0.000000 0.000000
O O8 0.941284 0.715681 0.290699
O O9 0.903273 0.605082 0.360305
O O10 0.000000 0.247329 0.000000
O O11 0.000000 0.500000 0.500000
#
# Coordination Sequence:
#
# PCOD9201830 Si02
#       5
#     8   4   8   8   4
#     4  10  20  37  64  97 134 173 216 265 323 398
#     4  10  22  42  64  92 124 172 224 272 328 396
#     4  10  22  37  61  98 130 172 220 270 327 389
#     4   9  20  37  64  93 126 169 218 266 321 394
#     4  12  24  40  65  90 134 174 225 280 329 392
#
# _framework density 22.782596000000002
#
# number of rings (size 3 to 8) (size 9 to 14) (size 15 to 20)
#    0.000    2.000    1.250    1.500    3.500    4.500 
#    6.750    0.000    0.000    2.250    0.000    0.000 
#    0.000    0.000    0.000    0.000    0.000    0.000 
#
# Total GULP energy -89187.637055 kJ/mol
# GULP energy per Si atom -5574.227316 kJ/mol
# Density = 2.273074 g / cm^3
# Si number density = 22.782596 Si / 1000 Ang^3
#
#
#
# Elastic Constant Matrix: (Units=GPa)
#
#
# Indices 1 2 3 4 5 6 
#
# 1 112.9271 44.1663 25.5071 -0.0621 -26.3029 -0.1870
# 2 44.1663 200.5670 34.0818 -0.0067 -17.4325 -0.0951
# 3 25.5071 34.0818 78.1870 0.0111 -11.6145 0.0205
# 4 -0.0621 -0.0067 0.0111 26.1477 0.0753 -34.4777
# 5 -26.3029 -17.4325 -11.6145 0.0753 18.9652 0.1764
# 6 -0.1870 -0.0951 0.0205 -34.4777 0.1764 -68.5007
#
#
#
# Elastic Compliance Matrix: (Units=1/GPa)
#
#
# Indices 1 2 3 4 5 6 
#
# 1 0.013589 -0.001298 -0.001369 -0.000004 0.016814 0.000009
# 2 -0.001298 0.005779 -0.001731 -0.000004 0.002451 0.000003
# 3 -0.001369 -0.001731 0.014821 0.000004 0.005586 0.000023
# 4 -0.000004 -0.000004 0.000004 0.022988 0.000010 -0.011570
# 5 0.016814 0.002451 0.005586 0.000010 0.081720 0.000157
# 6 0.000009 0.000003 0.000023 -0.011570 0.000157 -0.008774
#
#
# Mechanical properties :
#
#
# Convention : Reuss Voigt Hill
#
# Bulk Modulus (GPa) = 39.38482 66.57680 52.98081
# Shear Modulus (GPa) = 33.92506 14.51750 24.22128
#
# Velocity S-wave (km/s) = 3.86304 2.52706 3.26413
# Velocity P-wave (km/s) = 6.10100 6.14824 6.12466
#
# Compressibility (1/GPa) = 0.02539049
#
# Stress axis : x y z
#
# Youngs Moduli (GPa) = 73.59074 173.04034 67.47153
#
# Poissons Ratio (x) = 0.22464 0.09240
# Poissons Ratio (y) = 0.09553 0.11682
# Poissons Ratio (z) = 0.10078 0.29961
#
# Static dielectric constant tensor:
#      x y z
#    x 1.983440 0.000010 0.098630 
#    y 0.000010 1.827850 -0.000020 
#    z 0.098630 -0.000020 2.030510 
# 
# From -- ./inp_files/360950.got.cif
#   From: 2010.05.17/outbox.cif.g08.bks.cpg/sg12_181_cif.got.tgz:360950.got - 2010.06.03 13:09:07.
