data_PCOD9201571
_publ_section_title
;
Structure prediction by ZEFSAII (Michael W. Deem and Ramdas Pophale) SiO2 
 PCOD9201571
Probable space group: C 2/M
;
_chemical_formula_sum "Si O2"
_cell_formula_units_Z 44
_cell_length_a 8.991055
_cell_length_b 17.703008
_cell_length_c 13.885912
_cell_angle_alpha 90.000000
_cell_angle_beta 106.059726
_cell_angle_gamma 90.000000
_cell_volume 2123.947102
_symmetry_space_group_name_H-M "C 2/M"
_symmetry_group_IT_number 12
_symmetry_cell_setting 'monoclinic'
loop_
_space_group_symop_operation_xyz
x,y,z
-x,y,-z
-x,-y,-z
x,-y,z
1/2+x,1/2+y,z
1/2-x,1/2+y,-z
1/2-x,1/2-y,-z
1/2+x,1/2-y,z
loop_
_atom_site_type_symbol
_atom_site_label
_atom_site_fract_x
_atom_site_fract_y
_atom_site_fract_z
Si Si1 0.207277 0.414037 0.349430
Si Si2 0.299505 0.916179 0.075823
Si Si3 0.000000 0.844376 0.500000
Si Si4 0.495234 0.234241 0.324042
Si Si5 0.667175 0.879567 0.130472
Si Si6 0.673033 0.287111 0.185665
O O1 0.152358 0.500000 0.357057
O O2 0.355766 0.394499 0.440240
O O3 0.085904 0.345371 0.343210
O O4 0.247560 0.406347 0.242976
O O5 0.485373 0.901005 0.112355
O O6 0.205284 0.856583 0.122018
O O7 0.270441 0.000000 0.107251
O O8 0.266059 0.911728 0.956017
O O9 0.039348 0.788513 0.418866
O O10 0.526908 0.278078 0.229126
O O11 0.313796 0.217025 0.287604
O O12 0.672105 0.789341 0.123891
#
# Coordination Sequence:
#
# PCOD9201571 Si02
#       6
#     8   8   4   8   8   8
#     4  11  22  39  64  93 125 159 206 256 307 364
#     4  11  21  37  64  96 127 164 207 256 303 360
#     4  12  23  44  67  90 120 166 210 256 313 376
#     4  11  23  41  68  90 122 165 208 255 311 368
#     4  10  20  37  62  93 125 166 208 244 301 371
#     4  11  21  40  64  93 123 167 206 252 305 370
#
# _framework density 20.716145999999998
#
# number of rings (size 3 to 8) (size 9 to 14) (size 15 to 20)
#    0.000    1.091    7.273    3.545    0.000    0.000 
#    0.000    2.273    0.000    1.091    0.000    0.000 
#    0.000    0.000    0.000    0.000    0.000    0.000 
#
# Total GULP energy -122872.394702 kJ/mol
# GULP energy per Si atom -5585.108850 kJ/mol
# Density = 2.066899 g / cm^3
# Si number density = 20.716146 Si / 1000 Ang^3
#
#
#
# Elastic Constant Matrix: (Units=GPa)
#
#
# Indices 1 2 3 4 5 6 
#
# 1 22.7135 6.5216 -8.6020 0.0000 -9.2944 0.0000
# 2 6.5216 165.7639 16.7265 0.0000 -21.9286 0.0000
# 3 -8.6020 16.7265 62.9441 0.0000 -3.0346 0.0000
# 4 0.0000 0.0000 0.0000 88.2722 0.0000 9.9539
# 5 -9.2944 -21.9286 -3.0346 0.0000 28.4137 0.0000
# 6 0.0000 0.0000 0.0000 9.9539 0.0000 22.0892
#
#
#
# Elastic Compliance Matrix: (Units=1/GPa)
#
#
# Indices 1 2 3 4 5 6 
#
# 1 0.054986 -0.000587 0.008560 0.000000 0.018448 0.000000
# 2 -0.000587 0.006877 -0.001670 0.000000 0.004938 0.000000
# 3 0.008560 -0.001670 0.017664 0.000000 0.003398 0.000000
# 4 0.000000 0.000000 0.000000 0.011935 0.000000 -0.005378
# 5 0.018448 0.004938 0.003398 0.000000 0.045402 0.000000
# 6 0.000000 0.000000 0.000000 -0.005378 0.000000 0.047695
#
#
# Mechanical properties :
#
#
# Convention : Reuss Voigt Hill
#
# Bulk Modulus (GPa) = 10.85373 31.19041 21.02207
# Shear Modulus (GPa) = 24.67136 43.54005 34.10571
#
# Velocity S-wave (km/s) = 3.45472 4.58945 4.06191
# Velocity P-wave (km/s) = 4.60045 6.57061 5.67173
#
# Compressibility (1/GPa) = 0.09213426
#
# Stress axis : x y z
#
# Youngs Moduli (GPa) = 18.18655 145.40357 56.61105
#
# Poissons Ratio (x) = 0.08529 -0.48457
# Poissons Ratio (y) = 0.01067 0.09452
# Poissons Ratio (z) = -0.15567 0.24278
#
# Static dielectric constant tensor:
#      x y z
#    x 1.749900 0.000000 0.029330 
#    y 0.000000 1.741240 0.000000 
#    z 0.029330 0.000000 1.752770 
# 
# From -- ./inp_files/195579.got.cif
#   From: 2010.05.17/outbox.cif.g08.bks.cpg/sg12_98_cif.got.tgz:195579.got - 2010.06.03 13:09:07.
