data_PCOD9201137
_publ_section_title
;
Structure prediction by ZEFSAII (Michael W. Deem and Ramdas Pophale) SiO2 
 PCOD9201137
Probable space group: C 2/M
;
_chemical_formula_sum "Si O2"
_cell_formula_units_Z 44
_cell_length_a 16.285919
_cell_length_b 17.932693
_cell_length_c 12.348434
_cell_angle_alpha 90.000000
_cell_angle_beta 41.100699
_cell_angle_gamma 90.000000
_cell_volume 2370.768175
_symmetry_space_group_name_H-M "C 2/M"
_symmetry_group_IT_number 12
_symmetry_cell_setting 'monoclinic'
loop_
_space_group_symop_operation_xyz
x,y,z
-x,y,-z
-x,-y,-z
x,-y,z
1/2+x,1/2+y,z
1/2-x,1/2+y,-z
1/2-x,1/2-y,-z
1/2+x,1/2-y,z
loop_
_atom_site_type_symbol
_atom_site_label
_atom_site_fract_x
_atom_site_fract_y
_atom_site_fract_z
Si Si1 0.802934 0.000000 0.646073
Si Si2 0.235779 0.256202 0.202371
Si Si3 0.619179 0.861036 0.807345
Si Si4 0.310092 0.358793 0.940002
Si Si5 0.000000 0.352823 0.500000
Si Si6 0.974842 0.586064 0.759249
Si Si7 0.447584 0.500000 0.731458
O O1 0.719225 0.073244 0.718332
O O2 0.866950 0.000000 0.700376
O O3 0.910250 0.000000 0.448602
O O4 0.318845 0.213504 0.207511
O O5 0.179026 0.195440 0.174451
O O6 0.122904 0.301650 0.367481
O O7 0.315176 0.310462 0.044645
O O8 0.563714 0.861214 0.742014
O O9 0.500000 0.879672 0.000000
O O10 0.407053 0.425969 0.835454
O O11 0.169278 0.392142 0.076465
O O12 0.002406 0.401576 0.605996
O O13 0.994561 0.500000 0.771306
#
# Coordination Sequence:
#
# PCOD9201137 Si02
#       7
#     4   8   8   8   4   8   4
#     4  11  23  32  56  96 120 150 199 256 305 342
#     4  10  22  37  56  88 123 160 195 246 293 358
#     4  12  22  37  61  92 122 153 195 252 306 351
#     4  10  20  37  61  86 119 159 206 238 295 358
#     4  10  25  40  58  89 124 160 202 240 294 363
#     4  11  21  39  65  90 117 157 201 251 297 352
#     4  11  20  36  60  86 117 167 199 251 290 351
#
# _framework density 18.559384000000001
#
# number of rings (size 3 to 8) (size 9 to 14) (size 15 to 20)
#    0.000    1.273    5.455    0.545    2.545    0.727 
#    0.000    1.818    0.000    0.000    0.000    3.182 
#    0.000    0.000    0.000    0.000    0.000    0.000 
#
# Total GULP energy -122913.396271 kJ/mol
# GULP energy per Si atom -5586.972558 kJ/mol
# Density = 1.851714 g / cm^3
# Si number density = 18.559384 Si / 1000 Ang^3
#
#
#
# Elastic Constant Matrix: (Units=GPa)
#
#
# Indices 1 2 3 4 5 6 
#
# 1 76.5683 20.2840 10.5507 0.0000 1.4186 0.0000
# 2 20.2840 92.8597 22.1639 0.0000 -5.6175 0.0000
# 3 10.5507 22.1639 52.3447 0.0000 -11.0791 0.0000
# 4 0.0000 0.0000 0.0000 -5.3489 0.0000 1.3317
# 5 1.4186 -5.6175 -11.0791 0.0000 23.0740 0.0000
# 6 0.0000 0.0000 0.0000 1.3317 0.0000 22.5338
#
#
#
# Elastic Compliance Matrix: (Units=1/GPa)
#
#
# Indices 1 2 3 4 5 6 
#
# 1 0.014137 -0.002708 -0.002256 0.000000 -0.002611 0.000000
# 2 -0.002708 0.012504 -0.004530 0.000000 0.001036 0.000000
# 3 -0.002256 -0.004530 0.023679 0.000000 0.010406 0.000000
# 4 0.000000 0.000000 0.000000 -0.184242 0.000000 0.010888
# 5 -0.002611 0.001036 0.010406 0.000000 0.048748 0.000000
# 6 0.000000 0.000000 0.000000 0.010888 0.000000 0.043734
#
#
# Mechanical properties :
#
#
# Convention : Reuss Voigt Hill
#
# Bulk Modulus (GPa) = 31.91386 36.41887 34.16636
# Shear Modulus (GPa) = -416.32402 19.30338 -198.51032
#
# Velocity S-wave (km/s) = -14.99356 3.22854 -10.35334
# Velocity P-wave (km/s) = 16.80803 5.79339 11.15675
#
# Compressibility (1/GPa) = 0.03133435
#
# Stress axis : x y z
#
# Youngs Moduli (GPa) = 70.73778 79.97343 42.23135
#
# Poissons Ratio (x) = 0.21653 0.09526
# Poissons Ratio (y) = 0.19153 0.19129
# Poissons Ratio (z) = 0.15956 0.36224
#
# Static dielectric constant tensor:
#      x y z
#    x 1.638400 0.000000 0.013660 
#    y 0.000000 1.642540 0.000000 
#    z 0.013660 0.000000 1.619880 
# 
# From -- ./inp_files/147533.got.cif
#   From: 2010.05.17/outbox.cif.g08.bks.cpg/sg12_74_cif.got.tgz:147533.got - 2010.06.03 13:09:07.
