data_PCOD9201414
_publ_section_title
;
Structure prediction by ZEFSAII (Michael W. Deem and Ramdas Pophale) SiO2 
 PCOD9201414
Probable space group: C 2/M
;
_chemical_formula_sum "Si O2"
_cell_formula_units_Z 40
_cell_length_a 18.634884
_cell_length_b 12.851462
_cell_length_c 16.716457
_cell_angle_alpha 90.000000
_cell_angle_beta 32.239145
_cell_angle_gamma 90.000000
_cell_volume 2135.603718
_symmetry_space_group_name_H-M "C 2/M"
_symmetry_group_IT_number 12
_symmetry_cell_setting 'monoclinic'
loop_
_space_group_symop_operation_xyz
x,y,z
-x,y,-z
-x,-y,-z
x,-y,z
1/2+x,1/2+y,z
1/2-x,1/2+y,-z
1/2-x,1/2-y,-z
1/2+x,1/2-y,z
loop_
_atom_site_type_symbol
_atom_site_label
_atom_site_fract_x
_atom_site_fract_y
_atom_site_fract_z
Si Si1 0.003876 0.120351 0.592581
Si Si2 0.318683 0.783920 0.852875
Si Si3 0.660714 0.621022 0.856623
Si Si4 0.241472 0.762549 0.622290
Si Si5 0.587425 0.119345 0.662399
O O1 0.883912 0.185062 0.745913
O O2 0.000000 0.126323 0.500000
O O3 0.141564 0.176119 0.488048
O O4 0.000478 0.000000 0.619693
O O5 0.215970 0.838600 0.889045
O O6 0.444786 0.858387 0.755160
O O7 0.250000 0.750000 0.000000
O O8 0.698504 0.500000 0.811050
O O9 0.722309 0.689359 0.727170
O O10 0.500000 0.628810 0.000000
O O11 0.295134 0.851602 0.511731
O O12 0.111421 0.703415 0.710197
O O13 0.596781 0.000000 0.679634
#
# Coordination Sequence:
#
# PCOD9201414 Si02
#       5
#     8   8   8   8   8
#     4  10  20  37  62  88 117 157 199 241 294 354
#     4  11  23  40  60  88 124 155 198 250 300 354
#     4  11  23  39  60  84 116 158 202 246 299 355
#     4  10  20  38  59  88 118 153 197 245 290 352
#     4  10  21  36  60  88 118 153 191 240 298 353
#
# _framework density 18.730066999999998
#
# number of rings (size 3 to 8) (size 9 to 14) (size 15 to 20)
#    0.000    1.600    2.000    3.000    0.000    1.600 
#    0.000    8.000    0.000    3.000    0.000    0.000 
#    0.000    0.000    0.000    0.000    0.000    0.000 
#
# Total GULP energy -111686.873056 kJ/mol
# GULP energy per Si atom -5584.343653 kJ/mol
# Density = 1.868744 g / cm^3
# Si number density = 18.730067 Si / 1000 Ang^3
#
#
#
# Elastic Constant Matrix: (Units=GPa)
#
#
# Indices 1 2 3 4 5 6 
#
# 1 133.3523 48.7984 39.7787 0.0000 -4.3596 0.0000
# 2 48.7984 121.9952 49.2711 0.0000 1.6099 0.0000
# 3 39.7787 49.2711 62.6179 0.0000 4.0910 0.0000
# 4 0.0000 0.0000 0.0000 15.3620 0.0000 -0.3130
# 5 -4.3596 1.6099 4.0910 0.0000 37.0071 0.0000
# 6 0.0000 0.0000 0.0000 -0.3130 0.0000 24.4908
#
#
#
# Elastic Compliance Matrix: (Units=1/GPa)
#
#
# Indices 1 2 3 4 5 6 
#
# 1 0.009689 -0.002003 -0.004693 0.000000 0.001747 0.000000
# 2 -0.002003 0.012440 -0.008527 0.000000 0.000165 0.000000
# 3 -0.004693 -0.008527 0.025859 0.000000 -0.003040 0.000000
# 4 0.000000 0.000000 0.000000 0.065113 0.000000 0.000832
# 5 0.001747 0.000165 -0.003040 0.000000 0.027557 0.000000
# 6 0.000000 0.000000 0.000000 0.000832 0.000000 0.040842
#
#
# Mechanical properties :
#
#
# Convention : Reuss Voigt Hill
#
# Bulk Modulus (GPa) = 57.00518 65.96243 61.48381
# Shear Modulus (GPa) = 22.95764 27.37977 25.16871
#
# Velocity S-wave (km/s) = 3.50481 3.82751 3.66971
# Velocity P-wave (km/s) = 6.84686 7.40452 7.13114
#
# Compressibility (1/GPa) = 0.01754226
#
# Stress axis : x y z
#
# Youngs Moduli (GPa) = 103.20945 80.38664 38.67147
#
# Poissons Ratio (x) = 0.16104 0.18148
# Poissons Ratio (y) = 0.20677 0.32973
# Poissons Ratio (z) = 0.48435 0.68542
#
# Static dielectric constant tensor:
#      x y z
#    x 1.667800 0.000000 -0.014660 
#    y 0.000000 1.625660 0.000000 
#    z -0.014660 0.000000 1.628430 
# 
# From -- ./inp_files/109698.got.cif
#   From: 2010.05.17/outbox.cif.g08.bks.cpg/sg12_55_cif.got.tgz:109698.got - 2010.06.03 13:09:07.
