data_PCOD9201893
_publ_section_title
;
Structure prediction by ZEFSAII (Michael W. Deem and Ramdas Pophale) SiO2 
 PCOD9201893
Probable space group: C 2/M
;
_chemical_formula_sum "Si O2"
_cell_formula_units_Z 40
_cell_length_a 16.290358
_cell_length_b 21.933019
_cell_length_c 5.494950
_cell_angle_alpha 90.000000
_cell_angle_beta 111.932505
_cell_angle_gamma 90.000000
_cell_volume 1821.230856
_symmetry_space_group_name_H-M "C 2/M"
_symmetry_group_IT_number 12
_symmetry_cell_setting 'monoclinic'
loop_
_space_group_symop_operation_xyz
x,y,z
-x,y,-z
-x,-y,-z
x,-y,z
1/2+x,1/2+y,z
1/2-x,1/2+y,-z
1/2-x,1/2-y,-z
1/2+x,1/2-y,z
loop_
_atom_site_type_symbol
_atom_site_label
_atom_site_fract_x
_atom_site_fract_y
_atom_site_fract_z
Si Si1 0.729287 0.679006 0.956149
Si Si2 0.462800 0.070941 0.710834
Si Si3 0.926556 0.934489 0.708311
Si Si4 0.478152 0.308186 0.238003
Si Si5 0.267122 0.111727 0.484521
O O1 0.623636 0.672043 0.877391
O O2 0.755197 0.650704 0.722082
O O3 0.750000 0.750000 0.000000
O O4 0.774598 0.648915 0.241265
O O5 0.500000 0.097748 0.500000
O O6 0.357111 0.074380 0.605471
O O7 0.491942 0.000000 0.743254
O O8 0.500000 0.099883 0.000000
O O9 0.956959 0.867081 0.658132
O O10 0.823261 0.926406 0.650340
O O11 0.929380 0.000000 0.574453
O O12 0.000000 0.941070 0.000000
O O13 0.500000 0.268743 0.500000
O O14 0.500000 0.280518 0.000000
#
# Coordination Sequence:
#
# PCOD9201893 Si02
#       5
#     8   8   8   8   8
#     4  12  25  43  64  92 127 175 223 274 321 373
#     4  10  22  43  68  95 133 172 212 268 335 389
#     4  10  20  37  66 103 139 170 203 250 328 413
#     4  11  20  41  61  90 134 170 202 259 315 389
#     4  12  23  43  68  97 132 166 220 274 324 396
#
# _framework density 21.963169000000001
#
# number of rings (size 3 to 8) (size 9 to 14) (size 15 to 20)
#    0.000    1.000    6.000    2.400    0.000    0.400 
#    0.000    9.000    0.000    0.000    0.000    0.000 
#    0.000    0.000    0.000    0.000    0.000    0.000 
#
# Total GULP energy -111373.097028 kJ/mol
# GULP energy per Si atom -5568.654851 kJ/mol
# Density = 2.191318 g / cm^3
# Si number density = 21.963169 Si / 1000 Ang^3
#
#
#
# Elastic Constant Matrix: (Units=GPa)
#
#
# Indices 1 2 3 4 5 6 
#
# 1 108.4078 3.6309 42.3004 0.0000 9.4989 0.0000
# 2 3.6309 58.6616 17.3819 0.0000 -6.2699 0.0000
# 3 42.3004 17.3819 175.9066 0.0000 -32.6352 0.0000
# 4 0.0000 0.0000 0.0000 69.2768 0.0000 -27.5185
# 5 9.4989 -6.2699 -32.6352 0.0000 40.5382 0.0000
# 6 0.0000 0.0000 0.0000 -27.5185 0.0000 11.9290
#
#
#
# Elastic Compliance Matrix: (Units=1/GPa)
#
#
# Indices 1 2 3 4 5 6 
#
# 1 0.011174 -0.000194 -0.003714 0.000000 -0.005638 0.000000
# 2 -0.000194 0.017648 -0.001390 0.000000 0.001656 0.000000
# 3 -0.003714 -0.001390 0.008037 0.000000 0.007126 0.000000
# 4 0.000000 0.000000 0.000000 0.172547 0.000000 0.398041
# 5 -0.005638 0.001656 0.007126 0.000000 0.031982 0.000000
# 6 0.000000 0.000000 0.000000 0.398041 0.000000 1.002054
#
#
# Mechanical properties :
#
#
# Convention : Reuss Voigt Hill
#
# Bulk Modulus (GPa) = 38.07541 52.17808 45.12674
# Shear Modulus (GPa) = 3.95948 42.99298 23.47623
#
# Velocity S-wave (km/s) = 1.34413 4.42917 3.27294
# Velocity P-wave (km/s) = 4.44776 7.06862 5.90542
#
# Compressibility (1/GPa) = 0.02626367
#
# Stress axis : x y z
#
# Youngs Moduli (GPa) = 89.49258 56.66435 124.42028
#
# Poissons Ratio (x) = 0.01098 0.46209
# Poissons Ratio (y) = 0.01734 0.17295
# Poissons Ratio (z) = 0.33237 0.07877
#
# Static dielectric constant tensor:
#      x y z
#    x 1.947550 0.000000 -0.178510 
#    y 0.000000 1.838060 0.000000 
#    z -0.178510 0.000000 2.082760 
# 
# From -- ./inp_files/11702.got.cif
#   From: 2010.05.17/outbox.cif.g08.bks.cpg/sg12_6_cif.got.tgz:11702.got - 2010.06.03 13:09:07.
