data_PCOD9201566
_publ_section_title
;
Structure prediction by ZEFSAII (Michael W. Deem and Ramdas Pophale) SiO2 
 PCOD9201566
Probable space group: C 2/M
;
_chemical_formula_sum "Si O2"
_cell_formula_units_Z 36
_cell_length_a 14.294811
_cell_length_b 20.866481
_cell_length_c 5.053035
_cell_angle_alpha 90.000000
_cell_angle_beta 97.147328
_cell_angle_gamma 90.000000
_cell_volume 1495.519477
_symmetry_space_group_name_H-M "C 2/M"
_symmetry_group_IT_number 12
_symmetry_cell_setting 'monoclinic'
loop_
_space_group_symop_operation_xyz
x,y,z
-x,y,-z
-x,-y,-z
x,-y,z
1/2+x,1/2+y,z
1/2-x,1/2+y,-z
1/2-x,1/2-y,-z
1/2+x,1/2-y,z
loop_
_atom_site_type_symbol
_atom_site_label
_atom_site_fract_x
_atom_site_fract_y
_atom_site_fract_z
Si Si1 0.406128 0.611833 0.866420
Si Si2 0.000000 0.786668 0.500000
Si Si3 0.723896 0.111633 0.534928
Si Si4 0.186124 0.787980 0.774566
Si Si5 0.605839 0.925123 0.985740
O O1 0.450930 0.667842 0.700151
O O2 0.323061 0.580055 0.665848
O O3 0.500000 0.575830 0.000000
O O4 0.352835 0.647942 0.087081
O O5 0.089398 0.752340 0.659551
O O6 0.754232 0.182302 0.445588
O O7 0.668607 0.080788 0.271440
O O8 0.656930 0.110013 0.764047
O O9 0.250000 0.750000 0.000000
O O10 0.598963 0.000000 0.907616
O O11 0.500000 0.901110 0.000000
#
# Coordination Sequence:
#
# PCOD9201566 Si02
#       5
#     8   4   8   8   8
#     4   9  18  37  62  90 121 171 216 258 317 398
#     4   8  18  32  58  86 117 176 221 246 316 392
#     4  11  21  40  66  99 125 172 222 269 324 404
#     4  10  20  37  62  92 134 171 217 267 326 391
#     4  11  24  44  69  95 130 174 222 276 342 402
#
# _framework density 24.071902000000001
#
# number of rings (size 3 to 8) (size 9 to 14) (size 15 to 20)
#    0.000    2.000    2.222    1.333    0.000    5.333 
#    0.000    5.556    0.000    4.000    0.000    0.000 
#    0.000    0.000    0.000    0.000    0.000    0.000 
#
# Total GULP energy -100595.113138 kJ/mol
# GULP energy per Si atom -5588.617397 kJ/mol
# Density = 2.401711 g / cm^3
# Si number density = 24.071902 Si / 1000 Ang^3
#
#
#
# Elastic Constant Matrix: (Units=GPa)
#
#
# Indices 1 2 3 4 5 6 
#
# 1 234.1905 47.5519 105.6402 0.0000 17.8705 0.0000
# 2 47.5519 59.7917 24.4741 0.0000 3.4413 0.0000
# 3 105.6402 24.4741 163.6240 0.0000 6.1603 0.0000
# 4 0.0000 0.0000 0.0000 17.9948 0.0000 -3.3153
# 5 17.8705 3.4413 6.1603 0.0000 60.0246 0.0000
# 6 0.0000 0.0000 0.0000 -3.3153 0.0000 6.7704
#
#
#
# Elastic Compliance Matrix: (Units=1/GPa)
#
#
# Indices 1 2 3 4 5 6 
#
# 1 0.006877 -0.003825 -0.003813 0.000000 -0.001437 0.000000
# 2 -0.003825 0.019977 -0.000520 0.000000 0.000047 0.000000
# 3 -0.003813 -0.000520 0.008641 0.000000 0.000278 0.000000
# 4 0.000000 0.000000 0.000000 0.061082 0.000000 0.029910
# 5 -0.001437 0.000047 0.000278 0.000000 0.017056 0.000000
# 6 0.000000 0.000000 0.000000 0.029910 0.000000 0.162348
#
#
# Mechanical properties :
#
#
# Convention : Reuss Voigt Hill
#
# Bulk Modulus (GPa) = 52.14596 90.32653 71.23625
# Shear Modulus (GPa) = 16.73970 35.62062 26.18016
#
# Velocity S-wave (km/s) = 2.63991 3.85094 3.30143
# Velocity P-wave (km/s) = 5.56793 7.57483 6.64755
#
# Compressibility (1/GPa) = 0.01917694
#
# Stress axis : x y z
#
# Youngs Moduli (GPa) = 145.42154 50.05716 115.72782
#
# Poissons Ratio (x) = 0.19148 0.44132
# Poissons Ratio (y) = 0.55628 0.06020
# Poissons Ratio (z) = 0.55456 0.02604
#
# Static dielectric constant tensor:
#      x y z
#    x 1.972030 0.000000 0.021530 
#    y 0.000000 1.932440 0.000000 
#    z 0.021530 0.000000 1.993520 
# 
# From -- ./inp_files/7429.got.cif
#   From: 2010.05.17/outbox.cif.g08.bks.cpg/sg12_4_cif.got.tgz:7429.got - 2010.06.03 13:09:07.
