data_PCOD9201367
_publ_section_title
;
Structure prediction by ZEFSAII (Michael W. Deem and Ramdas Pophale) SiO2 
 PCOD9201367
Probable space group: C 2/M
;
_chemical_formula_sum "Si O2"
_cell_formula_units_Z 48
_cell_length_a 23.482640
_cell_length_b 11.540433
_cell_length_c 10.715209
_cell_angle_alpha 90.000000
_cell_angle_beta 47.439513
_cell_angle_gamma 90.000000
_cell_volume 2138.848318
_symmetry_space_group_name_H-M "C 2/M"
_symmetry_group_IT_number 12
_symmetry_cell_setting 'monoclinic'
loop_
_space_group_symop_operation_xyz
x,y,z
-x,y,-z
-x,-y,-z
x,-y,z
1/2+x,1/2+y,z
1/2-x,1/2+y,-z
1/2-x,1/2-y,-z
1/2+x,1/2-y,z
loop_
_atom_site_type_symbol
_atom_site_label
_atom_site_fract_x
_atom_site_fract_y
_atom_site_fract_z
Si Si1 0.816211 0.874227 0.548459
Si Si2 0.541021 0.126899 0.267215
Si Si3 0.618576 0.133128 0.640082
Si Si4 0.784458 0.871430 0.100021
Si Si5 0.359594 0.702943 0.736577
Si Si6 0.641282 0.823650 0.876408
O O1 0.830848 0.749584 0.460250
O O2 0.867429 0.867826 0.598519
O O3 0.726647 0.874666 0.724416
O O4 0.831094 0.000000 0.463307
O O5 0.455312 0.140324 0.340201
O O6 0.568347 0.226407 0.318730
O O7 0.550219 0.000000 0.311330
O O8 0.598991 0.131409 0.062197
O O9 0.595290 0.148672 0.819422
O O10 0.650094 0.000000 0.580242
O O11 0.706718 0.797530 0.198595
O O12 0.839864 0.809549 0.117935
O O13 0.765253 0.000000 0.165423
O O14 0.825913 0.867168 0.903877
#
# Coordination Sequence:
#
# PCOD9201367 Si02
#       6
#     8   8   8   8   8   8
#     4  11  23  39  60  85 118 157 192 233 286 346
#     4  10  20  37  62  87 113 147 191 244 292 338
#     4  11  24  40  59  86 119 154 193 238 288 342
#     4   9  17  31  55  86 117 146 185 243 295 337
#     4   9  19  33  54  84 113 148 193 235 285 342
#     4  10  21  37  61  88 112 147 195 242 288 338
#
# _framework density 22.441984000000001
#
# number of rings (size 3 to 8) (size 9 to 14) (size 15 to 20)
#    0.000    2.000    0.000    4.500    0.000    6.000 
#    0.000    6.667    0.000    5.000    0.000    0.000 
#    0.000    0.000    0.000    0.000    0.000    0.000 
#
# Total GULP energy -133969.514103 kJ/mol
# GULP energy per Si atom -5582.063088 kJ/mol
# Density = 2.239091 g / cm^3
# Si number density = 22.441984 Si / 1000 Ang^3
#
#
#
# Elastic Constant Matrix: (Units=GPa)
#
#
# Indices 1 2 3 4 5 6 
#
# 1 76.1319 18.7655 3.2955 0.0000 8.3953 0.0000
# 2 18.7655 176.6819 29.8182 0.0000 -5.8090 0.0000
# 3 3.2955 29.8182 82.3137 0.0000 -2.0502 0.0000
# 4 0.0000 0.0000 0.0000 16.8664 0.0000 147.0010
# 5 8.3953 -5.8090 -2.0502 0.0000 29.7641 0.0000
# 6 0.0000 0.0000 0.0000 147.0010 0.0000 1395.9567
#
#
#
# Elastic Compliance Matrix: (Units=1/GPa)
#
#
# Indices 1 2 3 4 5 6 
#
# 1 0.014008 -0.001614 -0.000082 0.000000 -0.004272 0.000000
# 2 -0.001614 0.006246 -0.002160 0.000000 0.001526 0.000000
# 3 -0.000082 -0.002160 0.012947 0.000000 0.000493 0.000000
# 4 0.000000 0.000000 0.000000 0.721267 0.000000 -0.075953
# 5 -0.004272 0.001526 0.000493 0.000000 0.035134 0.000000
# 6 0.000000 0.000000 0.000000 -0.075953 0.000000 0.008715
#
#
# Mechanical properties :
#
#
# Convention : Reuss Voigt Hill
#
# Bulk Modulus (GPa) = 39.23580 48.76509 44.00045
# Shear Modulus (GPa) = 6.13855 307.40066 156.76960
#
# Velocity S-wave (km/s) = 1.65567 11.71636 8.36703
# Velocity P-wave (km/s) = 4.60176 14.31109 10.62976
#
# Compressibility (1/GPa) = 0.02548693
#
# Stress axis : x y z
#
# Youngs Moduli (GPa) = 71.38972 160.10140 77.23971
#
# Poissons Ratio (x) = 0.25845 0.00637
# Poissons Ratio (y) = 0.11524 0.16684
# Poissons Ratio (z) = 0.00588 0.34582
#
# Static dielectric constant tensor:
#      x y z
#    x 1.828390 0.000000 0.016150 
#    y 0.000000 1.860170 0.000000 
#    z 0.016150 0.000000 1.865520 
# 
# From -- ./inp_files/173748.got.cif
#   From: 2010.05.17/outbox.cif.g08.bks.cpg/sg12_87_cif.got.tgz:173748.got - 2010.06.03 13:09:07.
