data_PCOD9201670
_publ_section_title
;
Structure prediction by ZEFSAII (Michael W. Deem and Ramdas Pophale) SiO2 
 PCOD9201670
Probable space group: C 2/M
;
_chemical_formula_sum "Si O2"
_cell_formula_units_Z 32
_cell_length_a 4.927654
_cell_length_b 25.352178
_cell_length_c 10.010943
_cell_angle_alpha 90.000000
_cell_angle_beta 92.240853
_cell_angle_gamma 90.000000
_cell_volume 1249.678315
_symmetry_space_group_name_H-M "C 2/M"
_symmetry_group_IT_number 12
_symmetry_cell_setting 'monoclinic'
loop_
_space_group_symop_operation_xyz
x,y,z
-x,y,-z
-x,-y,-z
x,-y,z
1/2+x,1/2+y,z
1/2-x,1/2+y,-z
1/2-x,1/2-y,-z
1/2+x,1/2-y,z
loop_
_atom_site_type_symbol
_atom_site_label
_atom_site_fract_x
_atom_site_fract_y
_atom_site_fract_z
Si Si1 0.739910 0.613585 0.593442
Si Si2 0.781504 0.500000 0.614370
Si Si3 0.171424 0.500000 0.869680
Si Si4 0.972591 0.780874 0.839048
Si Si5 0.129360 0.382447 0.854622
O O1 0.500000 0.641431 0.500000
O O2 0.623373 0.554331 0.614345
O O3 0.889576 0.622441 0.739714
O O4 0.000000 0.613182 0.500000
O O5 0.000000 0.500000 0.500000
O O6 0.960851 0.500000 0.747475
O O7 0.280653 0.439815 0.864534
O O8 0.000000 0.500000 0.000000
O O9 0.258855 0.763262 0.787187
O O10 0.845395 0.838020 0.817191
O O11 0.500000 0.723648 0.000000
O O12 0.000000 0.372135 0.000000
#
# Coordination Sequence:
#
# PCOD9201670 Si02
#       5
#     8   4   4   8   8
#     4  10  21  36  56  83 118 158 199 243 294 356
#     4   8  15  31  53  76 107 155 205 238 275 345
#     4   8  16  31  53  88 126 157 188 242 312 365
#     4  10  21  38  62  91 119 154 205 257 297 345
#     4  10  20  37  63  92 125 160 202 252 306 362
#
# _framework density 25.606591999999999
#
# number of rings (size 3 to 8) (size 9 to 14) (size 15 to 20)
#    0.000    2.500    0.000    2.625    0.000    4.000 
#    0.000    0.625    0.000   18.000    0.000    0.875 
#    0.000    0.000    0.000    0.000    0.000    0.000 
#
# Total GULP energy -89190.138217 kJ/mol
# GULP energy per Si atom -5574.383639 kJ/mol
# Density = 2.554831 g / cm^3
# Si number density = 25.606592 Si / 1000 Ang^3
#
#
#
# Elastic Constant Matrix: (Units=GPa)
#
#
# Indices 1 2 3 4 5 6 
#
# 1 94.1866 33.8049 45.0905 0.0000 17.4285 0.0000
# 2 33.8049 193.2397 4.7204 0.0000 19.8324 0.0000
# 3 45.0905 4.7204 201.0677 0.0000 10.6502 0.0000
# 4 0.0000 0.0000 0.0000 -1.1308 0.0000 8.7711
# 5 17.4285 19.8324 10.6502 0.0000 45.4726 0.0000
# 6 0.0000 0.0000 0.0000 8.7711 0.0000 3.1132
#
#
#
# Elastic Compliance Matrix: (Units=1/GPa)
#
#
# Indices 1 2 3 4 5 6 
#
# 1 0.013276 -0.001884 -0.002741 0.000000 -0.003625 0.000000
# 2 -0.001884 0.005685 0.000387 0.000000 -0.001848 0.000000
# 3 -0.002741 0.000387 0.005602 0.000000 -0.000430 0.000000
# 4 0.000000 0.000000 0.000000 -0.038696 0.000000 0.109022
# 5 -0.003625 -0.001848 -0.000430 0.000000 0.024287 0.000000
# 6 0.000000 0.000000 0.000000 0.109022 0.000000 0.014055
#
#
# Mechanical properties :
#
#
# Convention : Reuss Voigt Hill
#
# Bulk Modulus (GPa) = 62.16108 72.85841 67.50975
# Shear Modulus (GPa) = 131.41502 36.48288 83.94895
#
# Velocity S-wave (km/s) = 7.17162 3.77868 5.73195
# Velocity P-wave (km/s) = 9.63869 6.89584 8.38024
#
# Compressibility (1/GPa) = 0.01608724
#
# Stress axis : x y z
#
# Youngs Moduli (GPa) = 75.32246 175.91291 178.51261
#
# Poissons Ratio (x) = 0.33134 0.48931
# Poissons Ratio (y) = 0.14187 -0.06905
# Poissons Ratio (z) = 0.20646 -0.06805
#
# Static dielectric constant tensor:
#      x y z
#    x 2.010090 0.000000 -0.022200 
#    y 0.000000 2.144240 0.000000 
#    z -0.022200 0.000000 2.007210 
# 
# From -- ./inp_files/115071.got.cif
#   From: 2010.05.17/outbox.cif.g08.bks.cpg/sg12_58_cif.got.tgz:115071.got - 2010.06.03 13:09:07.
