data_PCOD9201916
_publ_section_title
;
Structure prediction by ZEFSAII (Michael W. Deem and Ramdas Pophale) SiO2 
 PCOD9201916
Probable space group: C 2/M
;
_chemical_formula_sum "Si O2"
_cell_formula_units_Z 44
_cell_length_a 11.589978
_cell_length_b 20.745659
_cell_length_c 7.616628
_cell_angle_alpha 90.000000
_cell_angle_beta 85.514618
_cell_angle_gamma 90.000000
_cell_volume 1825.746366
_symmetry_space_group_name_H-M "C 2/M"
_symmetry_group_IT_number 12
_symmetry_cell_setting 'monoclinic'
loop_
_space_group_symop_operation_xyz
x,y,z
-x,y,-z
-x,-y,-z
x,-y,z
1/2+x,1/2+y,z
1/2-x,1/2+y,-z
1/2-x,1/2-y,-z
1/2+x,1/2-y,z
loop_
_atom_site_type_symbol
_atom_site_label
_atom_site_fract_x
_atom_site_fract_y
_atom_site_fract_z
Si Si1 0.943996 0.773497 0.821301
Si Si2 0.985259 0.638933 0.704233
Si Si3 0.899783 0.120835 0.386711
Si Si4 0.930540 0.500000 0.795832
Si Si5 0.750262 0.360617 0.270062
Si Si6 0.207318 0.500000 0.849266
Si Si7 0.780984 0.000000 0.245263
O O1 0.920546 0.706831 0.725205
O O2 0.036803 0.819682 0.713017
O O3 0.827144 0.815120 0.841703
O O4 0.000000 0.758741 0.000000
O O5 0.114826 0.652608 0.757149
O O6 0.000000 0.619314 0.500000
O O7 0.928091 0.580765 0.815633
O O8 0.798644 0.145542 0.526537
O O9 0.852870 0.064089 0.268345
O O10 0.000000 0.091700 0.500000
O O11 0.839765 0.500000 0.633211
O O12 0.072876 0.500000 0.811494
O O13 0.732916 0.435442 0.221920
O O14 0.212245 0.500000 0.063480
#
# Coordination Sequence:
#
# PCOD9201916 Si02
#       7
#     8   8   8   4   8   4   4
#     4  11  27  45  70 103 138 178 227 279 341 402
#     4  12  26  46  72 100 136 180 229 277 337 407
#     4  10  21  41  66 100 139 181 226 276 332 405
#     4  10  26  43  71  99 136 172 226 282 337 396
#     4  11  24  44  71 100 138 182 227 276 336 403
#     4  10  24  42  70 101 136 177 224 280 340 395
#     4  10  20  37  66  97 137 176 220 277 334 391
#
# _framework density 24.099731999999999
#
# number of rings (size 3 to 8) (size 9 to 14) (size 15 to 20)
#    0.545    0.727    0.000    5.455    2.545    8.000 
#    0.000    4.545    0.000    0.000    0.000    0.000 
#    0.000    0.000    0.000    0.000    0.000    0.000 
#
# Total GULP energy -122857.545266 kJ/mol
# GULP energy per Si atom -5584.433876 kJ/mol
# Density = 2.404488 g / cm^3
# Si number density = 24.099732 Si / 1000 Ang^3
#
#
#
# Elastic Constant Matrix: (Units=GPa)
#
#
# Indices 1 2 3 4 5 6 
#
# 1 101.0413 57.6013 16.7339 0.0000 8.7230 0.0000
# 2 57.6013 154.8164 12.4049 0.0000 5.3380 0.0000
# 3 16.7339 12.4049 66.9625 0.0000 -0.6910 0.0000
# 4 0.0000 0.0000 0.0000 19.4933 0.0000 1.8210
# 5 8.7230 5.3380 -0.6910 0.0000 21.4112 0.0000
# 6 0.0000 0.0000 0.0000 1.8210 0.0000 25.3457
#
#
#
# Elastic Compliance Matrix: (Units=1/GPa)
#
#
# Indices 1 2 3 4 5 6 
#
# 1 0.013314 -0.004601 -0.002520 0.000000 -0.004358 0.000000
# 2 -0.004601 0.008207 -0.000372 0.000000 -0.000184 0.000000
# 3 -0.002520 -0.000372 0.015649 0.000000 0.001624 0.000000
# 4 0.000000 0.000000 0.000000 0.051646 0.000000 -0.003711
# 5 -0.004358 -0.000184 0.001624 0.000000 0.048578 0.000000
# 6 0.000000 0.000000 0.000000 -0.003711 0.000000 0.039721
#
#
# Mechanical properties :
#
#
# Convention : Reuss Voigt Hill
#
# Bulk Modulus (GPa) = 45.07889 55.14447 50.11168
# Shear Modulus (GPa) = 25.06306 28.98873 27.02589
#
# Velocity S-wave (km/s) = 3.22836 3.47200 3.35239
# Velocity P-wave (km/s) = 5.71333 6.24536 5.98526
#
# Compressibility (1/GPa) = 0.02218333
#
# Stress axis : x y z
#
# Youngs Moduli (GPa) = 75.11133 121.84113 63.90125
#
# Poissons Ratio (x) = 0.56063 0.16101
# Poissons Ratio (y) = 0.34561 0.02380
# Poissons Ratio (z) = 0.18925 0.04538
#
# Static dielectric constant tensor:
#      x y z
#    x 1.936550 0.000000 -0.027400 
#    y 0.000000 1.865290 0.000000 
#    z -0.027400 0.000000 1.992630 
# 
# From -- ./inp_files/49412.got.cif
#   From: 2010.05.17/outbox.cif.g08.bks.cpg/sg12_25_cif.got.tgz:49412.got - 2010.06.03 13:09:07.
