data_PCOD9201905
_publ_section_title
;
Structure prediction by ZEFSAII (Michael W. Deem and Ramdas Pophale) SiO2 
 PCOD9201905
Probable space group: C 2/M
;
_chemical_formula_sum "Si O2"
_cell_formula_units_Z 34
_cell_length_a 20.121230
_cell_length_b 7.554649
_cell_length_c 17.218529
_cell_angle_alpha 90.000000
_cell_angle_beta 36.112348
_cell_angle_gamma 90.000000
_cell_volume 1542.599689
_symmetry_space_group_name_H-M "C 2/M"
_symmetry_group_IT_number 12
_symmetry_cell_setting 'monoclinic'
loop_
_space_group_symop_operation_xyz
x,y,z
-x,y,-z
-x,-y,-z
x,-y,z
1/2+x,1/2+y,z
1/2-x,1/2+y,-z
1/2-x,1/2-y,-z
1/2+x,1/2-y,z
loop_
_atom_site_type_symbol
_atom_site_label
_atom_site_fract_x
_atom_site_fract_y
_atom_site_fract_z
Si Si1 0.754148 0.288059 0.587519
Si Si2 0.463393 0.295038 0.117083
Si Si3 0.506335 0.786945 0.378971
Si Si4 0.500000 0.500000 0.500000
Si Si5 0.880061 0.708365 0.892593
O O1 0.754490 0.500000 0.593895
O O2 0.750000 0.250000 0.500000
O O3 0.646398 0.216796 0.735880
O O4 0.875138 0.227792 0.504106
O O5 0.433773 0.500000 0.128854
O O6 0.564426 0.293174 0.084019
O O7 0.500000 0.215502 0.000000
O O8 0.560951 0.658294 0.389721
O O9 0.551634 0.747382 0.250078
O O10 0.517562 0.000000 0.382029
O O11 0.892195 0.500000 0.892941
O O12 0.750000 0.750000 0.000000
#
# Coordination Sequence:
#
# PCOD9201905 Si02
#       5
#     8   8   8   2   8
#     4  10  20  37  66  93 128 167 215 271 330 400
#     4  10  22  40  65  98 131 169 221 279 336 397
#     4  10  24  44  65 101 135 175 227 278 337 403
#     4  12  26  40  72  98 136 180 218 280 336 412
#     4  11  24  42  66  93 133 181 225 277 337 410
#
# _framework density 22.040714999999999
#
# number of rings (size 3 to 8) (size 9 to 14) (size 15 to 20)
#    0.000    1.647    2.353    1.059    4.941    2.353 
#    0.000    4.706    0.000    0.000    0.000    0.000 
#    0.000    0.000    0.000    0.000    0.000    0.000 
#
# Total GULP energy -94690.881252 kJ/mol
# GULP energy per Si atom -5570.051838 kJ/mol
# Density = 2.199055 g / cm^3
# Si number density = 22.040715 Si / 1000 Ang^3
#
#
#
# Elastic Constant Matrix: (Units=GPa)
#
#
# Indices 1 2 3 4 5 6 
#
# 1 97.5145 14.4951 78.7962 0.0002 19.0824 0.0000
# 2 14.4951 73.0053 17.5312 0.0011 17.5483 -0.0005
# 3 78.7962 17.5312 181.7625 0.0005 11.7234 -0.0002
# 4 0.0002 0.0011 0.0005 17.0266 -0.0003 12.6177
# 5 19.0824 17.5483 11.7234 -0.0003 46.1849 0.0001
# 6 0.0000 -0.0005 -0.0002 12.6177 0.0001 15.0681
#
#
#
# Elastic Compliance Matrix: (Units=1/GPa)
#
#
# Indices 1 2 3 4 5 6 
#
# 1 0.016952 -0.000476 -0.006977 0.000000 -0.005052 0.000000
# 2 -0.000476 0.015308 -0.000923 -0.000004 -0.005386 0.000004
# 3 -0.006977 -0.000923 0.008547 0.000000 0.001064 0.000000
# 4 0.000000 -0.000004 0.000000 0.154781 0.000003 -0.129610
# 5 -0.005052 -0.005386 0.001064 0.000003 0.025516 -0.000003
# 6 0.000000 0.000004 0.000000 -0.129610 -0.000003 0.174898
#
#
# Mechanical properties :
#
#
# Convention : Reuss Voigt Hill
#
# Bulk Modulus (GPa) = 41.57080 63.76968 52.67024
# Shear Modulus (GPa) = 11.88292 31.75324 21.81808
#
# Velocity S-wave (km/s) = 2.32445 3.79972 3.14968
# Velocity P-wave (km/s) = 5.10940 6.94594 6.09721
#
# Compressibility (1/GPa) = 0.02405535
#
# Stress axis : x y z
#
# Youngs Moduli (GPa) = 58.98938 65.32414 117.00323
#
# Poissons Ratio (x) = 0.03109 0.81636
# Poissons Ratio (y) = 0.02807 0.10797
# Poissons Ratio (z) = 0.41158 0.06028
#
# Static dielectric constant tensor:
#      x y z
#    x 1.803820 0.000000 0.053280 
#    y 0.000000 1.825890 0.000000 
#    z 0.053280 0.000000 1.789470 
# 
# From -- ./inp_files/281970.got.cif
#   From: 2010.05.17/outbox.cif.g08.bks.cpg/sg12_141_cif.got.tgz:281970.got - 2010.06.03 13:09:07.
