data_PCOD9201475
_publ_section_title
;
Structure prediction by ZEFSAII (Michael W. Deem and Ramdas Pophale) SiO2 
 PCOD9201475
Probable space group: C 2/M
;
_chemical_formula_sum "Si O2"
_cell_formula_units_Z 32
_cell_length_a 10.385621
_cell_length_b 21.216662
_cell_length_c 8.241237
_cell_angle_alpha 90.000000
_cell_angle_beta 59.175588
_cell_angle_gamma 90.000000
_cell_volume 1559.424884
_symmetry_space_group_name_H-M "C 2/M"
_symmetry_group_IT_number 12
_symmetry_cell_setting 'monoclinic'
loop_
_space_group_symop_operation_xyz
x,y,z
-x,y,-z
-x,-y,-z
x,-y,z
1/2+x,1/2+y,z
1/2-x,1/2+y,-z
1/2-x,1/2-y,-z
1/2+x,1/2-y,z
loop_
_atom_site_type_symbol
_atom_site_label
_atom_site_fract_x
_atom_site_fract_y
_atom_site_fract_z
Si Si1 0.325319 0.248170 0.129360
Si Si2 0.164489 0.609295 0.933779
Si Si3 0.175689 0.500000 0.441736
Si Si4 0.165466 0.367621 0.317524
Si Si5 0.332763 0.500000 0.676913
O O1 0.316558 0.174301 0.179879
O O2 0.250387 0.301489 0.288463
O O3 0.500000 0.263617 0.000000
O O4 0.250000 0.250000 0.000000
O O5 0.294586 0.561293 0.806356
O O6 0.159837 0.623585 0.127456
O O7 0.000000 0.582604 0.000000
O O8 0.236092 0.432839 0.338199
O O9 0.212726 0.500000 0.607092
O O10 0.000000 0.500000 0.500000
O O11 0.000000 0.362330 0.500000
O O12 0.500000 0.500000 0.500000
#
# Coordination Sequence:
#
# PCOD9201475 Si02
#       5
#     8   8   4   8   4
#     4   9  20  37  58  85 117 153 193 237 292 346
#     4  10  20  40  62  84 120 163 195 234 295 364
#     4  10  21  38  58  85 114 153 199 235 285 354
#     4  10  20  37  62  90 116 155 202 244 287 348
#     4  12  26  40  59  91 121 151 197 253 300 340
#
# _framework density 20.520386999999999
#
# number of rings (size 3 to 8) (size 9 to 14) (size 15 to 20)
#    0.000    2.000    0.000    4.125    0.000    5.000 
#    0.000   19.375    0.000    0.000    0.000    0.000 
#    0.000    0.000    0.000    0.000    0.000    0.000 
#
# Total GULP energy -89232.397483 kJ/mol
# GULP energy per Si atom -5577.024843 kJ/mol
# Density = 2.047368 g / cm^3
# Si number density = 20.520387 Si / 1000 Ang^3
#
#
#
# Elastic Constant Matrix: (Units=GPa)
#
#
# Indices 1 2 3 4 5 6 
#
# 1 60.0503 4.1823 22.0768 0.0000 -10.1829 0.0000
# 2 4.1823 171.0434 85.3939 0.0000 -34.0223 0.0000
# 3 22.0768 85.3939 112.6037 0.0000 -21.2071 0.0000
# 4 0.0000 0.0000 0.0000 -21.3565 0.0000 -40.9880
# 5 -10.1829 -34.0223 -21.2071 0.0000 36.5775 0.0000
# 6 0.0000 0.0000 0.0000 -40.9880 0.0000 0.8898
#
#
#
# Elastic Compliance Matrix: (Units=1/GPa)
#
#
# Indices 1 2 3 4 5 6 
#
# 1 0.019233 0.003168 -0.005175 0.000000 0.005300 0.000000
# 2 0.003168 0.010894 -0.007643 0.000000 0.006584 0.000000
# 3 -0.005175 -0.007643 0.015807 0.000000 0.000615 0.000000
# 4 0.000000 0.000000 0.000000 -0.000524 0.000000 -0.024124
# 5 0.005300 0.006584 0.000615 0.000000 0.035295 0.000000
# 6 0.000000 0.000000 0.000000 -0.024124 0.000000 0.012570
#
#
# Mechanical properties :
#
#
# Convention : Reuss Voigt Hill
#
# Bulk Modulus (GPa) = 37.54497 63.00039 50.27268
# Shear Modulus (GPa) = 41.16760 18.69178 29.92969
#
# Velocity S-wave (km/s) = 4.48390 3.02137 3.82322
# Velocity P-wave (km/s) = 6.71888 6.55283 6.63637
#
# Compressibility (1/GPa) = 0.02663473
#
# Stress axis : x y z
#
# Youngs Moduli (GPa) = 51.99306 91.79084 63.26266
#
# Poissons Ratio (x) = -0.29075 0.32736
# Poissons Ratio (y) = -0.16469 0.48351
# Poissons Ratio (z) = 0.26905 0.70154
#
# Static dielectric constant tensor:
#      x y z
#    x 1.746440 0.000000 0.028730 
#    y 0.000000 1.827780 0.000000 
#    z 0.028730 0.000000 1.719710 
# 
# From -- ./inp_files/48315.got.cif
#   From: 2010.05.17/outbox.cif.g08.bks.cpg/sg12_25_cif.got.tgz:48315.got - 2010.06.03 13:09:07.
