data_PCOD9201796
_publ_section_title
;
Structure prediction by ZEFSAII (Michael W. Deem and Ramdas Pophale) SiO2 
 PCOD9201796
Probable space group: C 2/M
;
_chemical_formula_sum "Si O2"
_cell_formula_units_Z 52
_cell_length_a 8.862034
_cell_length_b 15.072933
_cell_length_c 28.882595
_cell_angle_alpha 90.000000
_cell_angle_beta 135.455181
_cell_angle_gamma 90.000000
_cell_volume 2706.291820
_symmetry_space_group_name_H-M "C 2/M"
_symmetry_group_IT_number 12
_symmetry_cell_setting 'monoclinic'
loop_
_space_group_symop_operation_xyz
x,y,z
-x,y,-z
-x,-y,-z
x,-y,z
1/2+x,1/2+y,z
1/2-x,1/2+y,-z
1/2-x,1/2-y,-z
1/2+x,1/2-y,z
loop_
_atom_site_type_symbol
_atom_site_label
_atom_site_fract_x
_atom_site_fract_y
_atom_site_fract_z
Si Si1 0.975253 0.276465 0.096113
Si Si2 0.862349 0.895714 0.822803
Si Si3 0.761051 0.500000 0.429230
Si Si4 0.699188 0.652878 0.342447
Si Si5 0.966667 0.347680 0.669185
Si Si6 0.000000 0.733406 0.000000
Si Si7 0.178582 0.901252 0.804938
Si Si8 0.887322 0.000000 0.424424
O O1 0.063351 0.175525 0.122101
O O2 0.130805 0.333350 0.161514
O O3 0.725266 0.283783 0.052150
O O4 0.993373 0.313961 0.047904
O O5 0.633775 0.873630 0.747523
O O6 0.043630 0.883522 0.822377
O O7 0.861441 0.000000 0.836199
O O8 0.744939 0.588529 0.394862
O O9 0.577824 0.500000 0.428341
O O10 0.000000 0.500000 0.500000
O O11 0.633615 0.751840 0.342344
O O12 0.494691 0.609359 0.272721
O O13 0.889627 0.653755 0.346119
O O14 0.772925 0.416813 0.619143
O O15 0.265314 0.000000 0.826221
O O16 0.000000 0.000000 0.500000
#
# Coordination Sequence:
#
# PCOD9201796 Si02
#       8
#     8   8   4   8   8   4   8   4
#     4  11  20  42  60  92 121 176 204 270 315 388
#     4  10  20  37  64  94 123 165 215 264 321 379
#     4  12  26  46  68  98 138 179 214 265 328 387
#     4  11  22  40  66 100 134 170 219 274 323 388
#     4  11  22  40  66 100 134 170 219 274 323 388
#     4  10  24  38  62  84 134 164 214 252 332 386
#     4  10  20  37  64  94 123 165 215 264 321 379
#     4  12  26  46  68  98 138 179 214 265 328 387
#
# _framework density 19.214483999999999
#
# number of rings (size 3 to 8) (size 9 to 14) (size 15 to 20)
#    0.000    1.231    4.615    2.308    0.000    0.615 
#    2.769    8.462    0.000    0.000    0.000    0.000 
#    0.000    0.000    0.000    0.000    0.000    0.000 
#
# Total GULP energy -145004.747261 kJ/mol
# GULP energy per Si atom -5577.105664 kJ/mol
# Density = 1.917075 g / cm^3
# Si number density = 19.214484 Si / 1000 Ang^3
#
#
#
# Elastic Constant Matrix: (Units=GPa)
#
#
# Indices 1 2 3 4 5 6 
#
# 1 89.5168 19.6697 52.2452 0.0000 15.1428 0.0000
# 2 19.6697 109.8374 42.6941 0.0000 10.7089 0.0000
# 3 52.2452 42.6941 113.7538 0.0000 20.5506 0.0000
# 4 0.0000 0.0000 0.0000 40.8602 0.0000 2.7625
# 5 15.1428 10.7089 20.5506 0.0000 37.4433 0.0000
# 6 0.0000 0.0000 0.0000 2.7625 0.0000 26.3823
#
#
#
# Elastic Compliance Matrix: (Units=1/GPa)
#
#
# Indices 1 2 3 4 5 6 
#
# 1 0.015491 0.000074 -0.006668 0.000000 -0.002626 0.000000
# 2 0.000074 0.010690 -0.003872 0.000000 -0.000962 0.000000
# 3 -0.006668 -0.003872 0.014008 0.000000 -0.003884 0.000000
# 4 0.000000 0.000000 0.000000 0.024648 0.000000 -0.002581
# 5 -0.002626 -0.000962 -0.003884 0.000000 0.030176 0.000000
# 6 0.000000 0.000000 0.000000 -0.002581 0.000000 0.038174
#
#
# Mechanical properties :
#
#
# Convention : Reuss Voigt Hill
#
# Bulk Modulus (GPa) = 51.93054 60.25844 56.09449
# Shear Modulus (GPa) = 31.14495 34.17044 32.65769
#
# Velocity S-wave (km/s) = 4.03042 4.22165 4.12714
# Velocity P-wave (km/s) = 6.98173 7.42914 7.20890
#
# Compressibility (1/GPa) = 0.01925649
#
# Stress axis : x y z
#
# Youngs Moduli (GPa) = 64.55470 93.54437 71.38547
#
# Poissons Ratio (x) = -0.00690 0.47599
# Poissons Ratio (y) = -0.00476 0.27643
# Poissons Ratio (z) = 0.43044 0.36223
#
# Static dielectric constant tensor:
#      x y z
#    x 1.680850 0.000000 -0.009740 
#    y 0.000000 1.654740 0.000000 
#    z -0.009740 0.000000 1.667270 
# 
# From -- ./inp_files/372685.got.cif
#   From: 2010.05.17/outbox.cif.g08.bks.cpg/sg12_187_cif.got.tgz:372685.got - 2010.06.03 13:09:07.
