data_PCOD9201891
_publ_section_title
;
Structure prediction by ZEFSAII (Michael W. Deem and Ramdas Pophale) SiO2 
 PCOD9201891
Probable space group: C 2/M
;
_chemical_formula_sum "Si O2"
_cell_formula_units_Z 40
_cell_length_a 13.826081
_cell_length_b 24.906973
_cell_length_c 10.042303
_cell_angle_alpha 90.000000
_cell_angle_beta 148.493763
_cell_angle_gamma 90.000000
_cell_volume 1807.239070
_symmetry_space_group_name_H-M "C 2/M"
_symmetry_group_IT_number 12
_symmetry_cell_setting 'monoclinic'
loop_
_space_group_symop_operation_xyz
x,y,z
-x,y,-z
-x,-y,-z
x,-y,z
1/2+x,1/2+y,z
1/2-x,1/2+y,-z
1/2-x,1/2-y,-z
1/2+x,1/2-y,z
loop_
_atom_site_type_symbol
_atom_site_label
_atom_site_fract_x
_atom_site_fract_y
_atom_site_fract_z
Si Si1 0.561735 0.369013 0.776196
Si Si2 0.408686 0.142542 0.037427
Si Si3 0.225584 0.437824 0.467002
Si Si4 0.777818 0.440794 0.232485
Si Si5 0.962045 0.757511 0.794344
O O1 0.376299 0.404651 0.560704
O O2 0.522950 0.309574 0.783994
O O3 0.691922 0.368328 0.799347
O O4 0.693427 0.396015 0.041575
O O5 0.531416 0.093915 0.238803
O O6 0.441657 0.201737 0.136356
O O7 0.500000 0.147819 0.000000
O O8 0.205294 0.500000 0.401784
O O9 0.290966 0.436968 0.696849
O O10 0.728036 0.500000 0.120495
O O11 0.000000 0.437879 0.500000
O O12 0.750000 0.750000 0.500000
O O13 0.000000 0.765186 0.000000
#
# Coordination Sequence:
#
# PCOD9201891 Si02
#       5
#     8   8   8   8   8
#     4  12  23  41  71  98 130 181 227 283 349 420
#     4  11  26  46  63  95 137 178 227 288 339 409
#     4  11  23  41  66  97 134 173 224 282 346 416
#     4  10  20  37  66 102 135 169 217 289 354 406
#     4  11  24  46  73 105 141 182 232 290 352 418
#
# _framework density 22.133209000000001
#
# number of rings (size 3 to 8) (size 9 to 14) (size 15 to 20)
#    0.000    1.000    4.000    3.000    0.000    3.600 
#    0.000    3.000    0.000    0.000    0.000    0.000 
#    0.000    0.000    0.000    0.000    0.000    0.000 
#
# Total GULP energy -111733.747352 kJ/mol
# GULP energy per Si atom -5586.687368 kJ/mol
# Density = 2.208283 g / cm^3
# Si number density = 22.133209 Si / 1000 Ang^3
#
#
#
# Elastic Constant Matrix: (Units=GPa)
#
#
# Indices 1 2 3 4 5 6 
#
# 1 120.4341 60.2519 43.5578 0.0000 32.3506 0.0000
# 2 60.2519 185.4047 56.9493 0.0000 21.0712 0.0000
# 3 43.5578 56.9493 94.5910 0.0000 29.7382 0.0000
# 4 0.0000 0.0000 0.0000 -86.1706 0.0000 143.3179
# 5 32.3506 21.0712 29.7382 0.0000 43.2179 0.0000
# 6 0.0000 0.0000 0.0000 143.3179 0.0000 -130.3682
#
#
#
# Elastic Compliance Matrix: (Units=1/GPa)
#
#
# Indices 1 2 3 4 5 6 
#
# 1 0.012021 -0.002573 -0.001980 0.000000 -0.006381 0.000000
# 2 -0.002573 0.007181 -0.003373 0.000000 0.000746 0.000000
# 3 -0.001980 -0.003373 0.015991 0.000000 -0.007876 0.000000
# 4 0.000000 0.000000 0.000000 0.014009 0.000000 0.015400
# 5 -0.006381 0.000746 -0.007876 0.000000 0.032971 0.000000
# 6 0.000000 0.000000 0.000000 0.015400 0.000000 0.009260
#
#
# Mechanical properties :
#
#
# Convention : Reuss Voigt Hill
#
# Bulk Modulus (GPa) = 51.70625 80.21644 65.96134
# Shear Modulus (GPa) = 43.96324 -18.68613 12.63856
#
# Velocity S-wave (km/s) = 4.46163 -2.90876 2.39220
# Velocity P-wave (km/s) = 7.06779 5.00400 6.12347
#
# Compressibility (1/GPa) = 0.01934002
#
# Stress axis : x y z
#
# Youngs Moduli (GPa) = 83.18924 139.25463 62.53639
#
# Poissons Ratio (x) = 0.35830 0.12383
# Poissons Ratio (y) = 0.21405 0.21094
# Poissons Ratio (z) = 0.16473 0.46972
#
# Static dielectric constant tensor:
#      x y z
#    x 1.890150 0.000000 -0.022060 
#    y 0.000000 1.833920 0.000000 
#    z -0.022060 0.000000 1.835310 
# 
# From -- ./inp_files/148782.got.cif
#   From: 2010.05.17/outbox.cif.g08.bks.cpg/sg12_75_cif.got.tgz:148782.got - 2010.06.03 13:09:07.
