data_PCOD9201065
_publ_section_title
;
Structure prediction by ZEFSAII (Michael W. Deem and Ramdas Pophale) SiO2 
 PCOD9201065
Probable space group: C 2/M
;
_chemical_formula_sum "Si O2"
_cell_formula_units_Z 48
_cell_length_a 31.524301
_cell_length_b 9.074426
_cell_length_c 9.277710
_cell_angle_alpha 90.000000
_cell_angle_beta 89.864964
_cell_angle_gamma 90.000000
_cell_volume 2654.020152
_symmetry_space_group_name_H-M "C 2/M"
_symmetry_group_IT_number 12
_symmetry_cell_setting 'monoclinic'
loop_
_space_group_symop_operation_xyz
x,y,z
-x,y,-z
-x,-y,-z
x,-y,z
1/2+x,1/2+y,z
1/2-x,1/2+y,-z
1/2-x,1/2-y,-z
1/2+x,1/2-y,z
loop_
_atom_site_type_symbol
_atom_site_label
_atom_site_fract_x
_atom_site_fract_y
_atom_site_fract_z
Si Si1 0.542860 0.675955 0.588733
Si Si2 0.540306 0.176786 0.899167
Si Si3 0.211100 0.172468 0.078591
Si Si4 0.879113 0.676437 0.577538
Si Si5 0.210256 0.174018 0.424006
Si Si6 0.623160 0.824340 0.082864
O O1 0.500000 0.708191 0.500000
O O2 0.549025 0.500000 0.590579
O O3 0.538163 0.738481 0.749325
O O4 0.582703 0.753393 0.511998
O O5 0.540469 0.000000 0.872536
O O6 0.500000 0.209626 0.000000
O O7 0.583029 0.215026 0.985735
O O8 0.215193 0.190179 0.251272
O O9 0.166057 0.243039 0.037549
O O10 0.211143 0.000000 0.044941
O O11 0.250000 0.250000 0.000000
O O12 0.877933 0.500000 0.558561
O O13 0.833975 0.747294 0.535715
O O14 0.885494 0.708053 0.748276
O O15 0.250000 0.250000 0.500000
O O16 0.208447 0.000000 0.457450
O O17 0.629893 0.000000 0.071988
#
# Coordination Sequence:
#
# PCOD9201065 Si02
#       6
#     8   8   8   8   8   8
#     4  11  24  39  56  82 115 149 185 227 275 329
#     4  10  21  38  60  85 112 144 184 228 273 326
#     4  10  21  36  56  81 110 145 184 226 273 326
#     4  10  20  37  61  84 109 145 186 230 280 330
#     4  10  21  37  57  83 114 148 187 230 277 329
#     4   9  19  36  58  83 110 141 181 228 276 326
#
# _framework density 18.08577
#
# number of rings (size 3 to 8) (size 9 to 14) (size 15 to 20)
#    0.000    2.000    0.000    3.000    0.000    7.667 
#    0.000    1.667    0.000    0.000    0.000    0.000 
#    0.000    0.000    0.000    0.000    0.000    0.000 
#
# Total GULP energy -134089.081726 kJ/mol
# GULP energy per Si atom -5587.045072 kJ/mol
# Density = 1.804461 g / cm^3
# Si number density = 18.085770 Si / 1000 Ang^3
#
#
#
# Elastic Constant Matrix: (Units=GPa)
#
#
# Indices 1 2 3 4 5 6 
#
# 1 206.5011 107.2142 102.7258 0.0000 -1.7980 0.0000
# 2 107.2142 92.1868 75.8418 0.0000 -1.3603 0.0000
# 3 102.7258 75.8418 94.3588 0.0000 1.4237 0.0000
# 4 0.0000 0.0000 0.0000 29.5210 0.0000 0.3966
# 5 -1.7980 -1.3603 1.4237 0.0000 39.5346 0.0000
# 6 0.0000 0.0000 0.0000 0.3966 0.0000 33.5929
#
#
#
# Elastic Compliance Matrix: (Units=1/GPa)
#
#
# Indices 1 2 3 4 5 6 
#
# 1 0.013304 -0.010463 -0.006081 0.000000 0.000464 0.000000
# 2 -0.010463 0.040415 -0.021118 0.000000 0.001675 0.000000
# 3 -0.006081 -0.021118 0.034226 0.000000 -0.002236 0.000000
# 4 0.000000 0.000000 0.000000 0.033880 0.000000 -0.000400
# 5 0.000464 0.001675 -0.002236 0.000000 0.025454 0.000000
# 6 0.000000 0.000000 0.000000 -0.000400 0.000000 0.029773
#
#
# Mechanical properties :
#
#
# Convention : Reuss Voigt Hill
#
# Bulk Modulus (GPa) = 79.23873 107.17893 93.20883
# Shear Modulus (GPa) = 19.48695 27.68068 23.58382
#
# Velocity S-wave (km/s) = 3.28605 3.91643 3.61501
# Velocity P-wave (km/s) = 7.63580 8.93540 8.31104
#
# Compressibility (1/GPa) = 0.01262009
#
# Stress axis : x y z
#
# Youngs Moduli (GPa) = 75.16528 24.74331 29.21784
#
# Poissons Ratio (x) = 0.25889 0.17767
# Poissons Ratio (y) = 0.78647 0.61703
# Poissons Ratio (z) = 0.45707 0.52254
#
# Static dielectric constant tensor:
#      x y z
#    x 1.583990 0.000000 0.006300 
#    y 0.000000 1.603020 0.000000 
#    z 0.006300 0.000000 1.598780 
# 
# From -- ./inp_files/108597.got.cif
#   From: 2010.05.17/outbox.cif.g08.bks.cpg/sg12_55_cif.got.tgz:108597.got - 2010.06.03 13:09:07.
