data_PCOD9201344
_publ_section_title
;
Structure prediction by ZEFSAII (Michael W. Deem and Ramdas Pophale) SiO2 
 PCOD9201344
Probable space group: C 2/M
;
_chemical_formula_sum "Si O2"
_cell_formula_units_Z 56
_cell_length_a 17.272437
_cell_length_b 9.607699
_cell_length_c 17.579367
_cell_angle_alpha 90.000000
_cell_angle_beta 103.140634
_cell_angle_gamma 90.000000
_cell_volume 2840.878700
_symmetry_space_group_name_H-M "C 2/M"
_symmetry_group_IT_number 12
_symmetry_cell_setting 'monoclinic'
loop_
_space_group_symop_operation_xyz
x,y,z
-x,y,-z
-x,-y,-z
x,-y,z
1/2+x,1/2+y,z
1/2-x,1/2+y,-z
1/2-x,1/2-y,-z
1/2+x,1/2-y,z
loop_
_atom_site_type_symbol
_atom_site_label
_atom_site_fract_x
_atom_site_fract_y
_atom_site_fract_z
Si Si1 0.707094 0.338001 0.425196
Si Si2 0.220793 0.351002 0.723435
Si Si3 0.126366 0.254097 0.166356
Si Si4 0.952665 0.845868 0.089967
Si Si5 0.584051 0.341682 0.740588
Si Si6 0.176185 0.659769 0.015303
Si Si7 0.430970 0.839670 0.682170
O O1 0.690589 0.500000 0.442559
O O2 0.750000 0.250000 0.500000
O O3 0.761826 0.343110 0.362107
O O4 0.629726 0.253033 0.380458
O O5 0.181853 0.500000 0.733115
O O6 0.305036 0.344308 0.785191
O O7 0.167608 0.222236 0.735704
O O8 0.166095 0.332793 0.104316
O O9 0.097701 0.335907 0.235536
O O10 0.046835 0.180595 0.117128
O O11 0.921731 0.844216 0.169528
O O12 0.936501 0.000000 0.054304
O O13 0.904286 0.727678 0.035803
O O14 0.572347 0.500000 0.710899
O O15 0.515079 0.238430 0.697538
O O16 0.185506 0.500000 0.993546
O O17 0.250000 0.750000 0.000000
O O18 0.433866 0.000000 0.658105
#
# Coordination Sequence:
#
# PCOD9201344 Si02
#       7
#     8   8   8   8   8   8   8
#     4  10  21  38  60  88 120 151 187 229 275 331
#     4  10  21  37  60  88 115 147 187 230 276 331
#     4  10  22  38  60  84 111 145 190 236 283 339
#     4  10  22  39  59  83 112 148 189 235 287 340
#     4  10  21  37  57  84 117 150 188 234 282 334
#     4  12  26  40  55  79 112 149 191 239 288 338
#     4  10  20  37  62  86 112 149 189 232 282 335
#
# _framework density 19.712212000000001
#
# number of rings (size 3 to 8) (size 9 to 14) (size 15 to 20)
#    0.000    1.714    0.000    3.857    0.000   16.000 
#    0.000    0.714    0.000    4.286    0.000    0.000 
#    0.000    0.000    0.000    0.000    0.000    0.000 
#
# Total GULP energy -156324.070016 kJ/mol
# GULP energy per Si atom -5583.002501 kJ/mol
# Density = 1.966735 g / cm^3
# Si number density = 19.712212 Si / 1000 Ang^3
#
#
#
# Elastic Constant Matrix: (Units=GPa)
#
#
# Indices 1 2 3 4 5 6 
#
# 1 90.1521 54.0818 39.4082 0.0000 8.4740 0.0000
# 2 54.0818 190.4137 52.6838 0.0000 12.9504 0.0000
# 3 39.4082 52.6838 81.8277 0.0000 20.5776 0.0000
# 4 0.0000 0.0000 0.0000 10.3015 0.0000 7.3699
# 5 8.4740 12.9504 20.5776 0.0000 16.9896 0.0000
# 6 0.0000 0.0000 0.0000 7.3699 0.0000 12.3286
#
#
#
# Elastic Compliance Matrix: (Units=1/GPa)
#
#
# Indices 1 2 3 4 5 6 
#
# 1 0.015210 -0.002787 -0.005978 0.000000 0.001779 0.000000
# 2 -0.002787 0.006901 -0.003060 0.000000 -0.000165 0.000000
# 3 -0.005978 -0.003060 0.022624 0.000000 -0.022089 0.000000
# 4 0.000000 0.000000 0.000000 0.169613 0.000000 -0.101393
# 5 0.001779 -0.000165 -0.022089 0.000000 0.084851 0.000000
# 6 0.000000 0.000000 0.000000 -0.101393 0.000000 0.141724
#
#
# Mechanical properties :
#
#
# Convention : Reuss Voigt Hill
#
# Bulk Modulus (GPa) = 47.42395 72.74899 60.08647
# Shear Modulus (GPa) = 10.60215 22.33858 16.47037
#
# Velocity S-wave (km/s) = 2.32167 3.37001 2.89371
# Velocity P-wave (km/s) = 5.59439 7.21999 6.45854
#
# Compressibility (1/GPa) = 0.02108639
#
# Stress axis : x y z
#
# Youngs Moduli (GPa) = 65.74481 144.90669 44.20003
#
# Poissons Ratio (x) = 0.40385 0.26424
# Poissons Ratio (y) = 0.18323 0.13523
# Poissons Ratio (z) = 0.39303 0.44334
#
# Static dielectric constant tensor:
#      x y z
#    x 1.685020 0.000000 -0.008000 
#    y 0.000000 1.693370 0.000000 
#    z -0.008000 0.000000 1.681390 
# 
# From -- ./inp_files/275235.got.cif
#   From: 2010.05.17/outbox.cif.g08.bks.cpg/sg12_138_cif.got.tgz:275235.got - 2010.06.03 13:09:07.
