data_PCOD9201235
_publ_section_title
;
Structure prediction by ZEFSAII (Michael W. Deem and Ramdas Pophale) SiO2 
 PCOD9201235
Probable space group: C 2/M
;
_chemical_formula_sum "Si O2"
_cell_formula_units_Z 48
_cell_length_a 10.127358
_cell_length_b 22.484608
_cell_length_c 9.588582
_cell_angle_alpha 90.000000
_cell_angle_beta 60.628318
_cell_angle_gamma 90.000000
_cell_volume 1902.748983
_symmetry_space_group_name_H-M "C 2/M"
_symmetry_group_IT_number 12
_symmetry_cell_setting 'monoclinic'
loop_
_space_group_symop_operation_xyz
x,y,z
-x,y,-z
-x,-y,-z
x,-y,z
1/2+x,1/2+y,z
1/2-x,1/2+y,-z
1/2-x,1/2-y,-z
1/2+x,1/2-y,z
loop_
_atom_site_type_symbol
_atom_site_label
_atom_site_fract_x
_atom_site_fract_y
_atom_site_fract_z
Si Si1 0.387143 0.618099 0.719287
Si Si2 0.556918 0.804872 0.156185
Si Si3 0.159693 0.069216 0.969422
Si Si4 0.802203 0.067048 0.473941
Si Si5 0.269565 0.237314 0.214023
Si Si6 0.484899 0.068559 0.732694
O O1 0.305183 0.602303 0.905389
O O2 0.332637 0.574017 0.625334
O O3 0.566233 0.608931 0.652410
O O4 0.343676 0.683702 0.693796
O O5 0.408468 0.763085 0.248750
O O6 0.671797 0.794406 0.224930
O O7 0.499282 0.872596 0.179873
O O8 0.645252 0.782897 0.973449
O O9 0.135079 0.000000 0.016669
O O10 0.304891 0.071013 0.793542
O O11 0.000000 0.093772 0.000000
O O12 0.622481 0.076871 0.552950
O O13 0.837001 0.000000 0.410033
O O14 0.506172 0.000000 0.775331
#
# Coordination Sequence:
#
# PCOD9201235 Si02
#       6
#     8   8   8   8   8   8
#     4  11  19  36  58  88 119 161 204 250 310 363
#     4  10  20  39  55  92 118 162 210 253 322 368
#     4  10  21  35  55  86 123 161 205 252 303 372
#     4  10  21  35  60  92 128 161 199 259 318 371
#     4  10  21  35  61  83 124 165 203 262 310 375
#     4  10  20  37  61  89 122 157 202 264 313 364
#
# _framework density 25.226659999999999
#
# number of rings (size 3 to 8) (size 9 to 14) (size 15 to 20)
#    0.000    1.833    3.333    2.000    0.000    2.000 
#    0.000    5.833    0.000    4.000    0.000    0.000 
#    0.000    0.000    0.000    0.000    0.000    0.000 
#
# Total GULP energy -133903.784655 kJ/mol
# GULP energy per Si atom -5579.324361 kJ/mol
# Density = 2.516924 g / cm^3
# Si number density = 25.226660 Si / 1000 Ang^3
#
#
#
# Elastic Constant Matrix: (Units=GPa)
#
#
# Indices 1 2 3 4 5 6 
#
# 1 115.2807 24.3887 35.6704 0.0000 -39.0007 0.0000
# 2 24.3887 99.0570 9.1003 0.0000 -8.3418 0.0000
# 3 35.6704 9.1003 105.6753 0.0000 -33.6125 0.0000
# 4 0.0000 0.0000 0.0000 11.8575 0.0000 -5.8063
# 5 -39.0007 -8.3418 -33.6125 0.0000 49.3577 0.0000
# 6 0.0000 0.0000 0.0000 -5.8063 0.0000 19.8079
#
#
#
# Elastic Compliance Matrix: (Units=1/GPa)
#
#
# Indices 1 2 3 4 5 6 
#
# 1 0.012446 -0.002224 -0.001278 0.000000 0.008588 0.000000
# 2 -0.002224 0.010653 -0.000195 0.000000 -0.000090 0.000000
# 3 -0.001278 -0.000195 0.012228 0.000000 0.007285 0.000000
# 4 0.000000 0.000000 0.000000 0.098469 0.000000 0.028864
# 5 0.008588 -0.000090 0.007285 0.000000 0.031992 0.000000
# 6 0.000000 0.000000 0.000000 0.028864 0.000000 0.058946
#
#
# Mechanical properties :
#
#
# Convention : Reuss Voigt Hill
#
# Bulk Modulus (GPa) = 35.79951 50.92576 43.36263
# Shear Modulus (GPa) = 20.70919 32.92820 26.81870
#
# Velocity S-wave (km/s) = 2.86829 3.61680 3.26407
# Velocity P-wave (km/s) = 5.01910 6.13782 5.60643
#
# Compressibility (1/GPa) = 0.02793334
#
# Stress axis : x y z
#
# Youngs Moduli (GPa) = 80.34849 93.86964 81.77856
#
# Poissons Ratio (x) = 0.20873 0.10450
# Poissons Ratio (y) = 0.17867 0.01597
# Poissons Ratio (z) = 0.10268 0.01833
#
# Static dielectric constant tensor:
#      x y z
#    x 2.121730 0.000000 -0.006160 
#    y 0.000000 1.959520 0.000000 
#    z -0.006160 0.000000 1.990950 
# 
# From -- ./inp_files/133734.got.cif
#   From: 2010.05.17/outbox.cif.g08.bks.cpg/sg12_67_cif.got.tgz:133734.got - 2010.06.03 13:09:07.
