data_PCOD9201265
_publ_section_title
;
Structure prediction by ZEFSAII (Michael W. Deem and Ramdas Pophale) SiO2 
 PCOD9201265
Probable space group: C 2/M
;
_chemical_formula_sum "Si O2"
_cell_formula_units_Z 58
_cell_length_a 20.359572
_cell_length_b 7.560575
_cell_length_c 23.785613
_cell_angle_alpha 90.000000
_cell_angle_beta 138.168197
_cell_angle_gamma 90.000000
_cell_volume 2441.904036
_symmetry_space_group_name_H-M "C 2/M"
_symmetry_group_IT_number 12
_symmetry_cell_setting 'monoclinic'
loop_
_space_group_symop_operation_xyz
x,y,z
-x,y,-z
-x,-y,-z
x,-y,z
1/2+x,1/2+y,z
1/2-x,1/2+y,-z
1/2-x,1/2-y,-z
1/2+x,1/2-y,z
loop_
_atom_site_type_symbol
_atom_site_label
_atom_site_fract_x
_atom_site_fract_y
_atom_site_fract_z
Si Si1 0.279209 0.293568 0.719052
Si Si2 0.866905 0.705722 0.944814
Si Si3 0.950374 0.205505 0.627693
Si Si4 0.000000 0.000000 0.000000
Si Si5 0.904272 0.785046 0.475235
Si Si6 0.678605 0.213408 0.768387
Si Si7 0.135024 0.290298 0.932585
Si Si8 0.054081 0.209154 0.252325
O O1 0.297331 0.500000 0.742316
O O2 0.193440 0.277160 0.618068
O O3 0.233887 0.219151 0.747475
O O4 0.377328 0.215968 0.753479
O O5 0.891839 0.500000 0.953472
O O6 0.749602 0.726770 0.863787
O O7 0.918117 0.842433 0.935915
O O8 0.896951 0.775164 0.025883
O O9 0.068890 0.214266 0.700276
O O10 0.911379 0.280473 0.544002
O O11 0.923999 0.284393 0.671756
O O12 0.920080 0.000000 0.609072
O O13 0.000000 0.729479 0.500000
O O14 0.904801 0.000000 0.476115
O O15 0.671271 0.000000 0.763658
O O16 0.125745 0.500000 0.927912
O O17 0.059790 0.225666 0.837636
O O18 0.250000 0.250000 0.000000
O O19 0.075344 0.000000 0.268904
#
# Coordination Sequence:
#
# PCOD9201265 Si02
#       8
#     8   8   8   2   8   8   8   8
#     4  10  23  39  60  91 126 162 208 264 324 386
#     4  11  26  43  65  98 131 173 222 276 333 396
#     4  10  21  39  62  89 122 164 215 264 319 393
#     4  12  26  44  68  94 136 174 222 270 342 402
#     4  10  20  37  61  90 124 165 208 258 323 386
#     4  11  22  38  62  92 125 166 213 268 327 388
#     4  11  25  43  67  95 129 172 222 273 331 400
#     4  10  23  41  63  89 124 166 210 265 326 388
#
# _framework density 23.751957999999998
#
# number of rings (size 3 to 8) (size 9 to 14) (size 15 to 20)
#    0.000    1.517    2.069    1.862    3.862    6.345 
#    0.000    0.000    0.000    0.000    0.000    0.000 
#    0.000    0.000    0.000    0.000    0.000    0.000 
#
# Total GULP energy -161901.598507 kJ/mol
# GULP energy per Si atom -5582.813742 kJ/mol
# Density = 2.369790 g / cm^3
# Si number density = 23.751958 Si / 1000 Ang^3
#
#
#
# Elastic Constant Matrix: (Units=GPa)
#
#
# Indices 1 2 3 4 5 6 
#
# 1 80.5906 -1.8772 -1.7474 0.0001 -8.8822 0.0001
# 2 -1.8772 87.4933 -9.0758 0.0002 -5.6273 0.0003
# 3 -1.7474 -9.0758 72.9511 0.0000 -17.0323 0.0000
# 4 0.0001 0.0002 0.0000 24.0532 0.0000 6.6584
# 5 -8.8822 -5.6273 -17.0323 0.0000 44.5393 0.0000
# 6 0.0001 0.0003 0.0000 6.6584 0.0000 8.6108
#
#
#
# Elastic Compliance Matrix: (Units=1/GPa)
#
#
# Indices 1 2 3 4 5 6 
#
# 1 0.012780 0.000582 0.001088 0.000000 0.003038 0.000000
# 2 0.000582 0.011807 0.002040 0.000000 0.002388 0.000000
# 3 0.001088 0.002040 0.015481 0.000000 0.006395 0.000000
# 4 0.000000 0.000000 0.000000 0.052898 0.000000 -0.040904
# 5 0.003038 0.002388 0.006395 0.000000 0.025805 0.000000
# 6 0.000000 0.000000 0.000000 -0.040904 0.000000 0.147763
#
#
# Mechanical properties :
#
#
# Convention : Reuss Voigt Hill
#
# Bulk Modulus (GPa) = 21.05695 23.95935 22.50815
# Shear Modulus (GPa) = 18.18560 32.35634 25.27097
#
# Velocity S-wave (km/s) = 2.77003 3.69488 3.26537
# Velocity P-wave (km/s) = 4.37211 5.32091 4.86968
#
# Compressibility (1/GPa) = 0.04749026
#
# Stress axis : x y z
#
# Youngs Moduli (GPa) = 78.24463 84.69404 64.59634
#
# Poissons Ratio (x) = -0.04933 -0.07028
# Poissons Ratio (y) = -0.04558 -0.13181
# Poissons Ratio (z) = -0.08513 -0.17282
#
# Static dielectric constant tensor:
#      x y z
#    x 1.971760 0.000000 -0.051350 
#    y 0.000000 1.873040 0.000000 
#    z -0.051350 0.000000 1.903640 
# 
# From -- ./inp_files/346574.got.cif
#   From: 2010.05.17/outbox.cif.g08.bks.cpg/sg12_174_cif.got.tgz:346574.got - 2010.06.03 13:09:07.
