data_PCOD9201095
_publ_section_title
;
Structure prediction by ZEFSAII (Michael W. Deem and Ramdas Pophale) SiO2 
 PCOD9201095
Probable space group: C 2/M
;
_chemical_formula_sum "Si O2"
_cell_formula_units_Z 64
_cell_length_a 18.651536
_cell_length_b 8.564050
_cell_length_c 31.383999
_cell_angle_alpha 90.000000
_cell_angle_beta 137.939825
_cell_angle_gamma 90.000000
_cell_volume 3358.296292
_symmetry_space_group_name_H-M "C 2/M"
_symmetry_group_IT_number 12
_symmetry_cell_setting 'monoclinic'
loop_
_space_group_symop_operation_xyz
x,y,z
-x,y,-z
-x,-y,-z
x,-y,z
1/2+x,1/2+y,z
1/2-x,1/2+y,-z
1/2-x,1/2-y,-z
1/2+x,1/2-y,z
loop_
_atom_site_type_symbol
_atom_site_label
_atom_site_fract_x
_atom_site_fract_y
_atom_site_fract_z
Si Si1 0.275970 0.190371 0.186751
Si Si2 0.059291 0.311475 0.813370
Si Si3 0.761219 0.313465 0.573915
Si Si4 0.532177 0.310979 0.062135
Si Si5 0.582126 0.313036 0.428095
Si Si6 0.176629 0.186415 0.307932
Si Si7 0.131196 0.687413 0.939288
Si Si8 0.652606 0.188969 0.687525
O O1 0.354070 0.242658 0.183314
O O2 0.153576 0.239560 0.125589
O O3 0.319356 0.239225 0.252024
O O4 0.275923 0.000000 0.186275
O O5 0.060549 0.500000 0.813537
O O6 0.091073 0.259706 0.874898
O O7 0.941226 0.256381 0.749191
O O8 0.763515 0.500000 0.579440
O O9 0.653614 0.268690 0.500749
O O10 0.858860 0.261022 0.586685
O O11 0.773226 0.237054 0.625079
O O12 0.528466 0.500000 0.062587
O O13 0.449670 0.245887 0.060196
O O14 0.500000 0.265043 0.000000
O O15 0.585992 0.500000 0.425852
O O16 0.461209 0.255709 0.376808
O O17 0.253813 0.237510 0.303477
O O18 0.168284 0.000000 0.302759
O O19 0.133749 0.500000 0.940609
O O20 0.250000 0.750000 0.000000
O O21 0.646603 0.000000 0.684463
#
# Coordination Sequence:
#
# PCOD9201095 Si02
#       8
#     8   8   8   8   8   8   8   8
#     4   9  18  35  58  81 107 144 189 231 280 341
#     4  10  21  38  60  84 111 149 195 239 286 339
#     4  10  21  38  59  82 112 149 186 231 288 343
#     4  10  20  37  61  85 113 151 193 237 285 338
#     4  10  21  37  59  85 110 142 190 240 283 337
#     4  11  23  37  56  85 117 150 191 235 280 335
#     4  11  23  38  58  86 119 154 193 236 285 339
#     4  10  21  36  55  80 113 151 186 229 287 343
#
# _framework density 19.057282000000001
#
# number of rings (size 3 to 8) (size 9 to 14) (size 15 to 20)
#    0.000    1.875    0.000    3.750    0.000    8.250 
#    0.000    3.750    0.000    0.000    0.000    0.000 
#    0.000    0.000    0.000    0.000    0.000    0.000 
#
# Total GULP energy -178832.200598 kJ/mol
# GULP energy per Si atom -5588.506269 kJ/mol
# Density = 1.901391 g / cm^3
# Si number density = 19.057282 Si / 1000 Ang^3
#
#
#
# Elastic Constant Matrix: (Units=GPa)
#
#
# Indices 1 2 3 4 5 6 
#
# 1 185.8912 23.5183 101.4317 0.0000 1.9447 0.0001
# 2 23.5183 10.2909 18.0345 -0.0001 -0.4676 0.0001
# 3 101.4317 18.0345 130.4471 0.0000 2.8033 0.0000
# 4 0.0000 -0.0001 0.0000 23.9869 0.0000 5.8524
# 5 1.9447 -0.4676 2.8033 0.0000 42.3722 0.0000
# 6 0.0001 0.0001 0.0000 5.8524 0.0000 30.1042
#
#
#
# Elastic Compliance Matrix: (Units=1/GPa)
#
#
# Indices 1 2 3 4 5 6 
#
# 1 0.010477 -0.012780 -0.006376 0.000000 -0.000200 0.000000
# 2 -0.012780 0.144118 -0.010048 0.000001 0.002842 -0.000001
# 3 -0.006376 -0.010048 0.014029 0.000000 -0.000746 0.000000
# 4 0.000000 0.000001 0.000000 0.043765 0.000000 -0.008508
# 5 -0.000200 0.002842 -0.000746 0.000000 0.023690 0.000000
# 6 0.000000 -0.000001 0.000000 -0.008508 0.000000 0.034872
#
#
# Mechanical properties :
#
#
# Convention : Reuss Voigt Hill
#
# Bulk Modulus (GPa) = 9.07306 68.06649 38.56978
# Shear Modulus (GPa) = 13.65750 31.53566 22.59658
#
# Velocity S-wave (km/s) = 2.67995 4.07232 3.44716
# Velocity P-wave (km/s) = 3.78780 7.60960 6.01055
#
# Compressibility (1/GPa) = 0.11021636
#
# Stress axis : x y z
#
# Youngs Moduli (GPa) = 95.44308 6.93874 71.28247
#
# Poissons Ratio (x) = 0.08868 0.45448
# Poissons Ratio (y) = 1.21981 0.71624
# Poissons Ratio (z) = 0.60852 0.06972
#
# Static dielectric constant tensor:
#      x y z
#    x 1.629620 0.000000 -0.010100 
#    y 0.000000 1.656200 0.000000 
#    z -0.010100 0.000000 1.638960 
# 
# From -- ./inp_files/378476.got.cif
#   From: 2010.05.17/outbox.cif.g08.bks.cpg/sg12_190_cif.got.tgz:378476.got - 2010.06.03 13:09:07.
