data_PCOD9201094
_publ_section_title
;
Structure prediction by ZEFSAII (Michael W. Deem and Ramdas Pophale) SiO2 
 PCOD9201094
Probable space group: C 2/M
;
_chemical_formula_sum "Si O2"
_cell_formula_units_Z 50
_cell_length_a 18.907016
_cell_length_b 16.139715
_cell_length_c 16.212830
_cell_angle_alpha 90.000000
_cell_angle_beta 28.326313
_cell_angle_gamma 90.000000
_cell_volume 2347.507832
_symmetry_space_group_name_H-M "C 2/M"
_symmetry_group_IT_number 12
_symmetry_cell_setting 'monoclinic'
loop_
_space_group_symop_operation_xyz
x,y,z
-x,y,-z
-x,-y,-z
x,-y,z
1/2+x,1/2+y,z
1/2-x,1/2+y,-z
1/2-x,1/2-y,-z
1/2+x,1/2-y,z
loop_
_atom_site_type_symbol
_atom_site_label
_atom_site_fract_x
_atom_site_fract_y
_atom_site_fract_z
Si Si1 0.500000 0.500000 0.500000
Si Si2 0.523822 0.245817 0.574125
Si Si3 0.974365 0.095768 0.927489
Si Si4 0.251602 0.364088 0.705568
Si Si5 0.483036 0.909432 0.183669
Si Si6 0.306310 0.764061 0.072265
Si Si7 0.692076 0.907504 0.469030
O O1 0.368228 0.428346 0.625202
O O2 0.500000 0.248935 0.500000
O O3 0.650164 0.313447 0.461949
O O4 0.365985 0.264083 0.777768
O O5 0.590546 0.157674 0.526814
O O6 0.133832 0.111079 0.720683
O O7 0.927087 0.000000 0.957976
O O8 0.000000 0.100966 0.000000
O O9 0.866814 0.170452 0.011205
O O10 0.112217 0.402798 0.802073
O O11 0.194701 0.300094 0.833035
O O12 0.364942 0.907101 0.379043
O O13 0.560003 0.000000 0.106998
O O14 0.592948 0.831514 0.077561
O O15 0.670633 0.000000 0.456866
#
# Coordination Sequence:
#
# PCOD9201094 Si02
#       7
#     2   8   8   8   8   8   8
#     4  12  20  40  66  92 126 164 202 254 290 368
#     4  10  21  38  60  87 120 154 202 256 300 356
#     4  10  20  37  61  85 113 150 202 258 301 357
#     4  11  22  39  63  92 122 162 204 243 301 361
#     4  11  24  38  60  89 125 162 201 251 303 363
#     4  11  22  36  59  94 120 156 209 248 297 361
#     4  10  23  42  60  88 120 160 207 248 308 369
#
# _framework density 21.299184
#
# number of rings (size 3 to 8) (size 9 to 14) (size 15 to 20)
#    0.000    1.440    3.200    4.320    1.120    4.800 
#    0.000    0.000    0.000    3.840    0.000    0.000 
#    0.000    0.000    0.000    0.000    0.000    0.000 
#
# Total GULP energy -139368.751479 kJ/mol
# GULP energy per Si atom -5574.750059 kJ/mol
# Density = 2.125071 g / cm^3
# Si number density = 21.299184 Si / 1000 Ang^3
#
#
#
# Elastic Constant Matrix: (Units=GPa)
#
#
# Indices 1 2 3 4 5 6 
#
# 1 13.7212 18.1694 1.0591 -0.0009 0.8985 0.0017
# 2 18.1694 138.4826 61.8979 -0.0046 -7.8779 0.0086
# 3 1.0591 61.8979 116.6430 -0.0039 6.7787 0.0084
# 4 -0.0009 -0.0046 -0.0039 35.3222 0.0021 24.4848
# 5 0.8985 -7.8779 6.7787 0.0021 14.8952 -0.0041
# 6 0.0017 0.0086 0.0084 24.4848 -0.0041 -57.3205
#
#
#
# Elastic Compliance Matrix: (Units=1/GPa)
#
#
# Indices 1 2 3 4 5 6 
#
# 1 0.097978 -0.018539 0.010129 0.000000 -0.020325 0.000003
# 2 -0.018539 0.013865 -0.007889 0.000000 0.012041 0.000000
# 3 0.010129 -0.007889 0.013297 0.000000 -0.010835 0.000002
# 4 0.000000 0.000000 0.000000 0.021843 0.000000 0.009330
# 5 -0.020325 0.012041 -0.010835 0.000000 0.079661 -0.000006
# 6 0.000003 0.000000 0.000002 0.009330 -0.000006 -0.013460
#
#
# Mechanical properties :
#
#
# Convention : Reuss Voigt Hill
#
# Bulk Modulus (GPa) = 10.80579 47.89996 29.35288
# Shear Modulus (GPa) = 18.07485 11.09407 14.58446
#
# Velocity S-wave (km/s) = 2.91626 2.28473 2.61960
# Velocity P-wave (km/s) = 4.05263 5.43120 4.79175
#
# Compressibility (1/GPa) = 0.09254296
#
# Stress axis : x y z
#
# Youngs Moduli (GPa) = 10.20639 72.12627 75.20410
#
# Poissons Ratio (x) = 1.33714 -0.76177
# Poissons Ratio (y) = 0.18921 0.59327
# Poissons Ratio (z) = -0.10338 0.56899
#
# Static dielectric constant tensor:
#      x y z
#    x 1.752070 0.000000 0.030350 
#    y 0.000000 1.789210 0.000000 
#    z 0.030350 0.000000 1.814130 
# 
# From -- ./inp_files/325899.got.cif
#   From: 2010.05.17/outbox.cif.g08.bks.cpg/sg12_163_cif.got.tgz:325899.got - 2010.06.03 13:09:07.
