data_PCOD9201677
_publ_section_title
;
Structure prediction by ZEFSAII (Michael W. Deem and Ramdas Pophale) SiO2 
 PCOD9201677
Probable space group: C 2/M
;
_chemical_formula_sum "Si O2"
_cell_formula_units_Z 40
_cell_length_a 9.906751
_cell_length_b 29.550847
_cell_length_c 15.157801
_cell_angle_alpha 90.000000
_cell_angle_beta 155.925532
_cell_angle_gamma 90.000000
_cell_volume 1810.157072
_symmetry_space_group_name_H-M "C 2/M"
_symmetry_group_IT_number 12
_symmetry_cell_setting 'monoclinic'
loop_
_space_group_symop_operation_xyz
x,y,z
-x,y,-z
-x,-y,-z
x,-y,z
1/2+x,1/2+y,z
1/2-x,1/2+y,-z
1/2-x,1/2-y,-z
1/2+x,1/2-y,z
loop_
_atom_site_type_symbol
_atom_site_label
_atom_site_fract_x
_atom_site_fract_y
_atom_site_fract_z
Si Si1 0.726719 0.877721 0.907815
Si Si2 0.113092 0.907830 0.300593
Si Si3 0.716786 0.550245 0.540001
Si Si4 0.690380 0.692318 0.379922
Si Si5 0.375898 0.788396 0.689795
O O1 0.467508 0.908502 0.701230
O O2 0.566115 0.830763 0.845161
O O3 0.000000 0.863522 0.000000
O O4 0.886742 0.909159 0.078672
O O5 0.500000 0.912620 0.500000
O O6 0.046190 0.940538 0.343353
O O7 0.034441 0.856934 0.287349
O O8 0.500000 0.551806 0.500000
O O9 0.868632 0.500000 0.626955
O O10 0.491140 0.736789 0.229052
O O11 0.840002 0.701037 0.565058
O O12 0.000000 0.687878 0.500000
O O13 0.000000 0.787170 0.500000
#
# Coordination Sequence:
#
# PCOD9201677 Si02
#       5
#     8   8   8   8   8
#     4  12  23  41  69  97 132 174 218 263 323 392
#     4  11  22  42  67  96 131 173 217 266 320 388
#     4  11  26  48  70  96 130 163 211 281 338 385
#     4   9  18  36  61  90 131 173 215 262 313 373
#     4  10  20  37  63  92 131 175 216 266 313 375
#
# _framework density 22.097529999999999
#
# number of rings (size 3 to 8) (size 9 to 14) (size 15 to 20)
#    0.000    1.400    4.000    1.800    0.000    3.200 
#    0.000    2.000    0.000    0.000    0.000    0.000 
#    0.000    0.000    0.000    0.000    0.000    0.000 
#
# Total GULP energy -111575.493666 kJ/mol
# GULP energy per Si atom -5578.774683 kJ/mol
# Density = 2.204723 g / cm^3
# Si number density = 22.097530 Si / 1000 Ang^3
#
#
#
# Elastic Constant Matrix: (Units=GPa)
#
#
# Indices 1 2 3 4 5 6 
#
# 1 101.8554 5.6610 8.1798 0.0000 -15.3046 0.0000
# 2 5.6610 116.7271 10.1230 0.0000 10.6592 0.0000
# 3 8.1798 10.1230 41.7126 0.0001 -16.4146 0.0001
# 4 0.0000 0.0000 0.0001 17.7613 0.0000 -10.4641
# 5 -15.3046 10.6592 -16.4146 0.0000 30.8112 0.0001
# 6 0.0000 0.0000 0.0001 -10.4641 0.0001 4.9094
#
#
#
# Elastic Compliance Matrix: (Units=1/GPa)
#
#
# Indices 1 2 3 4 5 6 
#
# 1 0.010739 -0.001114 0.000526 0.000001 0.006000 0.000001
# 2 -0.001114 0.009597 -0.004599 -0.000001 -0.006324 -0.000001
# 3 0.000526 -0.004599 0.032537 0.000003 0.019186 0.000006
# 4 0.000001 -0.000001 0.000003 -0.220139 0.000004 -0.469216
# 5 0.006000 -0.006324 0.019186 0.000004 0.047845 0.000008
# 6 0.000001 -0.000001 0.000006 -0.469216 0.000008 -0.796423
#
#
# Mechanical properties :
#
#
# Convention : Reuss Voigt Hill
#
# Bulk Modulus (GPa) = 23.53093 34.24695 28.88894
# Shear Modulus (GPa) = -5.60977 26.45179 10.42101
#
# Velocity S-wave (km/s) = -1.59504 3.46359 2.17397
# Velocity P-wave (km/s) = 2.69807 5.61489 4.40492
#
# Compressibility (1/GPa) = 0.04249725
#
# Stress axis : x y z
#
# Youngs Moduli (GPa) = 93.11779 104.19519 30.73452
#
# Poissons Ratio (x) = 0.11610 -0.01615
# Poissons Ratio (y) = 0.10376 0.14135
# Poissons Ratio (z) = -0.04893 0.47921
#
# Static dielectric constant tensor:
#      x y z
#    x 1.906930 0.000000 -0.060430 
#    y 0.000000 1.842350 0.000000 
#    z -0.060430 0.000000 1.846380 
# 
# From -- ./inp_files/201420.got.cif
#   From: 2010.05.17/outbox.cif.g08.bks.cpg/sg12_101_cif.got.tgz:201420.got - 2010.06.03 13:09:07.
