data_PCOD9201864
_publ_section_title
;
Structure prediction by ZEFSAII (Michael W. Deem and Ramdas Pophale) SiO2 
 PCOD9201864
Probable space group: C 2/M
;
_chemical_formula_sum "Si O2"
_cell_formula_units_Z 50
_cell_length_a 8.939878
_cell_length_b 26.340848
_cell_length_c 11.536581
_cell_angle_alpha 90.000000
_cell_angle_beta 55.722492
_cell_angle_gamma 90.000000
_cell_volume 2244.845408
_symmetry_space_group_name_H-M "C 2/M"
_symmetry_group_IT_number 12
_symmetry_cell_setting 'monoclinic'
loop_
_space_group_symop_operation_xyz
x,y,z
-x,y,-z
-x,-y,-z
x,-y,z
1/2+x,1/2+y,z
1/2-x,1/2+y,-z
1/2-x,1/2-y,-z
1/2+x,1/2-y,z
loop_
_atom_site_type_symbol
_atom_site_label
_atom_site_fract_x
_atom_site_fract_y
_atom_site_fract_z
Si Si1 0.359426 0.691397 0.763925
Si Si2 0.912065 0.923210 0.699997
Si Si3 0.500000 0.858687 0.000000
Si Si4 0.500000 0.863776 0.500000
Si Si5 0.500000 0.500000 0.000000
Si Si6 0.185813 0.554342 0.031686
Si Si7 0.794988 0.555061 0.447434
Si Si8 0.268807 0.272532 0.361891
O O1 0.429943 0.637528 0.686241
O O2 0.523361 0.716666 0.761245
O O3 0.313664 0.730085 0.683210
O O4 0.174622 0.675685 0.906563
O O5 0.808182 0.939580 0.861450
O O6 0.795124 0.939156 0.639738
O O7 0.115495 0.943860 0.606679
O O8 0.447160 0.897708 0.918222
O O9 0.572548 0.900352 0.570242
O O10 0.660263 0.825065 0.397487
O O11 0.661324 0.544181 0.938995
O O12 0.085153 0.500000 0.072863
O O13 0.884960 0.500000 0.416978
O O14 0.250000 0.250000 0.500000
#
# Coordination Sequence:
#
# PCOD9201864 Si02
#       8
#     8   8   4   4   2   8   8   8
#     4  11  24  41  68  97 129 174 224 286 331 412
#     4  10  20  37  65  94 132 175 224 263 338 405
#     4  10  23  42  66  95 138 178 226 270 344 400
#     4  12  23  38  62  96 138 172 223 286 326 400
#     4   8  20  34  68  92 124 170 240 282 312 368
#     4   9  18  39  66  95 127 181 229 278 310 402
#     4  11  22  36  60  97 137 180 208 270 341 413
#     4  12  23  42  69  96 126 173 230 285 342 395
#
# _framework density 22.273247999999999
#
# number of rings (size 3 to 8) (size 9 to 14) (size 15 to 20)
#    0.480    0.960    3.200    3.360    2.240    0.640 
#    0.000    8.000    7.040    0.000    0.000    0.000 
#    0.000    0.000    0.000    0.000    0.000    0.000 
#
# Total GULP energy -139312.746156 kJ/mol
# GULP energy per Si atom -5572.509846 kJ/mol
# Density = 2.222255 g / cm^3
# Si number density = 22.273248 Si / 1000 Ang^3
#
#
#
# Elastic Constant Matrix: (Units=GPa)
#
#
# Indices 1 2 3 4 5 6 
#
# 1 87.9377 36.8573 10.0229 0.0000 -29.3971 0.0000
# 2 36.8573 149.9337 8.8054 0.0000 -4.4920 0.0000
# 3 10.0229 8.8054 70.9705 0.0000 -24.8648 0.0000
# 4 0.0000 0.0000 0.0000 15.2403 0.0000 -20.9828
# 5 -29.3971 -4.4920 -24.8648 0.0000 30.5873 0.0000
# 6 0.0000 0.0000 0.0000 -20.9828 0.0000 73.2590
#
#
#
# Elastic Compliance Matrix: (Units=1/GPa)
#
#
# Indices 1 2 3 4 5 6 
#
# 1 0.020771 -0.004740 0.006159 0.000000 0.024273 0.000000
# 2 -0.004740 0.007805 -0.002088 0.000000 -0.005107 0.000000
# 3 0.006159 -0.002088 0.021597 0.000000 0.023169 0.000000
# 4 0.000000 0.000000 0.000000 0.108337 0.000000 0.031030
# 5 0.024273 -0.005107 0.023169 0.000000 0.074106 0.000000
# 6 0.000000 0.000000 0.000000 0.031030 0.000000 0.022538
#
#
# Mechanical properties :
#
#
# Convention : Reuss Voigt Hill
#
# Bulk Modulus (GPa) = 20.47793 46.69033 33.58413
# Shear Modulus (GPa) = 18.33040 40.69441 29.51240
#
# Velocity S-wave (km/s) = 2.87187 4.27904 3.64403
# Velocity P-wave (km/s) = 4.49564 6.73956 5.72854
#
# Compressibility (1/GPa) = 0.04883305
#
# Stress axis : x y z
#
# Youngs Moduli (GPa) = 48.14406 128.13011 46.30265
#
# Poissons Ratio (x) = 0.60740 -0.28518
# Poissons Ratio (y) = 0.22823 0.09669
# Poissons Ratio (z) = -0.29652 0.26757
#
# Static dielectric constant tensor:
#      x y z
#    x 1.828920 0.000000 0.003070 
#    y 0.000000 1.808760 0.000000 
#    z 0.003070 0.000000 1.899290 
# 
# From -- ./inp_files/199667.got.cif
#   From: 2010.05.17/outbox.cif.g08.bks.cpg/sg12_100_cif.got.tgz:199667.got - 2010.06.03 13:09:07.
