data_PCOD9201096
_publ_section_title
;
Structure prediction by ZEFSAII (Michael W. Deem and Ramdas Pophale) SiO2 
 PCOD9201096
Probable space group: C 2/M
;
_chemical_formula_sum "Si O2"
_cell_formula_units_Z 48
_cell_length_a 21.248483
_cell_length_b 12.777585
_cell_length_c 26.607520
_cell_angle_alpha 90.000000
_cell_angle_beta 159.593411
_cell_angle_gamma 90.000000
_cell_volume 2518.882644
_symmetry_space_group_name_H-M "C 2/M"
_symmetry_group_IT_number 12
_symmetry_cell_setting 'monoclinic'
loop_
_space_group_symop_operation_xyz
x,y,z
-x,y,-z
-x,-y,-z
x,-y,z
1/2+x,1/2+y,z
1/2-x,1/2+y,-z
1/2-x,1/2-y,-z
1/2+x,1/2-y,z
loop_
_atom_site_type_symbol
_atom_site_label
_atom_site_fract_x
_atom_site_fract_y
_atom_site_fract_z
Si Si1 0.477101 0.119226 0.040717
Si Si2 0.554706 0.877954 0.325264
Si Si3 0.636012 0.685570 0.645082
Si Si4 0.856405 0.269779 0.504699
Si Si5 0.188891 0.788945 0.009407
Si Si6 0.791375 0.878845 0.705233
O O1 0.681303 0.121293 0.214609
O O2 0.407868 0.000000 0.988003
O O3 0.500000 0.156711 0.000000
O O4 0.359785 0.193680 0.988852
O O5 0.692280 0.805725 0.396978
O O6 0.583378 0.840604 0.403858
O O7 0.352969 0.853635 0.155855
O O8 0.595507 0.000000 0.350023
O O9 0.500000 0.647696 0.500000
O O10 0.522093 0.697835 0.610304
O O11 0.699807 0.802503 0.677264
O O12 0.789279 0.340205 0.408122
O O13 0.250000 0.750000 0.000000
O O14 0.004940 0.854878 0.866129
O O15 0.755145 0.000000 0.686990
#
# Coordination Sequence:
#
# PCOD9201096 Si02
#       6
#     8   8   8   8   8   8
#     4  10  22  40  62  87 117 157 199 245 302 357
#     4  11  23  38  59  84 118 158 194 237 294 353
#     4   9  20  37  58  85 116 146 189 243 290 347
#     4  10  21  39  57  86 120 151 194 241 289 350
#     4  11  22  41  58  88 120 156 199 252 295 352
#     4  10  20  37  61  85 113 151 194 239 295 350
#
# _framework density 19.056068
#
# number of rings (size 3 to 8) (size 9 to 14) (size 15 to 20)
#    0.000    1.833    1.667    2.000    0.000    6.000 
#    0.000    2.500    0.000    5.500    0.000    0.000 
#    0.000    0.000    0.000    0.000    0.000    0.000 
#
# Total GULP energy -134018.831804 kJ/mol
# GULP energy per Si atom -5584.117992 kJ/mol
# Density = 1.901270 g / cm^3
# Si number density = 19.056068 Si / 1000 Ang^3
#
#
#
# Elastic Constant Matrix: (Units=GPa)
#
#
# Indices 1 2 3 4 5 6 
#
# 1 81.7886 22.4272 9.3497 0.0036 3.7751 -0.0020
# 2 22.4272 69.5391 4.1399 -0.0009 -12.3631 0.0001
# 3 9.3497 4.1399 84.2326 -0.0305 1.5398 0.0062
# 4 0.0036 -0.0009 -0.0305 8.3422 0.0067 -3.5592
# 5 3.7751 -12.3631 1.5398 0.0067 18.7304 0.0017
# 6 -0.0020 0.0001 0.0062 -3.5592 0.0017 11.0200
#
#
#
# Elastic Compliance Matrix: (Units=1/GPa)
#
#
# Indices 1 2 3 4 5 6 
#
# 1 0.014218 -0.005673 -0.001180 -0.000005 -0.006513 0.000003
# 2 -0.005673 0.018640 -0.000533 -0.000011 0.013491 -0.000007
# 3 -0.001180 -0.000533 0.012049 0.000049 -0.001105 0.000009
# 4 -0.000005 -0.000011 0.000049 0.139032 -0.000065 0.044904
# 5 -0.006513 0.013491 -0.001105 -0.000065 0.063697 -0.000032
# 6 0.000003 -0.000007 0.000009 0.044904 -0.000032 0.105248
#
#
# Mechanical properties :
#
#
# Convention : Reuss Voigt Hill
#
# Bulk Modulus (GPa) = 33.18451 34.15487 33.66969
# Shear Modulus (GPa) = 13.23796 20.92807 17.08301
#
# Velocity S-wave (km/s) = 2.63855 3.31756 2.99734
# Velocity P-wave (km/s) = 5.17054 5.71290 5.44847
#
# Compressibility (1/GPa) = 0.03013455
#
# Stress axis : x y z
#
# Youngs Moduli (GPa) = 70.33438 53.64729 82.99239
#
# Poissons Ratio (x) = 0.30435 0.09795
# Poissons Ratio (y) = 0.39901 0.04424
# Poissons Ratio (z) = 0.08301 0.02860
#
# Static dielectric constant tensor:
#      x y z
#    x 1.656670 0.000000 -0.004160 
#    y 0.000000 1.635920 0.000000 
#    z -0.004160 0.000000 1.664080 
# 
# From -- ./inp_files/366140.got.cif
#   From: 2010.05.17/outbox.cif.g08.bks.cpg/sg12_184_cif.got.tgz:366140.got - 2010.06.03 13:09:07.
