data_PCOD9201435
_publ_section_title
;
Structure prediction by ZEFSAII (Michael W. Deem and Ramdas Pophale) SiO2 
 PCOD9201435
Probable space group: C 2/M
;
_chemical_formula_sum "Si O2"
_cell_formula_units_Z 40
_cell_length_a 28.041832
_cell_length_b 8.493741
_cell_length_c 9.176507
_cell_angle_alpha 90.000000
_cell_angle_beta 70.925244
_cell_angle_gamma 90.000000
_cell_volume 2065.652862
_symmetry_space_group_name_H-M "C 2/M"
_symmetry_group_IT_number 12
_symmetry_cell_setting 'monoclinic'
loop_
_space_group_symop_operation_xyz
x,y,z
-x,y,-z
-x,-y,-z
x,-y,z
1/2+x,1/2+y,z
1/2-x,1/2+y,-z
1/2-x,1/2-y,-z
1/2+x,1/2-y,z
loop_
_atom_site_type_symbol
_atom_site_label
_atom_site_fract_x
_atom_site_fract_y
_atom_site_fract_z
Si Si1 0.751024 0.811064 0.834232
Si Si2 0.449062 0.688715 0.633514
Si Si3 0.050110 0.690645 0.037755
Si Si4 0.349772 0.188981 0.570698
Si Si5 0.150370 0.308135 0.765366
O O1 0.800778 0.752629 0.702354
O O2 0.700922 0.757082 0.798071
O O3 0.750951 0.000000 0.836479
O O4 0.750000 0.750000 0.000000
O O5 0.500000 0.740643 0.500000
O O6 0.446809 0.500000 0.631515
O O7 0.450172 0.744612 0.798955
O O8 0.400165 0.755966 0.601424
O O9 0.050571 0.500000 0.044602
O O10 0.100234 0.742060 0.901267
O O11 0.000000 0.738370 0.000000
O O12 0.350039 0.243207 0.402156
O O13 0.348092 0.000000 0.573956
O O14 0.150216 0.500000 0.765035
#
# Coordination Sequence:
#
# PCOD9201435 Si02
#       5
#     8   8   8   8   8
#     4  11  22  38  59  86 120 156 196 240 289 346
#     4  11  24  40  58  85 120 155 193 239 291 348
#     4  10  20  37  62  89 116 151 197 243 287 342
#     4  11  22  39  62  86 114 151 195 242 294 347
#     4   9  20  37  58  85 116 151 193 240 288 343
#
# _framework density 19.364338
#
# number of rings (size 3 to 8) (size 9 to 14) (size 15 to 20)
#    0.000    1.600    0.000    4.800    0.000    5.200 
#    0.000    6.000    0.000    0.000    0.000    0.000 
#    0.000    0.000    0.000    0.000    0.000    0.000 
#
# Total GULP energy -111842.037883 kJ/mol
# GULP energy per Si atom -5592.101894 kJ/mol
# Density = 1.932026 g / cm^3
# Si number density = 19.364338 Si / 1000 Ang^3
#
#
#
# Elastic Constant Matrix: (Units=GPa)
#
#
# Indices 1 2 3 4 5 6 
#
# 1 235.4109 46.2319 144.0907 0.0000 -1.6884 0.0000
# 2 46.2319 39.1030 42.6807 0.0000 0.2542 0.0000
# 3 144.0907 42.6807 240.2693 0.0000 -1.2812 0.0000
# 4 0.0000 0.0000 0.0000 27.1763 0.0000 3.8490
# 5 -1.6884 0.2542 -1.2812 0.0000 46.8959 0.0000
# 6 0.0000 0.0000 0.0000 3.8490 0.0000 5.3710
#
#
#
# Elastic Compliance Matrix: (Units=1/GPa)
#
#
# Indices 1 2 3 4 5 6 
#
# 1 0.007382 -0.004836 -0.003567 0.000000 0.000195 0.000000
# 2 -0.004836 0.034897 -0.003301 0.000000 -0.000453 0.000000
# 3 -0.003567 -0.003301 0.006888 0.000000 0.000078 0.000000
# 4 0.000000 0.000000 0.000000 0.040953 0.000000 -0.029348
# 5 0.000195 -0.000453 0.000078 0.000000 0.021335 0.000000
# 6 0.000000 0.000000 0.000000 -0.029348 0.000000 0.207218
#
#
# Mechanical properties :
#
#
# Convention : Reuss Voigt Hill
#
# Bulk Modulus (GPa) = 38.82147 108.97665 73.89906
# Shear Modulus (GPa) = 14.25841 34.67397 24.46619
#
# Velocity S-wave (km/s) = 2.71647 4.23615 3.55838
# Velocity P-wave (km/s) = 5.47087 8.96247 7.42483
#
# Compressibility (1/GPa) = 0.02575895
#
# Stress axis : x y z
#
# Youngs Moduli (GPa) = 135.45664 28.65538 145.17782
#
# Poissons Ratio (x) = 0.13858 0.51788
# Poissons Ratio (y) = 0.65507 0.47928
# Poissons Ratio (z) = 0.48320 0.09460
#
# Static dielectric constant tensor:
#      x y z
#    x 1.645150 0.000000 -0.002810 
#    y 0.000000 1.663340 0.000000 
#    z -0.002810 0.000000 1.636100 
# 
# From -- ./inp_files/92767.got.cif
#   From: 2010.05.17/outbox.cif.g08.bks.cpg/sg12_47_cif.got.tgz:92767.got - 2010.06.03 13:09:07.
