data_PCOD9201261
_publ_section_title
;
Structure prediction by ZEFSAII (Michael W. Deem and Ramdas Pophale) SiO2 
 PCOD9201261
Probable space group: C 2/M
;
_chemical_formula_sum "Si O2"
_cell_formula_units_Z 64
_cell_length_a 31.068534
_cell_length_b 8.720756
_cell_length_c 16.649360
_cell_angle_alpha 90.000000
_cell_angle_beta 46.734199
_cell_angle_gamma 90.000000
_cell_volume 3284.826000
_symmetry_space_group_name_H-M "C 2/M"
_symmetry_group_IT_number 12
_symmetry_cell_setting 'monoclinic'
loop_
_space_group_symop_operation_xyz
x,y,z
-x,y,-z
-x,-y,-z
x,-y,z
1/2+x,1/2+y,z
1/2-x,1/2+y,-z
1/2-x,1/2-y,-z
1/2+x,1/2-y,z
loop_
_atom_site_type_symbol
_atom_site_label
_atom_site_fract_x
_atom_site_fract_y
_atom_site_fract_z
Si Si1 0.504648 0.183919 0.747220
Si Si2 0.617963 0.685142 0.157783
Si Si3 0.544802 0.184543 0.873067
Si Si4 0.339028 0.685123 0.724056
Si Si5 0.292459 0.685043 0.091943
Si Si6 0.275834 0.181316 0.548395
Si Si7 0.839747 0.181214 0.198694
Si Si8 0.888916 0.183592 0.488262
O O1 0.440258 0.245086 0.807004
O O2 0.525057 0.237887 0.810002
O O3 0.551739 0.243527 0.622165
O O4 0.504418 0.000000 0.747756
O O5 0.613307 0.500000 0.161087
O O6 0.627148 0.732631 0.238229
O O7 0.675221 0.728859 0.031728
O O8 0.610163 0.235638 0.814496
O O9 0.543088 0.000000 0.874331
O O10 0.500000 0.238876 0.000000
O O11 0.336513 0.500000 0.726227
O O12 0.272324 0.746297 0.814382
O O13 0.371226 0.734466 0.600963
O O14 0.287516 0.500000 0.101531
O O15 0.333945 0.732718 0.113851
O O16 0.250000 0.250000 0.500000
O O17 0.224721 0.202679 0.680033
O O18 0.334982 0.265241 0.500352
O O19 0.287351 0.000000 0.524838
O O20 0.853029 0.000000 0.183228
O O21 0.894409 0.000000 0.480738
#
# Coordination Sequence:
#
# PCOD9201261 Si02
#       8
#     8   8   8   8   8   8   8   8
#     4  11  24  41  61  87 118 156 203 250 299 356
#     4  10  22  40  62  88 119 156 199 247 302 362
#     4  10  22  39  58  83 116 153 194 241 291 347
#     4  10  22  39  61  90 120 156 200 246 300 359
#     4  10  20  37  61  90 123 155 192 245 303 359
#     4  11  22  37  57  84 118 152 195 242 291 352
#     4  10  21  35  55  85 116 149 188 233 287 347
#     4  11  23  40  61  85 119 160 200 246 300 353
#
# _framework density 19.483526999999999
#
# number of rings (size 3 to 8) (size 9 to 14) (size 15 to 20)
#    0.000    1.625    1.250    3.000    0.000    6.750 
#    0.000    2.500    0.000    0.000    0.000    0.000 
#    0.000    0.000    0.000    0.000    0.000    0.000 
#
# Total GULP energy -178852.385069 kJ/mol
# GULP energy per Si atom -5589.137033 kJ/mol
# Density = 1.943918 g / cm^3
# Si number density = 19.483527 Si / 1000 Ang^3
#
#
#
# Elastic Constant Matrix: (Units=GPa)
#
#
# Indices 1 2 3 4 5 6 
#
# 1 91.1387 15.4090 35.3288 0.0001 5.4716 -0.0001
# 2 15.4090 15.5693 28.8800 0.0007 -0.0631 -0.0003
# 3 35.3288 28.8800 114.4338 0.0005 8.0033 -0.0002
# 4 0.0001 0.0007 0.0005 25.5440 -0.0001 -8.0070
# 5 5.4716 -0.0631 8.0033 -0.0001 33.9999 0.0000
# 6 -0.0001 -0.0003 -0.0002 -8.0070 0.0000 32.7480
#
#
#
# Elastic Compliance Matrix: (Units=1/GPa)
#
#
# Indices 1 2 3 4 5 6 
#
# 1 0.013425 -0.011002 -0.001236 0.000000 -0.001890 0.000000
# 2 -0.011002 0.131699 -0.030484 -0.000003 0.009191 0.000000
# 3 -0.001236 -0.030484 0.017085 0.000000 -0.003879 0.000000
# 4 0.000000 -0.000003 0.000000 0.042398 0.000000 0.010366
# 5 -0.001890 0.009191 -0.003879 0.000000 0.030646 0.000000
# 6 0.000000 0.000000 0.000000 0.010366 0.000000 0.033071
#
#
# Mechanical properties :
#
#
# Convention : Reuss Voigt Hill
#
# Bulk Modulus (GPa) = 13.02652 42.26417 27.64534
# Shear Modulus (GPa) = 13.18027 27.89331 20.53679
#
# Velocity S-wave (km/s) = 2.60375 3.78780 3.25015
# Velocity P-wave (km/s) = 3.96734 6.39291 5.32020
#
# Compressibility (1/GPa) = 0.07676646
#
# Stress axis : x y z
#
# Youngs Moduli (GPa) = 74.48824 7.59306 58.53169
#
# Poissons Ratio (x) = 0.08354 0.07234
# Poissons Ratio (y) = 0.81951 1.78425
# Poissons Ratio (z) = 0.09206 0.23146
#
# Static dielectric constant tensor:
#      x y z
#    x 1.653060 0.000000 0.029170 
#    y 0.000000 1.662110 0.000000 
#    z 0.029170 0.000000 1.697210 
# 
# From -- ./inp_files/249732.got.cif
#   From: 2010.05.17/outbox.cif.g08.bks.cpg/sg12_125_cif.got.tgz:249732.got - 2010.06.03 13:09:07.
