data_PCOD9201157
_publ_section_title
;
Structure prediction by ZEFSAII (Michael W. Deem and Ramdas Pophale) SiO2 
 PCOD9201157
Probable space group: C 2/M
;
_chemical_formula_sum "Si O2"
_cell_formula_units_Z 58
_cell_length_a 8.859235
_cell_length_b 10.878956
_cell_length_c 28.743440
_cell_angle_alpha 90.000000
_cell_angle_beta 87.517606
_cell_angle_gamma 90.000000
_cell_volume 2767.670867
_symmetry_space_group_name_H-M "C 2/M"
_symmetry_group_IT_number 12
_symmetry_cell_setting 'monoclinic'
loop_
_space_group_symop_operation_xyz
x,y,z
-x,y,-z
-x,-y,-z
x,-y,z
1/2+x,1/2+y,z
1/2-x,1/2+y,-z
1/2-x,1/2-y,-z
1/2+x,1/2-y,z
loop_
_atom_site_type_symbol
_atom_site_label
_atom_site_fract_x
_atom_site_fract_y
_atom_site_fract_z
Si Si1 0.243048 0.861457 0.536672
Si Si2 0.958870 0.220519 0.598223
Si Si3 0.320793 0.863480 0.342726
Si Si4 0.069470 0.859657 0.101207
Si Si5 0.390032 0.641829 0.198793
Si Si6 0.801110 0.858719 0.759248
Si Si7 0.158994 0.269316 0.953690
Si Si8 0.500000 0.000000 0.000000
O O1 0.250000 0.750000 0.500000
O O2 0.081371 0.848207 0.564689
O O3 0.379524 0.830912 0.570504
O O4 0.257952 0.000000 0.517607
O O5 0.053627 0.270897 0.640578
O O6 0.818429 0.143533 0.619277
O O7 0.254747 0.839492 0.292558
O O8 0.386417 0.000000 0.341689
O O9 0.216745 0.781002 0.088371
O O10 0.981263 0.834558 0.149838
O O11 0.954332 0.836795 0.060188
O O12 0.118207 0.000000 0.101554
O O13 0.331220 0.500000 0.197981
O O14 0.271933 0.749675 0.209685
O O15 0.518786 0.647454 0.236908
O O16 0.758576 0.000000 0.773900
O O17 0.063826 0.392083 0.963772
O O18 0.250000 0.250000 0.000000
#
# Coordination Sequence:
#
# PCOD9201157 Si02
#       8
#     8   8   8   8   8   8   8   2
#     4  11  24  40  60  86 119 160 202 248 298 352
#     4  10  22  38  59  87 119 153 201 246 295 352
#     4  10  20  37  61  87 118 155 192 244 297 352
#     4  11  24  40  62  84 118 155 195 236 286 342
#     4  10  22  41  60  88 120 158 197 241 287 351
#     4  10  21  39  63  91 122 155 196 241 298 351
#     4  12  24  40  60  88 115 152 192 239 291 344
#     4  12  24  40  60  88 120 144 190 246 292 340
#
# _framework density 20.956250000000001
#
# number of rings (size 3 to 8) (size 9 to 14) (size 15 to 20)
#    0.000    1.379    2.069    2.897    0.966    5.517 
#    1.241    3.448    0.000    0.000    0.000    0.000 
#    0.000    0.000    0.000    0.000    0.000    0.000 
#
# Total GULP energy -161648.941841 kJ/mol
# GULP energy per Si atom -5574.101443 kJ/mol
# Density = 2.090855 g / cm^3
# Si number density = 20.956250 Si / 1000 Ang^3
#
#
#
# Elastic Constant Matrix: (Units=GPa)
#
#
# Indices 1 2 3 4 5 6 
#
# 1 57.6166 17.2726 -4.1590 0.0000 1.6740 0.0000
# 2 17.2726 95.8243 19.7999 0.0000 -11.4858 0.0000
# 3 -4.1590 19.7999 52.5959 0.0000 5.3118 0.0000
# 4 0.0000 0.0000 0.0000 21.5270 0.0000 -10.8991
# 5 1.6740 -11.4858 5.3118 0.0000 33.3242 0.0000
# 6 0.0000 0.0000 0.0000 -10.8991 0.0000 14.3653
#
#
#
# Elastic Compliance Matrix: (Units=1/GPa)
#
#
# Indices 1 2 3 4 5 6 
#
# 1 0.019059 -0.004533 0.003525 0.000000 -0.003082 0.000000
# 2 -0.004533 0.013152 -0.005885 0.000000 0.005699 0.000000
# 3 0.003525 -0.005885 0.022085 0.000000 -0.005726 0.000000
# 4 0.000000 0.000000 0.000000 0.075428 0.000000 0.057228
# 5 -0.003082 0.005699 -0.005726 0.000000 0.033040 0.000000
# 6 0.000000 0.000000 0.000000 0.057228 0.000000 0.113031
#
#
# Mechanical properties :
#
#
# Convention : Reuss Voigt Hill
#
# Bulk Modulus (GPa) = 24.68557 30.20710 27.44634
# Shear Modulus (GPa) = 16.49700 25.38486 20.94093
#
# Velocity S-wave (km/s) = 2.80877 3.48419 3.16455
# Velocity P-wave (km/s) = 4.72484 5.53459 5.14567
#
# Compressibility (1/GPa) = 0.04050949
#
# Stress axis : x y z
#
# Youngs Moduli (GPa) = 52.46855 76.03413 45.27893
#
# Poissons Ratio (x) = 0.34467 -0.15960
# Poissons Ratio (y) = 0.23785 0.26647
# Poissons Ratio (z) = -0.18494 0.44747
#
# Static dielectric constant tensor:
#      x y z
#    x 1.704360 0.000000 -0.010990 
#    y 0.000000 1.735570 0.000000 
#    z -0.010990 0.000000 1.774700 
# 
# From -- ./inp_files/355845.got.cif
#   From: 2010.05.17/outbox.cif.g08.bks.cpg/sg12_178_cif.got.tgz:355845.got - 2010.06.03 13:09:07.
