data_PCOD9201681
_publ_section_title
;
Structure prediction by ZEFSAII (Michael W. Deem and Ramdas Pophale) SiO2 
 PCOD9201681
Probable space group: C 2/M
;
_chemical_formula_sum "Si O2"
_cell_formula_units_Z 32
_cell_length_a 13.531765
_cell_length_b 19.126536
_cell_length_c 10.244125
_cell_angle_alpha 90.000000
_cell_angle_beta 142.975284
_cell_angle_gamma 90.000000
_cell_volume 1596.530301
_symmetry_space_group_name_H-M "C 2/M"
_symmetry_group_IT_number 12
_symmetry_cell_setting 'monoclinic'
loop_
_space_group_symop_operation_xyz
x,y,z
-x,y,-z
-x,-y,-z
x,-y,z
1/2+x,1/2+y,z
1/2-x,1/2+y,-z
1/2-x,1/2-y,-z
1/2+x,1/2-y,z
loop_
_atom_site_type_symbol
_atom_site_label
_atom_site_fract_x
_atom_site_fract_y
_atom_site_fract_z
Si Si1 0.623126 0.500000 0.752051
Si Si2 0.390396 0.880289 0.007000
Si Si3 0.700946 0.858982 0.500154
Si Si4 0.819213 0.780684 0.366964
Si Si5 0.609739 0.500000 0.243976
O O1 0.500000 0.500000 0.500000
O O2 0.742514 0.433171 0.874413
O O3 0.512034 0.500000 0.761971
O O4 0.312663 0.807289 0.877372
O O5 0.500000 0.906727 0.000000
O O6 0.513469 0.870976 0.256674
O O7 0.792428 0.829571 0.466529
O O8 0.709503 0.798081 0.615968
O O9 0.779787 0.930746 0.629744
O O10 0.000000 0.788939 0.500000
O O11 0.500000 0.500000 0.000000
#
# Coordination Sequence:
#
# PCOD9201681 Si02
#       5
#     4   8   8   8   4
#     4  12  22  39  69  95 120 159 215 262 299 360
#     4  10  20  37  63  93 122 155 203 262 310 357
#     4  10  23  41  60  87 125 162 200 249 310 371
#     4  10  21  38  63  91 118 156 208 258 302 356
#     4  12  27  43  61  89 130 169 202 250 311 372
#
# _framework density 20.043465999999999
#
# number of rings (size 3 to 8) (size 9 to 14) (size 15 to 20)
#    0.000    1.500    0.000    6.375    0.000    8.000 
#    0.000    1.875    0.000    0.000    0.000    0.000 
#    0.000    0.000    0.000    0.000    0.000    0.000 
#
# Total GULP energy -89501.059482 kJ/mol
# GULP energy per Si atom -5593.816218 kJ/mol
# Density = 1.999785 g / cm^3
# Si number density = 20.043466 Si / 1000 Ang^3
#
#
#
# Elastic Constant Matrix: (Units=GPa)
#
#
# Indices 1 2 3 4 5 6 
#
# 1 65.5396 34.7511 74.3069 0.0000 6.5732 0.0000
# 2 34.7511 181.5991 127.7574 0.0000 -7.0810 0.0000
# 3 74.3069 127.7574 194.8001 0.0000 -1.6780 0.0000
# 4 0.0000 0.0000 0.0000 15.1860 0.0000 5.4604
# 5 6.5732 -7.0810 -1.6780 0.0000 29.3841 0.0000
# 6 0.0000 0.0000 0.0000 5.4604 0.0000 11.7996
#
#
#
# Elastic Compliance Matrix: (Units=1/GPa)
#
#
# Indices 1 2 3 4 5 6 
#
# 1 0.029584 0.003832 -0.013854 0.000000 -0.006485 0.000000
# 2 0.003832 0.010849 -0.008566 0.000000 0.001268 0.000000
# 3 -0.013854 -0.008566 0.016053 0.000000 0.001952 0.000000
# 4 0.000000 0.000000 0.000000 0.078994 0.000000 -0.036555
# 5 -0.006485 0.001268 0.001952 0.000000 0.035900 0.000000
# 6 0.000000 0.000000 0.000000 -0.036555 0.000000 0.101665
#
#
# Mechanical properties :
#
#
# Convention : Reuss Voigt Hill
#
# Bulk Modulus (GPa) = 51.78638 101.72995 76.75816
# Shear Modulus (GPa) = 15.78994 24.94884 20.36939
#
# Velocity S-wave (km/s) = 2.80980 3.53191 3.19134
# Velocity P-wave (km/s) = 6.03488 8.21568 7.20823
#
# Compressibility (1/GPa) = 0.01931010
#
# Stress axis : x y z
#
# Youngs Moduli (GPa) = 33.80240 92.17271 62.29337
#
# Poissons Ratio (x) = -0.35325 0.86302
# Poissons Ratio (y) = -0.12955 0.53362
# Poissons Ratio (z) = 0.46830 0.78958
#
# Static dielectric constant tensor:
#      x y z
#    x 1.702930 0.000000 -0.001050 
#    y 0.000000 1.703430 0.000000 
#    z -0.001050 0.000000 1.678160 
# 
# From -- ./inp_files/63113.got.cif
#   From: 2010.05.17/outbox.cif.g08.bks.cpg/sg12_32_cif.got.tgz:63113.got - 2010.06.03 13:09:07.
