data_PCOD9201613
_publ_section_title
;
Structure prediction by ZEFSAII (Michael W. Deem and Ramdas Pophale) SiO2 
 PCOD9201613
Probable space group: C 2/M
;
_chemical_formula_sum "Si O2"
_cell_formula_units_Z 60
_cell_length_a 11.479725
_cell_length_b 16.319346
_cell_length_c 20.800356
_cell_angle_alpha 90.000000
_cell_angle_beta 132.328059
_cell_angle_gamma 90.000000
_cell_volume 2880.889109
_symmetry_space_group_name_H-M "C 2/M"
_symmetry_group_IT_number 12
_symmetry_cell_setting 'monoclinic'
loop_
_space_group_symop_operation_xyz
x,y,z
-x,y,-z
-x,-y,-z
x,-y,z
1/2+x,1/2+y,z
1/2-x,1/2+y,-z
1/2-x,1/2-y,-z
1/2+x,1/2-y,z
loop_
_atom_site_type_symbol
_atom_site_label
_atom_site_fract_x
_atom_site_fract_y
_atom_site_fract_z
Si Si1 0.100571 0.403112 0.173419
Si Si2 0.896638 0.236852 0.899850
Si Si3 0.000000 0.793462 0.500000
Si Si4 0.952573 0.343854 0.377397
Si Si5 0.538329 0.189679 0.769829
Si Si6 0.793362 0.904276 0.506499
Si Si7 0.393040 0.653850 0.765110
Si Si8 0.957157 0.904961 0.298551
O O1 0.092706 0.500000 0.150924
O O2 0.059356 0.329239 0.108314
O O3 0.283520 0.380696 0.255709
O O4 0.996109 0.388183 0.198160
O O5 0.711218 0.227765 0.847400
O O6 0.921609 0.171546 0.850766
O O7 0.000000 0.217325 0.000000
O O8 0.954167 0.734218 0.424435
O O9 0.856894 0.850815 0.470606
O O10 0.970363 0.322809 0.308969
O O11 0.778424 0.382849 0.314227
O O12 0.109408 0.393393 0.452977
O O13 0.407348 0.254998 0.741604
O O14 0.898165 0.871744 0.605599
O O15 0.822038 0.000000 0.503921
O O16 0.519471 0.607637 0.768624
O O17 0.964823 0.000000 0.314032
#
# Coordination Sequence:
#
# PCOD9201613 Si02
#       8
#     8   8   4   8   8   8   8   8
#     4  10  22  40  65  93 125 164 204 252 307 366
#     4  10  22  40  69  97 126 156 199 251 307 372
#     4  12  23  38  59  86 120 160 212 264 313 352
#     4  11  23  38  59  90 123 165 210 262 307 359
#     4  10  21  40  63  90 125 162 209 248 307 371
#     4  11  25  39  57  88 126 165 212 262 309 360
#     4  10  20  37  63  88 121 163 207 249 303 374
#     4  10  21  40  61  87 124 167 210 256 311 360
#
# _framework density 20.826903999999999
#
# number of rings (size 3 to 8) (size 9 to 14) (size 15 to 20)
#    0.000    1.600    1.333    3.000    5.600    3.467 
#    0.000    3.667    0.000    0.800    0.000    0.000 
#    0.000    0.000    0.000    0.000    0.000    0.000 
#
# Total GULP energy -167259.986993 kJ/mol
# GULP energy per Si atom -5575.332900 kJ/mol
# Density = 2.077950 g / cm^3
# Si number density = 20.826904 Si / 1000 Ang^3
#
#
#
# Elastic Constant Matrix: (Units=GPa)
#
#
# Indices 1 2 3 4 5 6 
#
# 1 111.6647 22.3421 40.1706 0.0000 -9.3014 0.0000
# 2 22.3421 26.3189 12.0203 0.0000 1.8458 0.0000
# 3 40.1706 12.0203 85.3315 0.0000 -9.1674 0.0000
# 4 0.0000 0.0000 0.0000 10.9838 0.0000 -2.3231
# 5 -9.3014 1.8458 -9.1674 0.0000 15.3537 0.0000
# 6 0.0000 0.0000 0.0000 -2.3231 0.0000 32.9169
#
#
#
# Elastic Compliance Matrix: (Units=1/GPa)
#
#
# Indices 1 2 3 4 5 6 
#
# 1 0.012848 -0.009538 -0.004002 0.000000 0.006541 0.000000
# 2 -0.009538 0.048850 -0.003893 0.000000 -0.013975 0.000000
# 3 -0.004002 -0.003893 0.014897 0.000000 0.006938 0.000000
# 4 0.000000 0.000000 0.000000 0.092423 0.000000 0.006523
# 5 0.006541 -0.013975 0.006938 0.000000 0.074916 0.000000
# 6 0.000000 0.000000 0.000000 0.006523 0.000000 0.030840
#
#
# Mechanical properties :
#
#
# Convention : Reuss Voigt Hill
#
# Bulk Modulus (GPa) = 23.96374 41.37570 32.66972
# Shear Modulus (GPa) = 15.45359 21.76968 18.61163
#
# Velocity S-wave (km/s) = 2.72693 3.23657 2.99261
# Velocity P-wave (km/s) = 4.63098 5.82037 5.25941
#
# Compressibility (1/GPa) = 0.04172972
#
# Stress axis : x y z
#
# Youngs Moduli (GPa) = 77.83130 20.47084 67.12842
#
# Poissons Ratio (x) = 0.19524 0.26866
# Poissons Ratio (y) = 0.74233 0.26131
# Poissons Ratio (z) = 0.31150 0.07969
#
# Static dielectric constant tensor:
#      x y z
#    x 1.785020 0.000000 0.008310 
#    y 0.000000 1.799680 0.000000 
#    z 0.008310 0.000000 1.777320 
# 
# From -- ./inp_files/306382.got.cif
#   From: 2010.05.17/outbox.cif.g08.bks.cpg/sg12_154_cif.got.tgz:306382.got - 2010.06.03 13:09:07.
