data_PCOD9201077
_publ_section_title
;
Structure prediction by ZEFSAII (Michael W. Deem and Ramdas Pophale) SiO2 
 PCOD9201077
Probable space group: C 2/M
;
_chemical_formula_sum "Si O2"
_cell_formula_units_Z 56
_cell_length_a 20.206253
_cell_length_b 30.395748
_cell_length_c 9.389419
_cell_angle_alpha 90.000000
_cell_angle_beta 27.843252
_cell_angle_gamma 90.000000
_cell_volume 2693.423761
_symmetry_space_group_name_H-M "C 2/M"
_symmetry_group_IT_number 12
_symmetry_cell_setting 'monoclinic'
loop_
_space_group_symop_operation_xyz
x,y,z
-x,y,-z
-x,-y,-z
x,-y,z
1/2+x,1/2+y,z
1/2-x,1/2+y,-z
1/2-x,1/2-y,-z
1/2+x,1/2-y,z
loop_
_atom_site_type_symbol
_atom_site_label
_atom_site_fract_x
_atom_site_fract_y
_atom_site_fract_z
Si Si1 0.570755 0.842714 0.652955
Si Si2 0.780734 0.658910 0.340850
Si Si3 0.658492 0.258688 0.461920
Si Si4 0.969672 0.907417 0.221155
Si Si5 0.392141 0.722620 0.821374
Si Si6 0.215905 0.125424 0.967915
Si Si7 0.151896 0.047738 0.289782
O O1 0.652446 0.858176 0.639435
O O2 0.612754 0.791250 0.574143
O O3 0.636420 0.865455 0.391111
O O4 0.404094 0.847594 0.990153
O O5 0.743272 0.710751 0.410036
O O6 0.639114 0.632963 0.579227
O O7 0.507950 0.282803 0.726358
O O8 0.767005 0.253073 0.120252
O O9 0.886516 0.943369 0.473288
O O10 0.000000 0.920208 0.000000
O O11 0.106118 0.892819 0.055748
O O12 0.500000 0.742847 0.500000
O O13 0.340346 0.673807 0.877624
O O14 0.223301 0.089909 0.079504
O O15 0.000000 0.046028 0.500000
O O16 0.222066 0.000000 0.136511
#
# Coordination Sequence:
#
# PCOD9201077 Si02
#       7
#     8   8   8   8   8   8   8
#     4  10  22  37  53  80 115 158 202 241 292 340
#     4  11  21  36  54  79 117 154 200 248 291 336
#     4  11  21  35  50  77 110 156 205 249 283 330
#     4  11  20  35  61  91 114 150 194 240 289 345
#     4  11  21  34  51  76 115 157 200 244 285 337
#     4  10  20  37  61  84 116 158 192 234 297 353
#     4   9  20  39  64  94 123 147 181 236 302 365
#
# _framework density 20.791381999999999
#
# number of rings (size 3 to 8) (size 9 to 14) (size 15 to 20)
#    0.000    1.571    4.286    2.143    0.000    0.286 
#    2.571    0.714    0.000    1.714    0.000    2.000 
#    0.000    0.000    0.000    0.000    0.000    0.000 
#
# Total GULP energy -156146.843624 kJ/mol
# GULP energy per Si atom -5576.672987 kJ/mol
# Density = 2.074406 g / cm^3
# Si number density = 20.791382 Si / 1000 Ang^3
#
#
#
# Elastic Constant Matrix: (Units=GPa)
#
#
# Indices 1 2 3 4 5 6 
#
# 1 47.9572 23.7420 28.3581 -0.0001 11.0529 0.0000
# 2 23.7420 103.4275 39.1266 0.0000 15.4464 0.0000
# 3 28.3581 39.1266 115.3610 -0.0003 12.3918 0.0000
# 4 -0.0001 0.0000 -0.0003 17.7024 0.0001 2.3625
# 5 11.0529 15.4464 12.3918 0.0001 24.5764 0.0000
# 6 0.0000 0.0000 0.0000 2.3625 0.0000 7.5709
#
#
#
# Elastic Compliance Matrix: (Units=1/GPa)
#
#
# Indices 1 2 3 4 5 6 
#
# 1 0.027036 -0.003271 -0.004706 0.000000 -0.007730 0.000000
# 2 -0.003271 0.012200 -0.002821 0.000000 -0.004774 0.000000
# 3 -0.004706 -0.002821 0.010958 0.000000 -0.001636 0.000000
# 4 0.000000 0.000000 0.000000 0.058944 0.000000 -0.018394
# 5 -0.007730 -0.004774 -0.001636 0.000000 0.047991 0.000000
# 6 0.000000 0.000000 0.000000 -0.018394 0.000000 0.137824
#
#
# Mechanical properties :
#
#
# Convention : Reuss Voigt Hill
#
# Bulk Modulus (GPa) = 34.96893 49.91101 42.43997
# Shear Modulus (GPa) = 15.33358 21.67121 18.50240
#
# Velocity S-wave (km/s) = 2.71864 3.23200 2.98637
# Velocity P-wave (km/s) = 5.16818 6.16324 5.68751
#
# Compressibility (1/GPa) = 0.02859681
#
# Stress axis : x y z
#
# Youngs Moduli (GPa) = 36.98788 81.96983 91.26014
#
# Poissons Ratio (x) = 0.26816 0.42948
# Poissons Ratio (y) = 0.12100 0.25742
# Poissons Ratio (z) = 0.17407 0.23121
#
# Static dielectric constant tensor:
#      x y z
#    x 1.881050 0.000000 0.036960 
#    y 0.000000 1.745040 0.000000 
#    z 0.036960 0.000000 1.750740 
# 
# From -- ./inp_files/91553.got.cif
#   From: 2010.05.17/outbox.cif.g08.bks.cpg/sg12_46_cif.got.tgz:91553.got - 2010.06.03 13:09:07.
