data_PCOD9201066
_publ_section_title
;
Structure prediction by ZEFSAII (Michael W. Deem and Ramdas Pophale) SiO2 
 PCOD9201066
Probable space group: C 2/M
;
_chemical_formula_sum "Si O2"
_cell_formula_units_Z 40
_cell_length_a 17.289160
_cell_length_b 10.676187
_cell_length_c 25.985086
_cell_angle_alpha 90.000000
_cell_angle_beta 23.325254
_cell_angle_gamma 90.000000
_cell_volume 1899.130823
_symmetry_space_group_name_H-M "C 2/M"
_symmetry_group_IT_number 12
_symmetry_cell_setting 'monoclinic'
loop_
_space_group_symop_operation_xyz
x,y,z
-x,y,-z
-x,-y,-z
x,-y,z
1/2+x,1/2+y,z
1/2-x,1/2+y,-z
1/2-x,1/2-y,-z
1/2+x,1/2-y,z
loop_
_atom_site_type_symbol
_atom_site_label
_atom_site_fract_x
_atom_site_fract_y
_atom_site_fract_z
Si Si1 0.336500 0.858721 0.554589
Si Si2 0.925666 0.735732 0.204507
Si Si3 0.058583 0.858463 0.365810
Si Si4 0.280046 0.636816 0.044507
Si Si5 0.269382 0.862986 0.127690
O O1 0.500000 0.864519 0.500000
O O2 0.149361 0.808735 0.699484
O O3 0.408998 0.753007 0.470577
O O4 0.313113 0.000000 0.548074
O O5 0.744657 0.663572 0.289717
O O6 0.105026 0.646832 0.110147
O O7 0.017077 0.832693 0.107997
O O8 0.142865 0.850629 0.256736
O O9 0.981218 0.000000 0.421549
O O10 0.284075 0.500000 0.065800
O O11 0.241519 0.746088 0.108193
O O12 0.225362 0.000000 0.131061
O O13 0.500000 0.863594 0.000000
#
# Coordination Sequence:
#
# PCOD9201066 Si02
#       5
#     8   8   8   8   8
#     4   9  19  35  56  83 115 147 183 231 284 333
#     4  10  21  37  57  85 118 150 184 231 287 340
#     4  10  20  37  61  84 109 149 194 232 274 335
#     4  11  23  36  58  89 117 148 189 238 282 332
#     4  10  21  39  58  80 114 154 189 229 285 343
#
# _framework density 21.062266000000001
#
# number of rings (size 3 to 8) (size 9 to 14) (size 15 to 20)
#    0.000    2.000    2.000    1.200    0.000   10.400 
#    0.000    1.000    0.000    0.000    0.000    0.000 
#    0.000    0.000    0.000    0.000    0.000    0.000 
#
# Total GULP energy -111701.640373 kJ/mol
# GULP energy per Si atom -5585.082019 kJ/mol
# Density = 2.101433 g / cm^3
# Si number density = 21.062266 Si / 1000 Ang^3
#
#
#
# Elastic Constant Matrix: (Units=GPa)
#
#
# Indices 1 2 3 4 5 6 
#
# 1 23.3616 39.6485 15.6061 0.0053 12.0645 -0.0094
# 2 39.6485 212.6640 71.1478 0.0052 33.9069 0.0015
# 3 15.6061 71.1478 82.2595 0.0274 24.5635 -0.0135
# 4 0.0053 0.0052 0.0274 12.5318 -0.0111 10.1433
# 5 12.0645 33.9069 24.5635 -0.0111 28.0522 0.0136
# 6 -0.0094 0.0015 -0.0135 10.1433 0.0136 9.4231
#
#
#
# Elastic Compliance Matrix: (Units=1/GPa)
#
#
# Indices 1 2 3 4 5 6 
#
# 1 0.069000 -0.010406 0.001376 -0.000967 -0.018302 0.001140
# 2 -0.010406 0.008544 -0.004967 0.000186 -0.001502 -0.000217
# 3 0.001376 -0.004967 0.019737 -0.000705 -0.011871 0.000806
# 4 -0.000967 0.000186 -0.000705 0.619876 0.001377 -0.667252
# 5 -0.018302 -0.001502 -0.011871 0.001377 0.055731 -0.001599
# 6 0.001140 -0.000217 0.000806 -0.667252 -0.001599 0.824372
#
#
# Mechanical properties :
#
#
# Convention : Reuss Voigt Hill
#
# Bulk Modulus (GPa) = 14.43300 63.45442 38.94371
# Shear Modulus (GPa) = 3.03334 22.79360 12.91347
#
# Velocity S-wave (km/s) = 1.20138 3.29325 2.47879
# Velocity P-wave (km/s) = 2.96510 6.68230 5.16938
#
# Compressibility (1/GPa) = 0.06928567
#
# Stress axis : x y z
#
# Youngs Moduli (GPa) = 14.49276 117.04802 50.66701
#
# Poissons Ratio (x) = 1.21804 -0.06971
# Poissons Ratio (y) = 0.15082 0.25165
# Poissons Ratio (z) = -0.01994 0.58135
#
# Static dielectric constant tensor:
#      x y z
#    x 1.772630 0.000000 -0.021980 
#    y 0.000000 1.761380 0.000000 
#    z -0.021980 0.000000 1.744270 
# 
# From -- ./inp_files/280715.got.cif
#   From: 2010.05.17/outbox.cif.g08.bks.cpg/sg12_141_cif.got.tgz:280715.got - 2010.06.03 13:09:07.
