data_PCOD9201297
_publ_section_title
;
Structure prediction by ZEFSAII (Michael W. Deem and Ramdas Pophale) SiO2 
 PCOD9201297
Probable space group: C 2/M
;
_chemical_formula_sum "Si O2"
_cell_formula_units_Z 60
_cell_length_a 21.493699
_cell_length_b 18.180534
_cell_length_c 11.783629
_cell_angle_alpha 90.000000
_cell_angle_beta 140.605198
_cell_angle_gamma 90.000000
_cell_volume 2922.390612
_symmetry_space_group_name_H-M "C 2/M"
_symmetry_group_IT_number 12
_symmetry_cell_setting 'monoclinic'
loop_
_space_group_symop_operation_xyz
x,y,z
-x,y,-z
-x,-y,-z
x,-y,z
1/2+x,1/2+y,z
1/2-x,1/2+y,-z
1/2-x,1/2-y,-z
1/2+x,1/2-y,z
loop_
_atom_site_type_symbol
_atom_site_label
_atom_site_fract_x
_atom_site_fract_y
_atom_site_fract_z
Si Si1 0.133498 0.182426 0.054920
Si Si2 0.358062 0.267893 0.692943
Si Si3 0.909058 0.085965 0.441265
Si Si4 0.050334 0.083634 0.234412
Si Si5 0.500000 0.139102 0.500000
Si Si6 0.788768 0.419245 0.192611
Si Si7 0.965663 0.299347 0.206531
Si Si8 0.297127 0.913786 0.937150
O O1 0.127159 0.238215 0.151266
O O2 0.237358 0.144918 0.189180
O O3 0.104840 0.228787 0.903971
O O4 0.053709 0.117266 0.949955
O O5 0.250000 0.250000 0.500000
O O6 0.373456 0.355433 0.698830
O O7 0.440127 0.223263 0.737322
O O8 0.939848 0.085826 0.615476
O O9 0.000000 0.119563 0.500000
O O10 0.900530 0.000000 0.391530
O O11 0.798795 0.115537 0.265549
O O12 0.064628 0.000000 0.217140
O O13 0.595919 0.089164 0.631607
O O14 0.504717 0.185438 0.622535
O O15 0.754569 0.500000 0.180167
O O16 0.767583 0.410778 0.028717
O O17 0.897460 0.367288 0.068733
O O18 0.314721 0.000000 0.933062
#
# Coordination Sequence:
#
# PCOD9201297 Si02
#       8
#     8   8   8   8   4   8   8   8
#     4  11  23  40  62  87 119 164 209 247 308 364
#     4  11  25  44  62  85 119 165 210 255 310 367
#     4   9  17  32  55  88 124 154 189 238 302 365
#     4  10  21  38  60  90 118 149 201 258 304 356
#     4  10  21  38  60  94 125 158 202 244 307 372
#     4  10  20  37  61  92 124 156 199 253 309 366
#     4  10  22  41  61  87 123 162 204 253 305 369
#     4   9  19  35  60  91 125 164 200 248 308 371
#
# _framework density 20.531136
#
# number of rings (size 3 to 8) (size 9 to 14) (size 15 to 20)
#    0.000    2.000    0.000    3.800    1.867    6.400 
#    9.600    0.667    0.000    1.600    0.000    0.000 
#    0.000    0.000    0.000    0.000    0.000    0.000 
#
# Total GULP energy -167401.713331 kJ/mol
# GULP energy per Si atom -5580.057111 kJ/mol
# Density = 2.048441 g / cm^3
# Si number density = 20.531136 Si / 1000 Ang^3
#
#
#
# Elastic Constant Matrix: (Units=GPa)
#
#
# Indices 1 2 3 4 5 6 
#
# 1 62.0147 31.9215 47.1968 0.0000 5.0430 0.0000
# 2 31.9215 84.6134 31.9491 0.0000 5.0496 0.0000
# 3 47.1968 31.9491 131.9220 0.0000 10.8079 0.0000
# 4 0.0000 0.0000 0.0000 21.2392 0.0000 -2.9388
# 5 5.0430 5.0496 10.8079 0.0000 36.3850 0.0000
# 6 0.0000 0.0000 0.0000 -2.9388 0.0000 14.7393
#
#
#
# Elastic Compliance Matrix: (Units=1/GPa)
#
#
# Indices 1 2 3 4 5 6 
#
# 1 0.025215 -0.006709 -0.007365 0.000000 -0.000376 0.000000
# 2 -0.006709 0.014821 -0.001124 0.000000 -0.000793 0.000000
# 3 -0.007365 -0.001124 0.010650 0.000000 -0.001987 0.000000
# 4 0.000000 0.000000 0.000000 0.048418 0.000000 0.009654
# 5 -0.000376 -0.000793 -0.001987 0.000000 0.028236 0.000000
# 6 0.000000 0.000000 0.000000 0.009654 0.000000 0.069771
#
#
# Mechanical properties :
#
#
# Convention : Reuss Voigt Hill
#
# Bulk Modulus (GPa) = 49.28737 55.63164 52.45950
# Shear Modulus (GPa) = 21.34276 25.63822 23.49049
#
# Velocity S-wave (km/s) = 3.22767 3.53760 3.38618
# Velocity P-wave (km/s) = 6.16026 6.62127 6.39492
#
# Compressibility (1/GPa) = 0.02028917
#
# Stress axis : x y z
#
# Youngs Moduli (GPa) = 39.65963 67.47016 93.89425
#
# Poissons Ratio (x) = 0.45266 0.69155
# Poissons Ratio (y) = 0.26608 0.10556
# Poissons Ratio (z) = 0.29210 0.07585
#
# Static dielectric constant tensor:
#      x y z
#    x 1.770740 0.000000 -0.024060 
#    y 0.000000 1.751250 0.000000 
#    z -0.024060 0.000000 1.753280 
# 
# From -- ./inp_files/168984.got.cif
#   From: 2010.05.17/outbox.cif.g08.bks.cpg/sg12_85_cif.got.tgz:168984.got - 2010.06.03 13:09:07.
