data_PCOD9201366
_publ_section_title
;
Structure prediction by ZEFSAII (Michael W. Deem and Ramdas Pophale) SiO2 
 PCOD9201366
Probable space group: C 2/M
;
_chemical_formula_sum "Si O2"
_cell_formula_units_Z 64
_cell_length_a 26.295698
_cell_length_b 7.931179
_cell_length_c 32.894200
_cell_angle_alpha 90.000000
_cell_angle_beta 153.641867
_cell_angle_gamma 90.000000
_cell_volume 3045.830472
_symmetry_space_group_name_H-M "C 2/M"
_symmetry_group_IT_number 12
_symmetry_cell_setting 'monoclinic'
loop_
_space_group_symop_operation_xyz
x,y,z
-x,y,-z
-x,-y,-z
x,-y,z
1/2+x,1/2+y,z
1/2-x,1/2+y,-z
1/2-x,1/2-y,-z
1/2+x,1/2-y,z
loop_
_atom_site_type_symbol
_atom_site_label
_atom_site_fract_x
_atom_site_fract_y
_atom_site_fract_z
Si Si1 0.915117 0.797449 0.404325
Si Si2 0.436483 0.296517 0.328291
Si Si3 0.178043 0.805144 0.132077
Si Si4 0.042663 0.297528 0.788601
Si Si5 0.449094 0.802736 0.113206
Si Si6 0.846026 0.199884 0.795448
Si Si7 0.221173 0.800626 0.077513
Si Si8 0.122495 0.799631 0.396808
O O1 0.967167 0.764245 0.397102
O O2 0.786366 0.726641 0.311505
O O3 0.000000 0.734471 0.500000
O O4 0.903829 0.000000 0.400752
O O5 0.419564 0.500000 0.311845
O O6 0.316010 0.207070 0.233903
O O7 0.533122 0.236312 0.366752
O O8 0.137084 0.732442 0.146061
O O9 0.158581 0.729912 0.073164
O O10 0.139648 0.000000 0.104601
O O11 0.053800 0.500000 0.798178
O O12 0.046241 0.234748 0.837505
O O13 0.152233 0.230596 0.841576
O O14 0.926298 0.258901 0.681411
O O15 0.569329 0.781046 0.176265
O O16 0.420545 0.000000 0.094939
O O17 0.354550 0.719712 0.016727
O O18 0.869699 0.000000 0.813151
O O19 0.233942 0.000000 0.094771
O O20 0.250000 0.750000 0.500000
O O21 0.116442 0.000000 0.392959
#
# Coordination Sequence:
#
# PCOD9201366 Si02
#       8
#     8   8   8   8   8   8   8   8
#     4   9  18  34  57  82 110 147 188 230 282 342
#     4   9  18  33  53  79 109 142 183 231 279 332
#     4   9  18  34  59  84 109 145 186 231 283 336
#     4  10  22  41  62  83 113 152 197 243 290 345
#     4  11  24  39  57  84 118 156 193 238 292 348
#     4  10  21  37  56  82 116 151 190 236 285 342
#     4  10  20  37  62  87 112 147 192 242 293 347
#     4  11  23  37  57  86 118 153 193 239 290 342
#
# _framework density 21.012333000000002
#
# number of rings (size 3 to 8) (size 9 to 14) (size 15 to 20)
#    0.000    2.125    1.250    1.500    0.000    4.750 
#    0.000    5.000    0.000    0.000    0.000    0.000 
#    0.000    0.000    0.000    0.000    0.000    0.000 
#
# Total GULP energy -178630.042091 kJ/mol
# GULP energy per Si atom -5582.188815 kJ/mol
# Density = 2.096451 g / cm^3
# Si number density = 21.012333 Si / 1000 Ang^3
#
#
#
# Elastic Constant Matrix: (Units=GPa)
#
#
# Indices 1 2 3 4 5 6 
#
# 1 82.4120 5.3741 41.0343 -0.0003 -18.5636 -0.0004
# 2 5.3741 22.6538 -3.7522 -0.0006 -6.8200 -0.0022
# 3 41.0343 -3.7522 108.3642 -0.0002 -21.0239 0.0009
# 4 -0.0003 -0.0006 -0.0002 27.1350 0.0003 1.1608
# 5 -18.5636 -6.8200 -21.0239 0.0003 37.2533 0.0006
# 6 -0.0004 -0.0022 0.0009 1.1608 0.0006 11.1821
#
#
#
# Elastic Compliance Matrix: (Units=1/GPa)
#
#
# Indices 1 2 3 4 5 6 
#
# 1 0.015984 -0.003367 -0.005327 0.000000 0.004342 0.000000
# 2 -0.003367 0.048771 0.004908 0.000001 0.010021 0.000008
# 3 -0.005327 0.004908 0.012436 0.000000 0.005262 0.000000
# 4 0.000000 0.000001 0.000000 0.037017 0.000000 -0.003843
# 5 0.004342 0.010021 0.005262 0.000000 0.033811 0.000000
# 6 0.000000 0.000008 0.000000 -0.003843 0.000000 0.089828
#
#
# Mechanical properties :
#
#
# Convention : Reuss Voigt Hill
#
# Bulk Modulus (GPa) = 14.36378 33.19360 23.77869
# Shear Modulus (GPa) = 18.61324 26.49900 22.55612
#
# Velocity S-wave (km/s) = 2.97951 3.55507 3.27994
# Velocity P-wave (km/s) = 4.32289 5.71689 5.06805
#
# Compressibility (1/GPa) = 0.06961956
#
# Stress axis : x y z
#
# Youngs Moduli (GPa) = 62.56186 20.50396 80.41077
#
# Poissons Ratio (x) = 0.06903 0.42833
# Poissons Ratio (y) = 0.21064 -0.39464
# Poissons Ratio (z) = 0.33326 -0.10063
#
# Static dielectric constant tensor:
#      x y z
#    x 1.797740 0.000000 -0.007760 
#    y 0.000000 1.785730 0.000000 
#    z -0.007760 0.000000 1.764620 
# 
# From -- ./inp_files/382471.got.cif
#   From: 2010.05.17/outbox.cif.g08.bks.cpg/sg12_192_cif.got.tgz:382471.got - 2010.06.03 13:09:07.
