data_PCOD9201328
_publ_section_title
;
Structure prediction by ZEFSAII (Michael W. Deem and Ramdas Pophale) SiO2 
 PCOD9201328
Probable space group: C 2/M
;
_chemical_formula_sum "Si O2"
_cell_formula_units_Z 50
_cell_length_a 24.010111
_cell_length_b 12.573229
_cell_length_c 14.909261
_cell_angle_alpha 90.000000
_cell_angle_beta 146.081886
_cell_angle_gamma 90.000000
_cell_volume 2511.522876
_symmetry_space_group_name_H-M "C 2/M"
_symmetry_group_IT_number 12
_symmetry_cell_setting 'monoclinic'
loop_
_space_group_symop_operation_xyz
x,y,z
-x,y,-z
-x,-y,-z
x,-y,z
1/2+x,1/2+y,z
1/2-x,1/2+y,-z
1/2-x,1/2-y,-z
1/2+x,1/2-y,z
loop_
_atom_site_type_symbol
_atom_site_label
_atom_site_fract_x
_atom_site_fract_y
_atom_site_fract_z
Si Si1 0.345217 0.876595 0.474049
Si Si2 0.932259 0.123960 0.276252
Si Si3 0.647596 0.682393 0.641730
Si Si4 0.636415 0.878994 0.126386
Si Si5 0.500000 0.500000 0.000000
Si Si6 0.988398 0.734942 0.195707
Si Si7 0.135528 0.184521 0.254508
O O1 0.340550 0.801994 0.380064
O O2 0.447761 0.847883 0.660789
O O3 0.252402 0.842785 0.413840
O O4 0.338567 0.000000 0.444454
O O5 0.869972 0.170958 0.276043
O O6 0.048471 0.135317 0.462110
O O7 0.922634 0.192528 0.173564
O O8 0.908903 0.000000 0.232608
O O9 0.747240 0.623719 0.744597
O O10 0.624094 0.800165 0.193950
O O11 0.606208 0.000000 0.102910
O O12 0.575795 0.825134 0.964294
O O13 0.585125 0.593897 0.126524
O O14 0.070892 0.811027 0.258476
#
# Coordination Sequence:
#
# PCOD9201328 Si02
#       7
#     8   8   8   8   2   8   8
#     4  10  21  38  59  81 115 151 185 234 280 338
#     4  10  20  37  62  82 111 145 188 240 280 328
#     4   9  20  39  59  85 107 145 197 229 282 330
#     4  11  22  38  60  83 117 150 188 231 280 339
#     4  12  20  40  62  80 116 144 198 246 268 324
#     4  11  23  36  53  89 116 148 187 225 284 343
#     4  11  23  39  60  84 114 152 192 233 284 329
#
# _framework density 19.908241
#
# number of rings (size 3 to 8) (size 9 to 14) (size 15 to 20)
#    0.000    1.600    2.400    2.880    1.120    2.560 
#    0.000    7.200    0.000    0.000    0.000    0.000 
#    0.000    0.000    0.000    0.000    0.000    0.000 
#
# Total GULP energy -139398.481977 kJ/mol
# GULP energy per Si atom -5575.939279 kJ/mol
# Density = 1.986293 g / cm^3
# Si number density = 19.908241 Si / 1000 Ang^3
#
#
#
# Elastic Constant Matrix: (Units=GPa)
#
#
# Indices 1 2 3 4 5 6 
#
# 1 77.2782 19.2902 -9.1529 0.0000 -0.6814 0.0000
# 2 19.2902 129.5922 -1.8276 0.0000 -15.0101 0.0000
# 3 -9.1529 -1.8276 20.3544 0.0000 3.6459 0.0000
# 4 0.0000 0.0000 0.0000 9.4628 0.0000 7.8481
# 5 -0.6814 -15.0101 3.6459 0.0000 21.3756 0.0000
# 6 0.0000 0.0000 0.0000 7.8481 0.0000 8.5951
#
#
#
# Elastic Compliance Matrix: (Units=1/GPa)
#
#
# Indices 1 2 3 4 5 6 
#
# 1 0.014278 -0.002297 0.006624 0.000000 -0.002288 0.000000
# 2 -0.002297 0.008771 -0.001378 0.000000 0.006321 0.000000
# 3 0.006624 -0.001378 0.053762 0.000000 -0.009926 0.000000
# 4 0.000000 0.000000 0.000000 0.435404 0.000000 -0.397565
# 5 -0.002288 0.006321 -0.009926 0.000000 0.052841 0.000000
# 6 0.000000 0.000000 0.000000 -0.397565 0.000000 0.479359
#
#
# Mechanical properties :
#
#
# Convention : Reuss Voigt Hill
#
# Bulk Modulus (GPa) = 12.09033 27.09380 19.59206
# Shear Modulus (GPa) = 4.69005 22.48105 13.58555
#
# Velocity S-wave (km/s) = 1.53654 3.36405 2.61513
# Velocity P-wave (km/s) = 3.03877 5.35985 4.35673
#
# Compressibility (1/GPa) = 0.08271076
#
# Stress axis : x y z
#
# Youngs Moduli (GPa) = 70.03788 114.01087 18.60037
#
# Poissons Ratio (x) = 0.26187 -0.12321
# Poissons Ratio (y) = 0.16087 0.02562
# Poissons Ratio (z) = -0.46393 0.15705
#
# Static dielectric constant tensor:
#      x y z
#    x 1.708410 0.000000 -0.001540 
#    y 0.000000 1.675840 0.000000 
#    z -0.001540 0.000000 1.740410 
# 
# From -- ./inp_files/240048.got.cif
#   From: 2010.05.17/outbox.cif.g08.bks.cpg/sg12_121_cif.got.tgz:240048.got - 2010.06.03 13:09:07.
