data_PCOD9201321
_publ_section_title
;
Structure prediction by ZEFSAII (Michael W. Deem and Ramdas Pophale) SiO2 
 PCOD9201321
Probable space group: C 2/M
;
_chemical_formula_sum "Si O2"
_cell_formula_units_Z 56
_cell_length_a 15.594636
_cell_length_b 27.501232
_cell_length_c 8.816120
_cell_angle_alpha 90.000000
_cell_angle_beta 42.779650
_cell_angle_gamma 90.000000
_cell_volume 2567.971474
_symmetry_space_group_name_H-M "C 2/M"
_symmetry_group_IT_number 12
_symmetry_cell_setting 'monoclinic'
loop_
_space_group_symop_operation_xyz
x,y,z
-x,y,-z
-x,-y,-z
x,-y,z
1/2+x,1/2+y,z
1/2-x,1/2+y,-z
1/2-x,1/2-y,-z
1/2+x,1/2-y,z
loop_
_atom_site_type_symbol
_atom_site_label
_atom_site_fract_x
_atom_site_fract_y
_atom_site_fract_z
Si Si1 0.129647 0.227962 0.890647
Si Si2 0.669753 0.400684 0.005732
Si Si3 0.684139 0.166780 0.786475
Si Si4 0.220736 0.639341 0.410163
Si Si5 0.870035 0.000000 0.764392
Si Si6 0.442056 0.105753 0.800842
Si Si7 0.103884 0.805927 0.246932
Si Si8 0.918394 0.500000 0.951701
O O1 0.135008 0.280118 0.803256
O O2 0.243474 0.192850 0.697439
O O3 0.124687 0.230375 0.079884
O O4 0.000000 0.204458 0.000000
O O5 0.685542 0.396102 0.804388
O O6 0.814260 0.388528 0.870273
O O7 0.635056 0.451893 0.124179
O O8 0.582885 0.357823 0.188355
O O9 0.737243 0.139983 0.570158
O O10 0.784521 0.181854 0.783076
O O11 0.588574 0.133103 0.002322
O O12 0.074256 0.626618 0.572617
O O13 0.736960 0.000000 0.840140
O O14 0.000000 0.000000 0.500000
O O15 0.455239 0.048550 0.814228
O O16 0.000000 0.788588 0.500000
O O17 0.000000 0.500000 0.000000
#
# Coordination Sequence:
#
# PCOD9201321 Si02
#       8
#     8   8   8   8   4   8   8   4
#     4  11  23  39  58  86 120 160 213 264 319 384
#     4   9  21  37  59  91 123 161 211 261 318 381
#     4  11  22  38  59  87 120 161 210 262 320 385
#     4  11  21  36  57  84 120 160 200 258 317 375
#     4  10  20  39  67  95 130 175 219 272 331 396
#     4  10  21  38  60  88 124 164 212 263 320 383
#     4  10  21  38  58  84 118 160 205 255 315 386
#     4  10  20  37  61  95 127 163 215 268 323 388
#
# _framework density 21.807096000000001
#
# number of rings (size 3 to 8) (size 9 to 14) (size 15 to 20)
#    0.000    1.714    0.000    4.714    0.000    1.714 
#    0.000    7.143    0.000    0.000    0.000   31.500 
#    0.000    0.000    0.000    0.000    0.000    0.000 
#
# Total GULP energy -156223.320330 kJ/mol
# GULP energy per Si atom -5579.404298 kJ/mol
# Density = 2.175746 g / cm^3
# Si number density = 21.807096 Si / 1000 Ang^3
#
#
#
# Elastic Constant Matrix: (Units=GPa)
#
#
# Indices 1 2 3 4 5 6 
#
# 1 58.6044 3.4392 28.5973 0.0000 3.7111 0.0000
# 2 3.4392 94.4057 45.6061 0.0000 -3.6562 0.0000
# 3 28.5973 45.6061 165.1286 0.0000 21.2122 0.0000
# 4 0.0000 0.0000 0.0000 91.5433 0.0000 -71.8842
# 5 3.7111 -3.6562 21.2122 0.0000 33.0505 0.0000
# 6 0.0000 0.0000 0.0000 -71.8842 0.0000 100.3475
#
#
#
# Elastic Compliance Matrix: (Units=1/GPa)
#
#
# Indices 1 2 3 4 5 6 
#
# 1 0.018726 0.001057 -0.003574 0.000000 0.000308 0.000000
# 2 0.001057 0.012746 -0.004217 0.000000 0.003998 0.000000
# 3 -0.003574 -0.004217 0.008553 0.000000 -0.005555 0.000000
# 4 0.000000 0.000000 0.000000 0.024969 0.000000 0.017887
# 5 0.000308 0.003998 -0.005555 0.000000 0.034229 0.000000
# 6 0.000000 0.000000 0.000000 0.017887 0.000000 0.022779
#
#
# Mechanical properties :
#
#
# Convention : Reuss Voigt Hill
#
# Bulk Modulus (GPa) = 37.65645 52.60268 45.12956
# Shear Modulus (GPa) = 34.64423 61.02135 47.83279
#
# Velocity S-wave (km/s) = 3.99013 5.29557 4.68851
# Velocity P-wave (km/s) = 6.20755 7.84633 7.07455
#
# Compressibility (1/GPa) = 0.02655588
#
# Stress axis : x y z
#
# Youngs Moduli (GPa) = 53.40096 78.45611 116.91725
#
# Poissons Ratio (x) = -0.08289 0.41791
# Poissons Ratio (y) = -0.05642 0.49301
# Poissons Ratio (z) = 0.19088 0.33083
#
# Static dielectric constant tensor:
#      x y z
#    x 1.653150 0.000000 0.001570 
#    y 0.000000 1.793870 0.000000 
#    z 0.001570 0.000000 1.801910 
# 
# From -- ./inp_files/80453.got.cif
#   From: 2010.05.17/outbox.cif.g08.bks.cpg/sg12_41_cif.got.tgz:80453.got - 2010.06.03 13:09:07.
