data_PCOD9201736
_publ_section_title
;
Structure prediction by ZEFSAII (Michael W. Deem and Ramdas Pophale) SiO2 
 PCOD9201736
Probable space group: C 2/M
;
_chemical_formula_sum "Si O2"
_cell_formula_units_Z 48
_cell_length_a 12.353749
_cell_length_b 18.810073
_cell_length_c 13.451605
_cell_angle_alpha 90.000000
_cell_angle_beta 135.826161
_cell_angle_gamma 90.000000
_cell_volume 2178.186158
_symmetry_space_group_name_H-M "C 2/M"
_symmetry_group_IT_number 12
_symmetry_cell_setting 'monoclinic'
loop_
_space_group_symop_operation_xyz
x,y,z
-x,y,-z
-x,-y,-z
x,-y,z
1/2+x,1/2+y,z
1/2-x,1/2+y,-z
1/2-x,1/2-y,-z
1/2+x,1/2-y,z
loop_
_atom_site_type_symbol
_atom_site_label
_atom_site_fract_x
_atom_site_fract_y
_atom_site_fract_z
Si Si1 0.172029 0.085186 0.145916
Si Si2 0.827921 0.776643 0.359730
Si Si3 0.854596 0.840327 0.666851
Si Si4 0.253707 0.417528 0.398907
Si Si5 0.107584 0.418488 0.895101
Si Si6 0.785049 0.803312 0.112495
O O1 0.203397 0.120004 0.272359
O O2 0.290972 0.100287 0.135593
O O3 0.170048 0.000000 0.157528
O O4 0.000000 0.108482 0.000000
O O5 0.711192 0.739161 0.359536
O O6 0.828348 0.861857 0.371781
O O7 0.778445 0.764290 0.213962
O O8 0.000000 0.750273 0.500000
O O9 0.792175 0.883101 0.531123
O O10 0.040835 0.834692 0.783120
O O11 0.302856 0.500000 0.425936
O O12 0.070905 0.414320 0.253814
O O13 0.143551 0.500000 0.946166
O O14 0.160387 0.366076 0.016880
O O15 0.750000 0.750000 0.000000
#
# Coordination Sequence:
#
# PCOD9201736 Si02
#       6
#     8   8   8   8   8   8
#     4  10  20  37  64 101 135 175 228 282 339 404
#     4  12  28  46  69 103 137 184 231 285 342 411
#     4  12  25  42  70  98 138 179 230 283 343 409
#     4  11  26  48  71 101 139 183 230 283 345 410
#     4  10  23  42  67 100 139 176 225 286 343 402
#     4  12  26  44  69 101 134 180 229 281 345 405
#
# _framework density 22.036684999999999
#
# number of rings (size 3 to 8) (size 9 to 14) (size 15 to 20)
#    0.000    0.833    3.333    3.000    4.667    3.667 
#    0.000    4.167    0.000    0.000    0.000    0.000 
#    0.000    0.000    0.000    0.000    0.000    0.000 
#
# Total GULP energy -134289.820729 kJ/mol
# GULP energy per Si atom -5595.409197 kJ/mol
# Density = 2.198653 g / cm^3
# Si number density = 22.036685 Si / 1000 Ang^3
#
#
#
# Elastic Constant Matrix: (Units=GPa)
#
#
# Indices 1 2 3 4 5 6 
#
# 1 34.1590 -2.1274 15.3414 0.0000 5.1016 0.0000
# 2 -2.1274 102.4825 46.3605 0.0000 -1.1984 0.0000
# 3 15.3414 46.3605 128.9066 0.0000 -12.2746 0.0000
# 4 0.0000 0.0000 0.0000 36.8987 0.0000 -1.3091
# 5 5.1016 -1.1984 -12.2746 0.0000 39.0778 0.0000
# 6 0.0000 0.0000 0.0000 -1.3091 0.0000 39.5914
#
#
#
# Elastic Compliance Matrix: (Units=1/GPa)
#
#
# Indices 1 2 3 4 5 6 
#
# 1 0.032883 0.003153 -0.005615 0.000000 -0.005960 0.000000
# 2 0.003153 0.011993 -0.004837 0.000000 -0.001563 0.000000
# 3 -0.005615 -0.004837 0.010536 0.000000 0.003894 0.000000
# 4 0.000000 0.000000 0.000000 0.027133 0.000000 0.000897
# 5 -0.005960 -0.001563 0.003894 0.000000 0.027543 0.000000
# 6 0.000000 0.000000 0.000000 0.000897 0.000000 0.025288
#
#
# Mechanical properties :
#
#
# Convention : Reuss Voigt Hill
#
# Bulk Modulus (GPa) = 24.50138 42.74411 33.62274
# Shear Modulus (GPa) = 30.56607 36.84515 33.70561
#
# Velocity S-wave (km/s) = 3.72836 4.09344 3.91515
# Velocity P-wave (km/s) = 5.44764 6.46379 5.97735
#
# Compressibility (1/GPa) = 0.04081402
#
# Stress axis : x y z
#
# Youngs Moduli (GPa) = 30.41074 83.38027 94.90962
#
# Poissons Ratio (x) = -0.26290 0.53291
# Poissons Ratio (y) = -0.09588 0.45912
# Poissons Ratio (z) = 0.17075 0.40334
#
# Static dielectric constant tensor:
#      x y z
#    x 1.786530 0.000000 0.002830 
#    y 0.000000 1.850260 0.000000 
#    z 0.002830 0.000000 1.806310 
# 
# From -- ./inp_files/134076.got.cif
#   From: 2010.05.17/outbox.cif.g08.bks.cpg/sg12_68_cif.got.tgz:134076.got - 2010.06.03 13:09:07.
