data_PCOD9201106
_publ_section_title
;
Structure prediction by ZEFSAII (Michael W. Deem and Ramdas Pophale) SiO2 
 PCOD9201106
Probable space group: C 2/M
;
_chemical_formula_sum "Si O2"
_cell_formula_units_Z 56
_cell_length_a 9.693357
_cell_length_b 18.180688
_cell_length_c 26.486957
_cell_angle_alpha 90.000000
_cell_angle_beta 39.534143
_cell_angle_gamma 90.000000
_cell_volume 2971.261474
_symmetry_space_group_name_H-M "C 2/M"
_symmetry_group_IT_number 12
_symmetry_cell_setting 'monoclinic'
loop_
_space_group_symop_operation_xyz
x,y,z
-x,y,-z
-x,-y,-z
x,-y,z
1/2+x,1/2+y,z
1/2-x,1/2+y,-z
1/2-x,1/2-y,-z
1/2+x,1/2-y,z
loop_
_atom_site_type_symbol
_atom_site_label
_atom_site_fract_x
_atom_site_fract_y
_atom_site_fract_z
Si Si1 0.844766 0.788883 0.171817
Si Si2 0.673199 0.412746 0.065658
Si Si3 0.166348 0.915817 0.267274
Si Si4 0.909399 0.635033 0.101805
Si Si5 0.548988 0.302312 0.545097
Si Si6 0.861670 0.716338 0.273178
Si Si7 0.754511 0.412354 0.561221
O O1 0.925923 0.719745 0.115083
O O2 0.887273 0.772137 0.218941
O O3 0.587053 0.789157 0.238164
O O4 0.959525 0.863156 0.121003
O O5 0.636164 0.500000 0.081278
O O6 0.790094 0.379973 0.082638
O O7 0.849876 0.398134 0.971918
O O8 0.261238 0.904379 0.185208
O O9 0.301327 0.860899 0.263989
O O10 0.911353 0.896588 0.345685
O O11 0.191103 0.000000 0.276007
O O12 0.500000 0.310434 0.500000
O O13 0.750000 0.250000 0.500000
O O14 0.337631 0.270254 0.633019
O O15 0.628986 0.377447 0.549252
O O16 0.770276 0.500000 0.550802
O O17 0.000000 0.383854 0.500000
#
# Coordination Sequence:
#
# PCOD9201106 Si02
#       7
#     8   8   8   8   8   8   8
#     4  11  21  40  59  87 119 158 202 239 301 360
#     4  11  22  37  60  90 123 154 202 255 300 352
#     4   9  18  35  59  83 114 153 194 238 300 356
#     4  10  20  37  61  85 118 160 199 243 299 361
#     4  11  22  37  59  86 116 152 196 249 300 348
#     4  10  22  38  59  84 114 157 195 243 293 366
#     4   9  19  37  59  85 117 153 195 240 293 363
#
# _framework density 18.847213
#
# number of rings (size 3 to 8) (size 9 to 14) (size 15 to 20)
#    0.000    1.857    1.429    3.429    0.000    3.143 
#    2.571    0.000    0.000    4.286    0.000    0.000 
#    0.000    0.000    0.000    0.000    0.000    0.000 
#
# Total GULP energy -156193.938997 kJ/mol
# GULP energy per Si atom -5578.354964 kJ/mol
# Density = 1.880432 g / cm^3
# Si number density = 18.847213 Si / 1000 Ang^3
#
#
#
# Elastic Constant Matrix: (Units=GPa)
#
#
# Indices 1 2 3 4 5 6 
#
# 1 73.1902 16.7783 57.1175 -0.0020 -8.5455 -0.0010
# 2 16.7783 80.9997 53.6383 -0.0044 -4.8655 -0.0035
# 3 57.1175 53.6383 149.6617 0.0093 -6.8680 0.0030
# 4 -0.0020 -0.0044 0.0093 25.7630 -0.0011 -8.0650
# 5 -8.5455 -4.8655 -6.8680 -0.0011 34.9581 -0.0004
# 6 -0.0010 -0.0035 0.0030 -8.0650 -0.0004 7.5189
#
#
#
# Elastic Compliance Matrix: (Units=1/GPa)
#
#
# Indices 1 2 3 4 5 6 
#
# 1 0.019958 0.001329 -0.007932 0.000010 0.003505 0.000018
# 2 0.001329 0.016320 -0.006294 0.000013 0.001360 0.000024
# 3 -0.007932 -0.006294 0.011943 -0.000013 -0.000469 -0.000023
# 4 0.000010 0.000013 -0.000013 0.058438 0.000004 0.062683
# 5 0.003505 0.001360 -0.000469 0.000004 0.029560 0.000008
# 6 0.000018 0.000024 -0.000023 0.062683 0.000008 0.200235
#
#
# Mechanical properties :
#
#
# Convention : Reuss Voigt Hill
#
# Bulk Modulus (GPa) = 44.58872 62.10220 53.34546
# Shear Modulus (GPa) = 13.52360 25.40248 19.46304
#
# Velocity S-wave (km/s) = 2.68160 3.67524 3.21701
# Velocity P-wave (km/s) = 5.77038 7.14365 6.49342
#
# Compressibility (1/GPa) = 0.02242720
#
# Stress axis : x y z
#
# Youngs Moduli (GPa) = 50.10512 61.27485 83.72880
#
# Poissons Ratio (x) = -0.08145 0.66417
# Poissons Ratio (y) = -0.06661 0.52698
# Poissons Ratio (z) = 0.39746 0.38566
#
# Static dielectric constant tensor:
#      x y z
#    x 1.677240 0.000000 0.026740 
#    y 0.000000 1.669840 0.000000 
#    z 0.026740 0.000000 1.698360 
# 
# From -- ./inp_files/356657.got.cif
#   From: 2010.05.17/outbox.cif.g08.bks.cpg/sg12_179_cif.got.tgz:356657.got - 2010.06.03 13:09:07.
