data_PCOD9201621
_publ_section_title
;
Structure prediction by ZEFSAII (Michael W. Deem and Ramdas Pophale) SiO2 
 PCOD9201621
Probable space group: C 2/M
;
_chemical_formula_sum "Si O2"
_cell_formula_units_Z 52
_cell_length_a 17.616917
_cell_length_b 17.432410
_cell_length_c 8.218819
_cell_angle_alpha 90.000000
_cell_angle_beta 77.121737
_cell_angle_gamma 90.000000
_cell_volume 2460.552810
_symmetry_space_group_name_H-M "C 2/M"
_symmetry_group_IT_number 12
_symmetry_cell_setting 'monoclinic'
loop_
_space_group_symop_operation_xyz
x,y,z
-x,y,-z
-x,-y,-z
x,-y,z
1/2+x,1/2+y,z
1/2-x,1/2+y,-z
1/2-x,1/2-y,-z
1/2+x,1/2-y,z
loop_
_atom_site_type_symbol
_atom_site_label
_atom_site_fract_x
_atom_site_fract_y
_atom_site_fract_z
Si Si1 0.081780 0.868523 0.426448
Si Si2 0.316661 0.138694 0.780765
Si Si3 0.890857 0.000000 0.324870
Si Si4 0.852729 0.590452 0.390223
Si Si5 0.940843 0.000000 0.823988
Si Si6 0.023164 0.410045 0.178076
Si Si7 0.258843 0.715098 0.675782
Si Si8 0.719188 0.500000 0.906010
O O1 0.104025 0.924950 0.564963
O O2 0.065274 0.925388 0.286514
O O3 0.154278 0.816804 0.355198
O O4 0.000000 0.827062 0.500000
O O5 0.330171 0.109948 0.587436
O O6 0.403638 0.143000 0.811787
O O7 0.261490 0.213439 0.797269
O O8 0.270909 0.074656 0.904010
O O9 0.811731 0.000000 0.264644
O O10 0.967479 0.000000 0.172504
O O11 0.838009 0.500000 0.364767
O O12 0.803163 0.645945 0.294313
O O13 0.944559 0.604723 0.317702
O O14 0.860999 0.000000 0.959581
O O15 0.045595 0.500000 0.197091
O O16 0.000000 0.402860 0.000000
O O17 0.250000 0.750000 0.500000
#
# Coordination Sequence:
#
# PCOD9201621 Si02
#       8
#     8   8   4   8   4   8   8   4
#     4   9  19  37  59  84 115 153 195 247 292 353
#     4  11  22  38  59  90 123 157 203 251 306 362
#     4   9  17  35  61  87 113 146 204 242 290 355
#     4  10  20  37  63  89 120 159 202 251 297 366
#     4   9  21  35  57  87 113 155 202 238 292 355
#     4  10  21  39  60  86 118 157 206 252 301 356
#     4  10  22  35  58  95 122 153 201 251 307 361
#     4  12  21  36  60  84 121 161 192 252 298 354
#
# _framework density 21.133462000000002
#
# number of rings (size 3 to 8) (size 9 to 14) (size 15 to 20)
#    0.000    2.000    1.538    3.462    2.154    4.923 
#    0.000    3.077    0.000    0.000    0.000    0.000 
#    0.000    0.000    0.000    0.000    0.000    0.000 
#
# Total GULP energy -145088.912984 kJ/mol
# GULP energy per Si atom -5580.342807 kJ/mol
# Density = 2.108536 g / cm^3
# Si number density = 21.133462 Si / 1000 Ang^3
#
#
#
# Elastic Constant Matrix: (Units=GPa)
#
#
# Indices 1 2 3 4 5 6 
#
# 1 114.4391 34.3411 4.3227 0.0000 1.5772 0.0000
# 2 34.3411 77.3523 -0.3244 0.0000 8.3291 0.0000
# 3 4.3227 -0.3244 33.9708 0.0000 -15.8110 0.0000
# 4 0.0000 0.0000 0.0000 2.1822 0.0000 8.0360
# 5 1.5772 8.3291 -15.8110 0.0000 24.8710 0.0000
# 6 0.0000 0.0000 0.0000 8.0360 0.0000 29.8487
#
#
#
# Elastic Compliance Matrix: (Units=1/GPa)
#
#
# Indices 1 2 3 4 5 6 
#
# 1 0.010141 -0.004511 -0.001320 0.000000 0.000028 0.000000
# 2 -0.004511 0.015606 -0.002239 0.000000 -0.006364 0.000000
# 3 -0.001320 -0.002239 0.042566 0.000000 0.027894 0.000000
# 4 0.000000 0.000000 0.000000 53.309412 0.000000-14.352198
# 5 0.000028 -0.006364 0.027894 0.000000 0.060069 0.000000
# 6 0.000000 0.000000 0.000000-14.352198 0.000000 3.897465
#
#
# Mechanical properties :
#
#
# Convention : Reuss Voigt Hill
#
# Bulk Modulus (GPa) = 19.16677 33.60455 26.38566
# Shear Modulus (GPa) = 0.08716 23.87525 11.98120
#
# Velocity S-wave (km/s) = 0.20330 3.36480 2.38361
# Velocity P-wave (km/s) = 3.02394 5.57059 4.48195
#
# Compressibility (1/GPa) = 0.05217364
#
# Stress axis : x y z
#
# Youngs Moduli (GPa) = 98.60562 64.07648 23.49286
#
# Poissons Ratio (x) = 0.28904 0.03102
# Poissons Ratio (y) = 0.44480 0.05259
# Poissons Ratio (z) = 0.13021 0.14345
#
# Static dielectric constant tensor:
#      x y z
#    x 1.689530 0.000000 -0.005620 
#    y 0.000000 1.960090 0.000000 
#    z -0.005620 0.000000 1.784290 
# 
# From -- ./inp_files/75264.got.cif
#   From: 2010.05.17/outbox.cif.g08.bks.cpg/sg12_38_cif.got.tgz:75264.got - 2010.06.03 13:09:07.
