data_PCOD9201339
_publ_section_title
;
Structure prediction by ZEFSAII (Michael W. Deem and Ramdas Pophale) SiO2 
 PCOD9201339
Probable space group: C 2/M
;
_chemical_formula_sum "Si O2"
_cell_formula_units_Z 56
_cell_length_a 29.012070
_cell_length_b 17.521763
_cell_length_c 9.105095
_cell_angle_alpha 90.000000
_cell_angle_beta 38.412525
_cell_angle_gamma 90.000000
_cell_volume 2875.780220
_symmetry_space_group_name_H-M "C 2/M"
_symmetry_group_IT_number 12
_symmetry_cell_setting 'monoclinic'
loop_
_space_group_symop_operation_xyz
x,y,z
-x,y,-z
-x,-y,-z
x,-y,z
1/2+x,1/2+y,z
1/2-x,1/2+y,-z
1/2-x,1/2-y,-z
1/2+x,1/2-y,z
loop_
_atom_site_type_symbol
_atom_site_label
_atom_site_fract_x
_atom_site_fract_y
_atom_site_fract_z
Si Si1 0.645531 0.409277 0.791257
Si Si2 0.131292 0.855375 0.492711
Si Si3 0.572416 0.194629 0.720737
Si Si4 0.561698 0.091056 0.465948
Si Si5 0.009933 0.910356 0.316062
Si Si6 0.709809 0.832779 0.589367
Si Si7 0.791284 0.591787 0.089051
O O1 0.639936 0.500000 0.796164
O O2 0.636031 0.377305 0.651883
O O3 0.726765 0.385706 0.640827
O O4 0.579173 0.377002 0.055144
O O5 0.104854 0.768431 0.555763
O O6 0.212680 0.874912 0.229024
O O7 0.066378 0.903047 0.579905
O O8 0.554696 0.133312 0.638738
O O9 0.637048 0.169973 0.672126
O O10 0.500000 0.212710 0.000000
O O11 0.500000 0.115051 0.500000
O O12 0.553291 0.000000 0.508959
O O13 0.641855 0.104664 0.190686
O O14 0.000000 0.874399 0.500000
O O15 0.027322 0.000000 0.291626
O O16 0.750000 0.750000 0.500000
O O17 0.693877 0.866937 0.791311
O O18 0.783632 0.500000 0.132100
#
# Coordination Sequence:
#
# PCOD9201339 Si02
#       7
#     8   8   8   8   8   8   8
#     4  10  20  37  62  85 115 164 204 240 301 368
#     4  11  21  37  59  90 122 158 199 242 302 380
#     4  12  25  40  64  94 126 162 206 256 315 367
#     4  10  24  46  66  89 122 165 217 266 311 364
#     4  10  21  36  55  85 122 157 198 247 293 354
#     4  11  21  39  60  91 126 156 197 261 303 364
#     4  10  21  41  68  91 120 165 206 250 313 378
#
# _framework density 19.472977
#
# number of rings (size 3 to 8) (size 9 to 14) (size 15 to 20)
#    0.000    1.429    2.857    4.714    0.000    4.857 
#    2.571    2.857    0.000    0.000    0.000    0.000 
#    0.000    0.000    0.000    0.000    0.000    0.000 
#
# Total GULP energy -156322.888496 kJ/mol
# GULP energy per Si atom -5582.960303 kJ/mol
# Density = 1.942866 g / cm^3
# Si number density = 19.472977 Si / 1000 Ang^3
#
#
#
# Elastic Constant Matrix: (Units=GPa)
#
#
# Indices 1 2 3 4 5 6 
#
# 1 65.6797 4.3210 22.6477 0.0000 -14.9363 0.0000
# 2 4.3210 55.7595 11.3222 0.0000 8.5203 0.0000
# 3 22.6477 11.3222 84.5811 0.0000 -15.2407 0.0000
# 4 0.0000 0.0000 0.0000 2.8653 0.0000 -12.1452
# 5 -14.9363 8.5203 -15.2407 0.0000 23.3778 0.0000
# 6 0.0000 0.0000 0.0000 -12.1452 0.0000 32.1000
#
#
#
# Elastic Compliance Matrix: (Units=1/GPa)
#
#
# Indices 1 2 3 4 5 6 
#
# 1 0.018888 -0.002648 -0.002668 0.000000 0.011293 0.000000
# 2 -0.002648 0.020847 -0.004255 0.000000 -0.012064 0.000000
# 3 -0.002668 -0.004255 0.014820 0.000000 0.009508 0.000000
# 4 0.000000 0.000000 0.000000 -0.578088 0.000000 -0.218722
# 5 0.011293 -0.012064 0.009508 0.000000 0.060586 0.000000
# 6 0.000000 0.000000 0.000000 -0.218722 0.000000 -0.051601
#
#
# Mechanical properties :
#
#
# Convention : Reuss Voigt Hill
#
# Bulk Modulus (GPa) = 28.23850 31.40024 29.81937
# Shear Modulus (GPa) = -10.33908 22.85059 6.25576
#
# Velocity S-wave (km/s) = -2.30672 3.42928 1.79430
# Velocity P-wave (km/s) = 2.72731 5.64270 4.43161
#
# Compressibility (1/GPa) = 0.03541265
#
# Stress axis : x y z
#
# Youngs Moduli (GPa) = 52.94427 47.96907 67.47504
#
# Poissons Ratio (x) = 0.12700 0.18003
# Poissons Ratio (y) = 0.14017 0.28713
# Poissons Ratio (z) = 0.14126 0.20413
#
# Static dielectric constant tensor:
#      x y z
#    x 1.669180 0.000000 -0.020600 
#    y 0.000000 1.712000 0.000000 
#    z -0.020600 0.000000 1.711800 
# 
# From -- ./inp_files/105917.got.cif
#   From: 2010.05.17/outbox.cif.g08.bks.cpg/sg12_53_cif.got.tgz:105917.got - 2010.06.03 13:09:07.
