data_PCOD9201779
_publ_section_title
;
Structure prediction by ZEFSAII (Michael W. Deem and Ramdas Pophale) SiO2 
 PCOD9201779
Probable space group: C 2/M
;
_chemical_formula_sum "Si O2"
_cell_formula_units_Z 56
_cell_length_a 8.654779
_cell_length_b 31.017223
_cell_length_c 11.331369
_cell_angle_alpha 90.000000
_cell_angle_beta 123.160612
_cell_angle_gamma 90.000000
_cell_volume 2546.476369
_symmetry_space_group_name_H-M "C 2/M"
_symmetry_group_IT_number 12
_symmetry_cell_setting 'monoclinic'
loop_
_space_group_symop_operation_xyz
x,y,z
-x,y,-z
-x,-y,-z
x,-y,z
1/2+x,1/2+y,z
1/2-x,1/2+y,-z
1/2-x,1/2-y,-z
1/2+x,1/2-y,z
loop_
_atom_site_type_symbol
_atom_site_label
_atom_site_fract_x
_atom_site_fract_y
_atom_site_fract_z
Si Si1 0.488947 0.069252 0.626083
Si Si2 0.599261 0.603036 0.168284
Si Si3 0.740454 0.585009 0.841573
Si Si4 0.610567 0.000000 0.209948
Si Si5 0.218913 0.862174 0.591005
Si Si6 0.500000 0.846272 0.000000
Si Si7 0.034412 0.288670 0.248005
Si Si8 0.877131 0.798117 0.830665
O O1 0.500000 0.049726 0.500000
O O2 0.689634 0.088284 0.743453
O O3 0.332623 0.106702 0.551439
O O4 0.433241 0.036926 0.706373
O O5 0.469669 0.578446 0.207002
O O6 0.587778 0.653451 0.196728
O O7 0.500000 0.597135 0.000000
O O8 0.829657 0.538725 0.858202
O O9 0.756398 0.613707 0.730862
O O10 0.841841 0.618928 0.971734
O O11 0.307609 0.815015 0.618567
O O12 0.000000 0.860244 0.500000
O O13 0.470374 0.813801 0.879429
O O14 0.836455 0.294124 0.224538
O O15 0.071872 0.238784 0.240181
O O16 0.000000 0.791465 0.000000
#
# Coordination Sequence:
#
# PCOD9201779 Si02
#       8
#     8   8   8   4   8   4   8   8
#     4  11  23  47  73  98 131 176 227 280 341 405
#     4  11  24  42  67 102 141 179 224 276 340 398
#     4  10  23  40  68  95 132 173 217 273 344 398
#     4  10  25  45  69 104 127 171 227 284 330 415
#     4  10  22  43  65  93 131 175 226 273 335 405
#     4  10  20  37  64  92 132 180 214 259 334 402
#     4  11  22  37  60  97 132 174 226 272 317 388
#     4  11  22  36  62  97 136 175 226 271 321 383
#
# _framework density 21.991173
#
# number of rings (size 3 to 8) (size 9 to 14) (size 15 to 20)
#    0.000    1.429    2.143    3.214    8.000    0.857 
#    0.000   14.286    0.000    0.000    0.000    0.000 
#    0.000    0.000    0.000    0.000    0.000    0.000 
#
# Total GULP energy -155878.285700 kJ/mol
# GULP energy per Si atom -5567.081632 kJ/mol
# Density = 2.194112 g / cm^3
# Si number density = 21.991173 Si / 1000 Ang^3
#
#
#
# Elastic Constant Matrix: (Units=GPa)
#
#
# Indices 1 2 3 4 5 6 
#
# 1 119.5755 35.0193 29.3078 0.0000 17.4133 0.0000
# 2 35.0193 132.7791 35.4235 0.0000 7.6686 0.0000
# 3 29.3078 35.4235 35.6138 0.0000 20.6050 0.0000
# 4 0.0000 0.0000 0.0000 5.1360 0.0000 -14.9458
# 5 17.4133 7.6686 20.6050 0.0000 38.1345 0.0000
# 6 0.0000 0.0000 0.0000 -14.9458 0.0000 10.0945
#
#
#
# Elastic Compliance Matrix: (Units=1/GPa)
#
#
# Indices 1 2 3 4 5 6 
#
# 1 0.010522 -0.000702 -0.007655 0.000000 -0.000527 0.000000
# 2 -0.000702 0.011004 -0.013489 0.000000 0.005396 0.000000
# 3 -0.007655 -0.013489 0.064307 0.000000 -0.028539 0.000000
# 4 0.000000 0.000000 0.000000 -0.058849 0.000000 -0.087131
# 5 -0.000527 0.005396 -0.028539 0.000000 0.040799 0.000000
# 6 0.000000 0.000000 0.000000 -0.087131 0.000000 -0.029942
#
#
# Mechanical properties :
#
#
# Convention : Reuss Voigt Hill
#
# Bulk Modulus (GPa) = 23.73073 54.16329 38.94701
# Shear Modulus (GPa) = 52.31239 23.22085 37.76662
#
# Velocity S-wave (km/s) = 4.88258 3.25301 4.14859
# Velocity P-wave (km/s) = 6.52691 6.22836 6.37938
#
# Compressibility (1/GPa) = 0.04213946
#
# Stress axis : x y z
#
# Youngs Moduli (GPa) = 95.04266 90.88008 15.55035
#
# Poissons Ratio (x) = 0.06382 0.11904
# Poissons Ratio (y) = 0.06674 0.20976
# Poissons Ratio (z) = 0.72757 1.22588
#
# Static dielectric constant tensor:
#      x y z
#    x 1.828380 0.000000 0.038100 
#    y 0.000000 1.767480 0.000000 
#    z 0.038100 0.000000 1.948390 
# 
# From -- ./inp_files/125862.got.cif
#   From: 2010.05.17/outbox.cif.g08.bks.cpg/sg12_63_cif.got.tgz:125862.got - 2010.06.03 13:09:07.
