data_PCOD9201471
_publ_section_title
;
Structure prediction by ZEFSAII (Michael W. Deem and Ramdas Pophale) SiO2 
 PCOD9201471
Probable space group: C 2/M
;
_chemical_formula_sum "Si O2"
_cell_formula_units_Z 64
_cell_length_a 29.650624
_cell_length_b 8.927659
_cell_length_c 11.185624
_cell_angle_alpha 90.000000
_cell_angle_beta 78.708081
_cell_angle_gamma 90.000000
_cell_volume 2903.636612
_symmetry_space_group_name_H-M "C 2/M"
_symmetry_group_IT_number 12
_symmetry_cell_setting 'monoclinic'
loop_
_space_group_symop_operation_xyz
x,y,z
-x,y,-z
-x,-y,-z
x,-y,z
1/2+x,1/2+y,z
1/2-x,1/2+y,-z
1/2-x,1/2-y,-z
1/2+x,1/2-y,z
loop_
_atom_site_type_symbol
_atom_site_label
_atom_site_fract_x
_atom_site_fract_y
_atom_site_fract_z
Si Si1 0.845630 0.674304 0.901143
Si Si2 0.939313 0.324062 0.726494
Si Si3 0.271993 0.677427 0.785401
Si Si4 0.397220 0.674879 0.092344
Si Si5 0.190858 0.173904 0.707862
Si Si6 0.478249 0.321330 0.208769
Si Si7 0.321738 0.176812 0.533079
Si Si8 0.568404 0.821714 0.535856
O O1 0.833333 0.500000 0.918363
O O2 0.885221 0.690137 0.779441
O O3 0.801567 0.767044 0.882722
O O4 0.872277 0.731338 0.003529
O O5 0.950368 0.500000 0.729561
O O6 0.949194 0.273868 0.586028
O O7 0.970052 0.237789 0.806372
O O8 0.266456 0.500000 0.790258
O O9 0.223143 0.758361 0.794121
O O10 0.300073 0.731017 0.653045
O O11 0.400608 0.500000 0.053548
O O12 0.361867 0.681161 0.222278
O O13 0.446567 0.729274 0.114354
O O14 0.197638 0.267055 0.583588
O O15 0.202446 0.000000 0.682023
O O16 0.478193 0.500000 0.205616
O O17 0.453910 0.263223 0.342275
O O18 0.376630 0.198527 0.496033
O O19 0.313099 0.000000 0.555948
O O20 0.559403 0.000000 0.553164
#
# Coordination Sequence:
#
# PCOD9201471 Si02
#       8
#     8   8   8   8   8   8   8   8
#     4  11  24  44  67  90 119 160 211 259 305 364
#     4  10  22  41  62  90 124 161 203 249 307 367
#     4  12  25  41  64  94 127 162 203 251 311 370
#     4  10  24  44  63  88 123 162 206 257 309 362
#     4  11  23  42  65  91 127 165 206 253 305 366
#     4  11  23  39  61  93 127 160 204 252 305 364
#     4  11  21  38  64  94 127 163 205 250 307 367
#     4  10  20  37  62  89 125 163 200 248 304 367
#
# _framework density 22.041325000000001
#
# number of rings (size 3 to 8) (size 9 to 14) (size 15 to 20)
#    0.000    1.250    2.500    3.375    0.000    6.500 
#    0.000    2.500    0.000    0.000    0.000    0.000 
#    0.000    0.000    0.000    0.000    0.000    0.000 
#
# Total GULP energy -179081.633073 kJ/mol
# GULP energy per Si atom -5596.301034 kJ/mol
# Density = 2.199116 g / cm^3
# Si number density = 22.041325 Si / 1000 Ang^3
#
#
#
# Elastic Constant Matrix: (Units=GPa)
#
#
# Indices 1 2 3 4 5 6 
#
# 1 102.7044 28.2973 3.7779 0.0000 33.8094 0.0000
# 2 28.2973 53.6250 6.0977 0.0000 14.8032 0.0000
# 3 3.7779 6.0977 64.8440 0.0000 26.5546 0.0000
# 4 0.0000 0.0000 0.0000 29.9279 0.0000 6.7085
# 5 33.8094 14.8032 26.5546 0.0000 42.3590 0.0000
# 6 0.0000 0.0000 0.0000 6.7085 0.0000 34.7548
#
#
#
# Elastic Compliance Matrix: (Units=1/GPa)
#
#
# Indices 1 2 3 4 5 6 
#
# 1 0.015491 -0.004923 0.005273 0.000000 -0.013950 0.000000
# 2 -0.004923 0.022294 -0.000307 0.000000 -0.003669 0.000000
# 3 0.005273 -0.000307 0.022633 0.000000 -0.018290 0.000000
# 4 0.000000 0.000000 0.000000 0.034925 0.000000 -0.006741
# 5 -0.013950 -0.003669 -0.018290 0.000000 0.047490 0.000000
# 6 0.000000 0.000000 0.000000 -0.006741 0.000000 0.030074
#
#
# Mechanical properties :
#
#
# Convention : Reuss Voigt Hill
#
# Bulk Modulus (GPa) = 16.52801 33.05770 24.79285
# Shear Modulus (GPa) = 25.90806 33.60838 29.75822
#
# Velocity S-wave (km/s) = 3.43218 3.90909 3.67837
# Velocity P-wave (km/s) = 4.81885 5.95023 5.41418
#
# Compressibility (1/GPa) = 0.06050336
#
# Stress axis : x y z
#
# Youngs Moduli (GPa) = 64.55229 44.85567 44.18255
#
# Poissons Ratio (x) = 0.22084 -0.23298
# Poissons Ratio (y) = 0.31782 0.01357
# Poissons Ratio (z) = -0.34039 0.01378
#
# Static dielectric constant tensor:
#      x y z
#    x 1.836720 0.000000 -0.019130 
#    y 0.000000 1.732660 0.000000 
#    z -0.019130 0.000000 1.822290 
# 
# From -- ./inp_files/187391.got.cif
#   From: 2010.05.17/outbox.cif.g08.bks.cpg/sg12_94_cif.got.tgz:187391.got - 2010.06.03 13:09:07.
