data_PCOD9201919
_publ_section_title
;
Structure prediction by ZEFSAII (Michael W. Deem and Ramdas Pophale) SiO2 
 PCOD9201919
Probable space group: C 2/M
;
_chemical_formula_sum "Si O2"
_cell_formula_units_Z 56
_cell_length_a 8.919547
_cell_length_b 14.586377
_cell_length_c 22.543999
_cell_angle_alpha 90.000000
_cell_angle_beta 66.761561
_cell_angle_gamma 90.000000
_cell_volume 2695.104812
_symmetry_space_group_name_H-M "C 2/M"
_symmetry_group_IT_number 12
_symmetry_cell_setting 'monoclinic'
loop_
_space_group_symop_operation_xyz
x,y,z
-x,y,-z
-x,-y,-z
x,-y,z
1/2+x,1/2+y,z
1/2-x,1/2+y,-z
1/2-x,1/2-y,-z
1/2+x,1/2-y,z
loop_
_atom_site_type_symbol
_atom_site_label
_atom_site_fract_x
_atom_site_fract_y
_atom_site_fract_z
Si Si1 0.296610 0.297817 0.402848
Si Si2 0.785570 0.600261 0.887928
Si Si3 0.522503 0.606776 0.144807
Si Si4 0.019927 0.714939 0.779859
Si Si5 0.802723 0.893671 0.524247
Si Si6 0.690978 0.848517 0.986330
Si Si7 0.862052 0.252985 0.688459
O O1 0.268355 0.190254 0.425314
O O2 0.257066 0.362208 0.464410
O O3 0.193367 0.311520 0.359537
O O4 0.485668 0.307040 0.356366
O O5 0.823785 0.500000 0.857632
O O6 0.617849 0.630374 0.882277
O O7 0.934645 0.665530 0.847707
O O8 0.770997 0.594675 0.960517
O O9 0.506629 0.500000 0.163177
O O10 0.497675 0.677060 0.202476
O O11 0.696792 0.622290 0.086162
O O12 0.207046 0.696695 0.736180
O O13 0.921339 0.690647 0.736046
O O14 0.000000 0.888580 0.500000
O O15 0.755226 0.000000 0.543637
O O16 0.500000 0.850842 0.000000
O O17 0.750000 0.750000 0.000000
#
# Coordination Sequence:
#
# PCOD9201919 Si02
#       7
#     8   8   8   8   8   8   8
#     4  10  20  41  62  93 130 168 196 258 302 362
#     4  11  24  43  65  92 124 160 205 265 325 380
#     4  11  24  43  65  92 124 160 205 265 325 380
#     4  11  22  42  62  88 120 169 210 256 302 371
#     4  10  20  37  66  99 128 161 203 254 308 362
#     4  12  25  40  65  94 122 160 205 261 328 385
#     4  10  22  39  64  87 126 170 210 246 306 356
#
# _framework density 20.778413
#
# number of rings (size 3 to 8) (size 9 to 14) (size 15 to 20)
#    0.000    1.286    4.286    1.714    2.000    2.286 
#    0.000   10.000    0.000    0.000    0.000    0.000 
#    0.000    0.000    0.000    0.000    0.000    0.000 
#
# Total GULP energy -156260.720360 kJ/mol
# GULP energy per Si atom -5580.740013 kJ/mol
# Density = 2.073112 g / cm^3
# Si number density = 20.778413 Si / 1000 Ang^3
#
#
#
# Elastic Constant Matrix: (Units=GPa)
#
#
# Indices 1 2 3 4 5 6 
#
# 1 105.9418 12.7720 21.6504 0.0000 0.5441 0.0000
# 2 12.7720 105.2282 20.0950 0.0000 -4.6206 0.0000
# 3 21.6504 20.0950 80.2464 0.0000 1.2481 0.0000
# 4 0.0000 0.0000 0.0000 5.4800 0.0000 3.9607
# 5 0.5441 -4.6206 1.2481 0.0000 40.0468 0.0000
# 6 0.0000 0.0000 0.0000 3.9607 0.0000 10.8362
#
#
#
# Elastic Compliance Matrix: (Units=1/GPa)
#
#
# Indices 1 2 3 4 5 6 
#
# 1 0.010045 -0.000744 -0.002522 0.000000 -0.000144 0.000000
# 2 -0.000744 0.010096 -0.002347 0.000000 0.001248 0.000000
# 3 -0.002522 -0.002347 0.013740 0.000000 -0.000665 0.000000
# 4 0.000000 0.000000 0.000000 0.247994 0.000000 -0.090644
# 5 -0.000144 0.001248 -0.000665 0.000000 0.025137 0.000000
# 6 0.000000 0.000000 0.000000 -0.090644 0.000000 0.125414
#
#
# Mechanical properties :
#
#
# Convention : Reuss Voigt Hill
#
# Bulk Modulus (GPa) = 44.13792 44.49459 44.31625
# Shear Modulus (GPa) = 11.08145 27.06587 19.07366
#
# Velocity S-wave (km/s) = 2.31187 3.61306 3.03307
# Velocity P-wave (km/s) = 5.33054 6.23426 5.80003
#
# Compressibility (1/GPa) = 0.02265626
#
# Stress axis : x y z
#
# Youngs Moduli (GPa) = 99.55314 99.04455 72.78016
#
# Poissons Ratio (x) = 0.07369 0.18352
# Poissons Ratio (y) = 0.07406 0.17082
# Poissons Ratio (z) = 0.25103 0.23246
#
# Static dielectric constant tensor:
#      x y z
#    x 1.769300 0.000000 0.006800 
#    y 0.000000 1.582950 0.000000 
#    z 0.006800 0.000000 1.736520 
# 
# From -- ./inp_files/332589.got.cif
#   From: 2010.05.17/outbox.cif.g08.bks.cpg/sg12_167_cif.got.tgz:332589.got - 2010.06.03 13:09:07.
