data_PCOD9201357
_publ_section_title
;
Structure prediction by ZEFSAII (Michael W. Deem and Ramdas Pophale) SiO2 
 PCOD9201357
Probable space group: C 2/M
;
_chemical_formula_sum "Si O2"
_cell_formula_units_Z 56
_cell_length_a 8.946600
_cell_length_b 12.805982
_cell_length_c 31.590766
_cell_angle_alpha 90.000000
_cell_angle_beta 127.309066
_cell_angle_gamma 90.000000
_cell_volume 2878.753054
_symmetry_space_group_name_H-M "C 2/M"
_symmetry_group_IT_number 12
_symmetry_cell_setting 'monoclinic'
loop_
_space_group_symop_operation_xyz
x,y,z
-x,y,-z
-x,-y,-z
x,-y,z
1/2+x,1/2+y,z
1/2-x,1/2+y,-z
1/2-x,1/2-y,-z
1/2+x,1/2-y,z
loop_
_atom_site_type_symbol
_atom_site_label
_atom_site_fract_x
_atom_site_fract_y
_atom_site_fract_z
Si Si1 0.203776 0.793302 0.038698
Si Si2 0.691093 0.878029 0.560461
Si Si3 0.696342 0.804431 0.358806
Si Si4 0.604125 0.120973 0.093886
Si Si5 0.720513 0.753864 0.718625
Si Si6 0.479089 0.615438 0.541716
Si Si7 0.600005 0.621988 0.779271
O O1 0.398444 0.855249 0.079458
O O2 0.161844 0.701249 0.065893
O O3 0.250000 0.750000 0.000000
O O4 0.000000 0.850296 0.000000
O O5 0.500000 0.880329 0.500000
O O6 0.719182 0.803918 0.606188
O O7 0.847502 0.835612 0.554336
O O8 0.731086 0.000000 0.578618
O O9 0.474676 0.810587 0.325530
O O10 0.736573 0.811641 0.316083
O O11 0.814460 0.888689 0.404035
O O12 0.759314 0.132992 0.157098
O O13 0.603927 0.000000 0.078845
O O14 0.681171 0.683706 0.752850
O O15 0.897329 0.829327 0.755315
O O16 0.500000 0.667445 0.500000
O O17 0.397416 0.500000 0.520308
O O18 0.581374 0.500000 0.766001
#
# Coordination Sequence:
#
# PCOD9201357 Si02
#       7
#     8   8   8   8   8   8   8
#     4   9  19  34  56  91 130 163 198 247 294 340
#     4  10  22  38  57  80 107 143 182 224 280 355
#     4  11  21  37  58  81 108 145 179 232 295 349
#     4  10  20  37  62  86 118 168 208 244 297 350
#     4  10  23  38  59  88 113 144 198 251 297 355
#     4  10  22  37  53  77 109 141 175 219 276 349
#     4  10  22  42  64  86 118 158 202 253 301 344
#
# _framework density 19.452866
#
# number of rings (size 3 to 8) (size 9 to 14) (size 15 to 20)
#    0.000    2.000    1.429    1.286    2.000    7.429 
#    0.000    4.286    0.000   15.429    0.000    0.000 
#    0.000    0.000    0.000    0.000    0.000    0.000 
#
# Total GULP energy -155965.588711 kJ/mol
# GULP energy per Si atom -5570.199597 kJ/mol
# Density = 1.940859 g / cm^3
# Si number density = 19.452866 Si / 1000 Ang^3
#
#
#
# Elastic Constant Matrix: (Units=GPa)
#
#
# Indices 1 2 3 4 5 6 
#
# 1 130.8088 43.0928 53.6344 0.0000 12.8504 0.0000
# 2 43.0928 92.6713 35.9103 0.0000 -1.1895 0.0000
# 3 53.6344 35.9103 99.5257 0.0000 21.1071 0.0000
# 4 0.0000 0.0000 0.0000 -4.1662 0.0000 -9.5017
# 5 12.8504 -1.1895 21.1071 0.0000 39.7859 0.0000
# 6 0.0000 0.0000 0.0000 -9.5017 0.0000 14.5533
#
#
#
# Elastic Compliance Matrix: (Units=1/GPa)
#
#
# Indices 1 2 3 4 5 6 
#
# 1 0.010599 -0.003296 -0.004254 0.000000 -0.001265 0.000000
# 2 -0.003296 0.013925 -0.004014 0.000000 0.003610 0.000000
# 3 -0.004254 -0.004014 0.015237 0.000000 -0.006829 0.000000
# 4 0.000000 0.000000 0.000000 -0.096434 0.000000 -0.062961
# 5 -0.001265 0.003610 -0.006829 0.000000 0.029274 0.000000
# 6 0.000000 0.000000 0.000000 -0.062961 0.000000 0.027606
#
#
# Mechanical properties :
#
#
# Convention : Reuss Voigt Hill
#
# Bulk Modulus (GPa) = 60.12268 65.36454 62.74361
# Shear Modulus (GPa) = 173.12039 22.72580 97.92310
#
# Velocity S-wave (km/s) = 9.44394 3.42167 7.10267
# Velocity P-wave (km/s) = 12.24301 7.02032 9.97938
#
# Compressibility (1/GPa) = 0.01663266
#
# Stress axis : x y z
#
# Youngs Moduli (GPa) = 94.34554 71.81141 65.63037
#
# Poissons Ratio (x) = 0.23672 0.27921
# Poissons Ratio (y) = 0.31101 0.26342
# Poissons Ratio (z) = 0.40137 0.28823
#
# Static dielectric constant tensor:
#      x y z
#    x 1.710540 0.000000 0.019130 
#    y 0.000000 1.719440 0.000000 
#    z 0.019130 0.000000 1.690940 
# 
# From -- ./inp_files/372402.got.cif
#   From: 2010.05.17/outbox.cif.g08.bks.cpg/sg12_187_cif.got.tgz:372402.got - 2010.06.03 13:09:07.
