data_PCOD9201802
_publ_section_title
;
Structure prediction by ZEFSAII (Michael W. Deem and Ramdas Pophale) SiO2 
 PCOD9201802
Probable space group: C 2/M
;
_chemical_formula_sum "Si O2"
_cell_formula_units_Z 52
_cell_length_a 7.747680
_cell_length_b 30.188203
_cell_length_c 18.429643
_cell_angle_alpha 90.000000
_cell_angle_beta 33.393079
_cell_angle_gamma 90.000000
_cell_volume 2372.402742
_symmetry_space_group_name_H-M "C 2/M"
_symmetry_group_IT_number 12
_symmetry_cell_setting 'monoclinic'
loop_
_space_group_symop_operation_xyz
x,y,z
-x,y,-z
-x,-y,-z
x,-y,z
1/2+x,1/2+y,z
1/2-x,1/2+y,-z
1/2-x,1/2-y,-z
1/2+x,1/2-y,z
loop_
_atom_site_type_symbol
_atom_site_label
_atom_site_fract_x
_atom_site_fract_y
_atom_site_fract_z
Si Si1 0.908602 0.905944 0.148892
Si Si2 0.176418 0.085763 0.650519
Si Si3 0.196695 0.682706 0.154598
Si Si4 0.676389 0.232737 0.605795
Si Si5 0.218690 0.000000 0.196728
Si Si6 0.601507 0.679267 0.261718
Si Si7 0.000000 0.638341 0.000000
Si Si8 0.570891 0.500000 0.074930
O O1 0.790350 0.907412 0.273903
O O2 0.749133 0.868495 0.156712
O O3 0.276897 0.891931 0.028518
O O4 0.890672 0.954784 0.123226
O O5 0.500000 0.073624 0.500000
O O6 0.061029 0.133038 0.660615
O O7 0.936258 0.045581 0.721972
O O8 0.119637 0.706412 0.258455
O O9 0.882215 0.690513 0.218656
O O10 0.500000 0.696928 0.000000
O O11 0.750000 0.250000 0.500000
O O12 0.634640 0.279967 0.661418
O O13 0.000000 0.205189 0.500000
O O14 0.143328 0.000000 0.136462
O O15 0.587229 0.000000 0.079885
O O16 0.773527 0.668667 0.126201
#
# Coordination Sequence:
#
# PCOD9201802 Si02
#       8
#     8   8   8   8   4   8   4   4
#     4  10  21  37  63  92 130 171 213 266 325 378
#     4  10  21  36  62  93 128 172 217 266 317 383
#     4  12  27  44  66  97 136 167 217 273 331 387
#     4  12  28  47  68  96 128 173 219 263 328 396
#     4   9  17  32  61  93 125 163 217 270 311 377
#     4  11  24  41  66  92 129 165 214 266 326 383
#     4  10  20  37  64  94 124 166 214 269 320 374
#     4   9  16  34  60  90 126 167 215 263 323 374
#
# _framework density 21.918707999999999
#
# number of rings (size 3 to 8) (size 9 to 14) (size 15 to 20)
#    0.000    1.385    3.077    3.462    7.538    0.615 
#    0.000    1.154    0.000    0.000    0.000    4.846 
#    0.000    0.000    0.000    0.000    0.000    0.000 
#
# Total GULP energy -145101.380048 kJ/mol
# GULP energy per Si atom -5580.822310 kJ/mol
# Density = 2.186882 g / cm^3
# Si number density = 21.918708 Si / 1000 Ang^3
#
#
#
# Elastic Constant Matrix: (Units=GPa)
#
#
# Indices 1 2 3 4 5 6 
#
# 1 46.2782 4.4283 14.1165 0.0000 0.1271 0.0000
# 2 4.4283 134.7941 52.7889 -0.0001 1.8073 0.0000
# 3 14.1165 52.7889 154.5814 0.0000 10.7835 -0.0001
# 4 0.0000 -0.0001 0.0000 21.2169 0.0000 -3.1845
# 5 0.1271 1.8073 10.7835 0.0000 26.8100 0.0000
# 6 0.0000 0.0000 -0.0001 -3.1845 0.0000 25.6065
#
#
#
# Elastic Compliance Matrix: (Units=1/GPa)
#
#
# Indices 1 2 3 4 5 6 
#
# 1 0.022242 0.000087 -0.002112 0.000000 0.000738 0.000000
# 2 0.000087 0.008574 -0.002979 0.000000 0.000620 0.000000
# 3 -0.002112 -0.002979 0.007886 0.000000 -0.002961 0.000000
# 4 0.000000 0.000000 0.000000 0.048029 0.000000 0.005973
# 5 0.000738 0.000620 -0.002961 0.000000 0.038445 0.000000
# 6 0.000000 0.000000 0.000000 0.005973 0.000000 0.039795
#
#
# Mechanical properties :
#
#
# Convention : Reuss Voigt Hill
#
# Bulk Modulus (GPa) = 34.85187 53.14679 43.99933
# Shear Modulus (GPa) = 27.09349 32.34802 29.72076
#
# Velocity S-wave (km/s) = 3.51962 3.84581 3.68632
# Velocity P-wave (km/s) = 5.69667 6.63477 6.18353
#
# Compressibility (1/GPa) = 0.02869287
#
# Stress axis : x y z
#
# Youngs Moduli (GPa) = 44.95909 116.62741 126.80802
#
# Poissons Ratio (x) = -0.01010 0.26785
# Poissons Ratio (y) = -0.00389 0.37779
# Poissons Ratio (z) = 0.09497 0.34746
#
# Static dielectric constant tensor:
#      x y z
#    x 1.911980 0.000000 0.018300 
#    y 0.000000 1.844070 0.000000 
#    z 0.018300 0.000000 1.779750 
# 
# From -- ./inp_files/302937.got.cif
#   From: 2010.05.17/outbox.cif.g08.bks.cpg/sg12_152_cif.got.tgz:302937.got - 2010.06.03 13:09:07.
