data_PCOD9201546
_publ_section_title
;
Structure prediction by ZEFSAII (Michael W. Deem and Ramdas Pophale) SiO2 
 PCOD9201546
Probable space group: C 2/M
;
_chemical_formula_sum "Si O2"
_cell_formula_units_Z 32
_cell_length_a 8.551214
_cell_length_b 22.038374
_cell_length_c 8.734269
_cell_angle_alpha 90.000000
_cell_angle_beta 101.817785
_cell_angle_gamma 90.000000
_cell_volume 1611.126210
_symmetry_space_group_name_H-M "C 2/M"
_symmetry_group_IT_number 12
_symmetry_cell_setting 'monoclinic'
loop_
_space_group_symop_operation_xyz
x,y,z
-x,y,-z
-x,-y,-z
x,-y,z
1/2+x,1/2+y,z
1/2-x,1/2+y,-z
1/2-x,1/2-y,-z
1/2+x,1/2-y,z
loop_
_atom_site_type_symbol
_atom_site_label
_atom_site_fract_x
_atom_site_fract_y
_atom_site_fract_z
Si Si1 0.810498 0.809671 0.925525
Si Si2 0.677230 0.565496 0.957208
Si Si3 0.181602 0.066538 0.591156
Si Si4 0.690304 0.813807 0.552912
O O1 0.763125 0.812559 0.738520
O O2 0.750000 0.750000 0.000000
O O3 0.739966 0.872972 0.973918
O O4 0.000000 0.810484 0.000000
O O5 0.750585 0.500000 0.013783
O O6 0.672379 0.569766 0.773070
O O7 0.500000 0.565014 0.000000
O O8 0.255949 0.125984 0.528397
O O9 0.000000 0.065505 0.500000
O O10 0.254406 0.000000 0.564823
O O11 0.500000 0.813060 0.500000
O O12 0.750000 0.750000 0.500000
#
# Coordination Sequence:
#
# PCOD9201546 Si02
#       4
#     8   8   8   8
#     4  11  22  38  61  86 116 154 199 248 300 361
#     4   9  18  34  58  87 116 152 200 248 294 354
#     4  10  20  37  62  91 125 164 206 251 307 373
#     4  12  25  41  62  90 126 163 205 257 312 370
#
# _framework density 19.861882999999999
#
# number of rings (size 3 to 8) (size 9 to 14) (size 15 to 20)
#    0.000    1.500    0.000    6.750    0.000    3.500 
#    0.000    0.000    0.000    3.750    0.000    0.000 
#    0.000    0.000    0.000    0.000    0.000    0.000 
#
# Total GULP energy -89186.854587 kJ/mol
# GULP energy per Si atom -5574.178412 kJ/mol
# Density = 1.981668 g / cm^3
# Si number density = 19.861883 Si / 1000 Ang^3
#
#
#
# Elastic Constant Matrix: (Units=GPa)
#
#
# Indices 1 2 3 4 5 6 
#
# 1 80.2715 59.3381 36.7975 0.0000 4.0948 0.0000
# 2 59.3381 271.0165 94.6310 0.0000 -23.4442 0.0000
# 3 36.7975 94.6310 157.5872 0.0000 0.9289 0.0000
# 4 0.0000 0.0000 0.0000 40.5895 0.0000 -14.7658
# 5 4.0948 -23.4442 0.9289 0.0000 24.0813 0.0000
# 6 0.0000 0.0000 0.0000 -14.7658 0.0000 28.4915
#
#
#
# Elastic Compliance Matrix: (Units=1/GPa)
#
#
# Indices 1 2 3 4 5 6 
#
# 1 0.016084 -0.003475 -0.001633 0.000000 -0.006055 0.000000
# 2 -0.003475 0.006007 -0.002834 0.000000 0.006548 0.000000
# 3 -0.001633 -0.002834 0.008446 0.000000 -0.002807 0.000000
# 4 0.000000 0.000000 0.000000 0.030361 0.000000 0.015735
# 5 -0.006055 0.006548 -0.002807 0.000000 0.049039 0.000000
# 6 0.000000 0.000000 0.000000 0.015735 0.000000 0.043253
#
#
# Mechanical properties :
#
#
# Convention : Reuss Voigt Hill
#
# Bulk Modulus (GPa) = 68.25302 98.93427 83.59364
# Shear Modulus (GPa) = 28.74264 39.83969 34.29116
#
# Velocity S-wave (km/s) = 3.80824 4.48352 4.15960
# Velocity P-wave (km/s) = 7.33317 8.75910 8.07766
#
# Compressibility (1/GPa) = 0.01465137
#
# Stress axis : x y z
#
# Youngs Moduli (GPa) = 62.17303 166.48053 118.40570
#
# Poissons Ratio (x) = 0.57853 0.19339
# Poissons Ratio (y) = 0.21606 0.33558
# Poissons Ratio (z) = 0.10155 0.47183
#
# Static dielectric constant tensor:
#      x y z
#    x 4.800820 0.000000 -6.246310 
#    y 0.000000 1.803840 0.000000 
#    z -6.246310 0.000000 14.110850 
# 
# From -- ./inp_files/37649.got.cif
#   From: 2010.05.17/outbox.cif.g08.bks.cpg/sg12_19_cif.got.tgz:37649.got - 2010.06.03 13:09:07.
