data_PCOD9201418
_publ_section_title
;
Structure prediction by ZEFSAII (Michael W. Deem and Ramdas Pophale) SiO2 
 PCOD9201418
Probable space group: C 2/M
;
_chemical_formula_sum "Si O2"
_cell_formula_units_Z 56
_cell_length_a 15.564251
_cell_length_b 8.747435
_cell_length_c 24.297912
_cell_angle_alpha 90.000000
_cell_angle_beta 116.565196
_cell_angle_gamma 90.000000
_cell_volume 2958.845915
_symmetry_space_group_name_H-M "C 2/M"
_symmetry_group_IT_number 12
_symmetry_cell_setting 'monoclinic'
loop_
_space_group_symop_operation_xyz
x,y,z
-x,y,-z
-x,-y,-z
x,-y,z
1/2+x,1/2+y,z
1/2-x,1/2+y,-z
1/2-x,1/2-y,-z
1/2+x,1/2-y,z
loop_
_atom_site_type_symbol
_atom_site_label
_atom_site_fract_x
_atom_site_fract_y
_atom_site_fract_z
Si Si1 0.904404 0.320050 0.509498
Si Si2 0.760242 0.182668 0.381544
Si Si3 0.848360 0.184253 0.289230
Si Si4 0.230501 0.816943 0.154449
Si Si5 0.022779 0.315708 0.069958
Si Si6 0.567682 0.682496 0.362422
Si Si7 0.676552 0.184527 0.934122
O O1 0.892489 0.500000 0.518027
O O2 0.815811 0.259612 0.448226
O O3 0.916380 0.229697 0.569551
O O4 0.000000 0.299845 0.500000
O O5 0.811006 0.229009 0.339106
O O6 0.650378 0.235776 0.351464
O O7 0.766744 0.000000 0.388896
O O8 0.782706 0.253833 0.223197
O O9 0.959806 0.229303 0.315282
O O10 0.843456 0.000000 0.284904
O O11 0.122246 0.756665 0.117504
O O12 0.289056 0.767761 0.116521
O O13 0.229553 0.000000 0.155720
O O14 0.031785 0.500000 0.074682
O O15 0.931442 0.269190 0.080623
O O16 0.000000 0.273861 0.000000
O O17 0.576274 0.500000 0.359523
O O18 0.680352 0.000000 0.938072
O O19 0.750000 0.250000 0.000000
#
# Coordination Sequence:
#
# PCOD9201418 Si02
#       7
#     8   8   8   8   8   8   8
#     4  11  22  37  62  94 124 159 203 254 307 358
#     4  11  23  41  64  90 121 160 205 254 306 359
#     4  10  24  44  63  83 118 165 205 243 298 366
#     4  11  24  39  60  90 123 154 196 251 299 349
#     4  10  20  37  62  88 118 157 195 234 291 358
#     4  11  23  41  64  91 123 160 205 253 304 363
#     4  10  21  37  59  89 119 152 191 238 293 349
#
# _framework density 18.926297000000002
#
# number of rings (size 3 to 8) (size 9 to 14) (size 15 to 20)
#    0.000    1.429    2.857    2.143    0.000    5.429 
#    0.000    4.286    0.000    0.000    0.000    0.000 
#    0.000    0.000    0.000    0.000    0.000    0.000 
#
# Total GULP energy -156545.863168 kJ/mol
# GULP energy per Si atom -5590.923685 kJ/mol
# Density = 1.888322 g / cm^3
# Si number density = 18.926297 Si / 1000 Ang^3
#
#
#
# Elastic Constant Matrix: (Units=GPa)
#
#
# Indices 1 2 3 4 5 6 
#
# 1 119.0215 12.9929 33.3490 0.0000 31.3423 0.0000
# 2 12.9929 10.5492 8.4162 0.0000 9.0873 0.0000
# 3 33.3490 8.4162 104.2678 0.0000 30.0554 0.0000
# 4 0.0000 0.0000 0.0000 27.4572 0.0000 1.3214
# 5 31.3423 9.0873 30.0554 0.0000 26.2354 0.0000
# 6 0.0000 0.0000 0.0000 1.3214 0.0000 30.3136
#
#
#
# Elastic Compliance Matrix: (Units=1/GPa)
#
#
# Indices 1 2 3 4 5 6 
#
# 1 0.012360 -0.003473 0.000353 0.000000 -0.013968 0.000000
# 2 -0.003473 0.137129 0.003789 0.000000 -0.047689 0.000000
# 3 0.000353 0.003789 0.014440 0.000000 -0.018277 0.000000
# 4 0.000000 0.000000 0.000000 0.036497 0.000000 -0.001591
# 5 -0.013968 -0.047689 -0.018277 0.000000 0.092260 0.000000
# 6 0.000000 0.000000 0.000000 -0.001591 0.000000 0.033058
#
#
# Mechanical properties :
#
#
# Convention : Reuss Voigt Hill
#
# Bulk Modulus (GPa) = 6.05079 38.15053 22.10066
# Shear Modulus (GPa) = 13.17538 28.73994 20.95766
#
# Velocity S-wave (km/s) = 2.64131 3.90105 3.33127
# Velocity P-wave (km/s) = 3.53638 6.36334 5.14772
#
# Compressibility (1/GPa) = 0.16526761
#
# Stress axis : x y z
#
# Youngs Moduli (GPa) = 80.90468 7.29240 69.25054
#
# Poissons Ratio (x) = 0.02533 -0.02447
# Poissons Ratio (y) = 0.28098 -0.26237
# Poissons Ratio (z) = -0.02859 -0.02763
#
# Static dielectric constant tensor:
#      x y z
#    x 1.666590 0.000000 -0.008790 
#    y 0.000000 1.634270 0.000000 
#    z -0.008790 0.000000 1.608610 
# 
# From -- ./inp_files/338566.got.cif
#   From: 2010.05.17/outbox.cif.g08.bks.cpg/sg12_170_cif.got.tgz:338566.got - 2010.06.03 13:09:07.
