data_PCOD9201319
_publ_section_title
;
Structure prediction by ZEFSAII (Michael W. Deem and Ramdas Pophale) SiO2 
 PCOD9201319
Probable space group: C 2/M
;
_chemical_formula_sum "Si O2"
_cell_formula_units_Z 48
_cell_length_a 11.658580
_cell_length_b 24.757327
_cell_length_c 14.894570
_cell_angle_alpha 90.000000
_cell_angle_beta 152.272691
_cell_angle_gamma 90.000000
_cell_volume 2000.215691
_symmetry_space_group_name_H-M "C 2/M"
_symmetry_group_IT_number 12
_symmetry_cell_setting 'monoclinic'
loop_
_space_group_symop_operation_xyz
x,y,z
-x,y,-z
-x,-y,-z
x,-y,z
1/2+x,1/2+y,z
1/2-x,1/2+y,-z
1/2-x,1/2-y,-z
1/2+x,1/2-y,z
loop_
_atom_site_type_symbol
_atom_site_label
_atom_site_fract_x
_atom_site_fract_y
_atom_site_fract_z
Si Si1 0.031876 0.265196 0.229762
Si Si2 0.203832 0.557784 0.296361
Si Si3 0.783289 0.150767 0.905135
Si Si4 0.065712 0.145338 0.285543
Si Si5 0.531269 0.937768 0.382960
Si Si6 0.785634 0.335936 0.792805
O O1 0.147637 0.207629 0.331978
O O2 0.220648 0.295735 0.294933
O O3 0.750000 0.250000 0.000000
O O4 0.952189 0.310112 0.247511
O O5 0.500000 0.560583 0.500000
O O6 0.123893 0.500000 0.203201
O O7 0.123842 0.560362 0.343777
O O8 0.113819 0.608280 0.178406
O O9 0.882415 0.136219 0.073442
O O10 0.711164 0.098708 0.795974
O O11 0.000000 0.179402 0.000000
O O12 0.268917 0.098359 0.425930
O O13 0.930640 0.148324 0.289128
O O14 0.503282 0.000000 0.393601
O O15 0.000000 0.310124 0.000000
#
# Coordination Sequence:
#
# PCOD9201319 Si02
#       6
#     8   8   8   8   8   8
#     4  10  22  38  64  97 138 179 221 280 335 405
#     4  10  20  37  61  94 135 167 205 273 338 395
#     4  11  25  45  69  99 137 185 232 281 341 404
#     4  11  25  41  73 103 138 181 227 280 348 415
#     4  11  24  46  71 101 139 179 234 289 339 410
#     4  12  20  38  67 100 133 175 222 274 342 408
#
# _framework density 23.997411
#
# number of rings (size 3 to 8) (size 9 to 14) (size 15 to 20)
#    0.000    1.167    6.667    0.000    4.667    2.667 
#    0.000    0.833   11.000    0.000    0.000    0.000 
#    0.000    0.000    0.000    0.000    0.000    0.000 
#
# Total GULP energy -134021.819839 kJ/mol
# GULP energy per Si atom -5584.242493 kJ/mol
# Density = 2.394279 g / cm^3
# Si number density = 23.997411 Si / 1000 Ang^3
#
#
#
# Elastic Constant Matrix: (Units=GPa)
#
#
# Indices 1 2 3 4 5 6 
#
# 1 86.7455 22.2337 23.6978 0.0011 -6.3417 -0.0004
# 2 22.2337 201.8414 52.6671 0.0004 -15.3580 -0.0001
# 3 23.6978 52.6671 95.7428 0.0011 -3.4677 -0.0017
# 4 0.0011 0.0004 0.0011 -19.3325 0.0011 9.3373
# 5 -6.3417 -15.3580 -3.4677 0.0011 23.3503 -0.0007
# 6 -0.0004 -0.0001 -0.0017 9.3373 -0.0007 46.4823
#
#
#
# Elastic Compliance Matrix: (Units=1/GPa)
#
#
# Indices 1 2 3 4 5 6 
#
# 1 0.012600 -0.000460 -0.002768 0.000001 0.002709 0.000000
# 2 -0.000460 0.006074 -0.003104 0.000000 0.003409 0.000000
# 3 -0.002768 -0.003104 0.012805 0.000001 -0.000892 0.000000
# 4 0.000001 0.000000 0.000001 -0.047152 0.000003 0.009472
# 5 0.002709 0.003409 -0.000892 0.000003 0.045672 0.000000
# 6 0.000000 0.000000 0.000000 0.009472 0.000000 0.019611
#
#
# Mechanical properties :
#
#
# Convention : Reuss Voigt Hill
#
# Bulk Modulus (GPa) = 53.14577 64.61411 58.87994
# Shear Modulus (GPa) = 72.94415 29.14875 51.04645
#
# Velocity S-wave (km/s) = 5.51930 3.48898 4.61712
# Velocity P-wave (km/s) = 7.92537 6.57378 7.28100
#
# Compressibility (1/GPa) = 0.01881617
#
# Stress axis : x y z
#
# Youngs Moduli (GPa) = 79.36560 164.62446 78.09448
#
# Poissons Ratio (x) = 0.07567 0.21614
# Poissons Ratio (y) = 0.03648 0.24242
# Poissons Ratio (z) = 0.21966 0.51103
#
# Static dielectric constant tensor:
#      x y z
#    x 1.991690 0.000000 -0.109150 
#    y 0.000000 1.948040 0.000000 
#    z -0.109150 0.000000 2.066360 
# 
# From -- ./inp_files/209459.got.cif
#   From: 2010.05.17/outbox.cif.g08.bks.cpg/sg12_105_cif.got.tgz:209459.got - 2010.06.03 13:09:07.
