data_PCOD9201407
_publ_section_title
;
Structure prediction by ZEFSAII (Michael W. Deem and Ramdas Pophale) SiO2 
 PCOD9201407
Probable space group: C 2/M
;
_chemical_formula_sum "Si O2"
_cell_formula_units_Z 56
_cell_length_a 31.880727
_cell_length_b 14.401955
_cell_length_c 9.760918
_cell_angle_alpha 90.000000
_cell_angle_beta 145.863962
_cell_angle_gamma 90.000000
_cell_volume 2514.935313
_symmetry_space_group_name_H-M "C 2/M"
_symmetry_group_IT_number 12
_symmetry_cell_setting 'monoclinic'
loop_
_space_group_symop_operation_xyz
x,y,z
-x,y,-z
-x,-y,-z
x,-y,z
1/2+x,1/2+y,z
1/2-x,1/2+y,-z
1/2-x,1/2-y,-z
1/2+x,1/2-y,z
loop_
_atom_site_type_symbol
_atom_site_label
_atom_site_fract_x
_atom_site_fract_y
_atom_site_fract_z
Si Si1 0.361374 0.110232 0.580233
Si Si2 0.930791 0.201437 0.410532
Si Si3 0.435969 0.387131 0.718172
Si Si4 0.771062 0.103701 0.297004
Si Si5 0.961135 0.610241 0.599641
Si Si6 0.232170 0.150973 0.016176
Si Si7 0.366968 0.113135 0.904151
O O1 0.433404 0.129123 0.679815
O O2 0.358445 0.148814 0.725427
O O3 0.363282 0.000000 0.605446
O O4 0.290311 0.130300 0.292258
O O5 0.950820 0.160747 0.613714
O O6 0.852848 0.152701 0.161296
O O7 0.000000 0.183233 0.500000
O O8 0.919266 0.312809 0.396292
O O9 0.432678 0.500000 0.692538
O O10 0.353041 0.352496 0.537635
O O11 0.500000 0.365990 0.000000
O O12 0.760482 0.094163 0.104922
O O13 0.700186 0.148184 0.180925
O O14 0.777781 0.000000 0.374266
O O15 0.947672 0.500000 0.532335
O O16 0.048493 0.632589 0.821463
O O17 0.250000 0.250000 0.000000
O O18 0.364326 0.000000 0.899663
#
# Coordination Sequence:
#
# PCOD9201407 Si02
#       7
#     8   8   8   8   8   8   8
#     4  10  20  37  62  88 116 158 202 248 303 361
#     4  11  25  41  61  91 125 158 208 256 302 360
#     4   9  20  41  67  90 119 161 206 253 310 364
#     4   9  19  37  60  86 115 152 194 244 303 361
#     4  10  21  38  60  88 127 167 202 248 306 364
#     4  11  22  39  56  80 121 155 192 243 295 358
#     4   9  19  35  60  92 120 149 199 251 299 366
#
# _framework density 22.266974000000001
#
# number of rings (size 3 to 8) (size 9 to 14) (size 15 to 20)
#    0.000    2.143    1.429    0.857    2.000    5.143 
#    0.000    2.143    0.000    0.000    0.000    0.000 
#    0.000    0.000    0.000    0.000    0.000    0.000 
#
# Total GULP energy -156351.030172 kJ/mol
# GULP energy per Si atom -5583.965363 kJ/mol
# Density = 2.221629 g / cm^3
# Si number density = 22.266974 Si / 1000 Ang^3
#
#
#
# Elastic Constant Matrix: (Units=GPa)
#
#
# Indices 1 2 3 4 5 6 
#
# 1 155.2678 39.3876 57.2712 0.0000 35.9099 0.0000
# 2 39.3876 35.6993 18.0200 0.0000 3.9580 0.0000
# 3 57.2712 18.0200 91.0266 0.0000 12.4143 0.0000
# 4 0.0000 0.0000 0.0000 22.0192 0.0000 0.0371
# 5 35.9099 3.9580 12.4143 0.0000 31.9223 0.0000
# 6 0.0000 0.0000 0.0000 0.0371 0.0000 17.6984
#
#
#
# Elastic Compliance Matrix: (Units=1/GPa)
#
#
# Indices 1 2 3 4 5 6 
#
# 1 0.014094 -0.011719 -0.004840 0.000000 -0.012519 0.000000
# 2 -0.011719 0.040938 -0.001940 0.000000 0.008861 0.000000
# 3 -0.004840 -0.001940 0.014404 0.000000 0.000084 0.000000
# 4 0.000000 0.000000 0.000000 0.045415 0.000000 -0.000095
# 5 -0.012519 0.008861 0.000084 0.000000 0.044278 0.000000
# 6 0.000000 0.000000 0.000000 -0.000095 0.000000 0.056503
#
#
# Mechanical properties :
#
#
# Convention : Reuss Voigt Hill
#
# Bulk Modulus (GPa) = 30.82776 56.81680 43.82228
# Shear Modulus (GPa) = 18.97954 25.48232 22.23093
#
# Velocity S-wave (km/s) = 2.92269 3.38657 3.16315
# Velocity P-wave (km/s) = 5.02635 6.39245 5.75011
#
# Compressibility (1/GPa) = 0.03243830
#
# Stress axis : x y z
#
# Youngs Moduli (GPa) = 70.95182 24.42712 69.42689
#
# Poissons Ratio (x) = 0.28626 0.33604
# Poissons Ratio (y) = 0.83148 0.13466
# Poissons Ratio (z) = 0.34342 0.04738
#
# Static dielectric constant tensor:
#      x y z
#    x 1.824880 0.000000 0.026110 
#    y 0.000000 1.418180 0.000000 
#    z 0.026110 0.000000 1.808000 
# 
# From -- ./inp_files/106044.got.cif
#   From: 2010.05.17/outbox.cif.g08.bks.cpg/sg12_54_cif.got.tgz:106044.got - 2010.06.03 13:09:07.
