data_PCOD9201669
_publ_section_title
;
Structure prediction by ZEFSAII (Michael W. Deem and Ramdas Pophale) SiO2 
 PCOD9201669
Probable space group: C 2/M
;
_chemical_formula_sum "Si O2"
_cell_formula_units_Z 64
_cell_length_a 19.937467
_cell_length_b 8.459543
_cell_length_c 31.842376
_cell_angle_alpha 90.000000
_cell_angle_beta 35.865302
_cell_angle_gamma 90.000000
_cell_volume 3146.532904
_symmetry_space_group_name_H-M "C 2/M"
_symmetry_group_IT_number 12
_symmetry_cell_setting 'monoclinic'
loop_
_space_group_symop_operation_xyz
x,y,z
-x,y,-z
-x,-y,-z
x,-y,z
1/2+x,1/2+y,z
1/2-x,1/2+y,-z
1/2-x,1/2-y,-z
1/2+x,1/2-y,z
loop_
_atom_site_type_symbol
_atom_site_label
_atom_site_fract_x
_atom_site_fract_y
_atom_site_fract_z
Si Si1 0.823006 0.690635 0.393334
Si Si2 0.014709 0.310189 0.767625
Si Si3 0.773388 0.682892 0.790819
Si Si4 0.438708 0.307186 0.488569
Si Si5 0.499690 0.688168 0.634588
Si Si6 0.853888 0.185467 0.975693
Si Si7 0.090190 0.313608 0.821979
Si Si8 0.740756 0.317053 0.112562
O O1 0.823612 0.500000 0.398419
O O2 0.905365 0.729394 0.312276
O O3 0.693854 0.740628 0.448485
O O4 0.879476 0.769064 0.405421
O O5 0.994673 0.500000 0.777443
O O6 0.076261 0.271307 0.780154
O O7 0.892199 0.226884 0.827418
O O8 0.771906 0.500000 0.803517
O O9 0.900074 0.729628 0.711613
O O10 0.687707 0.718565 0.796413
O O11 0.736939 0.781819 0.850048
O O12 0.500000 0.251770 0.500000
O O13 0.439409 0.500000 0.489336
O O14 0.500904 0.261078 0.413746
O O15 0.482418 0.500000 0.645219
O O16 0.968724 0.276754 0.905128
O O17 0.869847 0.000000 0.959567
O O18 0.750000 0.250000 0.000000
O O19 0.817531 0.215384 0.042085
O O20 0.116304 0.500000 0.811566
O O21 0.759689 0.500000 0.093149
#
# Coordination Sequence:
#
# PCOD9201669 Si02
#       8
#     8   8   8   8   8   8   8   8
#     4  10  20  37  63  92 124 166 209 255 313 375
#     4  10  21  37  63  94 127 165 209 261 317 379
#     4  12  26  44  64  91 129 169 211 262 325 385
#     4   9  20  37  61  92 125 164 210 258 311 373
#     4  11  22  38  63  92 123 164 212 262 312 374
#     4  12  24  41  65  95 130 171 215 261 316 376
#     4  11  24  42  65  96 129 165 212 265 323 381
#     4  12  24  41  67  95 126 164 214 268 318 377
#
# _framework density 20.339848
#
# number of rings (size 3 to 8) (size 9 to 14) (size 15 to 20)
#    0.000    1.125    2.500    4.500    1.750    1.000 
#    0.000    3.125    0.000    1.875    0.000    0.000 
#    0.000    0.000    0.000    0.000    0.000    0.000 
#
# Total GULP energy -179020.739707 kJ/mol
# GULP energy per Si atom -5594.398116 kJ/mol
# Density = 2.029355 g / cm^3
# Si number density = 20.339848 Si / 1000 Ang^3
#
#
#
# Elastic Constant Matrix: (Units=GPa)
#
#
# Indices 1 2 3 4 5 6 
#
# 1 102.7451 2.3407 7.9558 -0.0005 10.5419 0.0217
# 2 2.3407 22.2234 -5.3215 -0.0026 1.3705 0.0072
# 3 7.9558 -5.3215 45.5142 0.0006 11.0656 0.0003
# 4 -0.0005 -0.0026 0.0006 14.5077 -0.0010 -7.5390
# 5 10.5419 1.3705 11.0656 -0.0010 36.6059 0.0010
# 6 0.0217 0.0072 0.0003 -7.5390 0.0010 30.2769
#
#
#
# Elastic Compliance Matrix: (Units=1/GPa)
#
#
# Indices 1 2 3 4 5 6 
#
# 1 0.010116 -0.001227 -0.001311 -0.000004 -0.002471 -0.000008
# 2 -0.001227 0.046895 0.006517 0.000003 -0.003373 -0.000010
# 3 -0.001311 0.006517 0.024749 -0.000001 -0.007348 -0.000001
# 4 -0.000004 0.000003 -0.000001 0.079174 0.000003 0.019714
# 5 -0.002471 -0.003373 -0.007348 0.000003 0.030377 0.000002
# 6 -0.000008 -0.000010 -0.000001 0.019714 0.000002 0.037937
#
#
# Mechanical properties :
#
#
# Convention : Reuss Voigt Hill
#
# Bulk Modulus (GPa) = 11.14591 20.04808 15.59700
# Shear Modulus (GPa) = 19.90482 27.31195 23.60839
#
# Velocity S-wave (km/s) = 3.13167 3.66837 3.41060
# Velocity P-wave (km/s) = 4.30909 5.27452 4.81606
#
# Compressibility (1/GPa) = 0.08971899
#
# Stress axis : x y z
#
# Youngs Moduli (GPa) = 98.85511 21.32405 40.40613
#
# Poissons Ratio (x) = 0.02616 0.05297
# Poissons Ratio (y) = 0.12129 -0.26334
# Poissons Ratio (z) = 0.12959 -0.13898
#
# Static dielectric constant tensor:
#      x y z
#    x 1.715270 0.000000 0.011220 
#    y 0.000000 1.693640 0.000000 
#    z 0.011220 0.000000 1.694350 
# 
# From -- ./inp_files/378232.got.cif
#   From: 2010.05.17/outbox.cif.g08.bks.cpg/sg12_190_cif.got.tgz:378232.got - 2010.06.03 13:09:07.
