data_PCOD9201564
_publ_section_title
;
Structure prediction by ZEFSAII (Michael W. Deem and Ramdas Pophale) SiO2 
 PCOD9201564
Probable space group: C 2/M
;
_chemical_formula_sum "Si O2"
_cell_formula_units_Z 40
_cell_length_a 8.226019
_cell_length_b 19.604203
_cell_length_c 13.413401
_cell_angle_alpha 90.000000
_cell_angle_beta 119.897531
_cell_angle_gamma 90.000000
_cell_volume 1875.236047
_symmetry_space_group_name_H-M "C 2/M"
_symmetry_group_IT_number 12
_symmetry_cell_setting 'monoclinic'
loop_
_space_group_symop_operation_xyz
x,y,z
-x,y,-z
-x,-y,-z
x,-y,z
1/2+x,1/2+y,z
1/2-x,1/2+y,-z
1/2-x,1/2-y,-z
1/2+x,1/2-y,z
loop_
_atom_site_type_symbol
_atom_site_label
_atom_site_fract_x
_atom_site_fract_y
_atom_site_fract_z
Si Si1 0.401289 0.306506 0.769974
Si Si2 0.086718 0.798038 0.625039
Si Si3 0.732043 0.921597 0.856319
Si Si4 0.710639 0.076944 0.270078
Si Si5 0.284262 0.845146 0.938957
O O1 0.246754 0.247672 0.726412
O O2 0.433581 0.314082 0.661833
O O3 0.329000 0.372923 0.805413
O O4 0.609894 0.292885 0.877936
O O5 0.184355 0.869313 0.628559
O O6 0.000000 0.765601 0.500000
O O7 0.508507 0.921935 0.770763
O O8 0.798286 0.000000 0.874114
O O9 0.750370 0.888402 0.971517
O O10 0.732170 0.105485 0.163296
O O11 0.780521 0.000000 0.297199
O O12 0.500000 0.820000 0.000000
#
# Coordination Sequence:
#
# PCOD9201564 Si02
#       5
#     8   8   8   8   8
#     4  11  23  39  61  88 118 157 205 245 293 362
#     4  11  24  43  64  84 115 158 203 257 312 351
#     4  10  20  37  62  92 128 163 194 236 292 356
#     4   9  19  38  63  91 121 156 202 246 291 356
#     4   9  19  37  61  91 126 162 194 235 295 357
#
# _framework density 21.330648
#
# number of rings (size 3 to 8) (size 9 to 14) (size 15 to 20)
#    0.000    2.000    0.000    3.000    0.000    7.600 
#    0.000   34.000    0.000    3.000    0.000    0.000 
#    0.000    0.000    0.000    0.000    0.000    0.000 
#
# Total GULP energy -111673.252989 kJ/mol
# GULP energy per Si atom -5583.662649 kJ/mol
# Density = 2.128210 g / cm^3
# Si number density = 21.330648 Si / 1000 Ang^3
#
#
#
# Elastic Constant Matrix: (Units=GPa)
#
#
# Indices 1 2 3 4 5 6 
#
# 1 117.9180 65.0929 50.5796 0.0000 -12.1472 0.0000
# 2 65.0929 107.0221 49.0488 0.0000 9.0562 0.0000
# 3 50.5796 49.0488 76.3357 0.0000 4.3879 0.0000
# 4 0.0000 0.0000 0.0000 18.2434 0.0000 7.9312
# 5 -12.1472 9.0562 4.3879 0.0000 29.2683 0.0000
# 6 0.0000 0.0000 0.0000 7.9312 0.0000 33.4939
#
#
#
# Elastic Compliance Matrix: (Units=1/GPa)
#
#
# Indices 1 2 3 4 5 6 
#
# 1 0.016868 -0.008149 -0.006544 0.000000 0.010503 0.000000
# 2 -0.008149 0.017420 -0.005335 0.000000 -0.007972 0.000000
# 3 -0.006544 -0.005335 0.021108 0.000000 -0.004230 0.000000
# 4 0.000000 0.000000 0.000000 0.061105 0.000000 -0.014469
# 5 0.010503 -0.007972 -0.004230 0.000000 0.041627 0.000000
# 6 0.000000 0.000000 0.000000 -0.014469 0.000000 0.033283
#
#
# Mechanical properties :
#
#
# Convention : Reuss Voigt Hill
#
# Bulk Modulus (GPa) = 65.19629 70.07980 67.63804
# Shear Modulus (GPa) = 21.13454 25.30475 23.21964
#
# Velocity S-wave (km/s) = 3.15112 3.44802 3.30291
# Velocity P-wave (km/s) = 6.62347 6.98406 6.80616
#
# Compressibility (1/GPa) = 0.01533830
#
# Stress axis : x y z
#
# Youngs Moduli (GPa) = 59.28433 57.40532 47.37628
#
# Poissons Ratio (x) = 0.46779 0.31005
# Poissons Ratio (y) = 0.48310 0.25277
# Poissons Ratio (z) = 0.38798 0.30628
#
# Static dielectric constant tensor:
#      x y z
#    x 1.808320 0.000000 0.041460 
#    y 0.000000 1.789990 0.000000 
#    z 0.041460 0.000000 1.777240 
# 
# From -- ./inp_files/195713.got.cif
#   From: 2010.05.17/outbox.cif.g08.bks.cpg/sg12_98_cif.got.tgz:195713.got - 2010.06.03 13:09:07.
