data_PCOD9201396
_publ_section_title
;
Structure prediction by ZEFSAII (Michael W. Deem and Ramdas Pophale) SiO2 
 PCOD9201396
Probable space group: C 2/M
;
_chemical_formula_sum "Si O2"
_cell_formula_units_Z 64
_cell_length_a 20.276358
_cell_length_b 7.651920
_cell_length_c 30.240934
_cell_angle_alpha 90.000000
_cell_angle_beta 142.651055
_cell_angle_gamma 90.000000
_cell_volume 2846.468973
_symmetry_space_group_name_H-M "C 2/M"
_symmetry_group_IT_number 12
_symmetry_cell_setting 'monoclinic'
loop_
_space_group_symop_operation_xyz
x,y,z
-x,y,-z
-x,-y,-z
x,-y,z
1/2+x,1/2+y,z
1/2-x,1/2+y,-z
1/2-x,1/2-y,-z
1/2+x,1/2-y,z
loop_
_atom_site_type_symbol
_atom_site_label
_atom_site_fract_x
_atom_site_fract_y
_atom_site_fract_z
Si Si1 0.497020 0.207572 0.207736
Si Si2 0.402060 0.796318 0.477311
Si Si3 0.058691 0.787965 0.400666
Si Si4 0.668856 0.710960 0.372806
Si Si5 0.876906 0.299505 0.808429
Si Si6 0.030259 0.201228 0.967410
Si Si7 0.762681 0.797209 0.110939
Si Si8 0.179877 0.214036 0.760002
O O1 0.564549 0.242961 0.288067
O O2 0.568436 0.281549 0.205510
O O3 0.376512 0.282615 0.146507
O O4 0.484621 0.000000 0.195293
O O5 0.500000 0.719488 0.500000
O O6 0.428743 0.784292 0.543541
O O7 0.279846 0.720428 0.409878
O O8 0.393463 0.000000 0.459458
O O9 0.147341 0.729288 0.411599
O O10 0.941288 0.737517 0.318345
O O11 0.062414 0.000000 0.405613
O O12 0.676155 0.500000 0.378327
O O13 0.850109 0.500000 0.782499
O O14 0.767447 0.223139 0.770848
O O15 0.966219 0.297392 0.894847
O O16 0.160122 0.209082 0.033266
O O17 0.993816 0.000000 0.946103
O O18 0.000000 0.270447 0.000000
O O19 0.784856 0.726427 0.172317
O O20 0.732961 0.000000 0.099237
O O21 0.182657 0.000000 0.762836
#
# Coordination Sequence:
#
# PCOD9201396 Si02
#       8
#     8   8   8   8   8   8   8   8
#     4  11  24  39  60  91 123 151 195 253 299 347
#     4  10  23  40  57  86 125 159 192 239 297 354
#     4  10  20  37  62  88 113 152 203 247 285 345
#     4  10  21  40  62  83 117 160 200 238 292 362
#     4  10  22  40  60  85 118 159 199 241 299 363
#     4  11  23  38  59  91 124 152 196 255 302 347
#     4  11  21  39  66  87 117 162 200 240 296 360
#     4   9  18  35  60  87 113 148 200 246 286 350
#
# _framework density 22.483998
#
# number of rings (size 3 to 8) (size 9 to 14) (size 15 to 20)
#    0.000    1.750    2.500    1.500    1.750    3.250 
#    0.000    0.625    0.000    0.000    0.000    0.000 
#    0.000    0.000    0.000    0.000    0.000    0.000 
#
# Total GULP energy -178852.132843 kJ/mol
# GULP energy per Si atom -5589.129151 kJ/mol
# Density = 2.243282 g / cm^3
# Si number density = 22.483998 Si / 1000 Ang^3
#
#
#
# Elastic Constant Matrix: (Units=GPa)
#
#
# Indices 1 2 3 4 5 6 
#
# 1 132.8209 0.1793 5.8598 -0.0001 22.8738 -0.0001
# 2 0.1793 47.7675 -9.7399 0.0000 4.8906 -0.0006
# 3 5.8598 -9.7399 57.7896 -0.0001 23.6518 0.0001
# 4 -0.0001 0.0000 -0.0001 6.9424 0.0001 -10.8229
# 5 22.8738 4.8906 23.6518 0.0001 42.2846 0.0000
# 6 -0.0001 -0.0006 0.0001 -10.8229 0.0000 5.9591
#
#
#
# Elastic Compliance Matrix: (Units=1/GPa)
#
#
# Indices 1 2 3 4 5 6 
#
# 1 0.008409 0.000848 0.001546 0.000000 -0.005512 0.000000
# 2 0.000848 0.022964 0.006561 -0.000002 -0.006785 -0.000002
# 3 0.001546 0.006561 0.024519 -0.000001 -0.015310 -0.000001
# 4 0.000000 -0.000002 -0.000001 -0.078654 0.000001 -0.142850
# 5 -0.005512 -0.006785 -0.015310 0.000001 0.035979 0.000001
# 6 0.000000 -0.000002 -0.000001 -0.142850 0.000001 -0.091633
#
#
# Mechanical properties :
#
#
# Convention : Reuss Voigt Hill
#
# Bulk Modulus (GPa) = 13.54974 25.66405 19.60690
# Shear Modulus (GPa) = -69.70989 27.17582 -21.26703
#
# Velocity S-wave (km/s) = -5.57418 3.48037 -3.07884
# Velocity P-wave (km/s) = 5.94888 5.25260 1.97477
#
# Compressibility (1/GPa) = 0.07380216
#
# Stress axis : x y z
#
# Youngs Moduli (GPa) = 118.92366 43.54640 40.78446
#
# Poissons Ratio (x) = -0.03693 -0.06305
# Poissons Ratio (y) = -0.10084 -0.26759
# Poissons Ratio (z) = -0.18386 -0.28572
#
# Static dielectric constant tensor:
#      x y z
#    x 1.852680 0.000000 0.020930 
#    y 0.000000 1.835350 0.000000 
#    z 0.020930 0.000000 1.784590 
# 
# From -- ./inp_files/378247.got.cif
#   From: 2010.05.17/outbox.cif.g08.bks.cpg/sg12_190_cif.got.tgz:378247.got - 2010.06.03 13:09:07.
