data_PCOD9201277
_publ_section_title
;
Structure prediction by ZEFSAII (Michael W. Deem and Ramdas Pophale) SiO2 
 PCOD9201277
Probable space group: C 2/M
;
_chemical_formula_sum "Si O2"
_cell_formula_units_Z 64
_cell_length_a 31.699276
_cell_length_b 18.275266
_cell_length_c 8.393397
_cell_angle_alpha 90.000000
_cell_angle_beta 146.335233
_cell_angle_gamma 90.000000
_cell_volume 2695.388278
_symmetry_space_group_name_H-M "C 2/M"
_symmetry_group_IT_number 12
_symmetry_cell_setting 'monoclinic'
loop_
_space_group_symop_operation_xyz
x,y,z
-x,y,-z
-x,-y,-z
x,-y,z
1/2+x,1/2+y,z
1/2-x,1/2+y,-z
1/2-x,1/2-y,-z
1/2+x,1/2-y,z
loop_
_atom_site_type_symbol
_atom_site_label
_atom_site_fract_x
_atom_site_fract_y
_atom_site_fract_z
Si Si1 0.966448 0.172092 0.571067
Si Si2 0.891698 0.416586 0.077328
Si Si3 0.305878 0.782076 0.405922
Si Si4 0.341085 0.585936 0.315160
Si Si5 0.536153 0.810958 0.947079
Si Si6 0.758272 0.916667 0.608670
Si Si7 0.402327 0.587358 0.853727
Si Si8 0.806518 0.665338 0.060304
O O1 0.882099 0.138194 0.316137
O O2 0.000000 0.173478 0.500000
O O3 0.982895 0.250229 0.700812
O O4 0.018757 0.117605 0.837931
O O5 0.915085 0.500000 0.181010
O O6 0.808075 0.419569 0.732615
O O7 0.876832 0.369577 0.188856
O O8 0.944553 0.374539 0.117586
O O9 0.269907 0.857652 0.354543
O O10 0.241963 0.719170 0.207489
O O11 0.382763 0.772852 0.749958
O O12 0.325562 0.791647 0.281598
O O13 0.353339 0.500000 0.322621
O O14 0.380124 0.608463 0.605460
O O15 0.252898 0.603026 0.069837
O O16 0.500000 0.837641 0.000000
O O17 0.835445 0.892413 0.765782
O O18 0.767050 0.000000 0.699213
O O19 0.405027 0.500000 0.861675
#
# Coordination Sequence:
#
# PCOD9201277 Si02
#       8
#     8   8   8   8   8   8   8   8
#     4  12  27  41  63  94 136 174 227 272 325 388
#     4  10  22  41  67  98 126 164 216 272 330 390
#     4  10  24  39  64  97 132 174 221 265 332 391
#     4  11  23  42  67  96 138 186 220 261 325 398
#     4  11  25  46  70  91 128 174 218 272 334 400
#     4   9  19  36  59  91 127 167 216 264 318 384
#     4  10  20  37  61  90 132 180 223 260 314 389
#     4  11  22  39  65  99 137 167 219 277 328 387
#
# _framework density 23.744261000000002
#
# number of rings (size 3 to 8) (size 9 to 14) (size 15 to 20)
#    0.000    1.500    1.250    3.375    3.500    6.250 
#    0.000    0.000    0.000    2.625    0.000    0.000 
#    0.000    0.000    0.000    0.000    0.000    0.000 
#
# Total GULP energy -179258.505059 kJ/mol
# GULP energy per Si atom -5601.828283 kJ/mol
# Density = 2.369022 g / cm^3
# Si number density = 23.744261 Si / 1000 Ang^3
#
#
#
# Elastic Constant Matrix: (Units=GPa)
#
#
# Indices 1 2 3 4 5 6 
#
# 1 146.2038 64.1671 10.2047 0.0000 11.1109 0.0000
# 2 64.1671 99.5099 7.8755 0.0000 4.6638 0.0000
# 3 10.2047 7.8755 74.7836 0.0000 4.7458 0.0000
# 4 0.0000 0.0000 0.0000 9.6826 0.0000 4.3748
# 5 11.1109 4.6638 4.7458 0.0000 29.9572 0.0000
# 6 0.0000 0.0000 0.0000 4.3748 0.0000 33.6676
#
#
#
# Elastic Compliance Matrix: (Units=1/GPa)
#
#
# Indices 1 2 3 4 5 6 
#
# 1 0.009765 -0.006134 -0.000523 0.000000 -0.002584 0.000000
# 2 -0.006134 0.014048 -0.000654 0.000000 0.000192 0.000000
# 3 -0.000523 -0.000654 0.013630 0.000000 -0.001864 0.000000
# 4 0.000000 0.000000 0.000000 0.109720 0.000000 -0.014257
# 5 -0.002584 0.000192 -0.001864 0.000000 0.034605 0.000000
# 6 0.000000 0.000000 0.000000 -0.014257 0.000000 0.031555
#
#
# Mechanical properties :
#
#
# Convention : Reuss Voigt Hill
#
# Bulk Modulus (GPa) = 43.82036 53.88800 48.85418
# Shear Modulus (GPa) = 21.22681 30.54482 25.88581
#
# Velocity S-wave (km/s) = 2.99319 3.59054 3.30539
# Velocity P-wave (km/s) = 5.51731 6.31932 5.93189
#
# Compressibility (1/GPa) = 0.02282044
#
# Stress axis : x y z
#
# Youngs Moduli (GPa) = 102.40823 71.18662 73.36540
#
# Poissons Ratio (x) = 0.43667 0.03833
# Poissons Ratio (y) = 0.62819 0.04802
# Poissons Ratio (z) = 0.05351 0.04659
#
# Static dielectric constant tensor:
#      x y z
#    x 1.886300 0.000000 0.000260 
#    y 0.000000 1.873900 0.000000 
#    z 0.000260 0.000000 1.932450 
# 
# From -- ./inp_files/112877.got.cif
#   From: 2010.05.17/outbox.cif.g08.bks.cpg/sg12_57_cif.got.tgz:112877.got - 2010.06.03 13:09:07.
