data_PCOD9201749
_publ_section_title
;
Structure prediction by ZEFSAII (Michael W. Deem and Ramdas Pophale) SiO2 
 PCOD9201749
Probable space group: C 2/M
;
_chemical_formula_sum "Si O2"
_cell_formula_units_Z 56
_cell_length_a 10.885705
_cell_length_b 20.028378
_cell_length_c 15.712065
_cell_angle_alpha 90.000000
_cell_angle_beta 69.731967
_cell_angle_gamma 90.000000
_cell_volume 3213.487198
_symmetry_space_group_name_H-M "C 2/M"
_symmetry_group_IT_number 12
_symmetry_cell_setting 'monoclinic'
loop_
_space_group_symop_operation_xyz
x,y,z
-x,y,-z
-x,-y,-z
x,-y,z
1/2+x,1/2+y,z
1/2-x,1/2+y,-z
1/2-x,1/2-y,-z
1/2+x,1/2-y,z
loop_
_atom_site_type_symbol
_atom_site_label
_atom_site_fract_x
_atom_site_fract_y
_atom_site_fract_z
Si Si1 0.298819 0.784723 0.902363
Si Si2 0.406298 0.500000 0.396174
Si Si3 0.102450 0.750000 0.795099
Si Si4 0.621450 0.122993 0.680949
Si Si5 0.802399 0.122993 0.319052
Si Si6 0.697528 0.500000 0.396175
Si Si7 0.841524 0.423155 0.816952
Si Si8 0.363059 0.197648 0.500000
O O1 0.198041 0.762594 0.852158
O O2 0.449802 0.762594 0.852158
O O3 0.302725 0.865895 0.894549
O O4 0.250000 0.750000 0.000000
O O5 0.381068 0.565973 0.348094
O O6 0.551508 0.500000 0.396984
O O7 0.308558 0.500000 0.500000
O O8 0.155082 0.685820 0.731928
O O9 0.112991 0.814180 0.731928
O O10 0.489621 0.091316 0.751090
O O11 0.604806 0.152574 0.590064
O O12 0.729161 0.065973 0.651906
O O13 0.740711 0.091316 0.248910
O O14 0.694870 0.152574 0.409936
O O15 0.826006 0.500000 0.847988
O O16 0.500000 0.229104 0.500000
O O17 0.250000 0.250000 0.500000
#
# Coordination Sequence:
#
# PCOD9201749 Si02
#       8
#     8   4   8   8   8   4   8   8
#     4  10  22  42  67  89 115 147 191 248 316 374
#     4  11  24  35  51  81 122 173 206 247 300 344
#     4  10  23  37  64  90 112 154 198 247 303 354
#     4  11  21  37  57  84 120 157 207 249 288 349
#     4  11  21  37  57  84 120 157 207 249 288 349
#     4  11  24  35  51  81 122 173 206 247 300 344
#     4  10  20  37  64  90 113 146 198 249 298 358
#     4  12  24  35  56  87 127 169 211 257 298 340
#
# _framework density 17.426551
#
# number of rings (size 3 to 8) (size 9 to 14) (size 15 to 20)
#    0.000    1.286    5.714    0.429    2.000    1.143 
#    0.000    2.143    3.143    3.429    0.000    0.000 
#    0.000    0.000    0.000    0.000    0.000    0.000 
#
# Total GULP energy -156225.866267 kJ/mol
# GULP energy per Si atom -5579.495224 kJ/mol
# Density = 1.738689 g / cm^3
# Si number density = 17.426551 Si / 1000 Ang^3
#
#
#
# Elastic Constant Matrix: (Units=GPa)
#
#
# Indices 1 2 3 4 5 6 
#
# 1 98.3970 61.0562 31.4370 0.0000 -1.9607 0.0000
# 2 61.0562 169.8613 70.9246 0.0000 0.5079 0.0000
# 3 31.4370 70.9246 102.8212 0.0000 2.1887 0.0000
# 4 0.0000 0.0000 0.0000 23.8122 0.0000 -0.3406
# 5 -1.9607 0.5079 2.1887 0.0000 14.6324 0.0000
# 6 0.0000 0.0000 0.0000 -0.3406 0.0000 30.4334
#
#
#
# Elastic Compliance Matrix: (Units=1/GPa)
#
#
# Indices 1 2 3 4 5 6 
#
# 1 0.013227 -0.004289 -0.001130 0.000000 0.002090 0.000000
# 2 -0.004289 0.009664 -0.005352 0.000000 -0.000109 0.000000
# 3 -0.001130 -0.005352 0.013806 0.000000 -0.002031 0.000000
# 4 0.000000 0.000000 0.000000 0.042002 0.000000 0.000470
# 5 0.002090 -0.000109 -0.002031 0.000000 0.068929 0.000000
# 6 0.000000 0.000000 0.000000 0.000470 0.000000 0.032864
#
#
# Mechanical properties :
#
#
# Convention : Reuss Voigt Hill
#
# Bulk Modulus (GPa) = 65.98731 77.54614 71.76673
# Shear Modulus (GPa) = 24.14450 27.61972 25.88211
#
# Velocity S-wave (km/s) = 3.72627 3.98543 3.85802
# Velocity P-wave (km/s) = 7.51409 8.11009 7.81778
#
# Compressibility (1/GPa) = 0.01515443
#
# Stress axis : x y z
#
# Youngs Moduli (GPa) = 75.60392 103.47759 72.42973
#
# Poissons Ratio (x) = 0.44378 0.08187
# Poissons Ratio (y) = 0.32424 0.38768
# Poissons Ratio (z) = 0.08545 0.55386
#
# Static dielectric constant tensor:
#      x y z
#    x 1.585280 0.000000 -0.000270 
#    y 0.000000 1.583750 0.000000 
#    z -0.000270 0.000000 1.580040 
# 
# From -- ./inp_files/206617.got.cif
#   From: 2010.05.17/outbox.cif.g08.bks.cpg/sg12_104_cif.got.tgz:206617.got - 2010.06.03 13:09:07.
