data_PCOD9201276
_publ_section_title
;
Structure prediction by ZEFSAII (Michael W. Deem and Ramdas Pophale) SiO2 
 PCOD9201276
Probable space group: C 2/M
;
_chemical_formula_sum "Si O2"
_cell_formula_units_Z 46
_cell_length_a 11.137464
_cell_length_b 18.437681
_cell_length_c 12.190481
_cell_angle_alpha 90.000000
_cell_angle_beta 115.577717
_cell_angle_gamma 90.000000
_cell_volume 2257.980728
_symmetry_space_group_name_H-M "C 2/M"
_symmetry_group_IT_number 12
_symmetry_cell_setting 'monoclinic'
loop_
_space_group_symop_operation_xyz
x,y,z
-x,y,-z
-x,-y,-z
x,-y,z
1/2+x,1/2+y,z
1/2-x,1/2+y,-z
1/2-x,1/2-y,-z
1/2+x,1/2-y,z
loop_
_atom_site_type_symbol
_atom_site_label
_atom_site_fract_x
_atom_site_fract_y
_atom_site_fract_z
Si Si1 0.353718 0.344041 0.489861
Si Si2 0.576412 0.000000 0.645768
Si Si3 0.344492 0.743230 0.710511
Si Si4 0.108788 0.500000 0.216688
Si Si5 0.000000 0.000000 0.000000
Si Si6 0.529232 0.851856 0.891697
Si Si7 0.340650 0.500000 0.445402
Si Si8 0.766829 0.886573 0.835526
O O1 0.500000 0.349740 0.500000
O O2 0.359139 0.303294 0.606392
O O3 0.269149 0.300882 0.366484
O O4 0.299564 0.425215 0.485551
O O5 0.500000 0.000000 0.500000
O O6 0.461322 0.000000 0.692278
O O7 0.669814 0.069176 0.712731
O O8 0.471928 0.792435 0.785815
O O9 0.309156 0.688239 0.794145
O O10 0.266672 0.500000 0.298689
O O11 0.056752 0.426321 0.142808
O O12 0.108051 0.936583 0.083473
O O13 0.676431 0.871964 0.908291
O O14 0.500000 0.820712 0.000000
O O15 0.500000 0.500000 0.500000
#
# Coordination Sequence:
#
# PCOD9201276 Si02
#       8
#     8   4   8   4   2   8   4   8
#     4  10  22  40  61  95 136 171 214 264 336 407
#     4   9  21  36  69  93 122 169 218 280 320 393
#     4  11  23  39  67  96 134 170 215 281 332 397
#     4  10  20  40  63  91 122 161 224 267 323 391
#     4  10  24  52  66  92 138 174 220 286 312 400
#     4  11  24  44  68  93 127 177 230 280 326 389
#     4  10  20  37  61  90 131 170 206 257 321 402
#     4  10  24  44  66  99 130 175 230 271 338 394
#
# _framework density 20.372184000000001
#
# number of rings (size 3 to 8) (size 9 to 14) (size 15 to 20)
#    0.000    1.739    1.739    1.826    3.652    3.478 
#    3.130    3.478    0.000    0.000    0.000    0.000 
#    0.000    0.000    0.000    0.000    0.000    0.000 
#
# Total GULP energy -128069.836503 kJ/mol
# GULP energy per Si atom -5568.253761 kJ/mol
# Density = 2.032582 g / cm^3
# Si number density = 20.372184 Si / 1000 Ang^3
#
#
#
# Elastic Constant Matrix: (Units=GPa)
#
#
# Indices 1 2 3 4 5 6 
#
# 1 68.4749 30.5990 40.5318 0.0000 21.2363 0.0000
# 2 30.5990 145.4211 34.4037 0.0000 16.0372 0.0000
# 3 40.5318 34.4037 93.0750 0.0000 18.0797 0.0000
# 4 0.0000 0.0000 0.0000 170.5209 0.0000 164.5698
# 5 21.2363 16.0372 18.0797 0.0000 27.1889 0.0000
# 6 0.0000 0.0000 0.0000 164.5698 0.0000 188.2095
#
#
#
# Elastic Compliance Matrix: (Units=1/GPa)
#
#
# Indices 1 2 3 4 5 6 
#
# 1 0.023555 -0.001887 -0.007122 0.000000 -0.012549 0.000000
# 2 -0.001887 0.007903 -0.001700 0.000000 -0.002057 0.000000
# 3 -0.007122 -0.001700 0.015156 0.000000 -0.003513 0.000000
# 4 0.000000 0.000000 0.000000 0.037564 0.000000 -0.032845
# 5 -0.012549 -0.002057 -0.003513 0.000000 0.050130 0.000000
# 6 0.000000 0.000000 0.000000 -0.032845 0.000000 0.034033
#
#
# Mechanical properties :
#
#
# Convention : Reuss Voigt Hill
#
# Bulk Modulus (GPa) = 39.69049 57.55999 48.62524
# Shear Modulus (GPa) = 25.23241 90.61296 57.92268
#
# Velocity S-wave (km/s) = 3.52315 6.67648 5.33797
# Velocity P-wave (km/s) = 6.00626 9.36746 7.86843
#
# Compressibility (1/GPa) = 0.02519495
#
# Stress axis : x y z
#
# Youngs Moduli (GPa) = 42.45395 126.53960 65.97955
#
# Poissons Ratio (x) = 0.23884 0.46993
# Poissons Ratio (y) = 0.08013 0.11214
# Poissons Ratio (z) = 0.30237 0.21507
#
# Static dielectric constant tensor:
#      x y z
#    x 1.741130 0.000000 -0.006280 
#    y 0.000000 1.754030 0.000000 
#    z -0.006280 0.000000 1.751670 
# 
# From -- ./inp_files/131907.got.cif
#   From: 2010.05.17/outbox.cif.g08.bks.cpg/sg12_66_cif.got.tgz:131907.got - 2010.06.03 13:09:07.
