data_PCOD9201665
_publ_section_title
;
Structure prediction by ZEFSAII (Michael W. Deem and Ramdas Pophale) SiO2 
 PCOD9201665
Probable space group: C 2/M
;
_chemical_formula_sum "Si O2"
_cell_formula_units_Z 48
_cell_length_a 25.359083
_cell_length_b 8.625022
_cell_length_c 11.249556
_cell_angle_alpha 90.000000
_cell_angle_beta 72.275240
_cell_angle_gamma 90.000000
_cell_volume 2343.731215
_symmetry_space_group_name_H-M "C 2/M"
_symmetry_group_IT_number 12
_symmetry_cell_setting 'monoclinic'
loop_
_space_group_symop_operation_xyz
x,y,z
-x,y,-z
-x,-y,-z
x,-y,z
1/2+x,1/2+y,z
1/2-x,1/2+y,-z
1/2-x,1/2-y,-z
1/2+x,1/2-y,z
loop_
_atom_site_type_symbol
_atom_site_label
_atom_site_fract_x
_atom_site_fract_y
_atom_site_fract_z
Si Si1 0.188301 0.183478 0.035124
Si Si2 0.592429 0.815010 0.505297
Si Si3 0.309521 0.683170 0.426852
Si Si4 0.521005 0.812729 0.787554
Si Si5 0.590243 0.813880 0.237146
Si Si6 0.872252 0.685985 0.154916
O O1 0.156285 0.242666 0.940149
O O2 0.191728 0.000000 0.031301
O O3 0.250000 0.250000 0.000000
O O4 0.149140 0.240119 0.168835
O O5 0.647829 0.721881 0.496839
O O6 0.549576 0.779771 0.640276
O O7 0.573013 0.784033 0.385109
O O8 0.603929 0.000000 0.505717
O O9 0.306705 0.500000 0.407085
O O10 0.250000 0.750000 0.500000
O O11 0.335427 0.767720 0.294159
O O12 0.458065 0.757100 0.818891
O O13 0.564920 0.759984 0.856722
O O14 0.518080 0.000000 0.801362
O O15 0.595102 0.000000 0.219778
O O16 0.873510 0.500000 0.141653
#
# Coordination Sequence:
#
# PCOD9201665 Si02
#       6
#     8   8   8   8   8   8
#     4  12  27  45  62  84 118 160 206 252 305 360
#     4   9  18  34  58  90 125 158 199 245 295 353
#     4  11  22  36  57  85 119 159 202 246 302 358
#     4   8  16  34  63  95 123 155 196 245 297 357
#     4  10  20  37  63  92 123 161 204 246 295 354
#     4  10  21  41  65  89 118 153 200 252 301 355
#
# _framework density 20.480163999999998
#
# number of rings (size 3 to 8) (size 9 to 14) (size 15 to 20)
#    0.000    2.000    0.000    5.000    2.333    3.333 
#    0.000    7.500    0.000    5.000    0.000    0.000 
#    0.000    0.000    0.000    0.000    0.000    0.000 
#
# Total GULP energy -134048.319612 kJ/mol
# GULP energy per Si atom -5585.346650 kJ/mol
# Density = 2.043355 g / cm^3
# Si number density = 20.480164 Si / 1000 Ang^3
#
#
#
# Elastic Constant Matrix: (Units=GPa)
#
#
# Indices 1 2 3 4 5 6 
#
# 1 123.0443 32.6911 23.8865 0.0000 -2.9729 0.0000
# 2 32.6911 51.3242 11.4460 0.0000 9.5547 0.0000
# 3 23.8865 11.4460 44.7705 0.0000 15.0471 0.0000
# 4 0.0000 0.0000 0.0000 28.8272 0.0000 2.9250
# 5 -2.9729 9.5547 15.0471 0.0000 30.3512 0.0000
# 6 0.0000 0.0000 0.0000 2.9250 0.0000 21.4881
#
#
#
# Elastic Compliance Matrix: (Units=1/GPa)
#
#
# Indices 1 2 3 4 5 6 
#
# 1 0.011418 -0.007045 -0.006494 0.000000 0.006556 0.000000
# 2 -0.007045 0.025574 0.000190 0.000000 -0.008835 0.000000
# 3 -0.006494 0.000190 0.031182 0.000000 -0.016155 0.000000
# 4 0.000000 0.000000 0.000000 0.035175 0.000000 -0.004788
# 5 0.006556 -0.008835 -0.016155 0.000000 0.044380 0.000000
# 6 0.000000 0.000000 0.000000 -0.004788 0.000000 0.047189
#
#
# Mechanical properties :
#
#
# Convention : Reuss Voigt Hill
#
# Bulk Modulus (GPa) = 24.11073 39.46515 31.78794
# Shear Modulus (GPa) = 21.23671 26.20766 23.72218
#
# Velocity S-wave (km/s) = 3.22365 3.58111 3.40707
# Velocity P-wave (km/s) = 5.06499 6.03415 5.57069
#
# Compressibility (1/GPa) = 0.04147531
#
# Stress axis : x y z
#
# Youngs Moduli (GPa) = 87.58143 39.10286 32.06980
#
# Poissons Ratio (x) = 0.27547 0.20826
# Poissons Ratio (y) = 0.61700 -0.00609
# Poissons Ratio (z) = 0.56876 -0.00742
#
# Static dielectric constant tensor:
#      x y z
#    x 1.597580 0.000000 0.067860 
#    y 0.000000 1.690240 0.000000 
#    z 0.067860 0.000000 1.732280 
# 
# From -- ./inp_files/172924.got.cif
#   From: 2010.05.17/outbox.cif.g08.bks.cpg/sg12_87_cif.got.tgz:172924.got - 2010.06.03 13:09:07.
