data_PCOD9201219
_publ_section_title
;
Structure prediction by ZEFSAII (Michael W. Deem and Ramdas Pophale) SiO2 
 PCOD9201219
Probable space group: C 2/M
;
_chemical_formula_sum "Si O2"
_cell_formula_units_Z 40
_cell_length_a 15.988536
_cell_length_b 8.884765
_cell_length_c 31.641157
_cell_angle_alpha 90.000000
_cell_angle_beta 27.565528
_cell_angle_gamma 90.000000
_cell_volume 2080.009935
_symmetry_space_group_name_H-M "C 2/M"
_symmetry_group_IT_number 12
_symmetry_cell_setting 'monoclinic'
loop_
_space_group_symop_operation_xyz
x,y,z
-x,y,-z
-x,-y,-z
x,-y,z
1/2+x,1/2+y,z
1/2-x,1/2+y,-z
1/2-x,1/2-y,-z
1/2+x,1/2-y,z
loop_
_atom_site_type_symbol
_atom_site_label
_atom_site_fract_x
_atom_site_fract_y
_atom_site_fract_z
Si Si1 0.450980 0.820161 0.788900
Si Si2 0.795803 0.819959 0.778686
Si Si3 0.131515 0.178010 0.401457
Si Si4 0.076840 0.681435 0.100262
Si Si5 0.554215 0.178346 0.594949
O O1 0.318804 0.736079 0.816158
O O2 0.659318 0.790257 0.682571
O O3 0.430907 0.775317 0.846874
O O4 0.421899 0.000000 0.798746
O O5 0.606858 0.773823 0.841651
O O6 0.956129 0.746906 0.679611
O O7 0.809257 0.000000 0.770504
O O8 0.000000 0.202883 0.500000
O O9 0.065944 0.275682 0.391541
O O10 0.119947 0.000000 0.394946
O O11 0.086181 0.500000 0.094666
O O12 0.250000 0.750000 0.000000
O O13 0.750000 0.250000 0.500000
O O14 0.570148 0.000000 0.592190
#
# Coordination Sequence:
#
# PCOD9201219 Si02
#       5
#     8   8   8   8   8
#     4  10  21  40  63  92 129 167 208 258 319 376
#     4  11  23  42  65  93 128 165 209 263 318 374
#     4  10  20  37  61  88 125 167 207 255 314 372
#     4  10  23  43  66  91 127 168 210 264 320 375
#     4  12  24  38  60  90 126 168 213 258 310 373
#
# _framework density 19.230677
#
# number of rings (size 3 to 8) (size 9 to 14) (size 15 to 20)
#    0.000    1.400    2.000    3.600    0.000    6.000 
#    0.000    4.000    0.000    0.000    0.000    0.000 
#    0.000    0.000    0.000    0.000    0.000    0.000 
#
# Total GULP energy -111832.236350 kJ/mol
# GULP energy per Si atom -5591.611817 kJ/mol
# Density = 1.918691 g / cm^3
# Si number density = 19.230677 Si / 1000 Ang^3
#
#
#
# Elastic Constant Matrix: (Units=GPa)
#
#
# Indices 1 2 3 4 5 6 
#
# 1 161.9256 61.9038 69.0220 0.0002 -0.1272 0.0002
# 2 61.9038 58.7226 40.0028 0.0003 -0.8093 -0.0002
# 3 69.0220 40.0028 133.6397 0.0006 4.1356 0.0011
# 4 0.0002 0.0003 0.0006 32.8884 0.0003 1.2853
# 5 -0.1272 -0.8093 4.1356 0.0003 21.2882 0.0000
# 6 0.0002 -0.0002 0.0011 1.2853 0.0000 37.6089
#
#
#
# Elastic Compliance Matrix: (Units=1/GPa)
#
#
# Indices 1 2 3 4 5 6 
#
# 1 0.011126 -0.009805 -0.002819 0.000000 0.000241 0.000000
# 2 -0.009805 0.030123 -0.004011 0.000000 0.001866 0.000000
# 3 -0.002819 -0.004011 0.010206 0.000000 -0.002152 0.000000
# 4 0.000000 0.000000 0.000000 0.030447 0.000000 -0.001041
# 5 0.000241 0.001866 -0.002152 0.000000 0.047465 0.000000
# 6 0.000000 0.000000 0.000000 -0.001041 0.000000 0.026625
#
#
# Mechanical properties :
#
#
# Convention : Reuss Voigt Hill
#
# Bulk Modulus (GPa) = 54.98700 77.34948 66.16824
# Shear Modulus (GPa) = 25.59879 30.58105 28.08992
#
# Velocity S-wave (km/s) = 3.65244 3.99209 3.82603
# Velocity P-wave (km/s) = 6.81488 7.84591 7.34850
#
# Compressibility (1/GPa) = 0.01818612
#
# Stress axis : x y z
#
# Youngs Moduli (GPa) = 89.88092 33.19698 97.98454
#
# Poissons Ratio (x) = 0.32550 0.27619
# Poissons Ratio (y) = 0.88129 0.39297
# Poissons Ratio (z) = 0.25335 0.13314
#
# Static dielectric constant tensor:
#      x y z
#    x 1.675900 0.000000 0.001270 
#    y 0.000000 1.644350 0.000000 
#    z 0.001270 0.000000 1.649480 
# 
# From -- ./inp_files/211181.got.cif
#   From: 2010.05.17/outbox.cif.g08.bks.cpg/sg12_106_cif.got.tgz:211181.got - 2010.06.03 13:09:07.
