data_PCOD9201283
_publ_section_title
;
Structure prediction by ZEFSAII (Michael W. Deem and Ramdas Pophale) SiO2 
 PCOD9201283
Probable space group: C 2/M
;
_chemical_formula_sum "Si O2"
_cell_formula_units_Z 56
_cell_length_a 34.440318
_cell_length_b 15.301678
_cell_length_c 14.189930
_cell_angle_alpha 90.000000
_cell_angle_beta 23.996057
_cell_angle_gamma 90.000000
_cell_volume 3041.113506
_symmetry_space_group_name_H-M "C 2/M"
_symmetry_group_IT_number 12
_symmetry_cell_setting 'monoclinic'
loop_
_space_group_symop_operation_xyz
x,y,z
-x,y,-z
-x,-y,-z
x,-y,z
1/2+x,1/2+y,z
1/2-x,1/2+y,-z
1/2-x,1/2-y,-z
1/2+x,1/2-y,z
loop_
_atom_site_type_symbol
_atom_site_label
_atom_site_fract_x
_atom_site_fract_y
_atom_site_fract_z
Si Si1 0.769793 0.809026 0.364991
Si Si2 0.349546 0.250024 0.997502
Si Si3 0.474449 0.602015 0.946940
Si Si4 0.452297 0.251977 0.343096
Si Si5 0.109820 0.400128 0.235925
Si Si6 0.070946 0.398229 0.754017
Si Si7 0.717397 0.185785 0.154516
O O1 0.750000 0.750000 0.500000
O O2 0.791269 0.750935 0.224418
O O3 0.866329 0.864509 0.168397
O O4 0.676931 0.867432 0.549122
O O5 0.306238 0.326885 0.027690
O O6 0.458462 0.262482 0.785440
O O7 0.347207 0.162728 0.939521
O O8 0.482744 0.500000 0.904158
O O9 0.500000 0.613003 0.000000
O O10 0.544157 0.663830 0.731939
O O11 0.463529 0.166707 0.251760
O O12 0.359182 0.235106 0.610685
O O13 0.110150 0.500000 0.203577
O O14 0.166647 0.390515 0.208712
O O15 0.000000 0.373625 0.500000
O O16 0.071643 0.500000 0.723794
O O17 0.000000 0.388597 0.000000
O O18 0.750000 0.250000 0.000000
#
# Coordination Sequence:
#
# PCOD9201283 Si02
#       7
#     8   8   8   8   8   8   8
#     4  11  21  38  64  89 123 162 208 244 306 372
#     4  10  21  37  59  88 116 162 198 242 302 372
#     4  10  22  39  60  86 120 167 214 252 296 361
#     4  11  20  38  61  86 122 160 201 250 311 367
#     4  10  20  37  61  91 123 153 196 255 311 365
#     4  11  23  38  58  90 126 158 201 257 310 364
#     4  10  21  37  59  85 117 154 203 242 304 359
#
# _framework density 18.414307000000001
#
# number of rings (size 3 to 8) (size 9 to 14) (size 15 to 20)
#    0.000    1.571    2.857    3.429    0.000    1.143 
#    0.000    5.000    0.000    0.000    0.000    8.000 
#    0.000    0.000    0.000    0.000    0.000    0.000 
#
# Total GULP energy -156163.402474 kJ/mol
# GULP energy per Si atom -5577.264374 kJ/mol
# Density = 1.837240 g / cm^3
# Si number density = 18.414307 Si / 1000 Ang^3
#
#
#
# Elastic Constant Matrix: (Units=GPa)
#
#
# Indices 1 2 3 4 5 6 
#
# 1 118.5071 42.5529 30.2722 0.0000 -1.0185 0.0000
# 2 42.5529 103.0845 49.7663 0.0000 18.6681 0.0000
# 3 30.2722 49.7663 88.5065 0.0000 10.6705 0.0000
# 4 0.0000 0.0000 0.0000 -57.2085 0.0000 77.6134
# 5 -1.0185 18.6681 10.6705 0.0000 38.4110 0.0000
# 6 0.0000 0.0000 0.0000 77.6134 0.0000 -53.2494
#
#
#
# Elastic Compliance Matrix: (Units=1/GPa)
#
#
# Indices 1 2 3 4 5 6 
#
# 1 0.010291 -0.003944 -0.001621 0.000000 0.002640 0.000000
# 2 -0.003944 0.015640 -0.006742 0.000000 -0.005833 0.000000
# 3 -0.001621 -0.006742 0.015783 0.000000 -0.001151 0.000000
# 4 0.000000 0.000000 0.000000 0.017884 0.000000 0.026067
# 5 0.002640 -0.005833 -0.001151 0.000000 0.029259 0.000000
# 6 0.000000 0.000000 0.000000 0.026067 0.000000 0.019214
#
#
# Mechanical properties :
#
#
# Convention : Reuss Voigt Hill
#
# Bulk Modulus (GPa) = 58.47701 61.69790 60.08745
# Shear Modulus (GPa) = 36.13165 -1.90894 17.11135
#
# Velocity S-wave (km/s) = 4.43442 -1.01927 3.05165
# Velocity P-wave (km/s) = 7.61866 5.67388 6.71703
#
# Compressibility (1/GPa) = 0.01710074
#
# Stress axis : x y z
#
# Youngs Moduli (GPa) = 97.17139 63.93889 63.36084
#
# Poissons Ratio (x) = 0.25216 0.10268
# Poissons Ratio (y) = 0.38323 0.42718
# Poissons Ratio (z) = 0.15748 0.43108
#
# Static dielectric constant tensor:
#      x y z
#    x 1.670460 0.000000 -0.026560 
#    y 0.000000 1.618200 0.000000 
#    z -0.026560 0.000000 1.637740 
# 
# From -- ./inp_files/189601.got.cif
#   From: 2010.05.17/outbox.cif.g08.bks.cpg/sg12_95_cif.got.tgz:189601.got - 2010.06.03 13:09:07.
