data_PCOD9201810
_publ_section_title
;
Structure prediction by ZEFSAII (Michael W. Deem and Ramdas Pophale) SiO2 
 PCOD9201810
Probable space group: C 2/M
;
_chemical_formula_sum "Si O2"
_cell_formula_units_Z 56
_cell_length_a 23.185386
_cell_length_b 14.142835
_cell_length_c 9.958901
_cell_angle_alpha 90.000000
_cell_angle_beta 63.851176
_cell_angle_gamma 90.000000
_cell_volume 2931.368370
_symmetry_space_group_name_H-M "C 2/M"
_symmetry_group_IT_number 12
_symmetry_cell_setting 'monoclinic'
loop_
_space_group_symop_operation_xyz
x,y,z
-x,y,-z
-x,-y,-z
x,-y,z
1/2+x,1/2+y,z
1/2-x,1/2+y,-z
1/2-x,1/2-y,-z
1/2+x,1/2-y,z
loop_
_atom_site_type_symbol
_atom_site_label
_atom_site_fract_x
_atom_site_fract_y
_atom_site_fract_z
Si Si1 0.939636 0.609730 0.961501
Si Si2 0.839374 0.110250 0.965151
Si Si3 0.509929 0.387845 0.143806
Si Si4 0.800976 0.887443 0.695776
Si Si5 0.175615 0.264369 0.806377
Si Si6 0.525886 0.890198 0.623732
Si Si7 0.392726 0.284127 0.396582
O O1 0.918492 0.500000 0.981582
O O2 0.968903 0.634345 0.786457
O O3 0.882857 0.675668 0.069796
O O4 0.000000 0.617218 0.000000
O O5 0.916371 0.126278 0.890862
O O6 0.814413 0.126035 0.840500
O O7 0.828475 0.000000 0.011679
O O8 0.809093 0.180423 0.104919
O O9 0.496781 0.500000 0.160688
O O10 0.458568 0.336411 0.288752
O O11 0.500000 0.355348 0.000000
O O12 0.735478 0.833703 0.727013
O O13 0.856857 0.839765 0.550608
O O14 0.797668 0.000000 0.673643
O O15 0.151442 0.221980 0.690422
O O16 0.500000 0.881269 0.500000
O O17 0.585538 0.821225 0.585537
O O18 0.542742 0.000000 0.632979
#
# Coordination Sequence:
#
# PCOD9201810 Si02
#       7
#     8   8   8   8   8   8   8
#     4  10  20  37  64  95 123 158 205 262 313 365
#     4  10  23  42  65  94 128 161 208 259 307 368
#     4  10  20  37  64  97 127 159 200 256 312 368
#     4  11  27  46  61  89 129 170 211 257 305 367
#     4  12  23  41  67  92 123 167 213 254 309 371
#     4  10  23  40  59  92 132 162 201 259 319 372
#     4  12  24  38  66  94 125 166 209 254 315 375
#
# _framework density 19.103705999999999
#
# number of rings (size 3 to 8) (size 9 to 14) (size 15 to 20)
#    0.000    1.286    2.857    2.571    4.000    1.143 
#    0.000    2.857    0.000    0.000    0.000    0.000 
#    0.000    0.000    0.000    0.000    0.000    0.000 
#
# Total GULP energy -156565.800713 kJ/mol
# GULP energy per Si atom -5591.635740 kJ/mol
# Density = 1.906023 g / cm^3
# Si number density = 19.103706 Si / 1000 Ang^3
#
#
#
# Elastic Constant Matrix: (Units=GPa)
#
#
# Indices 1 2 3 4 5 6 
#
# 1 8.6133 5.8820 -9.1147 0.0000 -3.2494 0.0000
# 2 5.8820 91.6073 30.2135 0.0000 -5.8846 0.0000
# 3 -9.1147 30.2135 60.9518 0.0000 1.4365 0.0000
# 4 0.0000 0.0000 0.0000 11.0619 0.0000 -3.0442
# 5 -3.2494 -5.8846 1.4365 0.0000 23.9697 0.0000
# 6 0.0000 0.0000 0.0000 -3.0442 0.0000 25.1088
#
#
#
# Elastic Compliance Matrix: (Units=1/GPa)
#
#
# Indices 1 2 3 4 5 6 
#
# 1 0.177211 -0.022654 0.037347 0.000000 0.016224 0.000000
# 2 -0.022654 0.016263 -0.011487 0.000000 0.001610 0.000000
# 3 0.037347 -0.011487 0.027671 0.000000 0.000584 0.000000
# 4 0.000000 0.000000 0.000000 0.093521 0.000000 0.011339
# 5 0.016224 0.001610 0.000584 0.000000 0.044279 0.000000
# 6 0.000000 0.000000 0.000000 0.011339 0.000000 0.041201
#
#
# Mechanical properties :
#
#
# Convention : Reuss Voigt Hill
#
# Bulk Modulus (GPa) = 4.39450 23.90379 14.14914
# Shear Modulus (GPa) = 10.64766 20.97418 15.81092
#
# Velocity S-wave (km/s) = 2.36341 3.31707 2.87999
# Velocity P-wave (km/s) = 3.12297 5.21636 4.29903
#
# Compressibility (1/GPa) = 0.22755704
#
# Stress axis : x y z
#
# Youngs Moduli (GPa) = 5.64300 61.49026 36.13830
#
# Poissons Ratio (x) = 1.39300 -1.34966
# Poissons Ratio (y) = 0.12784 0.41512
# Poissons Ratio (z) = -0.21075 0.70634
#
# Static dielectric constant tensor:
#      x y z
#    x 1.635930 0.000000 0.012850 
#    y 0.000000 1.681540 0.000000 
#    z 0.012850 0.000000 1.644100 
# 
# From -- ./inp_files/96738.got.cif
#   From: 2010.05.17/outbox.cif.g08.bks.cpg/sg12_49_cif.got.tgz:96738.got - 2010.06.03 13:09:07.
