data_PCOD9201976
_publ_section_title
;
Structure prediction by ZEFSAII (Michael W. Deem and Ramdas Pophale) SiO2 
 PCOD9201976
Probable space group: C 2/M
;
_chemical_formula_sum "Si O2"
_cell_formula_units_Z 52
_cell_length_a 10.953050
_cell_length_b 22.573213
_cell_length_c 15.901534
_cell_angle_alpha 90.000000
_cell_angle_beta 35.160186
_cell_angle_gamma 90.000000
_cell_volume 2264.058630
_symmetry_space_group_name_H-M "C 2/M"
_symmetry_group_IT_number 12
_symmetry_cell_setting 'monoclinic'
loop_
_space_group_symop_operation_xyz
x,y,z
-x,y,-z
-x,-y,-z
x,-y,z
1/2+x,1/2+y,z
1/2-x,1/2+y,-z
1/2-x,1/2-y,-z
1/2+x,1/2-y,z
loop_
_atom_site_type_symbol
_atom_site_label
_atom_site_fract_x
_atom_site_fract_y
_atom_site_fract_z
Si Si1 0.250000 0.250000 0.000000
Si Si2 0.123436 0.632304 0.057569
Si Si3 0.273802 0.634810 0.431623
Si Si4 0.651254 0.368757 0.345252
Si Si5 0.144946 0.350772 0.240032
Si Si6 0.438823 0.568692 0.184347
Si Si7 0.232330 0.763882 0.695858
O O1 0.352028 0.194247 0.003059
O O2 0.485107 0.273219 0.847949
O O3 0.163504 0.658254 0.130566
O O4 0.885020 0.606498 0.190143
O O5 0.317848 0.587951 0.935631
O O6 0.495656 0.639155 0.354552
O O7 0.302590 0.585372 0.343701
O O8 0.217708 0.694471 0.411700
O O9 0.082339 0.623182 0.604128
O O10 0.500000 0.399900 0.500000
O O11 0.710499 0.304037 0.349188
O O12 0.328576 0.392937 0.172869
O O13 0.165542 0.289059 0.276675
O O14 0.428814 0.500000 0.169846
#
# Coordination Sequence:
#
# PCOD9201976 Si02
#       7
#     4   8   8   8   8   8   8
#     4  10  20  38  54  94 138 170 208 248 316 380
#     4  11  23  41  63  98 131 172 211 262 320 381
#     4  11  23  43  63  95 131 168 218 265 316 384
#     4  11  23  39  63  92 135 176 213 254 317 384
#     4  11  22  39  68  92 132 163 212 271 319 373
#     4  11  25  46  69  96 123 162 219 273 333 382
#     4  10  22  35  59  94 132 175 211 254 313 378
#
# _framework density 22.967603
#
# number of rings (size 3 to 8) (size 9 to 14) (size 15 to 20)
#    0.000    1.231    4.615    3.231    4.308    4.308 
#    2.769    1.538    0.000    0.923    0.000    0.000 
#    0.000    0.000    0.000    0.000    0.000    0.000 
#
# Total GULP energy -144854.003966 kJ/mol
# GULP energy per Si atom -5571.307845 kJ/mol
# Density = 2.291533 g / cm^3
# Si number density = 22.967603 Si / 1000 Ang^3
#
#
#
# Elastic Constant Matrix: (Units=GPa)
#
#
# Indices 1 2 3 4 5 6 
#
# 1 88.7645 -7.0738 12.9149 0.0032 -13.4397 -0.0005
# 2 -7.0738 51.6394 -10.5210 -0.0098 -9.4567 0.0045
# 3 12.9149 -10.5210 127.2977 -0.0055 -41.5022 0.0078
# 4 0.0032 -0.0098 -0.0055 5.4879 0.0003 -3.9874
# 5 -13.4397 -9.4567 -41.5022 0.0003 37.6991 0.0011
# 6 -0.0005 0.0045 0.0078 -3.9874 0.0011 1.7254
#
#
#
# Elastic Compliance Matrix: (Units=1/GPa)
#
#
# Indices 1 2 3 4 5 6 
#
# 1 0.012314 0.003065 0.001070 0.000016 0.006337 0.000023
# 2 0.003065 0.023543 0.006109 0.000037 0.013724 -0.000012
# 3 0.001070 0.006109 0.013845 0.000061 0.017156 0.000052
# 4 0.000016 0.000037 0.000061 -0.268328 0.000102 -0.620100
# 5 0.006337 0.013724 0.017156 0.000102 0.051114 0.000093
# 6 0.000023 -0.000012 0.000052 -0.620100 0.000093 -0.853458
#
#
# Mechanical properties :
#
#
# Convention : Reuss Voigt Hill
#
# Bulk Modulus (GPa) = 14.24694 28.70465 21.47579
# Shear Modulus (GPa) = -4.91129 27.14125 11.11498
#
# Velocity S-wave (km/s) = -1.46390 3.44134 2.20225
# Velocity P-wave (km/s) = 1.83281 5.32123 3.97961
#
# Compressibility (1/GPa) = 0.07019051
#
# Stress axis : x y z
#
# Youngs Moduli (GPa) = 81.20979 42.47567 72.22734
#
# Poissons Ratio (x) = -0.13020 -0.07728
# Poissons Ratio (y) = -0.24893 -0.44125
# Poissons Ratio (z) = -0.08689 -0.25949
#
# Static dielectric constant tensor:
#      x y z
#    x 1.838210 0.000020 -0.014210 
#    y 0.000020 0.560530 0.000050 
#    z -0.014210 0.000050 1.972550 
# 
# From -- ./inp_files/265931.got.cif
#   From: 2010.05.17/outbox.cif.g08.bks.cpg/sg12_133_cif.got.tgz:265931.got - 2010.06.03 13:09:07.
