data_PCOD9201925
_publ_section_title
;
Structure prediction by ZEFSAII (Michael W. Deem and Ramdas Pophale) SiO2 
 PCOD9201925
Probable space group: C 2/M
;
_chemical_formula_sum "Si O2"
_cell_formula_units_Z 48
_cell_length_a 18.462921
_cell_length_b 18.954027
_cell_length_c 15.543706
_cell_angle_alpha 90.000000
_cell_angle_beta 154.397543
_cell_angle_gamma 90.000000
_cell_volume 2350.527252
_symmetry_space_group_name_H-M "C 2/M"
_symmetry_group_IT_number 12
_symmetry_cell_setting 'monoclinic'
loop_
_space_group_symop_operation_xyz
x,y,z
-x,y,-z
-x,-y,-z
x,-y,z
1/2+x,1/2+y,z
1/2-x,1/2+y,-z
1/2-x,1/2-y,-z
1/2+x,1/2-y,z
loop_
_atom_site_type_symbol
_atom_site_label
_atom_site_fract_x
_atom_site_fract_y
_atom_site_fract_z
Si Si1 0.202633 0.298916 0.869454
Si Si2 0.316578 0.794479 0.489016
Si Si3 0.252677 0.083372 0.530058
Si Si4 0.381022 0.580863 0.144422
Si Si5 0.394229 0.082406 0.999512
Si Si6 0.312200 0.779555 0.815675
O O1 0.233027 0.258451 0.813474
O O2 0.010108 0.313646 0.682615
O O3 0.250000 0.250000 0.000000
O O4 0.320752 0.366691 0.005724
O O5 0.250000 0.750000 0.500000
O O6 0.240308 0.871060 0.429577
O O7 0.278899 0.745454 0.367364
O O8 0.071070 0.095741 0.379490
O O9 0.270007 0.000000 0.532575
O O10 0.421852 0.102870 0.764730
O O11 0.378824 0.500000 0.112805
O O12 0.243951 0.587836 0.073028
O O13 0.332559 0.137826 0.861870
O O14 0.399923 0.000000 0.978437
O O15 0.500000 0.753195 0.000000
#
# Coordination Sequence:
#
# PCOD9201925 Si02
#       6
#     8   8   8   8   8   8
#     4  12  22  41  66  94 132 176 222 277 332 394
#     4  12  25  42  65  94 133 179 227 278 332 397
#     4  10  20  39  69 100 131 176 225 272 335 400
#     4  10  20  37  67 101 134 174 218 271 335 404
#     4  10  21  41  68  99 136 176 221 273 337 402
#     4  12  25  41  62  97 134 174 224 275 331 396
#
# _framework density 20.420950999999999
#
# number of rings (size 3 to 8) (size 9 to 14) (size 15 to 20)
#    0.000    1.000    3.333    4.500    0.000    0.333 
#    3.000    1.667    0.000    8.000    0.000    0.000 
#    0.000    0.000    0.000    0.000    0.000    0.000 
#
# Total GULP energy -133909.747839 kJ/mol
# GULP energy per Si atom -5579.572827 kJ/mol
# Density = 2.037447 g / cm^3
# Si number density = 20.420951 Si / 1000 Ang^3
#
#
#
# Elastic Constant Matrix: (Units=GPa)
#
#
# Indices 1 2 3 4 5 6 
#
# 1 130.9983 49.3179 38.5778 0.0000 -2.3430 0.0000
# 2 49.3179 112.2866 55.5196 0.0000 -17.8031 0.0000
# 3 38.5778 55.5196 116.0959 0.0000 16.7650 0.0000
# 4 0.0000 0.0000 0.0000 32.5316 0.0000 3.0782
# 5 -2.3430 -17.8031 16.7650 0.0000 45.4535 0.0000
# 6 0.0000 0.0000 0.0000 3.0782 0.0000 18.3327
#
#
#
# Elastic Compliance Matrix: (Units=1/GPa)
#
#
# Indices 1 2 3 4 5 6 
#
# 1 0.009345 -0.003475 -0.001390 0.000000 -0.000367 0.000000
# 2 -0.003475 0.015528 -0.007525 0.000000 0.008678 0.000000
# 3 -0.001390 -0.007525 0.013848 0.000000 -0.008126 0.000000
# 4 0.000000 0.000000 0.000000 0.031236 0.000000 -0.005245
# 5 -0.000367 0.008678 -0.008126 0.000000 0.028378 0.000000
# 6 0.000000 0.000000 0.000000 -0.005245 0.000000 0.055428
#
#
# Mechanical properties :
#
#
# Convention : Reuss Voigt Hill
#
# Bulk Modulus (GPa) = 71.73186 71.80127 71.76657
# Shear Modulus (GPa) = 27.29415 33.66128 30.47771
#
# Velocity S-wave (km/s) = 3.65989 4.06442 3.86744
# Velocity P-wave (km/s) = 7.28441 7.56723 7.42716
#
# Compressibility (1/GPa) = 0.01394081
#
# Stress axis : x y z
#
# Youngs Moduli (GPa) = 107.01054 64.39780 72.21520
#
# Poissons Ratio (x) = 0.22378 0.10041
# Poissons Ratio (y) = 0.37186 0.54339
# Poissons Ratio (z) = 0.14880 0.48456
#
# Static dielectric constant tensor:
#      x y z
#    x 1.872720 0.000000 -0.117700 
#    y 0.000000 1.859240 0.000000 
#    z -0.117700 0.000000 1.816630 
# 
# From -- ./inp_files/285458.got.cif
#   From: 2010.05.17/outbox.cif.g08.bks.cpg/sg12_143_cif.got.tgz:285458.got - 2010.06.03 13:09:07.
