data_PCOD9201205
_publ_section_title
;
Structure prediction by ZEFSAII (Michael W. Deem and Ramdas Pophale) SiO2 
 PCOD9201205
Probable space group: C 2/M
;
_chemical_formula_sum "Si O2"
_cell_formula_units_Z 48
_cell_length_a 19.857445
_cell_length_b 8.750168
_cell_length_c 16.979403
_cell_angle_alpha 90.000000
_cell_angle_beta 56.805218
_cell_angle_gamma 90.000000
_cell_volume 2468.830110
_symmetry_space_group_name_H-M "C 2/M"
_symmetry_group_IT_number 12
_symmetry_cell_setting 'monoclinic'
loop_
_space_group_symop_operation_xyz
x,y,z
-x,y,-z
-x,-y,-z
x,-y,z
1/2+x,1/2+y,z
1/2-x,1/2+y,-z
1/2-x,1/2-y,-z
1/2+x,1/2-y,z
loop_
_atom_site_type_symbol
_atom_site_label
_atom_site_fract_x
_atom_site_fract_y
_atom_site_fract_z
Si Si1 0.938501 0.176516 0.942708
Si Si2 0.268310 0.818918 0.743353
Si Si3 0.934826 0.816206 0.608305
Si Si4 0.900301 0.680019 0.199507
Si Si5 0.499025 0.678188 0.263725
Si Si6 0.773097 0.680201 0.068974
O O1 0.030040 0.233798 0.895744
O O2 0.934469 0.182931 0.848833
O O3 0.928011 0.000000 0.973247
O O4 0.867846 0.281608 0.019868
O O5 0.349361 0.762796 0.649799
O O6 0.187729 0.742987 0.760735
O O7 0.272740 0.761776 0.830671
O O8 0.260690 0.000000 0.745350
O O9 0.000000 0.779486 0.500000
O O10 0.968874 0.772202 0.672629
O O11 0.923025 0.000000 0.616876
O O12 0.904537 0.500000 0.182915
O O13 0.928249 0.721534 0.270687
O O14 0.473577 0.500000 0.285220
O O15 0.759174 0.500000 0.079884
O O16 0.750000 0.750000 0.000000
#
# Coordination Sequence:
#
# PCOD9201205 Si02
#       6
#     8   8   8   8   8   8
#     4   9  18  35  58  84 119 159 198 237 291 353
#     4  12  25  41  61  87 123 159 201 253 302 356
#     4  10  21  40  66  92 119 154 197 248 308 368
#     4  10  20  37  61  88 120 159 204 248 299 355
#     4   8  17  35  59  86 120 156 193 238 295 357
#     4  12  24  38  58  88 123 161 204 246 294 351
#
# _framework density 19.442408
#
# number of rings (size 3 to 8) (size 9 to 14) (size 15 to 20)
#    1.000    0.833    0.000    5.500    0.000    3.000 
#    0.000    4.167    0.000    0.000    0.000    0.000 
#    0.000    0.000    0.000    0.000    0.000    0.000 
#
# Total GULP energy -133995.010489 kJ/mol
# GULP energy per Si atom -5583.125437 kJ/mol
# Density = 1.939816 g / cm^3
# Si number density = 19.442408 Si / 1000 Ang^3
#
#
#
# Elastic Constant Matrix: (Units=GPa)
#
#
# Indices 1 2 3 4 5 6 
#
# 1 85.8526 22.4594 26.4074 0.0001 -15.4773 -0.0001
# 2 22.4594 92.2816 22.7462 0.0002 -13.1769 -0.0004
# 3 26.4074 22.7462 72.5092 0.0000 -16.3780 0.0000
# 4 0.0001 0.0002 0.0000 23.6146 0.0000 -6.7779
# 5 -15.4773 -13.1769 -16.3780 0.0000 25.6109 0.0000
# 6 -0.0001 -0.0004 0.0000 -6.7779 0.0000 31.0884
#
#
#
# Elastic Compliance Matrix: (Units=1/GPa)
#
#
# Indices 1 2 3 4 5 6 
#
# 1 0.014141 -0.001838 -0.003339 0.000000 0.005465 0.000000
# 2 -0.001838 0.012405 -0.002374 0.000000 0.003753 0.000000
# 3 -0.003339 -0.002374 0.017556 0.000000 0.007988 0.000000
# 4 0.000000 0.000000 0.000000 0.045173 0.000000 0.009849
# 5 0.005465 0.003753 0.007988 0.000000 0.049387 0.000000
# 6 0.000000 0.000000 0.000000 0.009849 0.000000 0.034313
#
#
# Mechanical properties :
#
#
# Convention : Reuss Voigt Hill
#
# Bulk Modulus (GPa) = 34.48368 43.76328 39.12348
# Shear Modulus (GPa) = 25.28495 27.99817 26.64156
#
# Velocity S-wave (km/s) = 3.61016 3.79892 3.70575
# Velocity P-wave (km/s) = 5.92896 6.46533 6.20294
#
# Compressibility (1/GPa) = 0.02899922
#
# Stress axis : x y z
#
# Youngs Moduli (GPa) = 70.71642 80.61323 56.95918
#
# Poissons Ratio (x) = 0.14819 0.19019
# Poissons Ratio (y) = 0.13000 0.13523
# Poissons Ratio (z) = 0.23613 0.19139
#
# Static dielectric constant tensor:
#      x y z
#    x 1.710310 0.000000 -0.017880 
#    y 0.000000 1.639760 0.000000 
#    z -0.017880 0.000000 1.616130 
# 
# From -- ./inp_files/280764.got.cif
#   From: 2010.05.17/outbox.cif.g08.bks.cpg/sg12_141_cif.got.tgz:280764.got - 2010.06.03 13:09:07.
