data_PCOD9201789
_publ_section_title
;
Structure prediction by ZEFSAII (Michael W. Deem and Ramdas Pophale) SiO2 
 PCOD9201789
Probable space group: C 2/M
;
_chemical_formula_sum "Si O2"
_cell_formula_units_Z 48
_cell_length_a 9.206407
_cell_length_b 19.239866
_cell_length_c 14.489247
_cell_angle_alpha 90.000000
_cell_angle_beta 68.547991
_cell_angle_gamma 90.000000
_cell_volume 2388.685903
_symmetry_space_group_name_H-M "C 2/M"
_symmetry_group_IT_number 12
_symmetry_cell_setting 'monoclinic'
loop_
_space_group_symop_operation_xyz
x,y,z
-x,y,-z
-x,-y,-z
x,-y,z
1/2+x,1/2+y,z
1/2-x,1/2+y,-z
1/2-x,1/2-y,-z
1/2+x,1/2-y,z
loop_
_atom_site_type_symbol
_atom_site_label
_atom_site_fract_x
_atom_site_fract_y
_atom_site_fract_z
Si Si1 0.611297 0.185371 0.853327
Si Si2 0.749402 0.325643 0.894055
Si Si3 0.804691 0.081194 0.920203
Si Si4 0.818171 0.798199 0.624087
Si Si5 0.147255 0.920889 0.755936
Si Si6 0.673345 0.337097 0.574330
O O1 0.664578 0.252332 0.899750
O O2 0.428994 0.187333 0.876552
O O3 0.666793 0.116761 0.894139
O O4 0.704221 0.188941 0.735410
O O5 0.735718 0.367451 0.801595
O O6 0.679313 0.374077 0.990442
O O7 0.964424 0.087208 0.824728
O O8 0.777835 0.000000 0.946453
O O9 0.785375 0.721751 0.590793
O O10 0.789372 0.847866 0.542089
O O11 0.996239 0.807057 0.614943
O O12 0.174172 0.901259 0.643508
O O13 0.192157 0.000000 0.765382
#
# Coordination Sequence:
#
# PCOD9201789 Si02
#       6
#     8   8   8   8   8   8
#     4  12  23  41  65  94 125 161 209 262 308 366
#     4  12  25  40  64  93 124 166 213 259 306 366
#     4  11  25  44  63  88 128 169 208 254 311 369
#     4  10  20  37  64  94 120 155 200 256 308 361
#     4  11  23  42  64  89 126 167 208 255 310 372
#     4  10  20  38  63  94 122 155 204 251 313 368
#
# _framework density 20.094732
#
# number of rings (size 3 to 8) (size 9 to 14) (size 15 to 20)
#    0.000    1.000    3.333    4.000    0.000    4.667 
#    0.000    2.500    0.000    1.000    0.000    0.000 
#    0.000    0.000    0.000    0.000    0.000    0.000 
#
# Total GULP energy -134267.884208 kJ/mol
# GULP energy per Si atom -5594.495175 kJ/mol
# Density = 2.004900 g / cm^3
# Si number density = 20.094732 Si / 1000 Ang^3
#
#
#
# Elastic Constant Matrix: (Units=GPa)
#
#
# Indices 1 2 3 4 5 6 
#
# 1 111.2848 48.9265 6.4871 0.0000 5.5612 0.0000
# 2 48.9265 105.3937 42.5284 0.0000 1.5207 0.0000
# 3 6.4871 42.5284 96.5534 0.0000 -1.6535 0.0000
# 4 0.0000 0.0000 0.0000 26.0531 0.0000 -2.9418
# 5 5.5612 1.5207 -1.6535 0.0000 19.4653 0.0000
# 6 0.0000 0.0000 0.0000 -2.9418 0.0000 15.3629
#
#
#
# Elastic Compliance Matrix: (Units=1/GPa)
#
#
# Indices 1 2 3 4 5 6 
#
# 1 0.011720 -0.006160 0.001879 0.000000 -0.002708 0.000000
# 2 -0.006160 0.014812 -0.006109 0.000000 0.000084 0.000000
# 3 0.001879 -0.006109 0.012939 0.000000 0.001039 0.000000
# 4 0.000000 0.000000 0.000000 0.039231 0.000000 0.007512
# 5 -0.002708 0.000084 0.001039 0.000000 0.052229 0.000000
# 6 0.000000 0.000000 0.000000 0.007512 0.000000 0.066530
#
#
# Mechanical properties :
#
#
# Convention : Reuss Voigt Hill
#
# Bulk Modulus (GPa) = 53.49812 56.56843 55.03327
# Shear Modulus (GPa) = 22.27462 26.52892 24.40177
#
# Velocity S-wave (km/s) = 3.33300 3.63739 3.48851
# Velocity P-wave (km/s) = 6.44147 6.77147 6.60853
#
# Compressibility (1/GPa) = 0.01869225
#
# Stress axis : x y z
#
# Youngs Moduli (GPa) = 85.32446 67.51440 77.28484
#
# Poissons Ratio (x) = 0.41589 -0.14526
# Poissons Ratio (y) = 0.52560 0.47211
# Poissons Ratio (z) = -0.16037 0.41243
#
# Static dielectric constant tensor:
#      x y z
#    x 1.693670 0.000000 0.004370 
#    y 0.000000 1.678580 0.000000 
#    z 0.004370 0.000000 1.742700 
# 
# From -- ./inp_files/196935.got.cif
#   From: 2010.05.17/outbox.cif.g08.bks.cpg/sg12_99_cif.got.tgz:196935.got - 2010.06.03 13:09:07.
