data_PCOD9201585
_publ_section_title
;
Structure prediction by ZEFSAII (Michael W. Deem and Ramdas Pophale) SiO2 
 PCOD9201585
Probable space group: C 2/M
;
_chemical_formula_sum "Si O2"
_cell_formula_units_Z 64
_cell_length_a 30.482917
_cell_length_b 8.634418
_cell_length_c 15.991388
_cell_angle_alpha 90.000000
_cell_angle_beta 48.757831
_cell_angle_gamma 90.000000
_cell_volume 3164.849908
_symmetry_space_group_name_H-M "C 2/M"
_symmetry_group_IT_number 12
_symmetry_cell_setting 'monoclinic'
loop_
_space_group_symop_operation_xyz
x,y,z
-x,y,-z
-x,-y,-z
x,-y,z
1/2+x,1/2+y,z
1/2-x,1/2+y,-z
1/2-x,1/2-y,-z
1/2+x,1/2-y,z
loop_
_atom_site_type_symbol
_atom_site_label
_atom_site_fract_x
_atom_site_fract_y
_atom_site_fract_z
Si Si1 0.255068 0.680956 0.586821
Si Si2 0.817514 0.813712 0.167001
Si Si3 0.623409 0.820846 0.528019
Si Si4 0.932427 0.316947 0.583883
Si Si5 0.952096 0.187571 0.994491
Si Si6 0.207301 0.317352 0.981940
Si Si7 0.014209 0.816238 0.742484
Si Si8 0.400388 0.682019 0.789382
O O1 0.241440 0.500000 0.601093
O O2 0.250000 0.750000 0.500000
O O3 0.215162 0.759410 0.708211
O O4 0.321513 0.711939 0.530208
O O5 0.788852 0.753168 0.116349
O O6 0.816770 0.000000 0.164386
O O7 0.885288 0.758996 0.085516
O O8 0.594746 0.799005 0.473165
O O9 0.572803 0.778690 0.656898
O O10 0.641553 0.000000 0.513751
O O11 0.931699 0.500000 0.606592
O O12 0.894989 0.226540 0.699658
O O13 0.000000 0.265480 0.500000
O O14 0.979136 0.219800 0.870353
O O15 0.949344 0.000000 0.007031
O O16 0.000000 0.246222 0.000000
O O17 0.216567 0.500000 0.964971
O O18 0.250000 0.250000 0.000000
O O19 0.143113 0.276672 0.097694
O O20 0.967343 0.783890 0.728955
O O21 0.027910 0.000000 0.724510
O O22 0.389887 0.500000 0.817548
#
# Coordination Sequence:
#
# PCOD9201585 Si02
#       8
#     8   8   8   8   8   8   8   8
#     4  12  28  50  72  97 131 177 230 284 340 398
#     4  11  23  45  72 102 139 176 221 276 331 400
#     4  11  24  42  65  94 131 175 223 277 333 392
#     4  10  21  38  59  89 129 172 213 258 320 389
#     4   9  19  37  65  98 130 167 207 255 322 392
#     4  12  26  44  67  94 130 176 224 277 336 399
#     4  10  20  37  62  95 131 170 216 268 327 394
#     4  11  22  38  61  91 130 170 215 270 331 395
#
# _framework density 20.222128000000001
#
# number of rings (size 3 to 8) (size 9 to 14) (size 15 to 20)
#    0.000    1.250    2.500    3.375    3.500    1.750 
#    0.000    0.000    0.000    1.875    0.000    0.000 
#    0.000    0.000    0.000    0.000    0.000    0.000 
#
# Total GULP energy -178837.651654 kJ/mol
# GULP energy per Si atom -5588.676614 kJ/mol
# Density = 2.017610 g / cm^3
# Si number density = 20.222128 Si / 1000 Ang^3
#
#
#
# Elastic Constant Matrix: (Units=GPa)
#
#
# Indices 1 2 3 4 5 6 
#
# 1 88.0111 37.2641 45.5433 0.0000 13.2721 -0.0002
# 2 37.2641 67.1685 30.5403 0.0000 9.8906 -0.0005
# 3 45.5433 30.5403 105.8491 0.0000 9.1746 0.0000
# 4 0.0000 0.0000 0.0000 36.1822 0.0000 0.2521
# 5 13.2721 9.8906 9.1746 0.0000 22.3422 0.0000
# 6 -0.0002 -0.0005 0.0000 0.2521 0.0000 26.7948
#
#
#
# Elastic Compliance Matrix: (Units=1/GPa)
#
#
# Indices 1 2 3 4 5 6 
#
# 1 0.017698 -0.006643 -0.005228 0.000000 -0.005426 0.000000
# 2 -0.006643 0.020375 -0.002676 0.000000 -0.003975 0.000000
# 3 -0.005228 -0.002676 0.012544 0.000000 -0.000861 0.000000
# 4 0.000000 0.000000 0.000000 0.027640 0.000000 -0.000260
# 5 -0.005426 -0.003975 -0.000861 0.000000 0.050095 0.000000
# 6 0.000000 0.000000 0.000000 -0.000260 0.000000 0.037323
#
#
# Mechanical properties :
#
#
# Convention : Reuss Voigt Hill
#
# Bulk Modulus (GPa) = 46.46109 54.19156 50.32632
# Shear Modulus (GPa) = 24.75945 26.90925 25.83435
#
# Velocity S-wave (km/s) = 3.50290 3.65181 3.57813
# Velocity P-wave (km/s) = 6.27580 6.68111 6.48163
#
# Compressibility (1/GPa) = 0.02152339
#
# Stress axis : x y z
#
# Youngs Moduli (GPa) = 56.50239 49.07899 79.72181
#
# Poissons Ratio (x) = 0.32602 0.41679
# Poissons Ratio (y) = 0.37533 0.21335
# Poissons Ratio (z) = 0.29540 0.13134
#
# Static dielectric constant tensor:
#      x y z
#    x 1.742190 0.000000 0.014460 
#    y 0.000000 1.696340 0.000000 
#    z 0.014460 0.000000 1.704290 
# 
# From -- ./inp_files/249773.got.cif
#   From: 2010.05.17/outbox.cif.g08.bks.cpg/sg12_125_cif.got.tgz:249773.got - 2010.06.03 13:09:07.
