data_PCOD9201382
_publ_section_title
;
Structure prediction by ZEFSAII (Michael W. Deem and Ramdas Pophale) SiO2 
 PCOD9201382
Probable space group: C 2/M
;
_chemical_formula_sum "Si O2"
_cell_formula_units_Z 64
_cell_length_a 16.553679
_cell_length_b 8.575557
_cell_length_c 22.365916
_cell_angle_alpha 90.000000
_cell_angle_beta 88.733176
_cell_angle_gamma 90.000000
_cell_volume 3174.222698
_symmetry_space_group_name_H-M "C 2/M"
_symmetry_group_IT_number 12
_symmetry_cell_setting 'monoclinic'
loop_
_space_group_symop_operation_xyz
x,y,z
-x,y,-z
-x,-y,-z
x,-y,z
1/2+x,1/2+y,z
1/2-x,1/2+y,-z
1/2-x,1/2-y,-z
1/2+x,1/2-y,z
loop_
_atom_site_type_symbol
_atom_site_label
_atom_site_fract_x
_atom_site_fract_y
_atom_site_fract_z
Si Si1 0.505088 0.688451 0.069511
Si Si2 0.827256 0.818480 0.624275
Si Si3 0.168515 0.188137 0.132272
Si Si4 0.589692 0.183021 0.734560
Si Si5 0.904043 0.679207 0.507725
Si Si6 0.582481 0.314841 0.254661
Si Si7 0.346948 0.188867 0.140245
Si Si8 0.155603 0.179475 0.613448
O O1 0.504343 0.500000 0.074457
O O2 0.590687 0.744242 0.095999
O O3 0.425672 0.749418 0.104752
O O4 0.500000 0.731044 0.000000
O O5 0.872111 0.786861 0.561362
O O6 0.883282 0.783896 0.680143
O O7 0.748417 0.712589 0.626986
O O8 0.802972 0.000000 0.628993
O O9 0.147181 0.218684 0.201962
O O10 0.259548 0.243972 0.117369
O O11 0.170606 0.000000 0.124803
O O12 0.497939 0.217197 0.754731
O O13 0.644452 0.232536 0.789814
O O14 0.606234 0.271513 0.672801
O O15 0.602819 0.000000 0.723759
O O16 0.884319 0.500000 0.523302
O O17 0.866086 0.721842 0.444721
O O18 0.000000 0.694399 0.500000
O O19 0.562862 0.500000 0.250740
O O20 0.348885 0.000000 0.137817
O O21 0.140605 0.000000 0.599564
#
# Coordination Sequence:
#
# PCOD9201382 Si02
#       8
#     8   8   8   8   8   8   8   8
#     4  10  21  38  61  89 123 162 205 254 302 356
#     4  11  23  39  60  86 116 151 197 246 298 363
#     4   9  18  36  60  85 121 163 203 244 303 367
#     4  11  22  37  59  88 121 152 197 252 305 358
#     4  11  24  42  62  84 114 152 194 244 302 358
#     4  10  20  37  62  87 116 159 200 241 301 368
#     4  10  21  38  61  88 120 163 204 249 303 365
#     4  12  25  40  60  85 116 155 198 244 300 360
#
# _framework density 20.162417000000001
#
# number of rings (size 3 to 8) (size 9 to 14) (size 15 to 20)
#    0.000    1.500    1.250    4.125    0.000    7.250 
#    0.000    1.250    0.000    0.000    0.000    0.000 
#    0.000    0.000    0.000    0.000    0.000    0.000 
#
# Total GULP energy -178813.275378 kJ/mol
# GULP energy per Si atom -5587.914856 kJ/mol
# Density = 2.011653 g / cm^3
# Si number density = 20.162417 Si / 1000 Ang^3
#
#
#
# Elastic Constant Matrix: (Units=GPa)
#
#
# Indices 1 2 3 4 5 6 
#
# 1 107.0623 8.1765 34.7211 0.0000 16.7330 0.0000
# 2 8.1765 6.9616 1.5165 0.0000 3.2457 0.0000
# 3 34.7211 1.5165 93.6274 0.0000 12.7737 0.0000
# 4 0.0000 0.0000 0.0000 29.2739 0.0000 -10.8294
# 5 16.7330 3.2457 12.7737 0.0000 18.3403 0.0000
# 6 0.0000 0.0000 0.0000 -10.8294 0.0000 31.4418
#
#
#
# Elastic Compliance Matrix: (Units=1/GPa)
#
#
# Indices 1 2 3 4 5 6 
#
# 1 0.012359 -0.010494 -0.003457 0.000000 -0.007011 0.000000
# 2 -0.010494 0.165635 0.004311 0.000000 -0.022741 0.000000
# 3 -0.003457 0.004311 0.012781 0.000000 -0.006511 0.000000
# 4 0.000000 0.000000 0.000000 0.039148 0.000000 0.013484
# 5 -0.007011 -0.022741 -0.006511 0.000000 0.069480 0.000000
# 6 0.000000 0.000000 0.000000 0.013484 0.000000 0.036449
#
#
# Mechanical properties :
#
#
# Convention : Reuss Voigt Hill
#
# Bulk Modulus (GPa) = 5.83103 32.94218 19.38661
# Shear Modulus (GPa) = 12.12724 26.69369 19.41046
#
# Velocity S-wave (km/s) = 2.45516 3.64254 3.10612
# Velocity P-wave (km/s) = 3.30687 5.83649 4.74342
#
# Compressibility (1/GPa) = 0.17149615
#
# Stress axis : x y z
#
# Youngs Moduli (GPa) = 80.91577 6.03738 78.24135
#
# Poissons Ratio (x) = 0.06335 0.27045
# Poissons Ratio (y) = 0.84911 -0.33733
# Poissons Ratio (z) = 0.27969 -0.02603
#
# Static dielectric constant tensor:
#      x y z
#    x 1.718910 0.000000 0.002310 
#    y 0.000000 1.693430 0.000000 
#    z 0.002310 0.000000 1.746670 
# 
# From -- ./inp_files/314079.got.cif
#   From: 2010.05.17/outbox.cif.g08.bks.cpg/sg12_158_cif.got.tgz:314079.got - 2010.06.03 13:09:07.
