data_PCOD9201222
_publ_section_title
;
Structure prediction by ZEFSAII (Michael W. Deem and Ramdas Pophale) SiO2 
 PCOD9201222
Probable space group: C 2/M
;
_chemical_formula_sum "Si O2"
_cell_formula_units_Z 48
_cell_length_a 19.525317
_cell_length_b 8.942196
_cell_length_c 11.837607
_cell_angle_alpha 90.000000
_cell_angle_beta 96.632919
_cell_angle_gamma 90.000000
_cell_volume 2053.002611
_symmetry_space_group_name_H-M "C 2/M"
_symmetry_group_IT_number 12
_symmetry_cell_setting 'monoclinic'
loop_
_space_group_symop_operation_xyz
x,y,z
-x,y,-z
-x,-y,-z
x,-y,z
1/2+x,1/2+y,z
1/2-x,1/2+y,-z
1/2-x,1/2-y,-z
1/2+x,1/2-y,z
loop_
_atom_site_type_symbol
_atom_site_label
_atom_site_fract_x
_atom_site_fract_y
_atom_site_fract_z
Si Si1 0.669270 0.670886 0.083924
Si Si2 0.019319 0.171899 0.173741
Si Si3 0.276593 0.170946 0.695111
Si Si4 0.615889 0.825510 0.863932
Si Si5 0.075752 0.326734 0.398353
Si Si6 0.874021 0.824653 0.377117
O O1 0.682639 0.500000 0.054713
O O2 0.592463 0.680068 0.124667
O O3 0.717706 0.723070 0.195227
O O4 0.666422 0.772854 0.972874
O O5 0.032916 0.222064 0.305605
O O6 0.962053 0.282534 0.114329
O O7 0.995096 0.000000 0.161439
O O8 0.346168 0.182990 0.636199
O O9 0.207368 0.196581 0.611609
O O10 0.273057 0.000000 0.737236
O O11 0.622520 0.731616 0.750372
O O12 0.623001 0.000000 0.842933
O O13 0.053589 0.500000 0.386506
O O14 0.080830 0.269500 0.526880
O O15 0.890617 0.000000 0.389543
#
# Coordination Sequence:
#
# PCOD9201222 Si02
#       6
#     8   8   8   8   8   8
#     4  10  21  38  62  88 114 147 188 234 283 337
#     4  10  21  39  62  87 114 147 189 234 282 337
#     4   9  20  38  61  87 115 149 189 234 281 333
#     4  12  25  39  57  83 116 153 191 234 285 337
#     4  10  20  37  61  89 117 146 187 235 283 335
#     4  11  23  39  58  83 117 155 192 231 281 337
#
# _framework density 23.380386999999999
#
# number of rings (size 3 to 8) (size 9 to 14) (size 15 to 20)
#    0.000    1.667    0.000    4.500    0.000    7.333 
#    0.000    3.333    0.000    0.000    0.000    0.000 
#    0.000    0.000    0.000    0.000    0.000    0.000 
#
# Total GULP energy -134381.945198 kJ/mol
# GULP energy per Si atom -5599.247717 kJ/mol
# Density = 2.332717 g / cm^3
# Si number density = 23.380387 Si / 1000 Ang^3
#
#
#
# Elastic Constant Matrix: (Units=GPa)
#
#
# Indices 1 2 3 4 5 6 
#
# 1 48.8260 2.0844 -13.1381 0.0000 3.1118 0.0000
# 2 2.0844 75.9061 29.2226 0.0000 8.5358 0.0000
# 3 -13.1381 29.2226 104.9601 0.0000 4.5919 0.0000
# 4 0.0000 0.0000 0.0000 39.2432 0.0000 3.2809
# 5 3.1118 8.5358 4.5919 0.0000 35.9684 0.0000
# 6 0.0000 0.0000 0.0000 3.2809 0.0000 25.6049
#
#
#
# Elastic Compliance Matrix: (Units=1/GPa)
#
#
# Indices 1 2 3 4 5 6 
#
# 1 0.021540 -0.001623 0.003231 0.000000 -0.001891 0.000000
# 2 -0.001623 0.015206 -0.004309 0.000000 -0.002918 0.000000
# 3 0.003231 -0.004309 0.011161 0.000000 -0.000682 0.000000
# 4 0.000000 0.000000 0.000000 0.025758 0.000000 -0.003300
# 5 -0.001891 -0.002918 -0.000682 0.000000 0.028745 0.000000
# 6 0.000000 0.000000 0.000000 -0.003300 0.000000 0.039478
#
#
# Mechanical properties :
#
#
# Convention : Reuss Voigt Hill
#
# Bulk Modulus (GPa) = 23.52648 29.55890 26.54269
# Shear Modulus (GPa) = 30.96770 34.26486 32.61628
#
# Velocity S-wave (km/s) = 3.64334 3.83239 3.73906
# Velocity P-wave (km/s) = 5.27095 5.67917 5.47886
#
# Compressibility (1/GPa) = 0.04250529
#
# Stress axis : x y z
#
# Youngs Moduli (GPa) = 46.42523 65.76460 89.59492
#
# Poissons Ratio (x) = 0.10671 -0.28945
# Poissons Ratio (y) = 0.07533 0.38606
# Poissons Ratio (z) = -0.14999 0.28338
#
# Static dielectric constant tensor:
#      x y z
#    x 2.004740 0.000000 -0.033770 
#    y 0.000000 1.780500 0.000000 
#    z -0.033770 0.000000 1.841630 
# 
# From -- ./inp_files/172391.got.cif
#   From: 2010.05.17/outbox.cif.g08.bks.cpg/sg12_87_cif.got.tgz:172391.got - 2010.06.03 13:09:07.
