data_PCOD9201842
_publ_section_title
;
Structure prediction by ZEFSAII (Michael W. Deem and Ramdas Pophale) SiO2 
 PCOD9201842
Probable space group: C 2/M
;
_chemical_formula_sum "Si O2"
_cell_formula_units_Z 40
_cell_length_a 19.322308
_cell_length_b 14.936438
_cell_length_c 16.501980
_cell_angle_alpha 90.000000
_cell_angle_beta 158.530725
_cell_angle_gamma 90.000000
_cell_volume 1743.114178
_symmetry_space_group_name_H-M "C 2/M"
_symmetry_group_IT_number 12
_symmetry_cell_setting 'monoclinic'
loop_
_space_group_symop_operation_xyz
x,y,z
-x,y,-z
-x,-y,-z
x,-y,z
1/2+x,1/2+y,z
1/2-x,1/2+y,-z
1/2-x,1/2-y,-z
1/2+x,1/2-y,z
loop_
_atom_site_type_symbol
_atom_site_label
_atom_site_fract_x
_atom_site_fract_y
_atom_site_fract_z
Si Si1 0.221620 0.100585 0.724422
Si Si2 0.575342 0.394852 0.174298
Si Si3 0.237477 0.216160 0.590567
Si Si4 0.962117 0.596197 0.150244
Si Si5 0.145086 0.841683 0.907855
O O1 0.286370 0.171768 0.729813
O O2 0.000000 0.113446 0.500000
O O3 0.248333 0.000000 0.720540
O O4 0.334865 0.105670 0.931003
O O5 0.624252 0.500000 0.239888
O O6 0.741826 0.322339 0.371859
O O7 0.418441 0.366031 0.070503
O O8 0.500000 0.385421 0.000000
O O9 0.394912 0.179539 0.699059
O O10 0.045152 0.167978 0.352732
O O11 0.064442 0.500000 0.259463
O O12 0.809309 0.593975 0.054949
O O13 0.250000 0.750000 0.000000
#
# Coordination Sequence:
#
# PCOD9201842 Si02
#       5
#     8   8   8   8   8
#     4  10  20  37  65 106 145 180 220 276 355 428
#     4  11  26  48  73 101 140 191 242 291 345 416
#     4  12  24  43  73 102 139 187 235 288 355 422
#     4  11  23  40  69 106 142 178 221 284 357 427
#     4  12  26  47  70 102 136 180 238 296 355 410
#
# _framework density 22.947434999999999
#
# number of rings (size 3 to 8) (size 9 to 14) (size 15 to 20)
#    0.000    0.800    4.000    3.600    0.000    4.000 
#    0.000    1.000    0.000    3.000    0.000    0.000 
#    0.000    0.000    0.000    0.000    0.000    0.000 
#
# Total GULP energy -111744.006860 kJ/mol
# GULP energy per Si atom -5587.200343 kJ/mol
# Density = 2.289521 g / cm^3
# Si number density = 22.947435 Si / 1000 Ang^3
#
#
#
# Elastic Constant Matrix: (Units=GPa)
#
#
# Indices 1 2 3 4 5 6 
#
# 1 131.4767 27.4908 8.6112 0.0026 -7.5946 0.0006
# 2 27.4908 143.3476 14.1946 0.0056 2.1075 0.0037
# 3 8.6112 14.1946 81.6437 0.0045 6.1800 0.0031
# 4 0.0026 0.0056 0.0045 19.5956 0.0035 11.3295
# 5 -7.5946 2.1075 6.1800 0.0035 41.2333 0.0017
# 6 0.0006 0.0037 0.0031 11.3295 0.0017 34.9238
#
#
#
# Elastic Compliance Matrix: (Units=1/GPa)
#
#
# Indices 1 2 3 4 5 6 
#
# 1 0.008063 -0.001500 -0.000716 -0.000001 0.001669 0.000000
# 2 -0.001500 0.007379 -0.001088 -0.000001 -0.000490 0.000000
# 3 -0.000716 -0.001088 0.012662 -0.000002 -0.001974 0.000000
# 4 -0.000001 -0.000001 -0.000002 0.062813 -0.000004 -0.020377
# 5 0.001669 -0.000490 -0.001974 -0.000004 0.024881 0.000000
# 6 0.000000 0.000000 0.000000 -0.020377 0.000000 0.035244
#
#
# Mechanical properties :
#
#
# Convention : Reuss Voigt Hill
#
# Bulk Modulus (GPa) = 46.51815 50.78456 48.65136
# Shear Modulus (GPa) = 30.33719 39.56196 34.94958
#
# Velocity S-wave (km/s) = 3.63992 4.15664 3.90683
# Velocity P-wave (km/s) = 6.16287 6.72427 6.44968
#
# Compressibility (1/GPa) = 0.02149699
#
# Stress axis : x y z
#
# Youngs Moduli (GPa) = 124.02586 135.52713 78.97423
#
# Poissons Ratio (x) = 0.20328 0.05654
# Poissons Ratio (y) = 0.18603 0.08589
# Poissons Ratio (z) = 0.08880 0.14739
#
# Static dielectric constant tensor:
#      x y z
#    x 1.907890 0.000000 0.038590 
#    y 0.000000 2.022530 0.000000 
#    z 0.038590 0.000000 1.885260 
# 
# From -- ./inp_files/284636.got.cif
#   From: 2010.05.17/outbox.cif.g08.bks.cpg/sg12_143_cif.got.tgz:284636.got - 2010.06.03 13:09:07.
