data_PCOD9201479
_publ_section_title
;
Structure prediction by ZEFSAII (Michael W. Deem and Ramdas Pophale) SiO2 
 PCOD9201479
Probable space group: C 2/M
;
_chemical_formula_sum "Si O2"
_cell_formula_units_Z 58
_cell_length_a 23.331583
_cell_length_b 9.977409
_cell_length_c 19.002196
_cell_angle_alpha 90.000000
_cell_angle_beta 133.847166
_cell_angle_gamma 90.000000
_cell_volume 3190.183006
_symmetry_space_group_name_H-M "C 2/M"
_symmetry_group_IT_number 12
_symmetry_cell_setting 'monoclinic'
loop_
_space_group_symop_operation_xyz
x,y,z
-x,y,-z
-x,-y,-z
x,-y,z
1/2+x,1/2+y,z
1/2-x,1/2+y,-z
1/2-x,1/2-y,-z
1/2+x,1/2-y,z
loop_
_atom_site_type_symbol
_atom_site_label
_atom_site_fract_x
_atom_site_fract_y
_atom_site_fract_z
Si Si1 0.500000 0.500000 0.500000
Si Si2 0.616013 0.149014 0.488968
Si Si3 0.739255 0.658150 0.661187
Si Si4 0.696819 0.343039 0.003633
Si Si5 0.446067 0.736449 0.346390
Si Si6 0.616712 0.152540 0.324101
Si Si7 0.529403 0.656226 0.795221
Si Si8 0.231113 0.656371 0.781317
O O1 0.463355 0.617073 0.415499
O O2 0.660212 0.268228 0.566364
O O3 0.521690 0.165137 0.416722
O O4 0.636472 0.163559 0.423734
O O5 0.640892 0.000000 0.533509
O O6 0.725281 0.500000 0.661810
O O7 0.806707 0.673058 0.659208
O O8 0.763100 0.740292 0.750559
O O9 0.709958 0.500000 0.997192
O O10 0.723295 0.324099 0.106417
O O11 0.750000 0.250000 0.000000
O O12 0.605109 0.313843 0.908336
O O13 0.448002 0.685270 0.267054
O O14 0.362000 0.807303 0.288078
O O15 0.546212 0.254963 0.249622
O O16 0.588471 0.000000 0.288729
O O17 0.509482 0.500000 0.784386
O O18 0.239217 0.500000 0.768112
#
# Coordination Sequence:
#
# PCOD9201479 Si02
#       8
#     2   8   8   8   8   8   8   8
#     4  12  24  32  50  88 124 160 186 236 284 360
#     4  10  21  37  59  84 115 153 203 245 289 354
#     4  11  24  39  58  83 117 156 200 248 299 351
#     4  10  21  38  61  91 118 150 198 244 297 354
#     4  11  22  35  57  84 125 157 196 230 294 356
#     4   9  21  40  60  85 115 155 200 245 296 354
#     4  10  20  37  62  90 117 150 195 248 294 348
#     4  11  24  40  60  84 121 161 199 243 297 357
#
# _framework density 18.180775000000001
#
# number of rings (size 3 to 8) (size 9 to 14) (size 15 to 20)
#    0.000    1.655    2.069    2.069    3.862    3.310 
#    0.000    2.759    0.000    4.138    0.000    0.000 
#    0.000    0.000    0.000    0.000    0.000    0.000 
#
# Total GULP energy -161712.085486 kJ/mol
# GULP energy per Si atom -5576.278810 kJ/mol
# Density = 1.813939 g / cm^3
# Si number density = 18.180775 Si / 1000 Ang^3
#
#
#
# Elastic Constant Matrix: (Units=GPa)
#
#
# Indices 1 2 3 4 5 6 
#
# 1 60.7003 37.7612 28.5703 0.0000 -5.2788 0.0000
# 2 37.7612 110.6582 59.5904 0.0000 -3.7381 0.0000
# 3 28.5703 59.5904 108.6601 0.0000 -9.0647 0.0000
# 4 0.0000 0.0000 0.0000 30.1741 0.0000 -0.3825
# 5 -5.2788 -3.7381 -9.0647 0.0000 17.3936 0.0000
# 6 0.0000 0.0000 0.0000 -0.3825 0.0000 23.4162
#
#
#
# Elastic Compliance Matrix: (Units=1/GPa)
#
#
# Indices 1 2 3 4 5 6 
#
# 1 0.021600 -0.006187 -0.001935 0.000000 0.004218 0.000000
# 2 -0.006187 0.014611 -0.006566 0.000000 -0.002160 0.000000
# 3 -0.001935 -0.006566 0.013744 0.000000 0.005164 0.000000
# 4 0.000000 0.000000 0.000000 0.033148 0.000000 0.000541
# 5 0.004218 -0.002160 0.005164 0.000000 0.061000 0.000000
# 6 0.000000 0.000000 0.000000 0.000541 0.000000 0.042714
#
#
# Mechanical properties :
#
#
# Convention : Reuss Voigt Hill
#
# Bulk Modulus (GPa) = 48.59189 59.09582 53.84385
# Shear Modulus (GPa) = 22.41626 24.46989 23.44308
#
# Velocity S-wave (km/s) = 3.51517 3.67266 3.59478
# Velocity P-wave (km/s) = 6.57726 7.11053 6.84909
#
# Compressibility (1/GPa) = 0.02057957
#
# Stress axis : x y z
#
# Youngs Moduli (GPa) = 46.29532 68.44130 72.76103
#
# Poissons Ratio (x) = 0.42342 0.14078
# Poissons Ratio (y) = 0.28641 0.47778
# Poissons Ratio (z) = 0.08957 0.44941
#
# Static dielectric constant tensor:
#      x y z
#    x 1.625770 0.000000 -0.009600 
#    y 0.000000 1.613950 0.000000 
#    z -0.009600 0.000000 1.618930 
# 
# From -- ./inp_files/324658.got.cif
#   From: 2010.05.17/outbox.cif.g08.bks.cpg/sg12_163_cif.got.tgz:324658.got - 2010.06.03 13:09:07.
