data_PCOD9201419
_publ_section_title
;
Structure prediction by ZEFSAII (Michael W. Deem and Ramdas Pophale) SiO2 
 PCOD9201419
Probable space group: C 2/M
;
_chemical_formula_sum "Si O2"
_cell_formula_units_Z 58
_cell_length_a 16.824138
_cell_length_b 9.481767
_cell_length_c 17.320231
_cell_angle_alpha 90.000000
_cell_angle_beta 86.712926
_cell_angle_gamma 90.000000
_cell_volume 2758.421832
_symmetry_space_group_name_H-M "C 2/M"
_symmetry_group_IT_number 12
_symmetry_cell_setting 'monoclinic'
loop_
_space_group_symop_operation_xyz
x,y,z
-x,y,-z
-x,-y,-z
x,-y,z
1/2+x,1/2+y,z
1/2-x,1/2+y,-z
1/2-x,1/2-y,-z
1/2+x,1/2-y,z
loop_
_atom_site_type_symbol
_atom_site_label
_atom_site_fract_x
_atom_site_fract_y
_atom_site_fract_z
Si Si1 0.378447 0.760099 0.032444
Si Si2 0.177973 0.329408 0.395891
Si Si3 0.429388 0.160940 0.191837
Si Si4 0.852269 0.169006 0.322401
Si Si5 0.788437 0.338901 0.890619
Si Si6 0.900250 0.672079 0.753353
Si Si7 0.000000 0.000000 0.000000
Si Si8 0.419032 0.167199 0.455446
O O1 0.423658 0.836006 0.099919
O O2 0.291074 0.732043 0.074046
O O3 0.430259 0.622781 0.011381
O O4 0.356088 0.834538 0.953487
O O5 0.174308 0.500000 0.399153
O O6 0.265314 0.292973 0.360780
O O7 0.115978 0.283510 0.333162
O O8 0.150247 0.282801 0.481677
O O9 0.367473 0.263366 0.238000
O O10 0.515781 0.212633 0.215226
O O11 0.417348 0.000000 0.219113
O O12 0.913538 0.241398 0.378719
O O13 0.859506 0.000000 0.319368
O O14 0.767150 0.500000 0.875034
O O15 0.829119 0.276134 0.812268
O O16 0.898248 0.500000 0.755165
O O17 0.500000 0.180866 0.500000
O O18 0.410161 0.000000 0.437346
#
# Coordination Sequence:
#
# PCOD9201419 Si02
#       8
#     8   8   8   8   8   8   2   8
#     4  11  23  37  62  89 128 164 208 261 321 378
#     4   9  18  34  57  86 118 158 204 247 306 377
#     4  11  23  40  62  90 122 164 213 268 310 376
#     4  11  23  37  59  89 124 161 201 256 322 379
#     4  10  20  39  61  88 119 169 213 256 312 383
#     4   9  18  34  59  83 112 152 207 255 298 358
#     4  12  24  40  58 100 128 162 200 272 330 372
#     4  10  20  37  62  88 118 159 207 254 302 372
#
# _framework density 21.026516000000001
#
# number of rings (size 3 to 8) (size 9 to 14) (size 15 to 20)
#    0.000    1.793    0.690    3.724    0.966    3.586 
#    0.000    3.448    0.000    3.310    0.000    0.000 
#    0.000    0.000    0.000    0.000    0.000    0.000 
#
# Total GULP energy -161629.701288 kJ/mol
# GULP energy per Si atom -5573.437975 kJ/mol
# Density = 2.097866 g / cm^3
# Si number density = 21.026516 Si / 1000 Ang^3
#
#
#
# Elastic Constant Matrix: (Units=GPa)
#
#
# Indices 1 2 3 4 5 6 
#
# 1 73.2197 13.0786 0.9770 0.0000 3.2080 0.0000
# 2 13.0786 45.1803 -1.3590 0.0000 -2.0633 0.0000
# 3 0.9770 -1.3590 71.9078 0.0000 9.5892 0.0000
# 4 0.0000 0.0000 0.0000 4.0518 0.0000 -5.1280
# 5 3.2080 -2.0633 9.5892 0.0000 36.9696 0.0000
# 6 0.0000 0.0000 0.0000 -5.1280 0.0000 21.8374
#
#
#
# Elastic Compliance Matrix: (Units=1/GPa)
#
#
# Indices 1 2 3 4 5 6 
#
# 1 0.014485 -0.004263 -0.000081 0.000000 -0.001474 0.000000
# 2 -0.004263 0.023449 0.000287 0.000000 0.001604 0.000000
# 3 -0.000081 0.000287 0.014409 0.000000 -0.003714 0.000000
# 4 0.000000 0.000000 0.000000 0.351174 0.000000 0.082465
# 5 -0.001474 0.001604 -0.003714 0.000000 0.028230 0.000000
# 6 0.000000 0.000000 0.000000 0.082465 0.000000 0.065158
#
#
# Mechanical properties :
#
#
# Convention : Reuss Voigt Hill
#
# Bulk Modulus (GPa) = 22.60916 23.96676 23.28796
# Shear Modulus (GPa) = 9.61982 24.41252 17.01617
#
# Velocity S-wave (km/s) = 2.14127 3.41109 2.84786
# Velocity P-wave (km/s) = 4.10967 5.19010 4.68116
#
# Compressibility (1/GPa) = 0.04422987
#
# Stress axis : x y z
#
# Youngs Moduli (GPa) = 69.03891 42.64510 69.40328
#
# Poissons Ratio (x) = 0.18178 0.00561
# Poissons Ratio (y) = 0.29429 -0.01993
# Poissons Ratio (z) = 0.00558 -0.01225
#
# Static dielectric constant tensor:
#      x y z
#    x 1.799570 0.000000 -0.000320 
#    y 0.000000 1.723880 0.000000 
#    z -0.000320 0.000000 1.770650 
# 
# From -- ./inp_files/275393.got.cif
#   From: 2010.05.17/outbox.cif.g08.bks.cpg/sg12_138_cif.got.tgz:275393.got - 2010.06.03 13:09:07.
