data_PCOD9201431
_publ_section_title
;
Structure prediction by ZEFSAII (Michael W. Deem and Ramdas Pophale) SiO2 
 PCOD9201431
Probable space group: C 2/M
;
_chemical_formula_sum "Si O2"
_cell_formula_units_Z 56
_cell_length_a 11.735258
_cell_length_b 14.805250
_cell_length_c 14.991315
_cell_angle_alpha 90.000000
_cell_angle_beta 75.714993
_cell_angle_gamma 90.000000
_cell_volume 2524.107786
_symmetry_space_group_name_H-M "C 2/M"
_symmetry_group_IT_number 12
_symmetry_cell_setting 'monoclinic'
loop_
_space_group_symop_operation_xyz
x,y,z
-x,y,-z
-x,-y,-z
x,-y,z
1/2+x,1/2+y,z
1/2-x,1/2+y,-z
1/2-x,1/2-y,-z
1/2+x,1/2-y,z
loop_
_atom_site_type_symbol
_atom_site_label
_atom_site_fract_x
_atom_site_fract_y
_atom_site_fract_z
Si Si1 0.766576 0.104934 0.524748
Si Si2 0.956431 0.098488 0.906725
Si Si3 0.728398 0.147631 0.031973
Si Si4 0.492420 0.099674 0.338914
Si Si5 0.187966 0.726129 0.376760
Si Si6 0.533375 0.100941 0.869907
Si Si7 0.648862 0.280629 0.825093
O O1 0.636901 0.102636 0.594309
O O2 0.835917 0.176863 0.573041
O O3 0.748744 0.157080 0.434915
O O4 0.807010 0.000000 0.510844
O O5 0.020242 0.173951 0.836141
O O6 0.996782 0.000000 0.869844
O O7 0.817450 0.097946 0.948264
O O8 0.000000 0.115837 0.000000
O O9 0.595068 0.115578 0.062392
O O10 0.778941 0.151279 0.124344
O O11 0.750000 0.250000 0.000000
O O12 0.570945 0.178022 0.364568
O O13 0.483865 0.106682 0.233930
O O14 0.543796 0.000000 0.350531
O O15 0.276686 0.736170 0.277044
O O16 0.618189 0.184277 0.875201
O O17 0.575928 0.000000 0.881929
#
# Coordination Sequence:
#
# PCOD9201431 Si02
#       7
#     8   8   8   8   8   8   8
#     4  10  22  39  60  89 122 156 195 241 295 354
#     4   9  19  34  54  78 108 145 186 234 288 340
#     4  11  21  38  61  82 118 156 198 242 293 353
#     4  10  20  37  62  89 115 151 203 247 286 347
#     4  11  21  35  61  90 119 154 195 247 294 346
#     4  11  22  38  62  89 118 156 200 246 294 349
#     4  11  22  37  58  89 118 151 195 247 297 348
#
# _framework density 22.186057000000002
#
# number of rings (size 3 to 8) (size 9 to 14) (size 15 to 20)
#    0.000    1.571    4.286    1.286    0.000    2.857 
#    0.000    2.143    0.000    8.571    0.000    0.000 
#    0.000    0.000    0.000    0.000    0.000    0.000 
#
# Total GULP energy -156413.122878 kJ/mol
# GULP energy per Si atom -5586.182960 kJ/mol
# Density = 2.213556 g / cm^3
# Si number density = 22.186057 Si / 1000 Ang^3
#
#
#
# Elastic Constant Matrix: (Units=GPa)
#
#
# Indices 1 2 3 4 5 6 
#
# 1 58.2038 27.2351 6.6515 0.0000 -0.0216 0.0000
# 2 27.2351 149.6581 2.4770 0.0000 6.8699 0.0000
# 3 6.6515 2.4770 46.8325 0.0000 2.1309 0.0000
# 4 0.0000 0.0000 0.0000 20.1481 0.0000 -1.8595
# 5 -0.0216 6.8699 2.1309 0.0000 21.5428 0.0000
# 6 0.0000 0.0000 0.0000 -1.8595 0.0000 33.5599
#
#
#
# Elastic Compliance Matrix: (Units=1/GPa)
#
#
# Indices 1 2 3 4 5 6 
#
# 1 0.019115 -0.003500 -0.002593 0.000000 0.001392 0.000000
# 2 -0.003500 0.007425 0.000213 0.000000 -0.002392 0.000000
# 3 -0.002593 0.000213 0.021811 0.000000 -0.002228 0.000000
# 4 0.000000 0.000000 0.000000 0.049888 0.000000 0.002764
# 5 0.001392 -0.002392 -0.002228 0.000000 0.047404 0.000000
# 6 0.000000 0.000000 0.000000 0.002764 0.000000 0.029951
#
#
# Mechanical properties :
#
#
# Convention : Reuss Voigt Hill
#
# Bulk Modulus (GPa) = 27.32807 36.38016 31.85412
# Shear Modulus (GPa) = 25.05634 29.60555 27.33094
#
# Velocity S-wave (km/s) = 3.36426 3.65694 3.51365
# Velocity P-wave (km/s) = 5.23788 5.85357 5.55426
#
# Compressibility (1/GPa) = 0.03659241
#
# Stress axis : x y z
#
# Youngs Moduli (GPa) = 52.31372 134.67900 45.84821
#
# Poissons Ratio (x) = 0.47133 0.11889
# Poissons Ratio (y) = 0.18308 -0.00977
# Poissons Ratio (z) = 0.13566 -0.02871
#
# Static dielectric constant tensor:
#      x y z
#    x 1.871920 0.000000 0.039080 
#    y 0.000000 1.228330 0.000000 
#    z 0.039080 0.000000 1.813370 
# 
# From -- ./inp_files/262967.got.cif
#   From: 2010.05.17/outbox.cif.g08.bks.cpg/sg12_132_cif.got.tgz:262967.got - 2010.06.03 13:09:07.
