data_PCOD9201209
_publ_section_title
;
Structure prediction by ZEFSAII (Michael W. Deem and Ramdas Pophale) SiO2 
 PCOD9201209
Probable space group: C 2/M
;
_chemical_formula_sum "Si O2"
_cell_formula_units_Z 56
_cell_length_a 27.497803
_cell_length_b 12.935506
_cell_length_c 11.103518
_cell_angle_alpha 90.000000
_cell_angle_beta 46.268759
_cell_angle_gamma 90.000000
_cell_volume 2853.869853
_symmetry_space_group_name_H-M "C 2/M"
_symmetry_group_IT_number 12
_symmetry_cell_setting 'monoclinic'
loop_
_space_group_symop_operation_xyz
x,y,z
-x,y,-z
-x,-y,-z
x,-y,z
1/2+x,1/2+y,z
1/2-x,1/2+y,-z
1/2-x,1/2-y,-z
1/2+x,1/2-y,z
loop_
_atom_site_type_symbol
_atom_site_label
_atom_site_fract_x
_atom_site_fract_y
_atom_site_fract_z
Si Si1 0.528767 0.190882 0.317014
Si Si2 0.183659 0.245700 0.772232
Si Si3 0.448583 0.117622 0.978199
Si Si4 0.935110 0.115745 0.446259
Si Si5 0.749400 0.878775 0.138067
Si Si6 0.153739 0.782074 0.212990
Si Si7 0.192089 0.879034 0.510395
O O1 0.500000 0.157647 0.500000
O O2 0.491328 0.297225 0.347096
O O3 0.607331 0.216025 0.202404
O O4 0.520656 0.123562 0.210102
O O5 0.113449 0.303555 0.910381
O O6 0.201566 0.160230 0.841071
O O7 0.184082 0.186841 0.644704
O O8 0.244403 0.329378 0.667715
O O9 0.424873 0.000000 0.038521
O O10 0.500000 0.141072 0.000000
O O11 0.895206 0.138515 0.637471
O O12 0.877356 0.128101 0.444702
O O13 0.962352 0.000000 0.394888
O O14 0.684489 0.804045 0.249817
O O15 0.734595 0.000000 0.169902
O O16 0.787576 0.847059 0.949974
O O17 0.205004 0.000000 0.512298
#
# Coordination Sequence:
#
# PCOD9201209 Si02
#       7
#     8   8   8   8   8   8   8
#     4  10  22  40  63  89 127 162 209 258 305 365
#     4  11  21  40  63  86 124 159 202 254 302 375
#     4  11  24  43  65  90 123 169 212 255 313 372
#     4  10  20  37  61  88 121 161 201 247 304 363
#     4  11  22  37  60  90 121 157 198 251 309 362
#     4  10  21  39  56  89 121 159 199 253 297 366
#     4  10  21  37  62  92 120 155 200 253 311 365
#
# _framework density 19.622478000000001
#
# number of rings (size 3 to 8) (size 9 to 14) (size 15 to 20)
#    0.000    1.571    2.857    2.143    0.000    4.000 
#    0.000    2.143    0.000    3.000    0.000    0.000 
#    0.000    0.000    0.000    0.000    0.000    0.000 
#
# Total GULP energy -156183.511101 kJ/mol
# GULP energy per Si atom -5577.982539 kJ/mol
# Density = 1.957782 g / cm^3
# Si number density = 19.622478 Si / 1000 Ang^3
#
#
#
# Elastic Constant Matrix: (Units=GPa)
#
#
# Indices 1 2 3 4 5 6 
#
# 1 91.1931 34.0608 12.6960 0.0000 11.7698 0.0000
# 2 34.0608 95.1635 29.1165 0.0000 3.7506 0.0000
# 3 12.6960 29.1165 38.8972 0.0000 6.6994 0.0000
# 4 0.0000 0.0000 0.0000 21.5130 0.0000 0.5911
# 5 11.7698 3.7506 6.6994 0.0000 25.5893 0.0000
# 6 0.0000 0.0000 0.0000 0.5911 0.0000 22.0188
#
#
#
# Elastic Compliance Matrix: (Units=1/GPa)
#
#
# Indices 1 2 3 4 5 6 
#
# 1 0.013382 -0.004574 0.000000 0.000000 -0.005485 0.000000
# 2 -0.004574 0.015205 -0.010333 0.000000 0.002580 0.000000
# 3 0.000000 -0.010333 0.034750 0.000000 -0.007583 0.000000
# 4 0.000000 0.000000 0.000000 0.046518 0.000000 -0.001249
# 5 -0.005485 0.002580 -0.007583 0.000000 0.043209 0.000000
# 6 0.000000 0.000000 0.000000 -0.001249 0.000000 0.045449
#
#
# Mechanical properties :
#
#
# Convention : Reuss Voigt Hill
#
# Bulk Modulus (GPa) = 29.82978 41.88896 35.85937
# Shear Modulus (GPa) = 20.87680 23.78292 22.32986
#
# Velocity S-wave (km/s) = 3.26532 3.48519 3.37705
# Velocity P-wave (km/s) = 5.42690 6.13100 5.78967
#
# Compressibility (1/GPa) = 0.03352354
#
# Stress axis : x y z
#
# Youngs Moduli (GPa) = 74.72841 65.76725 28.77710
#
# Poissons Ratio (x) = 0.30079 -0.00001
# Poissons Ratio (y) = 0.34177 0.29737
# Poissons Ratio (z) = -0.00003 0.67960
#
# Static dielectric constant tensor:
#      x y z
#    x 1.711530 0.000000 0.021850 
#    y 0.000000 1.647230 0.000000 
#    z 0.021850 0.000000 1.705380 
# 
# From -- ./inp_files/164870.got.cif
#   From: 2010.05.17/outbox.cif.g08.bks.cpg/sg12_83_cif.got.tgz:164870.got - 2010.06.03 13:09:07.
