data_PCOD9201656
_publ_section_title
;
Structure prediction by ZEFSAII (Michael W. Deem and Ramdas Pophale) SiO2 
 PCOD9201656
Probable space group: C 2/M
;
_chemical_formula_sum "Si O2"
_cell_formula_units_Z 40
_cell_length_a 14.333641
_cell_length_b 23.989900
_cell_length_c 9.275748
_cell_angle_alpha 90.000000
_cell_angle_beta 40.870592
_cell_angle_gamma 90.000000
_cell_volume 2087.112453
_symmetry_space_group_name_H-M "C 2/M"
_symmetry_group_IT_number 12
_symmetry_cell_setting 'monoclinic'
loop_
_space_group_symop_operation_xyz
x,y,z
-x,y,-z
-x,-y,-z
x,-y,z
1/2+x,1/2+y,z
1/2-x,1/2+y,-z
1/2-x,1/2-y,-z
1/2+x,1/2-y,z
loop_
_atom_site_type_symbol
_atom_site_label
_atom_site_fract_x
_atom_site_fract_y
_atom_site_fract_z
Si Si1 0.944794 0.563164 0.222401
Si Si2 0.141063 0.563341 0.252492
Si Si3 0.195071 0.323987 0.529125
Si Si4 0.133495 0.845816 0.944164
Si Si5 0.035335 0.775174 0.629404
O O1 0.883672 0.500000 0.298176
O O2 0.841778 0.611693 0.399455
O O3 0.085657 0.562140 0.155428
O O4 0.000000 0.576437 0.000000
O O5 0.165172 0.500000 0.276302
O O6 0.276845 0.601265 0.111419
O O7 0.000000 0.585332 0.500000
O O8 0.265757 0.314926 0.289078
O O9 0.054425 0.285814 0.680939
O O10 0.310834 0.303531 0.511314
O O11 0.000000 0.862242 0.000000
O O12 0.079352 0.809549 0.141865
O O13 0.000000 0.773886 0.500000
#
# Coordination Sequence:
#
# PCOD9201656 Si02
#       5
#     8   8   8   8   8
#     4  10  22  38  62  92 120 155 201 253 304 356
#     4  10  20  37  63  92 119 157 206 250 302 363
#     4  10  22  41  61  87 125 159 201 252 303 364
#     4  10  22  40  60  88 124 159 204 251 304 364
#     4  10  24  40  60  90 121 163 206 247 304 361
#
# _framework density 19.165236
#
# number of rings (size 3 to 8) (size 9 to 14) (size 15 to 20)
#    0.000    2.000    2.000    0.000    5.600    5.200 
#    0.000    3.000    0.000    1.200    0.000    0.000 
#    0.000    0.000    0.000    0.000    0.000    0.000 
#
# Total GULP energy -111483.493362 kJ/mol
# GULP energy per Si atom -5574.174668 kJ/mol
# Density = 1.912162 g / cm^3
# Si number density = 19.165236 Si / 1000 Ang^3
#
#
#
# Elastic Constant Matrix: (Units=GPa)
#
#
# Indices 1 2 3 4 5 6 
#
# 1 77.3712 25.4168 41.0133 0.0000 22.6934 0.0000
# 2 25.4168 99.2759 52.4166 0.0000 -10.4034 0.0000
# 3 41.0133 52.4166 92.4464 0.0000 12.3856 0.0000
# 4 0.0000 0.0000 0.0000 29.7045 0.0000 -14.5435
# 5 22.6934 -10.4034 12.3856 0.0000 30.4974 0.0000
# 6 0.0000 0.0000 0.0000 -14.5435 0.0000 28.7019
#
#
#
# Elastic Compliance Matrix: (Units=1/GPa)
#
#
# Indices 1 2 3 4 5 6 
#
# 1 0.021622 -0.004599 -0.004885 0.000000 -0.015674 0.000000
# 2 -0.004599 0.017920 -0.009938 0.000000 0.013571 0.000000
# 3 -0.004885 -0.009938 0.019656 0.000000 -0.007738 0.000000
# 4 0.000000 0.000000 0.000000 0.044772 0.000000 0.022687
# 5 -0.015674 0.013571 -0.007738 0.000000 0.052225 0.000000
# 6 0.000000 0.000000 0.000000 0.022687 0.000000 0.046336
#
#
# Mechanical properties :
#
#
# Convention : Reuss Voigt Hill
#
# Bulk Modulus (GPa) = 49.13197 56.30964 52.72081
# Shear Modulus (GPa) = 20.14817 27.79723 23.97270
#
# Velocity S-wave (km/s) = 3.24587 3.81254 3.54056
# Velocity P-wave (km/s) = 6.30391 6.98753 6.65450
#
# Compressibility (1/GPa) = 0.02035335
#
# Stress axis : x y z
#
# Youngs Moduli (GPa) = 46.24845 55.80374 50.87520
#
# Poissons Ratio (x) = 0.25665 0.24852
# Poissons Ratio (y) = 0.21270 0.50562
# Poissons Ratio (z) = 0.22592 0.55460
#
# Static dielectric constant tensor:
#      x y z
#    x 1.689580 0.000000 0.014520 
#    y 0.000000 1.720150 0.000000 
#    z 0.014520 0.000000 1.691390 
# 
# From -- ./inp_files/52351.got.cif
#   From: 2010.05.17/outbox.cif.g08.bks.cpg/sg12_27_cif.got.tgz:52351.got - 2010.06.03 13:09:07.
