data_PCOD9201496
_publ_section_title
;
Structure prediction by ZEFSAII (Michael W. Deem and Ramdas Pophale) SiO2 
 PCOD9201496
Probable space group: C 2/M
;
_chemical_formula_sum "Si O2"
_cell_formula_units_Z 56
_cell_length_a 15.158874
_cell_length_b 8.579286
_cell_length_c 25.089596
_cell_angle_alpha 90.000000
_cell_angle_beta 117.505088
_cell_angle_gamma 90.000000
_cell_volume 2894.147109
_symmetry_space_group_name_H-M "C 2/M"
_symmetry_group_IT_number 12
_symmetry_cell_setting 'monoclinic'
loop_
_space_group_symop_operation_xyz
x,y,z
-x,y,-z
-x,-y,-z
x,-y,z
1/2+x,1/2+y,z
1/2-x,1/2+y,-z
1/2-x,1/2-y,-z
1/2+x,1/2-y,z
loop_
_atom_site_type_symbol
_atom_site_label
_atom_site_fract_x
_atom_site_fract_y
_atom_site_fract_z
Si Si1 0.325875 0.687700 0.565449
Si Si2 0.842406 0.812239 0.991244
Si Si3 0.311057 0.184556 0.787215
Si Si4 0.973247 0.187583 0.121655
Si Si5 0.744050 0.814540 0.655877
Si Si6 0.469668 0.687226 0.430621
Si Si7 0.788415 0.687067 0.139393
O O1 0.319036 0.500000 0.562482
O O2 0.250000 0.750000 0.500000
O O3 0.297997 0.740823 0.616812
O O4 0.436997 0.730585 0.579793
O O5 0.810174 0.233688 0.922784
O O6 0.843763 0.000000 0.992233
O O7 0.750000 0.250000 0.000000
O O8 0.938617 0.237187 0.052007
O O9 0.421290 0.243868 0.832564
O O10 0.284581 0.234622 0.720073
O O11 0.232531 0.257780 0.806904
O O12 0.307250 0.000000 0.791325
O O13 0.885210 0.241096 0.137426
O O14 0.979374 0.000000 0.124421
O O15 0.257826 0.500000 0.664758
O O16 0.628920 0.774200 0.614600
O O17 0.500000 0.722885 0.500000
O O18 0.453252 0.500000 0.422870
O O19 0.797622 0.500000 0.140108
#
# Coordination Sequence:
#
# PCOD9201496 Si02
#       7
#     8   8   8   8   8   8   8
#     4  10  21  37  61  90 119 150 185 229 285 344
#     4   8  16  31  56  87 118 153 194 245 303 359
#     4  12  26  42  59  83 118 164 210 254 303 360
#     4  10  20  38  62  89 122 159 200 249 304 364
#     4  11  24  41  60  86 119 154 198 249 296 354
#     4  10  20  37  62  90 121 154 186 229 288 355
#     4  10  20  38  62  89 121 157 201 252 306 364
#
# _framework density 19.349395999999999
#
# number of rings (size 3 to 8) (size 9 to 14) (size 15 to 20)
#    0.000    1.857    1.429    2.571    0.000    4.286 
#    0.000    7.143    0.000    0.000    0.000    0.000 
#    0.000    0.000    0.000    0.000    0.000    0.000 
#
# Total GULP energy -156343.451167 kJ/mol
# GULP energy per Si atom -5583.694685 kJ/mol
# Density = 1.930536 g / cm^3
# Si number density = 19.349396 Si / 1000 Ang^3
#
#
#
# Elastic Constant Matrix: (Units=GPa)
#
#
# Indices 1 2 3 4 5 6 
#
# 1 73.7074 3.8105 12.3084 0.0000 -9.9750 0.0000
# 2 3.8105 34.4941 9.0861 0.0000 -0.4513 0.0000
# 3 12.3084 9.0861 73.3326 0.0000 -13.7103 0.0000
# 4 0.0000 0.0000 0.0000 28.6143 0.0000 4.5733
# 5 -9.9750 -0.4513 -13.7103 0.0000 33.3714 0.0000
# 6 0.0000 0.0000 0.0000 4.5733 0.0000 27.7825
#
#
#
# Elastic Compliance Matrix: (Units=1/GPa)
#
#
# Indices 1 2 3 4 5 6 
#
# 1 0.014383 -0.001121 -0.001597 0.000000 0.003628 0.000000
# 2 -0.001121 0.030101 -0.003822 0.000000 -0.001498 0.000000
# 3 -0.001597 -0.003822 0.015467 0.000000 0.005826 0.000000
# 4 0.000000 0.000000 0.000000 0.035892 0.000000 -0.005908
# 5 0.003628 -0.001498 0.005826 0.000000 0.033423 0.000000
# 6 0.000000 0.000000 0.000000 -0.005908 0.000000 0.036966
#
#
# Mechanical properties :
#
#
# Convention : Reuss Voigt Hill
#
# Bulk Modulus (GPa) = 21.33436 25.77157 23.55297
# Shear Modulus (GPa) = 25.64951 28.37559 27.01255
#
# Velocity S-wave (km/s) = 3.64483 3.83362 3.74042
# Velocity P-wave (km/s) = 5.36310 5.73965 5.55456
#
# Compressibility (1/GPa) = 0.04687274
#
# Stress axis : x y z
#
# Youngs Moduli (GPa) = 69.52779 33.22114 64.65301
#
# Poissons Ratio (x) = 0.03723 0.10325
# Poissons Ratio (y) = 0.07792 0.24708
# Poissons Ratio (z) = 0.11103 0.12696
#
# Static dielectric constant tensor:
#      x y z
#    x 1.661900 0.000000 -0.013230 
#    y 0.000000 1.665660 0.000000 
#    z -0.013230 0.000000 1.671800 
# 
# From -- ./inp_files/339065.got.cif
#   From: 2010.05.17/outbox.cif.g08.bks.cpg/sg12_170_cif.got.tgz:339065.got - 2010.06.03 13:09:07.
