data_PCOD9201949
_publ_section_title
;
Structure prediction by ZEFSAII (Michael W. Deem and Ramdas Pophale) SiO2 
 PCOD9201949
Probable space group: C 2/M
;
_chemical_formula_sum "Si O2"
_cell_formula_units_Z 58
_cell_length_a 8.284559
_cell_length_b 23.150872
_cell_length_c 16.944441
_cell_angle_alpha 90.000000
_cell_angle_beta 129.134064
_cell_angle_gamma 90.000000
_cell_volume 2520.819363
_symmetry_space_group_name_H-M "C 2/M"
_symmetry_group_IT_number 12
_symmetry_cell_setting 'monoclinic'
loop_
_space_group_symop_operation_xyz
x,y,z
-x,y,-z
-x,-y,-z
x,-y,z
1/2+x,1/2+y,z
1/2-x,1/2+y,-z
1/2-x,1/2-y,-z
1/2+x,1/2-y,z
loop_
_atom_site_type_symbol
_atom_site_label
_atom_site_fract_x
_atom_site_fract_y
_atom_site_fract_z
Si Si1 0.064827 0.899370 0.656150
Si Si2 0.430489 0.270783 0.182245
Si Si3 0.658337 0.828313 0.720116
Si Si4 0.689430 0.815796 0.496745
Si Si5 0.000000 0.000000 0.500000
Si Si6 0.581184 0.563506 0.212124
Si Si7 0.831246 0.561737 0.017979
Si Si8 0.080144 0.666922 0.145080
O O1 0.063607 0.948588 0.587431
O O2 0.268978 0.860069 0.740032
O O3 0.884598 0.854569 0.576796
O O4 0.999828 0.925268 0.722921
O O5 0.374427 0.221918 0.227630
O O6 0.651374 0.299977 0.272451
O O7 0.250049 0.318896 0.128296
O O8 0.472071 0.229419 0.121347
O O9 0.432728 0.839661 0.616109
O O10 0.759197 0.889188 0.769743
O O11 0.500000 0.817997 0.500000
O O12 0.750000 0.750000 0.500000
O O13 0.676921 0.500000 0.241755
O O14 0.389229 0.564635 0.092572
O O15 0.844723 0.500000 0.066636
O O16 0.000000 0.558876 0.000000
O O17 0.902165 0.619224 0.083184
#
# Coordination Sequence:
#
# PCOD9201949 Si02
#       8
#     8   8   8   8   2   8   8   8
#     4  12  25  44  66  95 139 176 223 285 332 401
#     4  10  22  40  68  97 140 173 220 272 344 393
#     4  11  21  42  62  97 130 178 220 272 334 399
#     4  12  24  39  66  97 130 178 226 273 340 410
#     4  12  32  44  62 106 136 182 232 286 358 376
#     4  11  22  44  68  93 132 174 226 279 324 403
#     4  10  20  37  71 102 121 178 234 267 335 400
#     4  11  22  43  70 100 140 175 218 285 332 410
#
# _framework density 23.008392000000001
#
# number of rings (size 3 to 8) (size 9 to 14) (size 15 to 20)
#    0.000    0.966    4.828    2.483    3.862    0.000 
#    1.241   10.000    0.000    1.655    0.000    0.000 
#    0.000    0.000    0.000    0.000    0.000    0.000 
#
# Total GULP energy -161455.147279 kJ/mol
# GULP energy per Si atom -5567.418872 kJ/mol
# Density = 2.295602 g / cm^3
# Si number density = 23.008392 Si / 1000 Ang^3
#
#
#
# Elastic Constant Matrix: (Units=GPa)
#
#
# Indices 1 2 3 4 5 6 
#
# 1 35.8773 16.9114 10.2204 0.0000 -4.5484 0.0000
# 2 16.9114 177.3441 59.4463 0.0000 14.1698 0.0000
# 3 10.2204 59.4463 105.3646 0.0000 19.9114 0.0000
# 4 0.0000 0.0000 0.0000 53.0088 0.0000 24.3358
# 5 -4.5484 14.1698 19.9114 0.0000 13.1101 0.0000
# 6 0.0000 0.0000 0.0000 24.3358 0.0000 106.9638
#
#
#
# Elastic Compliance Matrix: (Units=1/GPa)
#
#
# Indices 1 2 3 4 5 6 
#
# 1 0.034272 -0.003161 -0.006218 0.000000 0.024752 0.000000
# 2 -0.003161 0.007290 -0.002960 0.000000 -0.004481 0.000000
# 3 -0.006218 -0.002960 0.016223 0.000000 -0.023598 0.000000
# 4 0.000000 0.000000 0.000000 0.021065 0.000000 -0.004793
# 5 0.024752 -0.004481 -0.023598 0.000000 0.125549 0.000000
# 6 0.000000 0.000000 0.000000 -0.004793 0.000000 0.010439
#
#
# Mechanical properties :
#
#
# Convention : Reuss Voigt Hill
#
# Bulk Modulus (GPa) = 30.20470 54.63801 42.42136
# Shear Modulus (GPa) = 19.95578 50.08372 35.01975
#
# Velocity S-wave (km/s) = 2.94824 4.67064 3.90557
# Velocity P-wave (km/s) = 4.97450 7.27221 6.23019
#
# Compressibility (1/GPa) = 0.03310743
#
# Stress axis : x y z
#
# Youngs Moduli (GPa) = 29.17804 137.16690 61.63952
#
# Poissons Ratio (x) = 0.43365 0.38329
# Poissons Ratio (y) = 0.09225 0.18243
# Poissons Ratio (z) = 0.18143 0.40597
#
# Static dielectric constant tensor:
#      x y z
#    x 1.963580 0.000000 -0.087880 
#    y 0.000000 1.881570 0.000000 
#    z -0.087880 0.000000 1.930300 
# 
# From -- ./inp_files/302480.got.cif
#   From: 2010.05.17/outbox.cif.g08.bks.cpg/sg12_152_cif.got.tgz:302480.got - 2010.06.03 13:09:07.
