data_PCOD9201451
_publ_section_title
;
Structure prediction by ZEFSAII (Michael W. Deem and Ramdas Pophale) SiO2 
 PCOD9201451
Probable space group: C 2/M
;
_chemical_formula_sum "Si O2"
_cell_formula_units_Z 64
_cell_length_a 33.974875
_cell_length_b 9.040161
_cell_length_c 20.496665
_cell_angle_alpha 90.000000
_cell_angle_beta 32.194431
_cell_angle_gamma 90.000000
_cell_volume 3354.104444
_symmetry_space_group_name_H-M "C 2/M"
_symmetry_group_IT_number 12
_symmetry_cell_setting 'monoclinic'
loop_
_space_group_symop_operation_xyz
x,y,z
-x,y,-z
-x,-y,-z
x,-y,z
1/2+x,1/2+y,z
1/2-x,1/2+y,-z
1/2-x,1/2-y,-z
1/2+x,1/2-y,z
loop_
_atom_site_type_symbol
_atom_site_label
_atom_site_fract_x
_atom_site_fract_y
_atom_site_fract_z
Si Si1 0.053174 0.321258 0.987052
Si Si2 0.212244 0.831413 0.992117
Si Si3 0.774281 0.320332 0.273898
Si Si4 0.206728 0.822936 0.231564
Si Si5 0.971059 0.820878 0.226182
Si Si6 0.799538 0.178366 0.485769
Si Si7 0.459786 0.332729 0.735648
Si Si8 0.068601 0.666926 0.355925
O O1 0.053232 0.500000 0.993826
O O2 0.016859 0.250756 0.102753
O O3 0.139064 0.274525 0.854202
O O4 0.000000 0.284645 0.000000
O O5 0.228326 0.737866 0.905318
O O6 0.239323 0.000000 0.947755
O O7 0.250000 0.750000 0.000000
O O8 0.126046 0.839625 0.126069
O O9 0.775705 0.500000 0.272306
O O10 0.726372 0.276101 0.277658
O O11 0.732701 0.273284 0.398449
O O12 0.133797 0.756693 0.299976
O O13 0.202638 0.000000 0.234927
O O14 0.884278 0.783950 0.350058
O O15 0.000418 0.773364 0.256062
O O16 0.979273 0.000000 0.210510
O O17 0.750000 0.250000 0.500000
O O18 0.794297 0.000000 0.491676
O O19 0.487719 0.500000 0.683697
O O20 0.461020 0.239495 0.668566
O O21 0.093940 0.500000 0.307047
O O22 0.000000 0.662718 0.500000
#
# Coordination Sequence:
#
# PCOD9201451 Si02
#       8
#     8   8   8   8   8   8   8   8
#     4  10  20  37  62  89 119 157 197 239 291 356
#     4  11  21  35  56  83 116 151 191 240 290 345
#     4   9  20  37  59  88 119 155 199 242 289 348
#     4  11  22  37  60  86 113 154 199 241 292 347
#     4  10  22  38  60  90 121 153 194 246 296 345
#     4  10  21  40  63  88 119 153 194 242 293 353
#     4  10  22  39  60  86 114 153 198 236 289 352
#     4  11  25  41  57  81 115 154 195 245 296 345
#
# _framework density 19.081099999999999
#
# number of rings (size 3 to 8) (size 9 to 14) (size 15 to 20)
#    0.000    1.750    1.250    2.625    1.750    3.750 
#    0.000    2.500    0.000    0.000    0.000    0.000 
#    0.000    0.000    0.000    0.000    0.000    0.000 
#
# Total GULP energy -178591.336110 kJ/mol
# GULP energy per Si atom -5580.979253 kJ/mol
# Density = 1.903767 g / cm^3
# Si number density = 19.081100 Si / 1000 Ang^3
#
#
#
# Elastic Constant Matrix: (Units=GPa)
#
#
# Indices 1 2 3 4 5 6 
#
# 1 115.2325 33.5968 23.0663 -0.0055 25.6449 0.0041
# 2 33.5968 50.0613 19.3806 -0.0067 10.5217 0.0061
# 3 23.0663 19.3806 88.1875 -0.0090 22.6600 0.0071
# 4 -0.0055 -0.0067 -0.0090 25.7022 0.0037 8.5339
# 5 25.6449 10.5217 22.6600 0.0037 36.6978 -0.0024
# 6 0.0041 0.0061 0.0071 8.5339 -0.0024 18.6713
#
#
#
# Elastic Compliance Matrix: (Units=1/GPa)
#
#
# Indices 1 2 3 4 5 6 
#
# 1 0.012096 -0.006746 -0.000008 0.000003 -0.006514 -0.000002
# 2 -0.006746 0.026080 -0.003871 0.000007 -0.000373 -0.000009
# 3 -0.000008 -0.003871 0.014151 0.000008 -0.007623 -0.000009
# 4 0.000003 0.000007 0.000008 0.045868 -0.000015 -0.020965
# 5 -0.006514 -0.000373 -0.007623 -0.000015 0.036616 0.000016
# 6 -0.000002 -0.000009 -0.000009 -0.020965 0.000016 0.063140
#
#
# Mechanical properties :
#
#
# Convention : Reuss Voigt Hill
#
# Bulk Modulus (GPa) = 32.17738 45.06319 38.62029
# Shear Modulus (GPa) = 21.78089 28.04342 24.91216
#
# Velocity S-wave (km/s) = 3.38226 3.83782 3.61722
# Velocity P-wave (km/s) = 5.67036 6.58076 6.14245
#
# Compressibility (1/GPa) = 0.03107773
#
# Stress axis : x y z
#
# Youngs Moduli (GPa) = 82.67098 38.34384 70.66704
#
# Poissons Ratio (x) = 0.25866 0.00053
# Poissons Ratio (y) = 0.55769 0.27357
# Poissons Ratio (z) = 0.00062 0.14844
#
# Static dielectric constant tensor:
#      x y z
#    x 1.606410 0.000000 -0.000660 
#    y 0.000000 1.659390 0.000000 
#    z -0.000660 0.000000 1.658810 
# 
# From -- ./inp_files/295495.got.cif
#   From: 2010.05.17/outbox.cif.g08.bks.cpg/sg12_148_cif.got.tgz:295495.got - 2010.06.03 13:09:07.
