data_PCOD9201814
_publ_section_title
;
Structure prediction by ZEFSAII (Michael W. Deem and Ramdas Pophale) SiO2 
 PCOD9201814
Probable space group: C 2/M
;
_chemical_formula_sum "Si O2"
_cell_formula_units_Z 64
_cell_length_a 28.821009
_cell_length_b 14.109468
_cell_length_c 11.032902
_cell_angle_alpha 90.000000
_cell_angle_beta 140.878932
_cell_angle_gamma 90.000000
_cell_volume 2830.819512
_symmetry_space_group_name_H-M "C 2/M"
_symmetry_group_IT_number 12
_symmetry_cell_setting 'monoclinic'
loop_
_space_group_symop_operation_xyz
x,y,z
-x,y,-z
-x,-y,-z
x,-y,z
1/2+x,1/2+y,z
1/2-x,1/2+y,-z
1/2-x,1/2-y,-z
1/2+x,1/2-y,z
loop_
_atom_site_type_symbol
_atom_site_label
_atom_site_fract_x
_atom_site_fract_y
_atom_site_fract_z
Si Si1 0.414563 0.895317 0.032041
Si Si2 0.670102 0.106581 0.610278
Si Si3 0.276371 0.847943 0.897968
Si Si4 0.687983 0.638241 0.952131
Si Si5 0.967177 0.893538 0.247824
Si Si6 0.924299 0.203685 0.914606
Si Si7 0.964379 0.695911 0.556384
Si Si8 0.805418 0.774785 0.505543
O O1 0.489017 0.862224 0.249724
O O2 0.421825 0.000000 0.991281
O O3 0.348932 0.899600 0.997508
O O4 0.397382 0.805694 0.911102
O O5 0.753490 0.103546 0.828447
O O6 0.618461 0.159415 0.603070
O O7 0.664750 0.174875 0.484693
O O8 0.644963 0.000000 0.538402
O O9 0.307759 0.750855 0.018743
O O10 0.229941 0.824369 0.682786
O O11 0.222708 0.888177 0.892761
O O12 0.604389 0.609824 0.809348
O O13 0.022915 0.807839 0.392253
O O14 0.997594 0.000000 0.311572
O O15 0.935512 0.865074 0.051286
O O16 0.868658 0.166814 0.700291
O O17 0.000000 0.220078 0.000000
O O18 0.000000 0.675525 0.500000
O O19 0.750000 0.750000 0.500000
#
# Coordination Sequence:
#
# PCOD9201814 Si02
#       8
#     8   8   8   8   8   8   8   8
#     4  11  22  39  61  94 135 176 218 262 326 400
#     4  11  24  40  67 105 137 175 223 272 333 404
#     4  10  20  37  64  95 128 176 212 267 333 391
#     4  10  20  39  69  97 132 168 217 273 335 393
#     4  11  24  45  71  97 126 174 230 276 337 403
#     4  11  23  43  65  94 128 176 223 273 332 388
#     4  11  24  41  65  97 136 178 211 271 336 395
#     4  11  21  40  66  91 133 178 221 272 327 388
#
# _framework density 22.608294999999998
#
# number of rings (size 3 to 8) (size 9 to 14) (size 15 to 20)
#    0.000    1.250    3.750    3.750    3.500    4.250 
#    0.000    0.625    0.000    0.750    0.000    0.000 
#    0.000    0.000    0.000    0.000    0.000    0.000 
#
# Total GULP energy -178875.677978 kJ/mol
# GULP energy per Si atom -5589.864937 kJ/mol
# Density = 2.255684 g / cm^3
# Si number density = 22.608295 Si / 1000 Ang^3
#
#
#
# Elastic Constant Matrix: (Units=GPa)
#
#
# Indices 1 2 3 4 5 6 
#
# 1 99.3927 7.0444 -18.0223 0.0000 -3.4170 0.0000
# 2 7.0444 92.7765 -15.8019 0.0000 17.6470 0.0000
# 3 -18.0223 -15.8019 42.4197 0.0000 -9.2060 0.0000
# 4 0.0000 0.0000 0.0000 1.5745 0.0000 9.6208
# 5 -3.4170 17.6470 -9.2060 0.0000 35.2604 0.0000
# 6 0.0000 0.0000 0.0000 9.6208 0.0000 4.9014
#
#
#
# Elastic Compliance Matrix: (Units=1/GPa)
#
#
# Indices 1 2 3 4 5 6 
#
# 1 0.011114 -0.000476 0.005120 0.000000 0.002652 0.000000
# 2 -0.000476 0.012395 0.003242 0.000000 -0.005403 0.000000
# 3 0.005120 0.003242 0.028317 0.000000 0.006267 0.000000
# 4 0.000000 0.000000 0.000000 -0.057770 0.000000 0.113395
# 5 0.002652 -0.005403 0.006267 0.000000 0.032958 0.000000
# 6 0.000000 0.000000 0.000000 0.113395 0.000000 -0.018558
#
#
# Mechanical properties :
#
#
# Convention : Reuss Voigt Hill
#
# Bulk Modulus (GPa) = 14.79322 20.11437 17.45380
# Shear Modulus (GPa) = 328.59554 25.77184 177.18369
#
# Velocity S-wave (km/s) = 12.06890 3.37995 8.86235
# Velocity P-wave (km/s) = 14.16929 4.91409 10.60464
#
# Compressibility (1/GPa) = 0.06759853
#
# Stress axis : x y z
#
# Youngs Moduli (GPa) = 89.97286 80.67984 35.31439
#
# Poissons Ratio (x) = 0.03843 -0.18082
# Poissons Ratio (y) = 0.04285 -0.11450
# Poissons Ratio (z) = -0.46068 -0.26159
#
# Static dielectric constant tensor:
#      x y z
#    x 1.841250 0.000000 0.018770 
#    y 0.000000 1.779200 0.000000 
#    z 0.018770 0.000000 1.825640 
# 
# From -- ./inp_files/183864.got.cif
#   From: 2010.05.17/outbox.cif.g08.bks.cpg/sg12_92_cif.got.tgz:183864.got - 2010.06.03 13:09:07.
