data_PCOD9201849
_publ_section_title
;
Structure prediction by ZEFSAII (Michael W. Deem and Ramdas Pophale) SiO2 
 PCOD9201849
Probable space group: C 2/M
;
_chemical_formula_sum "Si O2"
_cell_formula_units_Z 48
_cell_length_a 19.148181
_cell_length_b 14.097688
_cell_length_c 16.357309
_cell_angle_alpha 90.000000
_cell_angle_beta 146.024316
_cell_angle_gamma 90.000000
_cell_volume 2467.604474
_symmetry_space_group_name_H-M "C 2/M"
_symmetry_group_IT_number 12
_symmetry_cell_setting 'monoclinic'
loop_
_space_group_symop_operation_xyz
x,y,z
-x,y,-z
-x,-y,-z
x,-y,z
1/2+x,1/2+y,z
1/2-x,1/2+y,-z
1/2-x,1/2-y,-z
1/2+x,1/2-y,z
loop_
_atom_site_type_symbol
_atom_site_label
_atom_site_fract_x
_atom_site_fract_y
_atom_site_fract_z
Si Si1 0.464598 0.299591 0.839994
Si Si2 0.038831 0.607243 0.652881
Si Si3 0.445079 0.890332 0.734358
Si Si4 0.108805 0.791809 0.554738
Si Si5 0.708729 0.324312 0.178353
Si Si6 0.162762 0.110951 0.436909
O O1 0.455725 0.186177 0.816563
O O2 0.368382 0.344716 0.812857
O O3 0.425756 0.341058 0.715197
O O4 0.602883 0.319219 0.006927
O O5 0.989823 0.500000 0.592343
O O6 0.174996 0.615376 0.743124
O O7 0.042750 0.622714 0.754817
O O8 0.949627 0.689676 0.530610
O O9 0.309410 0.874585 0.560281
O O10 0.449319 0.000000 0.765958
O O11 0.222169 0.772310 0.726466
O O12 0.144755 0.845828 0.508650
O O13 0.000000 0.841524 0.500000
O O14 0.137828 0.000000 0.413443
#
# Coordination Sequence:
#
# PCOD9201849 Si02
#       6
#     8   8   8   8   8   8
#     4  11  21  40  61  89 125 160 200 249 312 359
#     4  10  21  38  62  91 118 154 204 250 298 358
#     4  10  20  37  65  90 113 156 208 253 293 352
#     4  10  20  39  61  88 119 162 203 251 301 353
#     4  10  23  36  60  88 125 162 191 251 310 358
#     4  11  22  38  63  89 120 164 209 248 295 367
#
# _framework density 19.452064
#
# number of rings (size 3 to 8) (size 9 to 14) (size 15 to 20)
#    0.000    1.667    3.333    1.500    0.000    5.333 
#    0.000    4.167    0.000    0.000    0.000    0.000 
#    0.000    0.000    0.000    0.000    0.000    0.000 
#
# Total GULP energy -133766.111803 kJ/mol
# GULP energy per Si atom -5573.587992 kJ/mol
# Density = 1.940779 g / cm^3
# Si number density = 19.452064 Si / 1000 Ang^3
#
#
#
# Elastic Constant Matrix: (Units=GPa)
#
#
# Indices 1 2 3 4 5 6 
#
# 1 107.6535 22.8596 14.7862 0.0000 3.3759 0.0000
# 2 22.8596 64.8226 8.4914 0.0000 -2.6485 0.0000
# 3 14.7862 8.4914 57.2722 0.0000 8.6658 0.0000
# 4 0.0000 0.0000 0.0000 1.1450 0.0000 4.6442
# 5 3.3759 -2.6485 8.6658 0.0000 23.4652 0.0000
# 6 0.0000 0.0000 0.0000 4.6442 0.0000 22.5047
#
#
#
# Elastic Compliance Matrix: (Units=1/GPa)
#
#
# Indices 1 2 3 4 5 6 
#
# 1 0.010325 -0.003428 -0.001985 0.000000 -0.001139 0.000000
# 2 -0.003428 0.017045 -0.002127 0.000000 0.003202 0.000000
# 3 -0.001985 -0.002127 0.019363 0.000001 -0.007105 0.000000
# 4 0.000000 0.000000 0.000001 5.359464 0.000002 -1.106016
# 5 -0.001139 0.003202 -0.007105 0.000002 0.045766 0.000000
# 6 0.000000 0.000000 0.000000 -1.106016 0.000000 0.272680
#
#
# Mechanical properties :
#
#
# Convention : Reuss Voigt Hill
#
# Bulk Modulus (GPa) = 31.59114 35.78030 33.68572
# Shear Modulus (GPa) = 0.86952 21.66374 11.26663
#
# Velocity S-wave (km/s) = 0.66931 3.34083 2.40927
# Velocity P-wave (km/s) = 4.10768 5.77196 5.00942
#
# Compressibility (1/GPa) = 0.03165445
#
# Stress axis : x y z
#
# Youngs Moduli (GPa) = 96.84944 58.66847 51.64378
#
# Poissons Ratio (x) = 0.20110 0.10252
# Poissons Ratio (y) = 0.33197 0.10983
# Poissons Ratio (z) = 0.19226 0.12477
#
# Static dielectric constant tensor:
#      x y z
#    x 1.732060 0.000000 0.013130 
#    y 0.000000 1.681030 0.000000 
#    z 0.013130 0.000000 1.665760 
# 
# From -- ./inp_files/225435.got.cif
#   From: 2010.05.17/outbox.cif.g08.bks.cpg/sg12_113_cif.got.tgz:225435.got - 2010.06.03 13:09:07.
