data_PCOD9201432
_publ_section_title
;
Structure prediction by ZEFSAII (Michael W. Deem and Ramdas Pophale) SiO2 
 PCOD9201432
Probable space group: C 2/M
;
_chemical_formula_sum "Si O2"
_cell_formula_units_Z 64
_cell_length_a 31.618610
_cell_length_b 7.782071
_cell_length_c 15.358197
_cell_angle_alpha 90.000000
_cell_angle_beta 50.730880
_cell_angle_gamma 90.000000
_cell_volume 2925.640537
_symmetry_space_group_name_H-M "C 2/M"
_symmetry_group_IT_number 12
_symmetry_cell_setting 'monoclinic'
loop_
_space_group_symop_operation_xyz
x,y,z
-x,y,-z
-x,-y,-z
x,-y,z
1/2+x,1/2+y,z
1/2-x,1/2+y,-z
1/2-x,1/2-y,-z
1/2+x,1/2-y,z
loop_
_atom_site_type_symbol
_atom_site_label
_atom_site_fract_x
_atom_site_fract_y
_atom_site_fract_z
Si Si1 0.252976 0.204971 0.394325
Si Si2 0.032130 0.195967 0.724757
Si Si3 0.521152 0.801984 0.378695
Si Si4 0.373525 0.298498 0.684991
Si Si5 0.540684 0.710671 0.024865
Si Si6 0.633573 0.711216 0.498797
Si Si7 0.752063 0.294235 0.894924
Si Si8 0.834373 0.795924 0.136853
O O1 0.250000 0.250000 0.500000
O O2 0.195308 0.268422 0.431222
O O3 0.302033 0.270745 0.269889
O O4 0.254362 0.000000 0.385206
O O5 0.091766 0.272377 0.627318
O O6 0.002716 0.197805 0.669932
O O7 0.990516 0.272504 0.847934
O O8 0.041997 0.000000 0.741151
O O9 0.500000 0.738461 0.500000
O O10 0.586606 0.791101 0.299025
O O11 0.504417 0.000000 0.390207
O O12 0.386041 0.500000 0.672679
O O13 0.385428 0.233629 0.571970
O O14 0.309837 0.273966 0.785170
O O15 0.543398 0.500000 0.021390
O O16 0.500000 0.759577 0.000000
O O17 0.603465 0.771730 0.938909
O O18 0.632950 0.500000 0.500360
O O19 0.752510 0.500000 0.887249
O O20 0.703158 0.229528 0.894993
O O21 0.750000 0.250000 0.000000
O O22 0.838943 0.000000 0.116576
#
# Coordination Sequence:
#
# PCOD9201432 Si02
#       8
#     8   8   8   8   8   8   8   8
#     4  11  23  40  63  93 122 157 200 251 312 371
#     4  10  20  37  62  89 115 155 206 254 299 360
#     4  11  23  37  54  85 125 161 194 243 306 365
#     4  11  21  38  61  85 117 158 206 256 303 361
#     4   9  20  38  64  91 117 155 206 258 303 351
#     4   9  19  35  59  89 117 149 201 255 305 363
#     4  11  24  40  60  90 126 165 207 253 311 371
#     4  10  22  41  63  92 126 160 205 258 307 366
#
# _framework density 21.875551000000002
#
# number of rings (size 3 to 8) (size 9 to 14) (size 15 to 20)
#    0.000    1.750    2.500    1.500    3.500    1.000 
#    0.000    1.875    0.000    0.750    0.000    0.000 
#    0.000    0.000    0.000    0.000    0.000    0.000 
#
# Total GULP energy -178684.876120 kJ/mol
# GULP energy per Si atom -5583.902379 kJ/mol
# Density = 2.182576 g / cm^3
# Si number density = 21.875551 Si / 1000 Ang^3
#
#
#
# Elastic Constant Matrix: (Units=GPa)
#
#
# Indices 1 2 3 4 5 6 
#
# 1 72.5727 -3.7361 59.4409 0.0000 -15.8991 0.0000
# 2 -3.7361 42.3984 -6.4410 -0.0001 -3.8908 -0.0001
# 3 59.4409 -6.4410 169.2286 0.0000 -18.5776 0.0000
# 4 0.0000 -0.0001 0.0000 21.1653 0.0000 4.2791
# 5 -15.8991 -3.8908 -18.5776 0.0000 43.2101 0.0000
# 6 0.0000 -0.0001 0.0000 4.2791 0.0000 -16.2567
#
#
#
# Elastic Compliance Matrix: (Units=1/GPa)
#
#
# Indices 1 2 3 4 5 6 
#
# 1 0.020240 0.001225 -0.006542 0.000000 0.004745 0.000000
# 2 0.001225 0.024090 0.000813 0.000000 0.002969 0.000000
# 3 -0.006542 0.000813 0.008377 0.000000 0.001268 0.000000
# 4 0.000000 0.000000 0.000000 0.044860 0.000000 0.011808
# 5 0.004745 0.002969 0.001268 0.000000 0.025701 0.000000
# 6 0.000000 0.000000 0.000000 0.011808 0.000000 -0.058405
#
#
# Mechanical properties :
#
#
# Convention : Reuss Voigt Hill
#
# Bulk Modulus (GPa) = 22.88404 42.52524 32.70464
# Shear Modulus (GPa) = 56.53756 25.28612 40.91184
#
# Velocity S-wave (km/s) = 5.08932 3.40355 4.32928
# Velocity P-wave (km/s) = 6.70959 5.90994 6.32242
#
# Compressibility (1/GPa) = 0.04369858
#
# Stress axis : x y z
#
# Youngs Moduli (GPa) = 49.40753 41.51158 119.37475
#
# Poissons Ratio (x) = -0.05086 0.78090
# Poissons Ratio (y) = -0.06053 -0.09699
# Poissons Ratio (z) = 0.32321 -0.03373
#
# Static dielectric constant tensor:
#      x y z
#    x 1.813850 0.000000 -0.011210 
#    y 0.000000 1.820270 0.000000 
#    z -0.011210 0.000000 1.810020 
# 
# From -- ./inp_files/249832.got.cif
#   From: 2010.05.17/outbox.cif.g08.bks.cpg/sg12_125_cif.got.tgz:249832.got - 2010.06.03 13:09:07.
