data_PCOD9201156
_publ_section_title
;
Structure prediction by ZEFSAII (Michael W. Deem and Ramdas Pophale) SiO2 
 PCOD9201156
Probable space group: C 2/M
;
_chemical_formula_sum "Si O2"
_cell_formula_units_Z 48
_cell_length_a 18.574000
_cell_length_b 8.848473
_cell_length_c 27.955529
_cell_angle_alpha 90.000000
_cell_angle_beta 146.159660
_cell_angle_gamma 90.000000
_cell_volume 2558.606696
_symmetry_space_group_name_H-M "C 2/M"
_symmetry_group_IT_number 12
_symmetry_cell_setting 'monoclinic'
loop_
_space_group_symop_operation_xyz
x,y,z
-x,y,-z
-x,-y,-z
x,-y,z
1/2+x,1/2+y,z
1/2-x,1/2+y,-z
1/2-x,1/2-y,-z
1/2+x,1/2-y,z
loop_
_atom_site_type_symbol
_atom_site_label
_atom_site_fract_x
_atom_site_fract_y
_atom_site_fract_z
Si Si1 0.737685 0.820269 0.253937
Si Si2 0.097963 0.680823 0.741162
Si Si3 0.797670 0.680305 0.097244
Si Si4 0.686592 0.681272 0.417565
Si Si5 0.151370 0.681323 0.588149
Si Si6 0.042161 0.179720 0.899115
O O1 0.828468 0.747993 0.263640
O O2 0.785540 0.763525 0.332021
O O3 0.591397 0.763918 0.165841
O O4 0.744203 0.000000 0.255045
O O5 0.087565 0.500000 0.730381
O O6 0.175609 0.714099 0.832862
O O7 0.956059 0.751502 0.667009
O O8 0.817534 0.500000 0.100828
O O9 0.896179 0.768419 0.117238
O O10 0.652902 0.715128 0.999395
O O11 0.680513 0.500000 0.418336
O O12 0.750000 0.750000 0.500000
O O13 0.773303 0.718433 0.419066
O O14 0.160942 0.500000 0.600907
O O15 0.000000 0.719576 0.500000
O O16 0.019978 0.000000 0.886623
#
# Coordination Sequence:
#
# PCOD9201156 Si02
#       6
#     8   8   8   8   8   8
#     4  12  25  39  58  86 119 154 196 242 290 346
#     4  11  23  40  60  83 117 156 196 243 293 345
#     4   9  20  38  61  88 116 152 196 240 289 345
#     4  11  23  39  62  91 121 154 193 236 285 343
#     4  10  22  41  64  89 118 153 192 235 287 345
#     4  10  20  37  61  87 118 154 193 239 291 346
#
# _framework density 18.760211999999999
#
# number of rings (size 3 to 8) (size 9 to 14) (size 15 to 20)
#    0.000    1.500    0.000    5.000    0.000    8.333 
#    0.000    3.333    0.000    0.000    0.000    0.000 
#    0.000    0.000    0.000    0.000    0.000    0.000 
#
# Total GULP energy -134218.095812 kJ/mol
# GULP energy per Si atom -5592.420659 kJ/mol
# Density = 1.871751 g / cm^3
# Si number density = 18.760212 Si / 1000 Ang^3
#
#
#
# Elastic Constant Matrix: (Units=GPa)
#
#
# Indices 1 2 3 4 5 6 
#
# 1 177.4564 87.4582 106.3641 0.0000 0.5451 0.0000
# 2 87.4582 81.8858 70.6766 0.0000 -2.9735 0.0000
# 3 106.3641 70.6766 124.5596 0.0000 2.6155 0.0000
# 4 0.0000 0.0000 0.0000 26.2444 0.0000 3.2155
# 5 0.5451 -2.9735 2.6155 0.0000 38.1821 0.0000
# 6 0.0000 0.0000 0.0000 3.2155 0.0000 31.5880
#
#
#
# Elastic Compliance Matrix: (Units=1/GPa)
#
#
# Indices 1 2 3 4 5 6 
#
# 1 0.014491 -0.009450 -0.007002 0.000000 -0.000463 0.000000
# 2 -0.009450 0.030398 -0.009244 0.000000 0.003135 0.000000
# 3 -0.007002 -0.009244 0.019294 0.000000 -0.001942 0.000000
# 4 0.000000 0.000000 0.000000 0.038585 0.000000 -0.003928
# 5 -0.000463 0.003135 -0.001942 0.000000 0.026574 0.000000
# 6 0.000000 0.000000 0.000000 -0.003928 0.000000 0.032057
#
#
# Mechanical properties :
#
#
# Convention : Reuss Voigt Hill
#
# Bulk Modulus (GPa) = 78.19058 101.43328 89.81193
# Shear Modulus (GPa) = 23.03539 27.16310 25.09924
#
# Velocity S-wave (km/s) = 3.50792 3.80927 3.66170
# Velocity P-wave (km/s) = 7.62737 8.57514 8.11510
#
# Compressibility (1/GPa) = 0.01278926
#
# Stress axis : x y z
#
# Youngs Moduli (GPa) = 69.00704 32.89645 51.82958
#
# Poissons Ratio (x) = 0.31088 0.36293
# Poissons Ratio (y) = 0.65214 0.47914
# Poissons Ratio (z) = 0.48322 0.30411
#
# Static dielectric constant tensor:
#      x y z
#    x 1.609740 0.000000 -0.003520 
#    y 0.000000 1.625130 0.000000 
#    z -0.003520 0.000000 1.631450 
# 
# From -- ./inp_files/360337.got.cif
#   From: 2010.05.17/outbox.cif.g08.bks.cpg/sg12_181_cif.got.tgz:360337.got - 2010.06.03 13:09:07.
