data_PCOD9201047
_publ_section_title
;
Structure prediction by ZEFSAII (Michael W. Deem and Ramdas Pophale) SiO2 
 PCOD9201047
Probable space group: C 2/M
;
_chemical_formula_sum "Si O2"
_cell_formula_units_Z 48
_cell_length_a 11.847165
_cell_length_b 19.953326
_cell_length_c 13.671193
_cell_angle_alpha 90.000000
_cell_angle_beta 135.803018
_cell_angle_gamma 90.000000
_cell_volume 2252.932938
_symmetry_space_group_name_H-M "C 2/M"
_symmetry_group_IT_number 12
_symmetry_cell_setting 'monoclinic'
loop_
_space_group_symop_operation_xyz
x,y,z
-x,y,-z
-x,-y,-z
x,-y,z
1/2+x,1/2+y,z
1/2-x,1/2+y,-z
1/2-x,1/2-y,-z
1/2+x,1/2-y,z
loop_
_atom_site_type_symbol
_atom_site_label
_atom_site_fract_x
_atom_site_fract_y
_atom_site_fract_z
Si Si1 0.903416 0.380647 0.688224
Si Si2 0.771883 0.604670 0.812361
Si Si3 0.578722 0.626311 0.379865
Si Si4 0.407891 0.000000 0.276340
Si Si5 0.735403 0.500000 0.960601
Si Si6 0.641074 0.500000 0.282297
Si Si7 0.000000 0.274038 0.000000
Si Si8 0.431832 0.256875 0.155390
O O1 0.870581 0.413008 0.775371
O O2 0.729610 0.355400 0.541205
O O3 0.981212 0.433696 0.662135
O O4 0.017245 0.316398 0.774589
O O5 0.583110 0.601168 0.666093
O O6 0.779399 0.560901 0.915300
O O7 0.847959 0.675336 0.893804
O O8 0.643331 0.566841 0.350284
O O9 0.500304 0.687688 0.270745
O O10 0.279821 0.000000 0.285669
O O11 0.321167 0.000000 0.117041
O O12 0.545348 0.500000 0.869238
O O13 0.019712 0.229486 0.107153
O O14 0.250000 0.250000 0.000000
#
# Coordination Sequence:
#
# PCOD9201047 Si02
#       8
#     8   8   8   4   4   4   4   8
#     4  11  25  40  69  99 134 179 217 279 342 397
#     4  10  20  38  65  97 128 160 219 275 338 388
#     4  11  23  45  66  95 139 176 224 275 334 410
#     4  12  25  44  65 100 143 176 235 264 334 414
#     4  10  20  39  67  99 130 168 219 277 333 382
#     4  10  26  43  67  97 135 189 219 276 330 398
#     4  10  20  37  60  95 122 166 214 276 332 376
#     4  11  23  42  65  96 129 173 226 279 330 391
#
# _framework density 21.305561999999998
#
# number of rings (size 3 to 8) (size 9 to 14) (size 15 to 20)
#    0.000    1.333    1.667    4.250    2.333    3.667 
#    0.000    3.333    0.000    0.000    0.000    0.000 
#    0.000    0.000    0.000    0.000    0.000    0.000 
#
# Total GULP energy -133767.303385 kJ/mol
# GULP energy per Si atom -5573.637641 kJ/mol
# Density = 2.125707 g / cm^3
# Si number density = 21.305562 Si / 1000 Ang^3
#
#
#
# Elastic Constant Matrix: (Units=GPa)
#
#
# Indices 1 2 3 4 5 6 
#
# 1 128.8654 44.6152 23.2581 0.0000 12.2672 0.0000
# 2 44.6152 71.4379 27.4607 0.0000 9.2247 0.0000
# 3 23.2581 27.4607 157.4244 0.0000 34.0020 0.0000
# 4 0.0000 0.0000 0.0000 34.1150 0.0000 -12.1739
# 5 12.2672 9.2247 34.0020 0.0000 24.2959 0.0000
# 6 0.0000 0.0000 0.0000 -12.1739 0.0000 18.0104
#
#
#
# Elastic Compliance Matrix: (Units=1/GPa)
#
#
# Indices 1 2 3 4 5 6 
#
# 1 0.010090 -0.005984 0.000233 0.000000 -0.003149 0.000000
# 2 -0.005984 0.018699 -0.002145 0.000000 -0.001076 0.000000
# 3 0.000233 -0.002145 0.009376 0.000000 -0.012424 0.000000
# 4 0.000000 0.000000 0.000000 0.038631 0.000000 0.026112
# 5 -0.003149 -0.001076 -0.012424 0.000000 0.060545 0.000000
# 6 0.000000 0.000000 0.000000 0.026112 0.000000 0.073174
#
#
# Mechanical properties :
#
#
# Convention : Reuss Voigt Hill
#
# Bulk Modulus (GPa) = 44.69964 60.93283 52.81624
# Shear Modulus (GPa) = 21.38916 32.77718 27.08317
#
# Velocity S-wave (km/s) = 3.17191 3.92654 3.56923
# Velocity P-wave (km/s) = 5.86861 7.01559 6.46758
#
# Compressibility (1/GPa) = 0.02237154
#
# Stress axis : x y z
#
# Youngs Moduli (GPa) = 99.11268 53.47834 106.66080
#
# Poissons Ratio (x) = 0.32003 -0.02489
# Poissons Ratio (y) = 0.59312 0.22882
# Poissons Ratio (z) = -0.02313 0.11473
#
# Static dielectric constant tensor:
#      x y z
#    x 1.915050 0.000000 0.062980 
#    y 0.000000 1.744690 0.000000 
#    z 0.062980 0.000000 1.787570 
# 
# From -- ./inp_files/208057.got.cif
#   From: 2010.05.17/outbox.cif.g08.bks.cpg/sg12_105_cif.got.tgz:208057.got - 2010.06.03 13:09:07.
