data_PCOD9201410
_publ_section_title
;
Structure prediction by ZEFSAII (Michael W. Deem and Ramdas Pophale) SiO2 
 PCOD9201410
Probable space group: C 2/M
;
_chemical_formula_sum "Si O2"
_cell_formula_units_Z 56
_cell_length_a 19.133693
_cell_length_b 8.752989
_cell_length_c 18.662919
_cell_angle_alpha 90.000000
_cell_angle_beta 68.062665
_cell_angle_gamma 90.000000
_cell_volume 2899.293775
_symmetry_space_group_name_H-M "C 2/M"
_symmetry_group_IT_number 12
_symmetry_cell_setting 'monoclinic'
loop_
_space_group_symop_operation_xyz
x,y,z
-x,y,-z
-x,-y,-z
x,-y,z
1/2+x,1/2+y,z
1/2-x,1/2+y,-z
1/2-x,1/2-y,-z
1/2+x,1/2-y,z
loop_
_atom_site_type_symbol
_atom_site_label
_atom_site_fract_x
_atom_site_fract_y
_atom_site_fract_z
Si Si1 0.076146 0.315260 0.012077
Si Si2 0.942249 0.179223 0.464881
Si Si3 0.771389 0.822572 0.567539
Si Si4 0.829820 0.182174 0.271634
Si Si5 0.031009 0.317268 0.700679
Si Si6 0.612606 0.185843 0.159393
Si Si7 0.783040 0.184733 0.128424
O O1 0.076915 0.500000 0.009409
O O2 0.081044 0.268291 0.093524
O O3 0.151238 0.253894 0.945373
O O4 0.000000 0.264226 0.000000
O O5 0.861165 0.186561 0.532979
O O6 0.945976 0.257835 0.386376
O O7 0.000000 0.246201 0.500000
O O8 0.959900 0.000000 0.445902
O O9 0.750000 0.750000 0.500000
O O10 0.731502 0.734352 0.646740
O O11 0.748012 0.000000 0.578947
O O12 0.908086 0.258089 0.265393
O O13 0.802473 0.225666 0.202984
O O14 0.838459 0.000000 0.271231
O O15 0.032622 0.500000 0.699648
O O16 0.947615 0.266041 0.757319
O O17 0.698604 0.236571 0.139560
O O18 0.614338 0.000000 0.159764
O O19 0.784986 0.000000 0.121663
#
# Coordination Sequence:
#
# PCOD9201410 Si02
#       7
#     8   8   8   8   8   8   8
#     4  10  20  37  62  88 117 152 189 234 286 343
#     4  10  23  41  59  83 119 155 190 241 296 343
#     4  11  22  38  61  86 116 154 195 242 293 346
#     4  11  23  38  58  83 117 154 194 245 294 344
#     4  11  22  38  62  86 113 153 198 241 290 351
#     4   9  20  38  58  85 119 151 188 237 289 343
#     4  10  22  39  59  85 118 153 191 238 287 340
#
# _framework density 19.315047
#
# number of rings (size 3 to 8) (size 9 to 14) (size 15 to 20)
#    0.000    1.714    1.429    2.571    2.000    3.429 
#    0.000    2.857    0.000    0.000    0.000    0.000 
#    0.000    0.000    0.000    0.000    0.000    0.000 
#
# Total GULP energy -156387.834261 kJ/mol
# GULP energy per Si atom -5585.279795 kJ/mol
# Density = 1.927109 g / cm^3
# Si number density = 19.315047 Si / 1000 Ang^3
#
#
#
# Elastic Constant Matrix: (Units=GPa)
#
#
# Indices 1 2 3 4 5 6 
#
# 1 120.3434 17.1125 23.0471 0.0000 -2.8270 0.0000
# 2 17.1125 22.8462 6.5524 0.0000 -2.0332 0.0000
# 3 23.0471 6.5524 70.8884 0.0000 -18.8369 0.0000
# 4 0.0000 0.0000 0.0000 14.1289 0.0000 -15.8285
# 5 -2.8270 -2.0332 -18.8369 0.0000 30.8207 0.0000
# 6 0.0000 0.0000 0.0000 -15.8285 0.0000 16.4339
#
#
#
# Elastic Compliance Matrix: (Units=1/GPa)
#
#
# Indices 1 2 3 4 5 6 
#
# 1 0.009777 -0.006603 -0.002920 0.000000 -0.001323 0.000000
# 2 -0.006603 0.049430 -0.002049 0.000003 0.001403 0.000003
# 3 -0.002920 -0.002049 0.018074 0.000000 0.010643 0.000000
# 4 0.000000 0.000003 0.000000 -0.895654 0.000000 -0.862657
# 5 -0.001323 0.001403 0.010643 0.000000 0.038922 0.000000
# 6 0.000000 0.000003 0.000000 -0.862657 0.000000 -0.770027
#
#
# Mechanical properties :
#
#
# Convention : Reuss Voigt Hill
#
# Bulk Modulus (GPa) = 18.47244 34.16689 26.31967
# Shear Modulus (GPa) = -3.31501 23.43445 10.05972
#
# Velocity S-wave (km/s) = -1.31149 3.48699 2.28463
# Velocity P-wave (km/s) = 2.70022 5.82579 4.54043
#
# Compressibility (1/GPa) = 0.05413469
#
# Stress axis : x y z
#
# Youngs Moduli (GPa) = 102.28486 20.23082 55.32944
#
# Poissons Ratio (x) = 0.13359 0.16155
# Poissons Ratio (y) = 0.67542 0.11339
# Poissons Ratio (z) = 0.29866 0.04146
#
# Static dielectric constant tensor:
#      x y z
#    x 1.704360 0.000000 -0.007110 
#    y 0.000000 1.651900 0.000000 
#    z -0.007110 0.000000 1.642370 
# 
# From -- ./inp_files/275106.got.cif
#   From: 2010.05.17/outbox.cif.g08.bks.cpg/sg12_138_cif.got.tgz:275106.got - 2010.06.03 13:09:07.
