data_PCOD9201122
_publ_section_title
;
Structure prediction by ZEFSAII (Michael W. Deem and Ramdas Pophale) SiO2 
 PCOD9201122
Probable space group: C 2/M
;
_chemical_formula_sum "Si O2"
_cell_formula_units_Z 56
_cell_length_a 18.316882
_cell_length_b 8.601652
_cell_length_c 19.087281
_cell_angle_alpha 90.000000
_cell_angle_beta 76.113968
_cell_angle_gamma 90.000000
_cell_volume 2919.416608
_symmetry_space_group_name_H-M "C 2/M"
_symmetry_group_IT_number 12
_symmetry_cell_setting 'monoclinic'
loop_
_space_group_symop_operation_xyz
x,y,z
-x,y,-z
-x,-y,-z
x,-y,z
1/2+x,1/2+y,z
1/2-x,1/2+y,-z
1/2-x,1/2-y,-z
1/2+x,1/2-y,z
loop_
_atom_site_type_symbol
_atom_site_label
_atom_site_fract_x
_atom_site_fract_y
_atom_site_fract_z
Si Si1 0.976771 0.810462 0.927541
Si Si2 0.901193 0.188154 0.216345
Si Si3 0.879952 0.684992 0.642017
Si Si4 0.736917 0.686552 0.217562
Si Si5 0.668646 0.686504 0.497536
Si Si6 0.956055 0.187846 0.359007
Si Si7 0.192236 0.187945 0.070756
O O1 0.892698 0.760321 0.926983
O O2 0.037795 0.762380 0.855731
O O3 0.976544 0.000000 0.927715
O O4 0.000000 0.759239 0.000000
O O5 0.820063 0.257394 0.218155
O O6 0.929089 0.231983 0.287425
O O7 0.895652 0.000000 0.215566
O O8 0.876639 0.500000 0.640001
O O9 0.822920 0.745883 0.714157
O O10 0.855514 0.752364 0.572664
O O11 0.963846 0.740111 0.640975
O O12 0.733380 0.500000 0.221293
O O13 0.716380 0.736376 0.143211
O O14 0.671382 0.500000 0.495432
O O15 0.750000 0.750000 0.500000
O O16 0.606666 0.733161 0.569639
O O17 0.963514 0.000000 0.358977
O O18 0.193192 0.000000 0.068379
O O19 0.250000 0.250000 0.000000
#
# Coordination Sequence:
#
# PCOD9201122 Si02
#       7
#     8   8   8   8   8   8   8
#     4   9  17  31  54  82 112 149 191 234 284 345
#     4  10  20  37  61  86 115 152 197 244 291 353
#     4  12  25  40  61  88 118 156 201 245 293 351
#     4  11  23  39  59  85 120 157 195 244 299 352
#     4  11  23  40  63  90 122 158 198 244 295 352
#     4  10  22  40  61  86 117 154 194 242 300 354
#     4  10  21  37  58  85 116 152 193 240 296 353
#
# _framework density 19.181915
#
# number of rings (size 3 to 8) (size 9 to 14) (size 15 to 20)
#    0.000    1.571    0.000    5.143    0.000    9.143 
#    0.000    0.714    0.000    2.571    0.000    0.000 
#    0.000    0.000    0.000    0.000    0.000    0.000 
#
# Total GULP energy -156585.268844 kJ/mol
# GULP energy per Si atom -5592.331030 kJ/mol
# Density = 1.913826 g / cm^3
# Si number density = 19.181915 Si / 1000 Ang^3
#
#
#
# Elastic Constant Matrix: (Units=GPa)
#
#
# Indices 1 2 3 4 5 6 
#
# 1 234.6128 55.2107 144.6807 0.0000 -1.9465 0.0000
# 2 55.2107 35.8146 55.0634 0.0000 -0.4976 0.0000
# 3 144.6807 55.0634 240.0855 0.0000 -1.5448 0.0000
# 4 0.0000 0.0000 0.0000 22.5743 0.0000 -2.8855
# 5 -1.9465 -0.4976 -1.5448 0.0000 45.3701 0.0000
# 6 0.0000 0.0000 0.0000 -2.8855 0.0000 35.9617
#
#
#
# Elastic Compliance Matrix: (Units=1/GPa)
#
#
# Indices 1 2 3 4 5 6 
#
# 1 0.007906 -0.007511 -0.003041 0.000000 0.000153 0.000000
# 2 -0.007511 0.050266 -0.007002 0.000000 -0.000009 0.000000
# 3 -0.003041 -0.007002 0.007604 0.000000 0.000052 0.000000
# 4 0.000000 0.000000 0.000000 0.044757 0.000000 0.003591
# 5 0.000153 -0.000009 0.000052 0.000000 0.022049 0.000000
# 6 0.000000 0.000000 0.000000 0.003591 0.000000 0.028096
#
#
# Mechanical properties :
#
#
# Convention : Reuss Voigt Hill
#
# Bulk Modulus (GPa) = 32.60735 113.38028 72.99382
# Shear Modulus (GPa) = 24.27084 37.81844 31.04464
#
# Velocity S-wave (km/s) = 3.56096 4.44505 4.02734
# Velocity P-wave (km/s) = 5.82608 9.25099 7.73059
#
# Compressibility (1/GPa) = 0.03066794
#
# Stress axis : x y z
#
# Youngs Moduli (GPa) = 126.47953 19.89434 131.50865
#
# Poissons Ratio (x) = 0.14942 0.39992
# Poissons Ratio (y) = 0.94996 0.92086
# Poissons Ratio (z) = 0.38463 0.13931
#
# Static dielectric constant tensor:
#      x y z
#    x 1.625190 0.000000 0.006810 
#    y 0.000000 1.659280 0.000000 
#    z 0.006810 0.000000 1.642460 
# 
# From -- ./inp_files/275246.got.cif
#   From: 2010.05.17/outbox.cif.g08.bks.cpg/sg12_138_cif.got.tgz:275246.got - 2010.06.03 13:09:07.
