data_PCOD9201932
_publ_section_title
;
Structure prediction by ZEFSAII (Michael W. Deem and Ramdas Pophale) SiO2 
 PCOD9201932
Probable space group: C 2/M
;
_chemical_formula_sum "Si O2"
_cell_formula_units_Z 48
_cell_length_a 20.924739
_cell_length_b 13.967758
_cell_length_c 13.246662
_cell_angle_alpha 90.000000
_cell_angle_beta 147.529436
_cell_angle_gamma 90.000000
_cell_volume 2078.544382
_symmetry_space_group_name_H-M "C 2/M"
_symmetry_group_IT_number 12
_symmetry_cell_setting 'monoclinic'
loop_
_space_group_symop_operation_xyz
x,y,z
-x,y,-z
-x,-y,-z
x,-y,z
1/2+x,1/2+y,z
1/2-x,1/2+y,-z
1/2-x,1/2-y,-z
1/2+x,1/2-y,z
loop_
_atom_site_type_symbol
_atom_site_label
_atom_site_fract_x
_atom_site_fract_y
_atom_site_fract_z
Si Si1 0.719563 0.281912 0.653154
Si Si2 0.771505 0.500000 0.495481
Si Si3 0.738068 0.500000 0.906175
Si Si4 0.912370 0.164067 0.802537
Si Si5 0.249359 0.000000 0.686365
Si Si6 0.478553 0.000000 0.211880
Si Si7 0.509733 0.787530 0.762451
Si Si8 0.623840 0.299093 0.729395
O O1 0.840957 0.251902 0.760287
O O2 0.688509 0.395132 0.599725
O O3 0.616428 0.220235 0.464191
O O4 0.718435 0.264513 0.771724
O O5 0.686624 0.590936 0.368104
O O6 0.823047 0.500000 0.679610
O O7 0.882962 0.500000 0.568973
O O8 0.788337 0.500000 0.855779
O O9 0.660638 0.405277 0.813259
O O10 0.863010 0.500000 0.131681
O O11 0.994306 0.205516 0.823908
O O12 0.000000 0.117843 0.000000
O O13 0.473907 0.890537 0.164964
O O14 0.604544 0.765824 0.801305
O O15 0.500000 0.303786 0.500000
#
# Coordination Sequence:
#
# PCOD9201932 Si02
#       8
#     8   4   4   8   4   4   8   8
#     4  10  20  43  66 100 128 174 215 275 332 396
#     4  12  23  46  67  91 135 179 224 271 325 399
#     4  10  23  40  63 109 130 161 218 280 331 395
#     4  12  26  42  68  98 132 177 229 273 324 388
#     4  10  20  37  67  95 131 161 217 267 334 389
#     4  12  26  41  64  99 133 170 223 272 331 399
#     4  11  23  44  68  95 130 180 218 270 336 393
#     4   9  21  41  72  94 132 170 219 268 330 396
#
# _framework density 23.093084000000001
#
# number of rings (size 3 to 8) (size 9 to 14) (size 15 to 20)
#    0.000    1.333    3.333    2.000    4.667    3.667 
#    0.000    4.583    0.000    0.000    0.000    0.000 
#    0.000    0.000    0.000    0.000    0.000    0.000 
#
# Total GULP energy -133786.469525 kJ/mol
# GULP energy per Si atom -5574.436230 kJ/mol
# Density = 2.304052 g / cm^3
# Si number density = 23.093084 Si / 1000 Ang^3
#
#
#
# Elastic Constant Matrix: (Units=GPa)
#
#
# Indices 1 2 3 4 5 6 
#
# 1 109.2267 29.3471 21.5564 0.0000 -7.2240 0.0000
# 2 29.3471 128.3343 19.0382 0.0000 1.6230 0.0000
# 3 21.5564 19.0382 51.0170 0.0000 1.5765 0.0000
# 4 0.0000 0.0000 0.0000 28.4260 0.0000 7.0814
# 5 -7.2240 1.6230 1.5765 0.0000 25.2529 0.0000
# 6 0.0000 0.0000 0.0000 7.0814 0.0000 20.7891
#
#
#
# Elastic Compliance Matrix: (Units=1/GPa)
#
#
# Indices 1 2 3 4 5 6 
#
# 1 0.010662 -0.001903 -0.003901 0.000000 0.003416 0.000000
# 2 -0.001903 0.008591 -0.002373 0.000000 -0.000948 0.000000
# 3 -0.003901 -0.002373 0.022208 0.000000 -0.002350 0.000000
# 4 0.000000 0.000000 0.000000 0.038441 0.000000 -0.013094
# 5 0.003416 -0.000948 -0.002350 0.000000 0.040784 0.000000
# 6 0.000000 0.000000 0.000000 -0.013094 0.000000 0.052562
#
#
# Mechanical properties :
#
#
# Convention : Reuss Voigt Hill
#
# Bulk Modulus (GPa) = 39.82682 47.60683 43.71682
# Shear Modulus (GPa) = 25.25628 29.46934 27.36281
#
# Velocity S-wave (km/s) = 3.31066 3.57615 3.44596
# Velocity P-wave (km/s) = 5.64780 6.14098 5.89955
#
# Compressibility (1/GPa) = 0.02510871
#
# Stress axis : x y z
#
# Youngs Moduli (GPa) = 93.78898 116.39752 45.02982
#
# Poissons Ratio (x) = 0.22148 0.17565
# Poissons Ratio (y) = 0.17846 0.10684
# Poissons Ratio (z) = 0.36584 0.27618
#
# Static dielectric constant tensor:
#      x y z
#    x 1.877340 0.000000 -0.005830 
#    y 0.000000 1.808660 0.000000 
#    z -0.005830 0.000000 1.998150 
# 
# From -- ./inp_files/240800.got.cif
#   From: 2010.05.17/outbox.cif.g08.bks.cpg/sg12_121_cif.got.tgz:240800.got - 2010.06.03 13:09:07.
