data_PCOD9201331
_publ_section_title
;
Structure prediction by ZEFSAII (Michael W. Deem and Ramdas Pophale) SiO2 
 PCOD9201331
Probable space group: C 2/M
;
_chemical_formula_sum "Si O2"
_cell_formula_units_Z 56
_cell_length_a 16.622233
_cell_length_b 22.873904
_cell_length_c 7.367177
_cell_angle_alpha 90.000000
_cell_angle_beta 98.052922
_cell_angle_gamma 90.000000
_cell_volume 2773.492358
_symmetry_space_group_name_H-M "C 2/M"
_symmetry_group_IT_number 12
_symmetry_cell_setting 'monoclinic'
loop_
_space_group_symop_operation_xyz
x,y,z
-x,y,-z
-x,-y,-z
x,-y,z
1/2+x,1/2+y,z
1/2-x,1/2+y,-z
1/2-x,1/2-y,-z
1/2+x,1/2-y,z
loop_
_atom_site_type_symbol
_atom_site_label
_atom_site_fract_x
_atom_site_fract_y
_atom_site_fract_z
Si Si1 0.588401 0.821916 0.438048
Si Si2 0.837120 0.769337 0.266224
Si Si3 0.926703 0.932897 0.092993
Si Si4 0.653506 0.753331 0.141293
Si Si5 0.801452 0.431085 0.511410
Si Si6 0.629984 0.605059 0.571747
Si Si7 0.179290 0.881497 0.212806
O O1 0.500000 0.823419 0.500000
O O2 0.646570 0.783543 0.589639
O O3 0.590957 0.787175 0.248629
O O4 0.626148 0.886386 0.424860
O O5 0.742071 0.782634 0.197762
O O6 0.874030 0.827261 0.369161
O O7 0.869857 0.751953 0.077263
O O8 0.927748 0.927496 0.307932
O O9 0.919921 0.000000 0.037232
O O10 0.846908 0.901266 0.992558
O O11 0.000000 0.906077 0.000000
O O12 0.672121 0.687857 0.215964
O O13 0.819854 0.500000 0.517494
O O14 0.723406 0.418013 0.616288
O O15 0.763556 0.409284 0.306008
O O16 0.382256 0.597099 0.647091
#
# Coordination Sequence:
#
# PCOD9201331 Si02
#       7
#     8   8   8   8   8   8   8
#     4  12  24  39  61  90 128 160 195 256 312 354
#     4  11  20  38  64  89 117 151 194 245 300 360
#     4  11  24  38  53  84 123 155 193 242 298 356
#     4  11  20  38  64  89 117 151 194 245 300 360
#     4  10  21  40  63  86 115 159 215 249 286 361
#     4  10  20  37  62  83 115 153 199 243 288 355
#     4  10  20  37  62  83 115 153 199 243 288 355
#
# _framework density 20.191151000000001
#
# number of rings (size 3 to 8) (size 9 to 14) (size 15 to 20)
#    0.857    0.429    5.714    1.286    0.000    2.571 
#    0.000    1.429    0.000    0.000    0.000    2.000 
#    0.000    0.000    0.000    0.000    0.000    0.000 
#
# Total GULP energy -156053.890648 kJ/mol
# GULP energy per Si atom -5573.353237 kJ/mol
# Density = 2.014519 g / cm^3
# Si number density = 20.191151 Si / 1000 Ang^3
#
#
#
# Elastic Constant Matrix: (Units=GPa)
#
#
# Indices 1 2 3 4 5 6 
#
# 1 44.0823 9.2892 1.0117 0.0000 -17.1215 0.0000
# 2 9.2892 119.4108 2.2153 0.0000 -4.3895 0.0000
# 3 1.0117 2.2153 87.4826 0.0000 -15.8409 0.0000
# 4 0.0000 0.0000 0.0000 9.8929 0.0000 -9.6872
# 5 -17.1215 -4.3895 -15.8409 0.0000 25.8495 0.0000
# 6 0.0000 0.0000 0.0000 -9.6872 0.0000 9.7317
#
#
#
# Elastic Compliance Matrix: (Units=1/GPa)
#
#
# Indices 1 2 3 4 5 6 
#
# 1 0.032001 -0.001705 0.003890 0.000000 0.023290 0.000000
# 2 -0.001705 0.008518 -0.000156 0.000000 0.000221 0.000000
# 3 0.003890 -0.000156 0.013331 0.000000 0.010720 0.000000
# 4 0.000000 0.000000 0.000000 4.000740 0.000000 3.982457
# 5 0.023290 0.000221 0.010720 0.000000 0.060719 0.000000
# 6 0.000000 0.000000 0.000000 3.982457 0.000000 4.067014
#
#
# Mechanical properties :
#
#
# Convention : Reuss Voigt Hill
#
# Bulk Modulus (GPa) = 17.26879 30.66757 23.96818
# Shear Modulus (GPa) = 0.60994 24.99211 12.80102
#
# Velocity S-wave (km/s) = 0.55022 3.52202 2.52065
# Velocity P-wave (km/s) = 2.99581 5.63570 4.51309
#
# Compressibility (1/GPa) = 0.05790795
#
# Stress axis : x y z
#
# Youngs Moduli (GPa) = 31.24918 117.39644 75.01398
#
# Poissons Ratio (x) = 0.20021 -0.29183
# Poissons Ratio (y) = 0.05329 0.01169
# Poissons Ratio (z) = -0.12157 0.01830
#
# Static dielectric constant tensor:
#      x y z
#    x 1.765280 0.000000 -0.007770 
#    y 0.000000 1.717640 0.000000 
#    z -0.007770 0.000000 1.729390 
# 
# From -- ./inp_files/64050.got.cif
#   From: 2010.05.17/outbox.cif.g08.bks.cpg/sg12_33_cif.got.tgz:64050.got - 2010.06.03 13:09:07.
