data_PCOD9201530
_publ_section_title
;
Structure prediction by ZEFSAII (Michael W. Deem and Ramdas Pophale) SiO2 
 PCOD9201530
Probable space group: C 2/M
;
_chemical_formula_sum "Si O2"
_cell_formula_units_Z 56
_cell_length_a 9.615819
_cell_length_b 18.346586
_cell_length_c 18.642392
_cell_angle_alpha 90.000000
_cell_angle_beta 68.657992
_cell_angle_gamma 90.000000
_cell_volume 3063.309683
_symmetry_space_group_name_H-M "C 2/M"
_symmetry_group_IT_number 12
_symmetry_cell_setting 'monoclinic'
loop_
_space_group_symop_operation_xyz
x,y,z
-x,y,-z
-x,-y,-z
x,-y,z
1/2+x,1/2+y,z
1/2-x,1/2+y,-z
1/2-x,1/2-y,-z
1/2+x,1/2-y,z
loop_
_atom_site_type_symbol
_atom_site_label
_atom_site_fract_x
_atom_site_fract_y
_atom_site_fract_z
Si Si1 0.799163 0.412990 0.247330
Si Si2 0.859187 0.588437 0.072587
Si Si3 0.554015 0.584926 0.660666
Si Si4 0.405025 0.282942 0.446245
Si Si5 0.993540 0.702615 0.285662
Si Si6 0.661579 0.667927 0.772796
Si Si7 0.967156 0.914526 0.922249
O O1 0.821475 0.500000 0.249478
O O2 0.850669 0.389406 0.157603
O O3 0.621663 0.399324 0.289378
O O4 0.894982 0.368541 0.286872
O O5 0.868199 0.500000 0.071767
O O6 0.702492 0.606823 0.064685
O O7 0.000000 0.615520 0.000000
O O8 0.567740 0.500000 0.641858
O O9 0.604622 0.637374 0.587355
O O10 0.648257 0.607028 0.712944
O O11 0.500000 0.286158 0.500000
O O12 0.250000 0.250000 0.500000
O O13 0.471583 0.232552 0.370369
O O14 0.168448 0.688354 0.242485
O O15 0.926895 0.763863 0.244845
O O16 0.578273 0.635515 0.856785
O O17 0.984968 0.000000 0.897245
O O18 0.000000 0.909609 0.000000
#
# Coordination Sequence:
#
# PCOD9201530 Si02
#       7
#     8   8   8   8   8   8   8
#     4  10  20  37  62  91 122 157 204 253 295 351
#     4   9  18  33  56  86 121 158 195 245 301 348
#     4  10  20  38  64  91 119 156 199 245 297 356
#     4  11  22  40  63  88 119 154 195 241 303 369
#     4  11  24  40  61  88 118 160 202 248 297 367
#     4  11  22  39  60  85 121 163 207 248 295 352
#     4  10  21  37  59  88 121 158 204 251 301 355
#
# _framework density 18.280881000000001
#
# number of rings (size 3 to 8) (size 9 to 14) (size 15 to 20)
#    0.000    1.714    1.429    4.714    2.000    1.429 
#    0.000    2.143    0.000    1.714    0.000    0.000 
#    0.000    0.000    0.000    0.000    0.000    0.000 
#
# Total GULP energy -156358.799772 kJ/mol
# GULP energy per Si atom -5584.242849 kJ/mol
# Density = 1.823927 g / cm^3
# Si number density = 18.280881 Si / 1000 Ang^3
#
#
#
# Elastic Constant Matrix: (Units=GPa)
#
#
# Indices 1 2 3 4 5 6 
#
# 1 63.5752 36.4050 7.7959 0.0000 -8.2980 0.0000
# 2 36.4050 75.5385 44.5447 0.0000 -8.3098 0.0000
# 3 7.7959 44.5447 70.3474 0.0000 -8.9656 0.0000
# 4 0.0000 0.0000 0.0000 26.8854 0.0000 -8.5514
# 5 -8.2980 -8.3098 -8.9656 0.0000 36.1876 0.0000
# 6 0.0000 0.0000 0.0000 -8.5514 0.0000 21.9367
#
#
#
# Elastic Compliance Matrix: (Units=1/GPa)
#
#
# Indices 1 2 3 4 5 6 
#
# 1 0.024446 -0.016037 0.007941 0.000000 0.003891 0.000000
# 2 -0.016037 0.031736 -0.018440 0.000000 -0.000958 0.000000
# 3 0.007941 -0.018440 0.025510 0.000000 0.003907 0.000000
# 4 0.000000 0.000000 0.000000 0.042460 0.000000 0.016552
# 5 0.003891 -0.000958 0.003907 0.000000 0.029274 0.000000
# 6 0.000000 0.000000 0.000000 0.016552 0.000000 0.052038
#
#
# Mechanical properties :
#
#
# Convention : Reuss Voigt Hill
#
# Bulk Modulus (GPa) = 34.94013 42.99467 38.96740
# Shear Modulus (GPa) = 18.65151 25.04964 21.85057
#
# Velocity S-wave (km/s) = 3.19764 3.70572 3.46102
# Velocity P-wave (km/s) = 5.72605 6.47146 6.11013
#
# Compressibility (1/GPa) = 0.02862039
#
# Stress axis : x y z
#
# Youngs Moduli (GPa) = 40.90566 31.51019 39.20085
#
# Poissons Ratio (x) = 0.50532 -0.31131
# Poissons Ratio (y) = 0.65599 0.72288
# Poissons Ratio (z) = -0.32484 0.58106
#
# Static dielectric constant tensor:
#      x y z
#    x 1.605140 0.000000 -0.007580 
#    y 0.000000 1.643300 0.000000 
#    z -0.007580 0.000000 1.614320 
# 
# From -- ./inp_files/257035.got.cif
#   From: 2010.05.17/outbox.cif.g08.bks.cpg/sg12_129_cif.got.tgz:257035.got - 2010.06.03 13:09:07.
