data_PCOD9201267
_publ_section_title
;
Structure prediction by ZEFSAII (Michael W. Deem and Ramdas Pophale) SiO2 
 PCOD9201267
Probable space group: C 2/M
;
_chemical_formula_sum "Si O2"
_cell_formula_units_Z 56
_cell_length_a 7.964197
_cell_length_b 26.314659
_cell_length_c 16.364903
_cell_angle_alpha 90.000000
_cell_angle_beta 52.050174
_cell_angle_gamma 90.000000
_cell_volume 2704.470102
_symmetry_space_group_name_H-M "C 2/M"
_symmetry_group_IT_number 12
_symmetry_cell_setting 'monoclinic'
loop_
_space_group_symop_operation_xyz
x,y,z
-x,y,-z
-x,-y,-z
x,-y,z
1/2+x,1/2+y,z
1/2-x,1/2+y,-z
1/2-x,1/2-y,-z
1/2+x,1/2-y,z
loop_
_atom_site_type_symbol
_atom_site_label
_atom_site_fract_x
_atom_site_fract_y
_atom_site_fract_z
Si Si1 0.861304 0.312521 0.691059
Si Si2 0.956304 0.801383 0.711944
Si Si3 0.920266 0.443555 0.222968
Si Si4 0.249569 0.831492 0.063313
Si Si5 0.750890 0.554587 0.100049
Si Si6 0.285811 0.640169 0.095362
Si Si7 0.216495 0.132742 0.385592
O O1 0.928034 0.254115 0.682478
O O2 0.699842 0.316411 0.662557
O O3 0.737371 0.332837 0.810035
O O4 0.085191 0.342219 0.625937
O O5 0.847552 0.800133 0.833841
O O6 0.833864 0.838530 0.685730
O O7 0.011293 0.500000 0.205315
O O8 0.759033 0.445069 0.195410
O O9 0.794631 0.423317 0.338579
O O10 0.098412 0.401299 0.149448
O O11 0.169528 0.890097 0.099774
O O12 0.500000 0.832784 0.000000
O O13 0.224366 0.818597 0.975387
O O14 0.656902 0.500000 0.100077
O O15 0.000000 0.553193 0.000000
O O16 0.500000 0.612870 0.000000
O O17 0.000000 0.134884 0.500000
#
# Coordination Sequence:
#
# PCOD9201267 Si02
#       7
#     8   8   8   8   8   8   8
#     4  11  25  42  62  93 128 163 211 257 311 376
#     4  12  23  42  63  89 128 167 207 264 312 367
#     4  10  20  37  61  90 125 161 205 256 307 371
#     4  11  19  33  56  84 123 169 209 241 295 361
#     4   9  15  27  52  83 111 151 198 238 289 356
#     4  11  21  35  54  90 131 166 204 244 295 366
#     4  11  25  45  68  92 119 159 211 266 326 376
#
# _framework density 20.706458000000001
#
# number of rings (size 3 to 8) (size 9 to 14) (size 15 to 20)
#    0.000    1.286    7.143    0.857    0.000    2.857 
#    0.000    0.000    0.000    3.429    0.000    5.000 
#    0.000    0.000    0.000    0.000    0.000    0.000 
#
# Total GULP energy -155998.509755 kJ/mol
# GULP energy per Si atom -5571.375348 kJ/mol
# Density = 2.065933 g / cm^3
# Si number density = 20.706458 Si / 1000 Ang^3
#
#
#
# Elastic Constant Matrix: (Units=GPa)
#
#
# Indices 1 2 3 4 5 6 
#
# 1 93.1935 3.3398 2.2499 0.0000 -9.1950 0.0000
# 2 3.3398 19.6827 -0.3462 0.0000 1.6504 0.0000
# 3 2.2499 -0.3462 61.2212 0.0000 -22.7737 0.0000
# 4 0.0000 0.0000 0.0000 9.7234 0.0000 -4.0971
# 5 -9.1950 1.6504 -22.7737 0.0000 24.9631 0.0000
# 6 0.0000 0.0000 0.0000 -4.0971 0.0000 14.7577
#
#
#
# Elastic Compliance Matrix: (Units=1/GPa)
#
#
# Indices 1 2 3 4 5 6 
#
# 1 0.011363 -0.002398 0.001793 0.000000 0.005980 0.000000
# 2 -0.002398 0.051682 -0.001846 0.000000 -0.005984 0.000000
# 3 0.001793 -0.001846 0.025050 0.000000 0.023636 0.000000
# 4 0.000000 0.000000 0.000000 0.116469 0.000000 0.032335
# 5 0.005980 -0.005984 0.023636 0.000000 0.064220 0.000000
# 6 0.000000 0.000000 0.000000 0.032335 0.000000 0.076738
#
#
# Mechanical properties :
#
#
# Convention : Reuss Voigt Hill
#
# Bulk Modulus (GPa) = 12.01994 20.50937 16.26466
# Shear Modulus (GPa) = 13.22210 21.14577 17.18394
#
# Velocity S-wave (km/s) = 2.52970 3.19911 2.88389
# Velocity P-wave (km/s) = 3.78814 4.85511 4.35443
#
# Compressibility (1/GPa) = 0.08319508
#
# Stress axis : x y z
#
# Youngs Moduli (GPa) = 88.00461 19.34899 39.91995
#
# Poissons Ratio (x) = 0.04640 -0.07159
# Poissons Ratio (y) = 0.21103 0.07368
# Poissons Ratio (z) = -0.15783 0.03571
#
# Static dielectric constant tensor:
#      x y z
#    x 1.873540 0.000000 0.019430 
#    y 0.000000 1.759900 0.000000 
#    z 0.019430 0.000000 1.756070 
# 
# From -- ./inp_files/259533.got.cif
#   From: 2010.05.17/outbox.cif.g08.bks.cpg/sg12_130_cif.got.tgz:259533.got - 2010.06.03 13:09:07.
