data_PCOD9201063
_publ_section_title
;
Structure prediction by ZEFSAII (Michael W. Deem and Ramdas Pophale) SiO2 
 PCOD9201063
Probable space group: C 2/M
;
_chemical_formula_sum "Si O2"
_cell_formula_units_Z 64
_cell_length_a 16.091572
_cell_length_b 8.512356
_cell_length_c 31.712888
_cell_angle_alpha 90.000000
_cell_angle_beta 130.421886
_cell_angle_gamma 90.000000
_cell_volume 3307.002769
_symmetry_space_group_name_H-M "C 2/M"
_symmetry_group_IT_number 12
_symmetry_cell_setting 'monoclinic'
loop_
_space_group_symop_operation_xyz
x,y,z
-x,y,-z
-x,-y,-z
x,-y,z
1/2+x,1/2+y,z
1/2-x,1/2+y,-z
1/2-x,1/2-y,-z
1/2+x,1/2-y,z
loop_
_atom_site_type_symbol
_atom_site_label
_atom_site_fract_x
_atom_site_fract_y
_atom_site_fract_z
Si Si1 0.146572 0.312071 0.440422
Si Si2 0.761969 0.809860 0.677866
Si Si3 0.752724 0.311820 0.067593
Si Si4 0.424696 0.688130 0.061362
Si Si5 0.687148 0.689898 0.743523
Si Si6 0.330940 0.188358 0.870853
Si Si7 0.953804 0.309251 0.440103
Si Si8 0.060971 0.810790 0.326229
O O1 0.151845 0.500000 0.439522
O O2 0.250000 0.250000 0.500000
O O3 0.132755 0.240897 0.389738
O O4 0.039317 0.267567 0.431860
O O5 0.735562 0.747850 0.715366
O O6 0.665422 0.757747 0.614151
O O7 0.876964 0.759414 0.695691
O O8 0.759583 0.000000 0.678598
O O9 0.758481 0.500000 0.069461
O O10 0.863768 0.245549 0.083648
O O11 0.722767 0.252570 0.104026
O O12 0.654907 0.263612 0.003459
O O13 0.430719 0.500000 0.063801
O O14 0.544784 0.755421 0.093807
O O15 0.685113 0.500000 0.742129
O O16 0.760858 0.739875 0.807218
O O17 0.562545 0.747040 0.708584
O O18 0.329545 0.000000 0.872217
O O19 0.950354 0.500000 0.441708
O O20 0.000000 0.251029 0.500000
O O21 0.057540 0.000000 0.324625
#
# Coordination Sequence:
#
# PCOD9201063 Si02
#       8
#     8   8   8   8   8   8   8   8
#     4  11  21  34  55  83 115 147 183 228 283 347
#     4  10  20  37  61  84 108 149 194 233 287 351
#     4  10  21  38  61  91 125 160 200 251 309 363
#     4  10  21  38  61  90 124 161 203 252 305 361
#     4  10  23  41  58  83 119 154 192 247 297 341
#     4  11  23  38  58  86 123 165 208 251 301 355
#     4   9  17  31  52  79 110 140 177 225 275 337
#     4  10  21  39  61  82 111 148 187 234 290 345
#
# _framework density 19.352872999999999
#
# number of rings (size 3 to 8) (size 9 to 14) (size 15 to 20)
#    0.000    1.875    1.250    2.625    0.000    7.500 
#    0.000    1.250    0.000    1.875    0.000    0.000 
#    0.000    0.000    0.000    0.000    0.000    0.000 
#
# Total GULP energy -178744.647149 kJ/mol
# GULP energy per Si atom -5585.770223 kJ/mol
# Density = 1.930882 g / cm^3
# Si number density = 19.352873 Si / 1000 Ang^3
#
#
#
# Elastic Constant Matrix: (Units=GPa)
#
#
# Indices 1 2 3 4 5 6 
#
# 1 158.0273 21.3926 59.2575 0.0000 -30.5074 0.0000
# 2 21.3926 13.4543 11.8157 0.0000 -3.8749 0.0000
# 3 59.2575 11.8157 90.4167 0.0000 -28.2534 0.0000
# 4 0.0000 0.0000 0.0000 25.5551 0.0000 -3.8473
# 5 -30.5074 -3.8749 -28.2534 0.0000 19.6045 0.0000
# 6 0.0000 0.0000 0.0000 -3.8473 0.0000 31.5647
#
#
#
# Elastic Compliance Matrix: (Units=1/GPa)
#
#
# Indices 1 2 3 4 5 6 
#
# 1 0.011029 -0.012454 -0.001832 0.000000 0.012062 0.000000
# 2 -0.012454 0.098047 -0.008461 0.000000 -0.012196 0.000000
# 3 -0.001832 -0.008461 0.021746 0.000000 0.026816 0.000000
# 4 0.000000 0.000000 0.000000 0.039863 0.000000 0.004859
# 5 0.012062 -0.012196 0.026816 0.000000 0.106014 0.000000
# 6 0.000000 0.000000 0.000000 0.004859 0.000000 0.032273
#
#
# Mechanical properties :
#
#
# Convention : Reuss Voigt Hill
#
# Bulk Modulus (GPa) = 11.71967 49.64777 30.68372
# Shear Modulus (GPa) = 13.05793 26.64037 19.84915
#
# Velocity S-wave (km/s) = 2.60037 3.71423 3.20604
# Velocity P-wave (km/s) = 3.88392 6.64105 5.44006
#
# Compressibility (1/GPa) = 0.08532664
#
# Stress axis : x y z
#
# Youngs Moduli (GPa) = 90.66617 10.19921 45.98612
#
# Poissons Ratio (x) = 0.12703 0.08425
# Poissons Ratio (y) = 1.12919 0.38910
# Poissons Ratio (z) = 0.16610 0.08630
#
# Static dielectric constant tensor:
#      x y z
#    x 1.669540 0.000000 0.010340 
#    y 0.000000 1.659600 0.000000 
#    z 0.010340 0.000000 1.665100 
# 
# From -- ./inp_files/375602.got.cif
#   From: 2010.05.17/outbox.cif.g08.bks.cpg/sg12_188_cif.got.tgz:375602.got - 2010.06.03 13:09:07.
