data_PCOD9201472
_publ_section_title
;
Structure prediction by ZEFSAII (Michael W. Deem and Ramdas Pophale) SiO2 
 PCOD9201472
Probable space group: C 2/M
;
_chemical_formula_sum "Si O2"
_cell_formula_units_Z 64
_cell_length_a 8.703799
_cell_length_b 13.866891
_cell_length_c 30.820855
_cell_angle_alpha 90.000000
_cell_angle_beta 119.576714
_cell_angle_gamma 90.000000
_cell_volume 3235.190900
_symmetry_space_group_name_H-M "C 2/M"
_symmetry_group_IT_number 12
_symmetry_cell_setting 'monoclinic'
loop_
_space_group_symop_operation_xyz
x,y,z
-x,y,-z
-x,-y,-z
x,-y,z
1/2+x,1/2+y,z
1/2-x,1/2+y,-z
1/2-x,1/2-y,-z
1/2+x,1/2-y,z
loop_
_atom_site_type_symbol
_atom_site_label
_atom_site_fract_x
_atom_site_fract_y
_atom_site_fract_z
Si Si1 0.633629 0.111257 0.385633
Si Si2 0.949492 0.113609 0.915614
Si Si3 0.789259 0.613786 0.203479
Si Si4 0.159987 0.353459 0.488737
Si Si5 0.367311 0.752825 0.745639
Si Si6 0.685339 0.214312 0.037578
Si Si7 0.505545 0.709855 0.325769
Si Si8 0.979784 0.895527 0.587841
O O1 0.598115 0.121221 0.431919
O O2 0.516094 0.176598 0.338333
O O3 0.838138 0.143662 0.406702
O O4 0.615619 0.000000 0.371980
O O5 0.817874 0.114670 0.856470
O O6 0.869565 0.193879 0.938962
O O7 0.144325 0.149542 0.925924
O O8 0.960006 0.000000 0.932562
O O9 0.815384 0.500000 0.219037
O O10 0.679296 0.677828 0.222965
O O11 0.969759 0.675572 0.223168
O O12 0.250000 0.250000 0.500000
O O13 0.330319 0.406751 0.531301
O O14 0.000000 0.361413 0.500000
O O15 0.400404 0.693291 0.706154
O O16 0.196449 0.816891 0.710038
O O17 0.500000 0.161675 0.000000
O O18 0.750000 0.250000 0.000000
O O19 0.583921 0.665225 0.380177
O O20 0.023451 0.000000 0.612145
#
# Coordination Sequence:
#
# PCOD9201472 Si02
#       8
#     8   8   8   8   8   8   8   8
#     4  11  24  42  64  87 116 151 188 230 289 358
#     4  10  20  37  62  89 125 172 223 269 316 370
#     4  10  22  42  67  93 122 165 215 268 322 374
#     4  12  25  40  62  85 116 149 187 233 277 347
#     4  10  23  40  64  89 123 154 199 260 323 373
#     4   9  19  34  56  91 134 175 216 261 310 367
#     4  11  22  40  61  89 116 150 186 240 302 364
#     4  11  24  41  61  87 116 149 184 225 286 355
#
# _framework density 19.782449
#
# number of rings (size 3 to 8) (size 9 to 14) (size 15 to 20)
#    0.000    1.500    2.500    2.250    1.750    7.500 
#    0.000    3.750    0.000   13.500    0.000    0.000 
#    0.000    0.000    0.000    0.000    0.000    0.000 
#
# Total GULP energy -178196.364364 kJ/mol
# GULP energy per Si atom -5568.636386 kJ/mol
# Density = 1.973742 g / cm^3
# Si number density = 19.782449 Si / 1000 Ang^3
#
#
#
# Elastic Constant Matrix: (Units=GPa)
#
#
# Indices 1 2 3 4 5 6 
#
# 1 119.6015 34.0540 36.1546 0.0000 8.7921 0.0000
# 2 34.0540 121.6159 32.3822 0.0000 0.2428 0.0000
# 3 36.1546 32.3822 79.1321 0.0000 -2.0265 0.0000
# 4 0.0000 0.0000 0.0000 0.5175 0.0000 11.4953
# 5 8.7921 0.2428 -2.0265 0.0000 29.4460 0.0000
# 6 0.0000 0.0000 0.0000 11.4953 0.0000 0.3359
#
#
#
# Elastic Compliance Matrix: (Units=1/GPa)
#
#
# Indices 1 2 3 4 5 6 
#
# 1 0.010355 -0.001807 -0.004078 0.000000 -0.003358 0.000000
# 2 -0.001807 0.009547 -0.003075 0.000000 0.000249 0.000000
# 3 -0.004078 -0.003075 0.015818 0.000000 0.002331 0.000000
# 4 0.000000 0.000000 0.000000 -0.002546 0.000000 0.087107
# 5 -0.003358 0.000249 0.002331 0.000000 0.035121 0.000000
# 6 0.000000 0.000000 0.000000 0.087107 0.000000 -0.003921
#
#
# Mechanical properties :
#
#
# Convention : Reuss Voigt Hill
#
# Bulk Modulus (GPa) = 56.17627 58.39235 57.28431
# Shear Modulus (GPa) = 56.67198 20.57712 38.62455
#
# Velocity S-wave (km/s) = 5.35815 3.22867 4.42346
# Velocity P-wave (km/s) = 8.16936 6.59397 7.42357
#
# Compressibility (1/GPa) = 0.01780111
#
# Stress axis : x y z
#
# Youngs Moduli (GPa) = 96.57085 104.74699 63.21897
#
# Poissons Ratio (x) = 0.18929 0.25778
# Poissons Ratio (y) = 0.17452 0.19438
# Poissons Ratio (z) = 0.39378 0.32206
#
# Static dielectric constant tensor:
#      x y z
#    x 1.787590 0.000000 0.057800 
#    y 0.000000 1.745100 0.000000 
#    z 0.057800 0.000000 1.781380 
# 
# From -- ./inp_files/372397.got.cif
#   From: 2010.05.17/outbox.cif.g08.bks.cpg/sg12_187_cif.got.tgz:372397.got - 2010.06.03 13:09:07.
