data_PCOD9201756
_publ_section_title
;
Structure prediction by ZEFSAII (Michael W. Deem and Ramdas Pophale) SiO2 
 PCOD9201756
Probable space group: C 2/M
;
_chemical_formula_sum "Si O2"
_cell_formula_units_Z 56
_cell_length_a 12.667067
_cell_length_b 24.416069
_cell_length_c 11.142638
_cell_angle_alpha 90.000000
_cell_angle_beta 130.039086
_cell_angle_gamma 90.000000
_cell_volume 2638.426679
_symmetry_space_group_name_H-M "C 2/M"
_symmetry_group_IT_number 12
_symmetry_cell_setting 'monoclinic'
loop_
_space_group_symop_operation_xyz
x,y,z
-x,y,-z
-x,-y,-z
x,-y,z
1/2+x,1/2+y,z
1/2-x,1/2+y,-z
1/2-x,1/2-y,-z
1/2+x,1/2-y,z
loop_
_atom_site_type_symbol
_atom_site_label
_atom_site_fract_x
_atom_site_fract_y
_atom_site_fract_z
Si Si1 0.854376 0.226745 0.856777
Si Si2 0.670940 0.817628 0.341531
Si Si3 0.448604 0.439460 0.326957
Si Si4 0.854251 0.436734 0.324097
Si Si5 0.847155 0.600880 0.888656
Si Si6 0.357158 0.368443 0.681779
Si Si7 0.860290 0.664391 0.143679
O O1 0.784165 0.266992 0.708967
O O2 0.896991 0.172203 0.816655
O O3 0.752661 0.206504 0.886839
O O4 0.000000 0.253494 0.000000
O O5 0.667702 0.868777 0.248874
O O6 0.769223 0.833438 0.521948
O O7 0.513218 0.810203 0.269491
O O8 0.500000 0.428478 0.500000
O O9 0.499463 0.500000 0.331736
O O10 0.284357 0.437366 0.197261
O O11 0.513231 0.394623 0.288111
O O12 0.832265 0.500000 0.269905
O O13 0.738440 0.415905 0.332223
O O14 0.855219 0.391820 0.218450
O O15 0.000000 0.433898 0.500000
O O16 0.839887 0.645272 0.991599
O O17 0.000000 0.575583 0.000000
#
# Coordination Sequence:
#
# PCOD9201756 Si02
#       7
#     8   8   8   8   8   8   8
#     4  11  24  39  62  90 125 171 212 262 325 377
#     4  11  22  41  62  92 123 167 216 265 318 381
#     4  11  23  40  63  92 130 169 207 255 317 382
#     4  10  20  37  64  90 120 165 210 263 322 372
#     4  10  22  41  65  91 130 171 212 267 316 373
#     4  11  22  41  62  93 127 162 212 267 316 383
#     4  10  22  40  62  90 129 159 213 269 313 378
#
# _framework density 21.224769999999999
#
# number of rings (size 3 to 8) (size 9 to 14) (size 15 to 20)
#    0.000    1.429    2.857    3.000    0.000    4.286 
#    0.000    2.143    0.000    4.714    0.000    0.000 
#    0.000    0.000    0.000    0.000    0.000    0.000 
#
# Total GULP energy -156487.191571 kJ/mol
# GULP energy per Si atom -5588.828270 kJ/mol
# Density = 2.117646 g / cm^3
# Si number density = 21.224770 Si / 1000 Ang^3
#
#
#
# Elastic Constant Matrix: (Units=GPa)
#
#
# Indices 1 2 3 4 5 6 
#
# 1 96.7197 20.3372 38.2979 0.0000 9.3666 0.0000
# 2 20.3372 52.6219 6.4583 0.0000 3.0027 0.0000
# 3 38.2979 6.4583 78.5048 0.0000 0.1749 0.0000
# 4 0.0000 0.0000 0.0000 -0.3329 0.0000 13.0268
# 5 9.3666 3.0027 0.1749 0.0000 27.7070 0.0000
# 6 0.0000 0.0000 0.0000 13.0268 0.0000 -10.0264
#
#
#
# Elastic Compliance Matrix: (Units=1/GPa)
#
#
# Indices 1 2 3 4 5 6 
#
# 1 0.014313 -0.004475 -0.006605 0.000000 -0.004312 0.000000
# 2 -0.004475 0.020716 0.000480 0.000000 -0.000735 0.000000
# 3 -0.006605 0.000480 0.015916 0.000000 0.002080 0.000000
# 4 0.000000 0.000000 0.000000 0.060270 0.000000 0.078305
# 5 -0.004312 -0.000735 0.002080 0.000000 0.037616 0.000000
# 6 0.000000 0.000000 0.000000 0.078305 0.000000 0.002001
#
#
# Mechanical properties :
#
#
# Convention : Reuss Voigt Hill
#
# Bulk Modulus (GPa) = 33.61743 39.78146 36.69945
# Shear Modulus (GPa) = 27.48070 14.31974 20.90022
#
# Velocity S-wave (km/s) = 3.60216 2.60026 3.14141
# Velocity P-wave (km/s) = 5.75968 5.27245 5.52144
#
# Compressibility (1/GPa) = 0.02974648
#
# Stress axis : x y z
#
# Youngs Moduli (GPa) = 69.86695 48.27198 62.83009
#
# Poissons Ratio (x) = 0.21602 0.41497
# Poissons Ratio (y) = 0.31265 -0.03019
# Poissons Ratio (z) = 0.46145 -0.02319
#
# Static dielectric constant tensor:
#      x y z
#    x 1.756920 0.000000 0.006550 
#    y 0.000000 1.752840 0.000000 
#    z 0.006550 0.000000 1.755090 
# 
# From -- ./inp_files/136927.got.cif
#   From: 2010.05.17/outbox.cif.g08.bks.cpg/sg12_69_cif.got.tgz:136927.got - 2010.06.03 13:09:07.
