data_PCOD9201661
_publ_section_title
;
Structure prediction by ZEFSAII (Michael W. Deem and Ramdas Pophale) SiO2 
 PCOD9201661
Probable space group: C 2/M
;
_chemical_formula_sum "Si O2"
_cell_formula_units_Z 32
_cell_length_a 9.719187
_cell_length_b 15.807371
_cell_length_c 10.167337
_cell_angle_alpha 90.000000
_cell_angle_beta 61.684297
_cell_angle_gamma 90.000000
_cell_volume 1375.152564
_symmetry_space_group_name_H-M "C 2/M"
_symmetry_group_IT_number 12
_symmetry_cell_setting 'monoclinic'
loop_
_space_group_symop_operation_xyz
x,y,z
-x,y,-z
-x,-y,-z
x,-y,z
1/2+x,1/2+y,z
1/2-x,1/2+y,-z
1/2-x,1/2-y,-z
1/2+x,1/2-y,z
loop_
_atom_site_type_symbol
_atom_site_label
_atom_site_fract_x
_atom_site_fract_y
_atom_site_fract_z
Si Si1 0.829553 0.103654 0.037053
Si Si2 0.677192 0.335726 0.475130
Si Si3 0.162245 0.602099 0.857337
Si Si4 0.158018 0.598092 0.365916
O O1 0.710568 0.135619 0.202926
O O2 0.825886 0.000000 0.042086
O O3 0.788991 0.128184 0.908395
O O4 0.000000 0.131974 0.000000
O O5 0.500000 0.334416 0.500000
O O6 0.750000 0.250000 0.500000
O O7 0.790294 0.362807 0.304602
O O8 0.704293 0.396729 0.588603
O O9 0.158255 0.500000 0.846705
O O10 0.000000 0.627346 0.000000
O O11 0.123548 0.500000 0.353917
O O12 0.000000 0.634815 0.500000
#
# Coordination Sequence:
#
# PCOD9201661 Si02
#       4
#     8   8   8   8
#     4   9  17  31  54  86 118 147 188 244 305 365
#     4  12  26  43  61  89 131 176 222 266 318 384
#     4  10  21  40  68  98 125 159 209 268 325 382
#     4  10  20  37  63  92 122 158 203 258 318 379
#
# _framework density 23.270144999999999
#
# number of rings (size 3 to 8) (size 9 to 14) (size 15 to 20)
#    0.000    1.750    0.000    4.500    0.000    8.000 
#    0.000    6.250    0.000    0.000    0.000    0.000 
#    0.000    0.000    0.000    0.000    0.000    0.000 
#
# Total GULP energy -89422.472965 kJ/mol
# GULP energy per Si atom -5588.904560 kJ/mol
# Density = 2.321718 g / cm^3
# Si number density = 23.270145 Si / 1000 Ang^3
#
#
#
# Elastic Constant Matrix: (Units=GPa)
#
#
# Indices 1 2 3 4 5 6 
#
# 1 90.6037 6.0076 9.2551 0.0000 4.1825 0.0000
# 2 6.0076 25.0864 22.6098 0.0000 -3.0654 0.0000
# 3 9.2551 22.6098 135.5712 0.0000 20.3019 0.0000
# 4 0.0000 0.0000 0.0000 121.2165 0.0000 45.9878
# 5 4.1825 -3.0654 20.3019 0.0000 42.5664 0.0000
# 6 0.0000 0.0000 0.0000 45.9878 0.0000 30.3442
#
#
#
# Elastic Compliance Matrix: (Units=1/GPa)
#
#
# Indices 1 2 3 4 5 6 
#
# 1 0.011289 -0.002741 -0.000127 0.000000 -0.001246 0.000000
# 2 -0.002741 0.050017 -0.009406 0.000000 0.008358 0.000000
# 3 -0.000127 -0.009406 0.009749 0.000000 -0.005315 0.000000
# 4 0.000000 0.000000 0.000000 0.019410 0.000000 -0.029416
# 5 -0.001246 0.008358 -0.005315 0.000000 0.026752 0.000000
# 6 0.000000 0.000000 0.000000 -0.029416 0.000000 0.077537
#
#
# Mechanical properties :
#
#
# Convention : Reuss Voigt Hill
#
# Bulk Modulus (GPa) = 21.50192 36.33403 28.91798
# Shear Modulus (GPa) = 21.29418 53.05135 37.17276
#
# Velocity S-wave (km/s) = 3.02832 4.77991 4.00114
# Velocity P-wave (km/s) = 4.63550 6.79053 5.81374
#
# Compressibility (1/GPa) = 0.04650747
#
# Stress axis : x y z
#
# Youngs Moduli (GPa) = 88.57914 19.99305 102.56988
#
# Poissons Ratio (x) = 0.05481 0.01301
# Poissons Ratio (y) = 0.24284 0.96477
# Poissons Ratio (z) = 0.01124 0.18805
#
# Static dielectric constant tensor:
#      x y z
#    x 1.903690 0.000000 -0.041530 
#    y 0.000000 1.989760 0.000000 
#    z -0.041530 0.000000 1.998910 
# 
# From -- ./inp_files/118410.got.cif
#   From: 2010.05.17/outbox.cif.g08.bks.cpg/sg12_60_cif.got.tgz:118410.got - 2010.06.03 13:09:07.
