data_PCOD9201011
_publ_section_title
;
Structure prediction by ZEFSAII (Michael W. Deem and Ramdas Pophale) SiO2 
 PCOD9201011
Probable space group: C 2/M
;
_chemical_formula_sum "Si O2"
_cell_formula_units_Z 58
_cell_length_a 21.417909
_cell_length_b 14.583345
_cell_length_c 8.312323
_cell_angle_alpha 90.000000
_cell_angle_beta 80.044729
_cell_angle_gamma 90.000000
_cell_volume 2557.217891
_symmetry_space_group_name_H-M "C 2/M"
_symmetry_group_IT_number 12
_symmetry_cell_setting 'monoclinic'
loop_
_space_group_symop_operation_xyz
x,y,z
-x,y,-z
-x,-y,-z
x,-y,z
1/2+x,1/2+y,z
1/2-x,1/2+y,-z
1/2-x,1/2-y,-z
1/2+x,1/2-y,z
loop_
_atom_site_type_symbol
_atom_site_label
_atom_site_fract_x
_atom_site_fract_y
_atom_site_fract_z
Si Si1 0.047428 0.853260 0.205179
Si Si2 0.813682 0.897141 0.006434
Si Si3 0.846353 0.740668 0.216232
Si Si4 0.888196 0.800276 0.512573
Si Si5 0.500000 0.500000 0.000000
Si Si6 0.241298 0.893165 0.318183
Si Si7 0.926256 0.401048 0.587870
Si Si8 0.441980 0.847283 0.928837
O O1 0.062019 0.849472 0.389504
O O2 0.035032 0.749901 0.155325
O O3 0.114792 0.885136 0.095047
O O4 0.999303 0.921003 0.142569
O O5 0.806154 0.816755 0.137787
O O6 0.808148 0.000000 0.076193
O O7 0.768858 0.888813 0.871397
O O8 0.892418 0.794150 0.318607
O O9 0.799897 0.672120 0.329901
O O10 0.885992 0.679631 0.073988
O O11 0.821810 0.849577 0.578692
O O12 0.891498 0.692846 0.558627
O O13 0.248389 0.000000 0.358804
O O14 0.903778 0.500000 0.532471
O O15 0.922534 0.403271 0.782290
O O16 0.000000 0.391228 0.500000
O O17 0.500000 0.889364 0.000000
#
# Coordination Sequence:
#
# PCOD9201011 Si02
#       8
#     8   8   8   8   2   8   8   8
#     4   9  19  32  58  86 118 165 213 261 319 385
#     4   9  18  35  55  83 121 161 207 265 325 378
#     4  11  22  37  62  93 127 164 221 272 338 407
#     4  10  22  41  61  90 128 172 214 271 342 399
#     4  12  16  32  64  90 122 172 234 260 316 392
#     4  10  22  41  65  88 122 171 222 277 334 405
#     4  10  22  41  64  92 128 171 217 269 325 387
#     4  10  20  37  60  89 123 166 210 268 327 393
#
# _framework density 22.680899
#
# number of rings (size 3 to 8) (size 9 to 14) (size 15 to 20)
#    0.000    2.069    1.379    2.483    0.966    1.931 
#    0.000    2.069    0.000    3.724    0.000    0.000 
#    0.000    0.000    0.000    0.000    0.000    0.000 
#
# Total GULP energy -161658.517357 kJ/mol
# GULP energy per Si atom -5574.431633 kJ/mol
# Density = 2.262928 g / cm^3
# Si number density = 22.680899 Si / 1000 Ang^3
#
#
#
# Elastic Constant Matrix: (Units=GPa)
#
#
# Indices 1 2 3 4 5 6 
#
# 1 55.9591 30.5780 35.0891 0.0000 -1.8890 0.0000
# 2 30.5780 159.9795 22.8644 0.0000 -2.2382 0.0000
# 3 35.0891 22.8644 85.3730 0.0000 5.8413 0.0000
# 4 0.0000 0.0000 0.0000 50.3786 0.0000 -60.5950
# 5 -1.8890 -2.2382 5.8413 0.0000 30.9257 0.0000
# 6 0.0000 0.0000 0.0000 -60.5950 0.0000 42.0443
#
#
#
# Elastic Compliance Matrix: (Units=1/GPa)
#
#
# Indices 1 2 3 4 5 6 
#
# 1 0.026209 -0.003528 -0.010049 0.000000 0.003244 0.000000
# 2 -0.003528 0.006995 -0.000449 0.000000 0.000376 0.000000
# 3 -0.010049 -0.000449 0.016218 0.000000 -0.003709 0.000000
# 4 0.000000 0.000000 0.000000 -0.027062 0.000000 -0.039002
# 5 0.003244 0.000376 -0.003709 0.000000 0.033262 0.000000
# 6 0.000000 0.000000 0.000000 -0.039002 0.000000 -0.032427
#
#
# Mechanical properties :
#
#
# Convention : Reuss Voigt Hill
#
# Bulk Modulus (GPa) = 46.79678 53.15270 49.97474
# Shear Modulus (GPa) = 85.66264 38.85508 62.25886
#
# Velocity S-wave (km/s) = 6.15229 4.14347 5.24495
# Velocity P-wave (km/s) = 8.43475 6.81007 7.66557
#
# Compressibility (1/GPa) = 0.02136899
#
# Stress axis : x y z
#
# Youngs Moduli (GPa) = 38.15521 142.96899 61.66123
#
# Poissons Ratio (x) = 0.50437 0.61964
# Poissons Ratio (y) = 0.13461 0.02768
# Poissons Ratio (z) = 0.38343 0.06419
#
# Static dielectric constant tensor:
#      x y z
#    x 1.958880 0.000000 0.006890 
#    y 0.000000 1.817540 0.000000 
#    z 0.006890 0.000000 1.873940 
# 
# From -- ./inp_files/96358.got.cif
#   From: 2010.05.17/outbox.cif.g08.bks.cpg/sg12_49_cif.got.tgz:96358.got - 2010.06.03 13:09:07.
