data_PCOD9201908
_publ_section_title
;
Structure prediction by ZEFSAII (Michael W. Deem and Ramdas Pophale) SiO2 
 PCOD9201908
Probable space group: C 2/M
;
_chemical_formula_sum "Si O2"
_cell_formula_units_Z 44
_cell_length_a 11.714141
_cell_length_b 19.305496
_cell_length_c 15.412589
_cell_angle_alpha 90.000000
_cell_angle_beta 150.653018
_cell_angle_gamma 90.000000
_cell_volume 1708.241962
_symmetry_space_group_name_H-M "C 2/M"
_symmetry_group_IT_number 12
_symmetry_cell_setting 'monoclinic'
loop_
_space_group_symop_operation_xyz
x,y,z
-x,y,-z
-x,-y,-z
x,-y,z
1/2+x,1/2+y,z
1/2-x,1/2+y,-z
1/2-x,1/2-y,-z
1/2+x,1/2-y,z
loop_
_atom_site_type_symbol
_atom_site_label
_atom_site_fract_x
_atom_site_fract_y
_atom_site_fract_z
Si Si1 0.161990 0.000000 0.242419
Si Si2 0.891787 0.871076 0.092121
Si Si3 0.891240 0.578867 0.741593
Si Si4 0.804390 0.287351 0.298395
Si Si5 0.051312 0.426322 0.414646
Si Si6 0.765672 0.140198 0.197914
O O1 0.710971 0.939999 0.603013
O O2 0.976161 0.937664 0.094920
O O3 0.905766 0.880341 0.205798
O O4 0.051501 0.806659 0.169340
O O5 0.613189 0.869467 0.891437
O O6 0.961249 0.500000 0.812307
O O7 0.825764 0.574236 0.596580
O O8 0.707205 0.604297 0.690786
O O9 0.905221 0.357247 0.322847
O O10 0.789684 0.222231 0.226280
O O11 0.000000 0.270066 0.500000
O O12 0.886257 0.500000 0.312281
O O13 0.500000 0.121696 0.000000
#
# Coordination Sequence:
#
# PCOD9201908 Si02
#       6
#     4   8   8   8   8   8
#     4   8  16  33  56  90 116 149 201 245 306 345
#     4  10  21  37  62  91 122 162 200 256 301 367
#     4  10  20  37  66  95 127 154 202 256 317 364
#     4  11  25  42  62  87 125 168 209 253 306 363
#     4   8  19  37  59  90 117 156 199 257 299 356
#     4  10  25  39  61  93 125 166 205 250 310 367
#
# _framework density 25.757474999999999
#
# number of rings (size 3 to 8) (size 9 to 14) (size 15 to 20)
#    0.545    1.818    0.909    0.000    6.364    6.545 
#    0.000    0.000    0.000    0.545    0.000    0.000 
#    0.000    0.000    0.000    0.000    0.000    0.000 
#
# Total GULP energy -122692.729705 kJ/mol
# GULP energy per Si atom -5576.942259 kJ/mol
# Density = 2.569885 g / cm^3
# Si number density = 25.757475 Si / 1000 Ang^3
#
#
#
# Elastic Constant Matrix: (Units=GPa)
#
#
# Indices 1 2 3 4 5 6 
#
# 1 147.5548 45.5262 17.2023 0.0008 -16.5581 0.0018
# 2 45.5262 71.4565 2.9414 -0.0003 3.9012 0.0002
# 3 17.2023 2.9414 67.8021 0.0008 -9.9362 0.0030
# 4 0.0008 -0.0003 0.0008 32.4945 0.0000 2.1010
# 5 -16.5581 3.9012 -9.9362 0.0000 38.2372 0.0014
# 6 0.0018 0.0002 0.0030 2.1010 0.0014 28.3824
#
#
#
# Elastic Compliance Matrix: (Units=1/GPa)
#
#
# Indices 1 2 3 4 5 6 
#
# 1 0.009312 -0.006106 -0.001472 0.000000 0.004273 -0.000001
# 2 -0.006106 0.018124 0.000108 0.000000 -0.004465 0.000000
# 3 -0.001472 0.000108 0.015617 0.000000 0.003410 -0.000002
# 4 0.000000 0.000000 0.000000 0.030922 0.000000 -0.002289
# 5 0.004273 -0.004465 0.003410 0.000000 0.029344 -0.000002
# 6 -0.000001 0.000000 -0.000002 -0.002289 -0.000002 0.035403
#
#
# Mechanical properties :
#
#
# Convention : Reuss Voigt Hill
#
# Bulk Modulus (GPa) = 35.56720 46.46147 41.01434
# Shear Modulus (GPa) = 30.66895 34.56573 32.61734
#
# Velocity S-wave (km/s) = 3.45437 3.66726 3.56241
# Velocity P-wave (km/s) = 5.45424 6.00075 5.73401
#
# Compressibility (1/GPa) = 0.02811579
#
# Stress axis : x y z
#
# Youngs Moduli (GPa) = 107.38862 55.17622 64.03211
#
# Poissons Ratio (x) = 0.33688 0.09422
# Poissons Ratio (y) = 0.65566 -0.00695
# Poissons Ratio (z) = 0.15802 -0.00599
#
# Static dielectric constant tensor:
#      x y z
#    x 2.065690 0.000000 0.016960 
#    y 0.000000 2.048730 0.000000 
#    z 0.016960 0.000000 2.063050 
# 
# From -- ./inp_files/264361.got.cif
#   From: 2010.05.17/outbox.cif.g08.bks.cpg/sg12_133_cif.got.tgz:264361.got - 2010.06.03 13:09:07.
