data_PCOD9201513
_publ_section_title
;
Structure prediction by ZEFSAII (Michael W. Deem and Ramdas Pophale) SiO2 
 PCOD9201513
Probable space group: C 2/M
;
_chemical_formula_sum "Si O2"
_cell_formula_units_Z 60
_cell_length_a 22.024762
_cell_length_b 21.066193
_cell_length_c 15.897750
_cell_angle_alpha 90.000000
_cell_angle_beta 22.619085
_cell_angle_gamma 90.000000
_cell_volume 2836.909027
_symmetry_space_group_name_H-M "C 2/M"
_symmetry_group_IT_number 12
_symmetry_cell_setting 'monoclinic'
loop_
_space_group_symop_operation_xyz
x,y,z
-x,y,-z
-x,-y,-z
x,-y,z
1/2+x,1/2+y,z
1/2-x,1/2+y,-z
1/2-x,1/2-y,-z
1/2+x,1/2-y,z
loop_
_atom_site_type_symbol
_atom_site_label
_atom_site_fract_x
_atom_site_fract_y
_atom_site_fract_z
Si Si1 0.500000 0.669737 0.000000
Si Si2 0.645528 0.783340 0.916818
Si Si3 0.413249 0.425749 0.994344
Si Si4 0.657768 0.828090 0.586780
Si Si5 0.242569 0.573763 0.042795
Si Si6 0.113710 0.426796 0.497058
Si Si7 0.334468 0.697271 0.834394
Si Si8 0.314168 0.696170 0.543993
O O1 0.397407 0.716589 0.072392
O O2 0.542985 0.618436 0.872336
O O3 0.792066 0.783198 0.793635
O O4 0.693816 0.822166 0.772034
O O5 0.498042 0.806241 0.161136
O O6 0.452536 0.500000 0.953541
O O7 0.368433 0.413410 0.955540
O O8 0.250359 0.412954 0.254853
O O9 0.618030 0.882761 0.572930
O O10 0.710373 0.767652 0.462524
O O11 0.781323 0.843955 0.502650
O O12 0.259302 0.500000 0.993940
O O13 0.065884 0.579906 0.306507
O O14 0.266871 0.627251 0.941489
O O15 0.134461 0.500000 0.494791
O O16 0.515081 0.695983 0.632499
O O17 0.250000 0.750000 0.000000
#
# Coordination Sequence:
#
# PCOD9201513 Si02
#       8
#     4   8   8   8   8   8   8   8
#     4  12  23  36  60  88 125 168 204 252 320 376
#     4  12  23  41  61  88 124 163 206 257 317 368
#     4  10  22  36  58  91 128 165 205 253 315 390
#     4  11  22  40  63  91 121 162 209 253 322 376
#     4  10  21  39  62  89 127 168 208 261 319 378
#     4  10  20  37  62  90 123 163 209 256 309 378
#     4  12  23  39  62  93 123 162 213 260 311 381
#     4  11  24  39  62  88 124 162 201 268 315 371
#
# _framework density 21.149778999999999
#
# number of rings (size 3 to 8) (size 9 to 14) (size 15 to 20)
#    0.000    1.067    4.000    2.600    1.867    1.600 
#    0.000    6.000    0.000    4.800    0.000    0.000 
#    0.000    0.000    0.000    0.000    0.000    0.000 
#
# Total GULP energy -167421.656043 kJ/mol
# GULP energy per Si atom -5580.721868 kJ/mol
# Density = 2.110164 g / cm^3
# Si number density = 21.149779 Si / 1000 Ang^3
#
#
#
# Elastic Constant Matrix: (Units=GPa)
#
#
# Indices 1 2 3 4 5 6 
#
# 1 155.5030 48.0685 26.1941 0.0033 -3.0981 -0.0007
# 2 48.0685 84.7905 10.3481 0.0052 3.8913 -0.0020
# 3 26.1941 10.3481 85.2672 0.0043 5.8280 0.0017
# 4 0.0033 0.0052 0.0043 7.9797 0.0024 1.3279
# 5 -3.0981 3.8913 5.8280 0.0024 44.6418 -0.0045
# 6 -0.0007 -0.0020 0.0017 1.3279 -0.0045 38.7253
#
#
#
# Elastic Compliance Matrix: (Units=1/GPa)
#
#
# Indices 1 2 3 4 5 6 
#
# 1 0.008174 -0.004439 -0.002056 0.000000 0.001223 0.000000
# 2 -0.004439 0.014415 -0.000281 -0.000007 -0.001528 0.000001
# 3 -0.002056 -0.000281 0.012513 -0.000005 -0.001752 -0.000001
# 4 0.000000 -0.000007 -0.000005 0.126037 -0.000006 -0.004322
# 5 0.001223 -0.001528 -0.001752 -0.000006 0.022847 0.000003
# 6 0.000000 0.000001 -0.000001 -0.004322 0.000003 0.025971
#
#
# Mechanical properties :
#
#
# Convention : Reuss Voigt Hill
#
# Bulk Modulus (GPa) = 46.40477 54.97579 50.69028
# Shear Modulus (GPa) = 21.67393 34.33270 28.00332
#
# Velocity S-wave (km/s) = 3.20470 4.03341 3.64269
# Velocity P-wave (km/s) = 5.97345 6.90950 6.45845
#
# Compressibility (1/GPa) = 0.02154951
#
# Stress axis : x y z
#
# Youngs Moduli (GPa) = 122.34656 69.37393 79.91531
#
# Poissons Ratio (x) = 0.30794 0.16429
# Poissons Ratio (y) = 0.54308 0.02248
# Poissons Ratio (z) = 0.25152 0.01952
#
# Static dielectric constant tensor:
#      x y z
#    x 1.788040 0.000000 -0.063100 
#    y 0.000000 1.761420 0.000000 
#    z -0.063100 0.000000 1.859290 
# 
# From -- ./inp_files/235178.got.cif
#   From: 2010.05.17/outbox.cif.g08.bks.cpg/sg12_118_cif.got.tgz:235178.got - 2010.06.03 13:09:07.
