data_PCOD9201822
_publ_section_title
;
Structure prediction by ZEFSAII (Michael W. Deem and Ramdas Pophale) SiO2 
 PCOD9201822
Probable space group: C 2/M
;
_chemical_formula_sum "Si O2"
_cell_formula_units_Z 56
_cell_length_a 24.490580
_cell_length_b 23.335434
_cell_length_c 15.438638
_cell_angle_alpha 90.000000
_cell_angle_beta 163.279053
_cell_angle_gamma 90.000000
_cell_volume 2538.516045
_symmetry_space_group_name_H-M "C 2/M"
_symmetry_group_IT_number 12
_symmetry_cell_setting 'monoclinic'
loop_
_space_group_symop_operation_xyz
x,y,z
-x,y,-z
-x,-y,-z
x,-y,z
1/2+x,1/2+y,z
1/2-x,1/2+y,-z
1/2-x,1/2-y,-z
1/2+x,1/2-y,z
loop_
_atom_site_type_symbol
_atom_site_label
_atom_site_fract_x
_atom_site_fract_y
_atom_site_fract_z
Si Si1 0.252910 0.436761 0.804548
Si Si2 0.293651 0.361848 0.413425
Si Si3 0.568899 0.064193 0.822459
Si Si4 0.104094 0.934854 0.789269
Si Si5 0.984589 0.740333 0.727343
Si Si6 0.659169 0.189355 0.668118
Si Si7 0.400261 0.861712 0.714647
O O1 0.348390 0.500000 0.925155
O O2 0.288362 0.367563 0.844685
O O3 0.058431 0.439972 0.456663
O O4 0.263971 0.438406 0.924693
O O5 0.429199 0.399202 0.559053
O O6 0.372721 0.298562 0.542268
O O7 0.259672 0.382015 0.461033
O O8 0.093437 0.360469 0.062260
O O9 0.443576 0.096311 0.701736
O O10 0.607674 0.000000 0.912932
O O11 0.770291 0.090178 0.098215
O O12 0.049432 0.000000 0.684261
O O13 0.958205 0.706798 0.596277
O O14 0.884868 0.700877 0.648424
O O15 0.195789 0.760689 0.078258
O O16 0.500000 0.177628 0.500000
#
# Coordination Sequence:
#
# PCOD9201822 Si02
#       7
#     8   8   8   8   8   8   8
#     4  10  20  37  64  96 130 167 210 264 330 395
#     4  11  25  44  64  89 124 171 220 265 320 389
#     4  10  21  39  65  96 127 162 208 266 329 388
#     4  10  21  39  65  96 127 162 208 266 329 388
#     4  12  24  44  62  94 131 176 221 264 325 392
#     4  12  24  39  66 101 138 174 216 274 333 390
#     4  11  25  44  64  89 124 171 220 265 320 389
#
# _framework density 22.060133
#
# number of rings (size 3 to 8) (size 9 to 14) (size 15 to 20)
#    0.000    1.143    4.286    2.143    0.000    6.000 
#    0.000    5.000    0.000    2.571    0.000    0.000 
#    0.000    0.000    0.000    0.000    0.000    0.000 
#
# Total GULP energy -155929.559823 kJ/mol
# GULP energy per Si atom -5568.912851 kJ/mol
# Density = 2.200992 g / cm^3
# Si number density = 22.060133 Si / 1000 Ang^3
#
#
#
# Elastic Constant Matrix: (Units=GPa)
#
#
# Indices 1 2 3 4 5 6 
#
# 1 58.2645 18.7904 13.7193 0.0000 3.1868 0.0000
# 2 18.7904 89.9516 4.1667 0.0000 1.0191 0.0000
# 3 13.7193 4.1667 39.8956 0.0000 -15.8122 0.0000
# 4 0.0000 0.0000 0.0000 29.2474 0.0000 -6.5699
# 5 3.1868 1.0191 -15.8122 0.0000 27.0412 0.0000
# 6 0.0000 0.0000 0.0000 -6.5699 0.0000 23.9529
#
#
#
# Elastic Compliance Matrix: (Units=1/GPa)
#
#
# Indices 1 2 3 4 5 6 
#
# 1 0.021274 -0.003876 -0.010214 0.000000 -0.008334 0.000000
# 2 -0.003876 0.011921 0.000119 0.000000 0.000077 0.000000
# 3 -0.010214 0.000119 0.037802 0.000000 0.023304 0.000000
# 4 0.000000 0.000000 0.000000 0.036436 0.000000 0.009994
# 5 -0.008334 0.000077 0.023304 0.000000 0.051587 0.000000
# 6 0.000000 0.000000 0.000000 0.009994 0.000000 0.044490
#
#
# Mechanical properties :
#
#
# Convention : Reuss Voigt Hill
#
# Bulk Modulus (GPa) = 23.22740 29.05163 26.13952
# Shear Modulus (GPa) = 20.34150 26.14399 23.24275
#
# Velocity S-wave (km/s) = 3.03989 3.44630 3.24946
# Velocity P-wave (km/s) = 4.78260 5.38831 5.09446
#
# Compressibility (1/GPa) = 0.04305259
#
# Stress axis : x y z
#
# Youngs Moduli (GPa) = 47.00550 83.88910 26.45393
#
# Poissons Ratio (x) = 0.32520 0.27020
# Poissons Ratio (y) = 0.18222 -0.00314
# Poissons Ratio (z) = 0.48011 -0.00995
#
# Static dielectric constant tensor:
#      x y z
#    x 1.853060 0.000000 -0.007050 
#    y 0.000000 1.872710 0.000000 
#    z -0.007050 0.000000 1.830730 
# 
# From -- ./inp_files/242172.got.cif
#   From: 2010.05.17/outbox.cif.g08.bks.cpg/sg12_122_cif.got.tgz:242172.got - 2010.06.03 13:09:07.
