data_PCOD9201313
_publ_section_title
;
Structure prediction by ZEFSAII (Michael W. Deem and Ramdas Pophale) SiO2 
 PCOD9201313
Probable space group: C 2/M
;
_chemical_formula_sum "Si O2"
_cell_formula_units_Z 52
_cell_length_a 11.976215
_cell_length_b 29.310287
_cell_length_c 11.749767
_cell_angle_alpha 90.000000
_cell_angle_beta 37.009964
_cell_angle_gamma 90.000000
_cell_volume 2482.745151
_symmetry_space_group_name_H-M "C 2/M"
_symmetry_group_IT_number 12
_symmetry_cell_setting 'monoclinic'
loop_
_space_group_symop_operation_xyz
x,y,z
-x,y,-z
-x,-y,-z
x,-y,z
1/2+x,1/2+y,z
1/2-x,1/2+y,-z
1/2-x,1/2-y,-z
1/2+x,1/2-y,z
loop_
_atom_site_type_symbol
_atom_site_label
_atom_site_fract_x
_atom_site_fract_y
_atom_site_fract_z
Si Si1 0.000000 0.163645 0.500000
Si Si2 0.032967 0.706721 0.109387
Si Si3 0.974600 0.798255 0.764640
Si Si4 0.186133 0.446284 0.022278
Si Si5 0.158940 0.385881 0.702696
Si Si6 0.930421 0.899083 0.276133
Si Si7 0.307014 0.946246 0.710900
O O1 0.024293 0.194488 0.591498
O O2 0.820304 0.131076 0.657270
O O3 0.956516 0.752647 0.230118
O O4 0.946162 0.661615 0.235087
O O5 0.252320 0.703934 0.949947
O O6 0.000000 0.706904 0.000000
O O7 0.039243 0.845392 0.768044
O O8 0.187084 0.500000 0.993288
O O9 0.183276 0.440983 0.162130
O O10 0.999507 0.421229 0.131979
O O11 0.380055 0.422162 0.833954
O O12 0.272480 0.403915 0.501507
O O13 0.858775 0.922049 0.219791
O O14 0.500000 0.929573 0.500000
O O15 0.289469 0.000000 0.700376
#
# Coordination Sequence:
#
# PCOD9201313 Si02
#       7
#     4   8   8   8   8   8   8
#     4  10  22  42  67  98 132 174 219 268 332 396
#     4  11  22  44  69  95 130 173 218 273 329 394
#     4  10  23  41  68  98 128 174 219 268 328 393
#     4  11  23  40  65  95 132 176 222 276 333 391
#     4  11  23  42  66  93 130 172 215 268 332 393
#     4  11  22  38  63  95 131 171 223 263 326 397
#     4  10  20  37  61  93 134 175 214 271 338 389
#
# _framework density 20.944559999999999
#
# number of rings (size 3 to 8) (size 9 to 14) (size 15 to 20)
#    0.000    1.385    4.615    0.923    0.000    5.538 
#    0.000    0.385    1.692    9.692    0.000    0.000 
#    0.000    0.000    0.000    0.000    0.000    0.000 
#
# Total GULP energy -145256.761523 kJ/mol
# GULP energy per Si atom -5586.798520 kJ/mol
# Density = 2.089689 g / cm^3
# Si number density = 20.944560 Si / 1000 Ang^3
#
#
#
# Elastic Constant Matrix: (Units=GPa)
#
#
# Indices 1 2 3 4 5 6 
#
# 1 42.0538 31.5870 38.8284 0.0000 -4.4286 0.0000
# 2 31.5870 119.6104 57.5688 0.0000 -6.2445 0.0000
# 3 38.8284 57.5688 102.6772 0.0000 -11.7540 0.0000
# 4 0.0000 0.0000 0.0000 35.9522 0.0000 -0.5380
# 5 -4.4286 -6.2445 -11.7540 0.0000 32.6360 0.0000
# 6 0.0000 0.0000 0.0000 -0.5380 0.0000 25.9614
#
#
#
# Elastic Compliance Matrix: (Units=1/GPa)
#
#
# Indices 1 2 3 4 5 6 
#
# 1 0.038071 -0.004279 -0.011994 0.000000 0.000028 0.000000
# 2 -0.004279 0.011932 -0.005087 0.000000 -0.000130 0.000000
# 3 -0.011994 -0.005087 0.017553 0.000000 0.003721 0.000000
# 4 0.000000 0.000000 0.000000 0.027823 0.000000 0.000577
# 5 0.000028 -0.000130 0.003721 0.000000 0.031960 0.000000
# 6 0.000000 0.000000 0.000000 0.000577 0.000000 0.038531
#
#
# Mechanical properties :
#
#
# Convention : Reuss Voigt Hill
#
# Bulk Modulus (GPa) = 40.26574 57.81222 49.03898
# Shear Modulus (GPa) = 23.05546 28.00039 25.52792
#
# Velocity S-wave (km/s) = 3.32141 3.66031 3.49497
# Velocity P-wave (km/s) = 5.82886 6.74731 6.30483
#
# Compressibility (1/GPa) = 0.02483501
#
# Stress axis : x y z
#
# Youngs Moduli (GPa) = 26.26697 83.80828 56.97085
#
# Poissons Ratio (x) = 0.35866 0.68332
# Poissons Ratio (y) = 0.11241 0.28978
# Poissons Ratio (z) = 0.31505 0.42629
#
# Static dielectric constant tensor:
#      x y z
#    x 1.760740 0.000000 -0.004060 
#    y 0.000000 1.729040 0.000000 
#    z -0.004060 0.000000 1.796530 
# 
# From -- ./inp_files/137565.got.cif
#   From: 2010.05.17/outbox.cif.g08.bks.cpg/sg12_69_cif.got.tgz:137565.got - 2010.06.03 13:09:07.
