data_PCOD9201340
_publ_section_title
;
Structure prediction by ZEFSAII (Michael W. Deem and Ramdas Pophale) SiO2 
 PCOD9201340
Probable space group: C 2/M
;
_chemical_formula_sum "Si O2"
_cell_formula_units_Z 44
_cell_length_a 9.275497
_cell_length_b 18.394587
_cell_length_c 12.899243
_cell_angle_alpha 90.000000
_cell_angle_beta 55.554315
_cell_angle_gamma 90.000000
_cell_volume 1814.963254
_symmetry_space_group_name_H-M "C 2/M"
_symmetry_group_IT_number 12
_symmetry_cell_setting 'monoclinic'
loop_
_space_group_symop_operation_xyz
x,y,z
-x,y,-z
-x,-y,-z
x,-y,z
1/2+x,1/2+y,z
1/2-x,1/2+y,-z
1/2-x,1/2-y,-z
1/2+x,1/2-y,z
loop_
_atom_site_type_symbol
_atom_site_label
_atom_site_fract_x
_atom_site_fract_y
_atom_site_fract_z
Si Si1 0.760805 0.844443 0.437899
Si Si2 0.500000 0.269113 0.500000
Si Si3 0.246191 0.500000 0.682099
Si Si4 0.506627 0.870572 0.734622
Si Si5 0.373988 0.500000 0.386020
Si Si6 0.893333 0.083459 0.151959
Si Si7 0.950566 0.765208 0.900876
O O1 0.668236 0.781736 0.408372
O O2 0.930779 0.817595 0.432762
O O3 0.610134 0.856814 0.585889
O O4 0.795469 0.923581 0.377383
O O5 0.122932 0.430487 0.745899
O O6 0.308857 0.500000 0.535509
O O7 0.417066 0.500000 0.684058
O O8 0.309933 0.898759 0.792946
O O9 0.509115 0.797397 0.799313
O O10 0.983891 0.155793 0.165217
O O11 0.916555 0.000000 0.182906
O O12 0.000000 0.081175 0.000000
O O13 0.750000 0.750000 0.000000
O O14 0.000000 0.757696 0.000000
#
# Coordination Sequence:
#
# PCOD9201340 Si02
#       7
#     8   4   4   8   4   8   8
#     4  10  22  37  63  86 120 155 197 245 296 362
#     4  10  22  40  54  92 120 154 190 244 310 340
#     4   9  18  34  64  86 118 155 206 237 301 370
#     4  11  20  36  63  90 113 159 210 241 288 363
#     4   9  18  39  60  86 118 157 187 251 308 356
#     4  10  20  37  62  85 116 159 200 243 298 359
#     4  11  22  39  59  87 123 159 196 248 304 342
#
# _framework density 24.242916999999998
#
# number of rings (size 3 to 8) (size 9 to 14) (size 15 to 20)
#    0.000    1.818    4.545    2.182    2.545    0.364 
#    0.000    0.455    0.000    0.000    2.364    0.000 
#    0.000    0.000    0.000    0.000    0.000    0.000 
#
# Total GULP energy -123017.186750 kJ/mol
# GULP energy per Si atom -5591.690307 kJ/mol
# Density = 2.418774 g / cm^3
# Si number density = 24.242917 Si / 1000 Ang^3
#
#
#
# Elastic Constant Matrix: (Units=GPa)
#
#
# Indices 1 2 3 4 5 6 
#
# 1 141.0874 73.9308 35.3574 0.0000 -30.7881 0.0000
# 2 73.9308 240.4874 77.2586 0.0000 -23.4030 0.0000
# 3 35.3574 77.2586 103.0268 0.0000 -38.5193 0.0000
# 4 0.0000 0.0000 0.0000 67.9602 0.0000 9.4519
# 5 -30.7881 -23.4030 -38.5193 0.0000 29.9585 0.0000
# 6 0.0000 0.0000 0.0000 9.4519 0.0000 41.8019
#
#
#
# Elastic Compliance Matrix: (Units=1/GPa)
#
#
# Indices 1 2 3 4 5 6 
#
# 1 0.010729 -0.003184 0.003656 0.000000 0.013239 0.000000
# 2 -0.003184 0.006482 -0.005966 0.000000 -0.005880 0.000000
# 3 0.003656 -0.005966 0.024240 0.000000 0.030264 0.000000
# 4 0.000000 0.000000 0.000000 0.015192 0.000000 -0.003435
# 5 0.013239 -0.005880 0.030264 0.000000 0.081303 0.000000
# 6 0.000000 0.000000 0.000000 -0.003435 0.000000 0.024699
#
#
# Mechanical properties :
#
#
# Convention : Reuss Voigt Hill
#
# Bulk Modulus (GPa) = 32.82835 95.29946 64.06391
# Shear Modulus (GPa) = 27.20496 47.81445 37.50971
#
# Velocity S-wave (km/s) = 3.35353 4.44588 3.93777
# Velocity P-wave (km/s) = 5.34469 8.10864 6.86716
#
# Compressibility (1/GPa) = 0.03046147
#
# Stress axis : x y z
#
# Youngs Moduli (GPa) = 93.20167 154.28214 41.25332
#
# Poissons Ratio (x) = 0.49131 -0.15081
# Poissons Ratio (y) = 0.29680 0.24612
# Poissons Ratio (z) = -0.34071 0.92047
#
# Static dielectric constant tensor:
#      x y z
#    x 2.044000 0.000000 0.056450 
#    y 0.000000 1.980140 0.000000 
#    z 0.056450 0.000000 2.045820 
# 
# From -- ./inp_files/256883.got.cif
#   From: 2010.05.17/outbox.cif.g08.bks.cpg/sg12_129_cif.got.tgz:256883.got - 2010.06.03 13:09:07.
