data_PCOD9201448
_publ_section_title
;
Structure prediction by ZEFSAII (Michael W. Deem and Ramdas Pophale) SiO2 
 PCOD9201448
Probable space group: C 2/M
;
_chemical_formula_sum "Si O2"
_cell_formula_units_Z 48
_cell_length_a 19.166211
_cell_length_b 12.075358
_cell_length_c 11.140739
_cell_angle_alpha 90.000000
_cell_angle_beta 64.738025
_cell_angle_gamma 90.000000
_cell_volume 2331.817154
_symmetry_space_group_name_H-M "C 2/M"
_symmetry_group_IT_number 12
_symmetry_cell_setting 'monoclinic'
loop_
_space_group_symop_operation_xyz
x,y,z
-x,y,-z
-x,-y,-z
x,-y,z
1/2+x,1/2+y,z
1/2-x,1/2+y,-z
1/2-x,1/2-y,-z
1/2+x,1/2-y,z
loop_
_atom_site_type_symbol
_atom_site_label
_atom_site_fract_x
_atom_site_fract_y
_atom_site_fract_z
Si Si1 0.530520 0.228690 0.850015
Si Si2 0.657744 0.244357 0.343335
Si Si3 0.751328 0.121313 0.452806
Si Si4 0.423991 0.376971 0.389987
Si Si5 0.186631 0.631893 0.833930
Si Si6 0.384320 0.873240 0.865996
O O1 0.525257 0.314524 0.744929
O O2 0.617194 0.183843 0.806098
O O3 0.470365 0.133359 0.857841
O O4 0.500000 0.274109 0.000000
O O5 0.696499 0.137852 0.379220
O O6 0.597284 0.303875 0.477347
O O7 0.729584 0.327579 0.268518
O O8 0.623841 0.203737 0.243257
O O9 0.750000 0.250000 0.500000
O O10 0.842898 0.110529 0.377914
O O11 0.728241 0.000000 0.526744
O O12 0.451149 0.500000 0.402375
O O13 0.180781 0.500000 0.833788
O O14 0.170169 0.664976 0.984093
O O15 0.365863 0.000000 0.849165
#
# Coordination Sequence:
#
# PCOD9201448 Si02
#       6
#     8   8   8   8   8   8
#     4  10  21  40  61  84 116 159 204 244 292 360
#     4  11  20  36  59  91 119 152 194 249 310 358
#     4   9  18  33  54  83 117 149 192 244 297 352
#     4  10  21  38  59  86 117 154 201 251 301 359
#     4  10  20  37  62  89 118 158 200 246 300 362
#     4  10  22  39  59  86 122 157 197 248 301 360
#
# _framework density 20.584803000000001
#
# number of rings (size 3 to 8) (size 9 to 14) (size 15 to 20)
#    0.000    2.000    1.667    2.000    0.000    3.667 
#    0.000    5.833    0.000    1.000    0.000    0.000 
#    0.000    0.000    0.000    0.000    0.000    0.000 
#
# Total GULP energy -133604.317555 kJ/mol
# GULP energy per Si atom -5566.846565 kJ/mol
# Density = 2.053795 g / cm^3
# Si number density = 20.584803 Si / 1000 Ang^3
#
#
#
# Elastic Constant Matrix: (Units=GPa)
#
#
# Indices 1 2 3 4 5 6 
#
# 1 57.4266 13.1382 30.6929 0.0000 13.9592 0.0000
# 2 13.1382 112.0296 51.1981 0.0000 8.8326 0.0000
# 3 30.6929 51.1981 131.4042 0.0000 20.5885 0.0000
# 4 0.0000 0.0000 0.0000 23.1637 0.0000 1.7358
# 5 13.9592 8.8326 20.5885 0.0000 27.7696 0.0000
# 6 0.0000 0.0000 0.0000 1.7358 0.0000 19.7226
#
#
#
# Elastic Compliance Matrix: (Units=1/GPa)
#
#
# Indices 1 2 3 4 5 6 
#
# 1 0.021350 -0.000203 -0.003662 0.000000 -0.007953 0.000000
# 2 -0.000203 0.010865 -0.004141 0.000000 -0.000283 0.000000
# 3 -0.003662 -0.004141 0.010844 0.000000 -0.004882 0.000000
# 4 0.000000 0.000000 0.000000 0.043458 0.000000 -0.003825
# 5 -0.007953 -0.000283 -0.004882 0.000000 0.043718 0.000000
# 6 0.000000 0.000000 0.000000 -0.003825 0.000000 0.051040
#
#
# Mechanical properties :
#
#
# Convention : Reuss Voigt Hill
#
# Bulk Modulus (GPa) = 36.97369 54.54654 45.76012
# Shear Modulus (GPa) = 24.23624 27.85327 26.04475
#
# Velocity S-wave (km/s) = 3.43503 3.68244 3.56088
# Velocity P-wave (km/s) = 5.80803 6.68105 6.25978
#
# Compressibility (1/GPa) = 0.02704626
#
# Stress axis : x y z
#
# Youngs Moduli (GPa) = 46.83784 92.03841 92.21835
#
# Poissons Ratio (x) = 0.01873 0.33766
# Poissons Ratio (y) = 0.00953 0.38191
# Poissons Ratio (z) = 0.17150 0.38117
#
# Static dielectric constant tensor:
#      x y z
#    x 1.754940 0.000000 0.022160 
#    y 0.000000 1.762330 0.000000 
#    z 0.022160 0.000000 1.789720 
# 
# From -- ./inp_files/164705.got.cif
#   From: 2010.05.17/outbox.cif.g08.bks.cpg/sg12_83_cif.got.tgz:164705.got - 2010.06.03 13:09:07.
