data_PCOD9201101
_publ_section_title
;
Structure prediction by ZEFSAII (Michael W. Deem and Ramdas Pophale) SiO2 
 PCOD9201101
Probable space group: C 2/M
;
_chemical_formula_sum "Si O2"
_cell_formula_units_Z 58
_cell_length_a 19.121325
_cell_length_b 8.021563
_cell_length_c 22.225049
_cell_angle_alpha 90.000000
_cell_angle_beta 58.392221
_cell_angle_gamma 90.000000
_cell_volume 2903.245823
_symmetry_space_group_name_H-M "C 2/M"
_symmetry_group_IT_number 12
_symmetry_cell_setting 'monoclinic'
loop_
_space_group_symop_operation_xyz
x,y,z
-x,y,-z
-x,-y,-z
x,-y,z
1/2+x,1/2+y,z
1/2-x,1/2+y,-z
1/2-x,1/2-y,-z
1/2+x,1/2-y,z
loop_
_atom_site_type_symbol
_atom_site_label
_atom_site_fract_x
_atom_site_fract_y
_atom_site_fract_z
Si Si1 0.339556 0.813751 0.443726
Si Si2 0.141269 0.308962 0.237852
Si Si3 0.982123 0.704382 0.595635
Si Si4 0.137726 0.811419 0.694473
Si Si5 0.692912 0.810713 0.789826
Si Si6 0.475786 0.298888 0.076745
Si Si7 0.044368 0.802867 0.168894
Si Si8 0.500000 0.500000 0.500000
O O1 0.250000 0.750000 0.500000
O O2 0.423427 0.738846 0.432809
O O3 0.347156 0.805476 0.368463
O O4 0.342107 0.000000 0.465576
O O5 0.167182 0.500000 0.233289
O O6 0.221193 0.201442 0.215287
O O7 0.070601 0.277036 0.319427
O O8 0.105794 0.281864 0.187372
O O9 0.978473 0.500000 0.582472
O O10 0.955036 0.845857 0.560203
O O11 0.196221 0.786660 0.725172
O O12 0.046533 0.786235 0.761524
O O13 0.144895 0.000000 0.668144
O O14 0.617508 0.743267 0.863385
O O15 0.672833 0.000000 0.782990
O O16 0.482287 0.500000 0.073741
O O17 0.533994 0.239297 0.105337
O O18 0.500000 0.236160 0.000000
O O19 0.063535 0.000000 0.158659
#
# Coordination Sequence:
#
# PCOD9201101 Si02
#       8
#     8   8   8   8   8   8   8   2
#     4  11  23  39  60  86 118 152 200 258 313 374
#     4  11  22  39  62  86 122 157 206 260 306 361
#     4  10  25  44  63  90 119 163 214 262 315 387
#     4  10  20  37  61  85 115 151 201 249 304 366
#     4  11  23  37  59  91 123 157 202 252 302 360
#     4   9  19  39  64  92 128 165 199 241 299 360
#     4   9  18  33  61  91 116 154 200 243 294 363
#     4  12  26  40  72  82 128 168 206 258 336 390
#
# _framework density 19.977640999999998
#
# number of rings (size 3 to 8) (size 9 to 14) (size 15 to 20)
#    0.000    1.793    1.379    3.517    3.862    3.586 
#    0.000    2.069    0.000    0.000    0.000    0.000 
#    0.000    0.000    0.000    0.000    0.000    0.000 
#
# Total GULP energy -161447.500278 kJ/mol
# GULP energy per Si atom -5567.155182 kJ/mol
# Density = 1.993217 g / cm^3
# Si number density = 19.977641 Si / 1000 Ang^3
#
#
#
# Elastic Constant Matrix: (Units=GPa)
#
#
# Indices 1 2 3 4 5 6 
#
# 1 76.0854 4.8795 11.9319 -0.0001 6.8086 0.0006
# 2 4.8795 47.5452 13.8304 -0.0002 5.2088 0.0009
# 3 11.9319 13.8304 65.3152 0.0000 14.8869 0.0000
# 4 -0.0001 -0.0002 0.0000 20.3091 0.0000 1.5438
# 5 6.8086 5.2088 14.8869 0.0000 19.8830 -0.0001
# 6 0.0006 0.0009 0.0000 1.5438 -0.0001 21.8282
#
#
#
# Elastic Compliance Matrix: (Units=1/GPa)
#
#
# Indices 1 2 3 4 5 6 
#
# 1 0.013733 -0.000571 -0.001628 0.000000 -0.003334 0.000000
# 2 -0.000571 0.022566 -0.004065 0.000000 -0.002673 -0.000001
# 3 -0.001628 -0.004065 0.019411 0.000000 -0.012911 0.000000
# 4 0.000000 0.000000 0.000000 0.049505 0.000000 -0.003501
# 5 -0.003334 -0.002673 -0.012911 0.000000 0.061803 0.000000
# 6 0.000000 -0.000001 0.000000 -0.003501 0.000000 0.046060
#
#
# Mechanical properties :
#
#
# Convention : Reuss Voigt Hill
#
# Bulk Modulus (GPa) = 23.15667 27.80325 25.47996
# Shear Modulus (GPa) = 20.83319 22.95765 21.89542
#
# Velocity S-wave (km/s) = 3.23278 3.39361 3.31418
# Velocity P-wave (km/s) = 5.05480 5.41321 5.23707
#
# Compressibility (1/GPa) = 0.04318409
#
# Stress axis : x y z
#
# Youngs Moduli (GPa) = 72.81510 44.31356 51.51618
#
# Poissons Ratio (x) = 0.02528 0.08387
# Poissons Ratio (y) = 0.04154 0.20941
# Poissons Ratio (z) = 0.11855 0.18013
#
# Static dielectric constant tensor:
#      x y z
#    x 1.795180 0.000000 0.019740 
#    y 0.000000 1.723600 0.000000 
#    z 0.019740 0.000000 1.697670 
# 
# From -- ./inp_files/314772.got.cif
#   From: 2010.05.17/outbox.cif.g08.bks.cpg/sg12_158_cif.got.tgz:314772.got - 2010.06.03 13:09:07.
