data_PCOD9201018
_publ_section_title
;
Structure prediction by ZEFSAII (Michael W. Deem and Ramdas Pophale) SiO2 
 PCOD9201018
Probable space group: C 2/M
;
_chemical_formula_sum "Si O2"
_cell_formula_units_Z 40
_cell_length_a 14.921757
_cell_length_b 13.877029
_cell_length_c 8.946995
_cell_angle_alpha 90.000000
_cell_angle_beta 91.967919
_cell_angle_gamma 90.000000
_cell_volume 1851.558492
_symmetry_space_group_name_H-M "C 2/M"
_symmetry_group_IT_number 12
_symmetry_cell_setting 'monoclinic'
loop_
_space_group_symop_operation_xyz
x,y,z
-x,y,-z
-x,-y,-z
x,-y,z
1/2+x,1/2+y,z
1/2-x,1/2+y,-z
1/2-x,1/2-y,-z
1/2+x,1/2-y,z
loop_
_atom_site_type_symbol
_atom_site_label
_atom_site_fract_x
_atom_site_fract_y
_atom_site_fract_z
Si Si1 0.231748 0.114205 0.351116
Si Si2 0.448803 0.109487 0.339776
Si Si3 0.321665 0.223881 0.877161
Si Si4 0.309056 0.387685 0.310538
Si Si5 0.548492 0.270941 0.877254
O O1 0.340467 0.127509 0.346338
O O2 0.180232 0.182681 0.231395
O O3 0.199652 0.140477 0.516401
O O4 0.215059 0.000000 0.325467
O O5 0.500000 0.111775 0.500000
O O6 0.490099 0.195239 0.243827
O O7 0.458777 0.000000 0.280822
O O8 0.284704 0.137862 0.775056
O O9 0.250000 0.250000 0.000000
O O10 0.403724 0.205736 0.992009
O O11 0.326571 0.500000 0.306773
O O12 0.384664 0.333129 0.220405
O O13 0.500000 0.337777 0.000000
#
# Coordination Sequence:
#
# PCOD9201018 Si02
#       5
#     8   8   8   8   8
#     4  10  20  38  65  92 119 156 207 257 301 361
#     4  10  22  39  61  92 126 160 197 248 313 370
#     4  10  20  37  60  90 119 157 199 250 307 353
#     4  10  22  39  62  89 118 162 211 249 295 357
#     4  11  25  40  59  91 128 165 201 250 310 363
#
# _framework density 21.603424
#
# number of rings (size 3 to 8) (size 9 to 14) (size 15 to 20)
#    0.000    1.800    4.000    0.600    2.800    4.800 
#    0.000    0.000    0.000    3.000    0.000    0.000 
#    0.000    0.000    0.000    0.000    0.000    0.000 
#
# Total GULP energy -111346.902306 kJ/mol
# GULP energy per Si atom -5567.345115 kJ/mol
# Density = 2.155425 g / cm^3
# Si number density = 21.603424 Si / 1000 Ang^3
#
#
#
# Elastic Constant Matrix: (Units=GPa)
#
#
# Indices 1 2 3 4 5 6 
#
# 1 26.4192 4.8203 11.0271 0.0000 -2.5872 0.0000
# 2 4.8203 90.5296 49.4792 0.0000 -5.9449 0.0000
# 3 11.0271 49.4792 135.8677 0.0000 -6.8608 0.0000
# 4 0.0000 0.0000 0.0000 -10.1926 0.0000 -5.4225
# 5 -2.5872 -5.9449 -6.8608 0.0000 42.1492 0.0000
# 6 0.0000 0.0000 0.0000 -5.4225 0.0000 6.1110
#
#
#
# Elastic Compliance Matrix: (Units=1/GPa)
#
#
# Indices 1 2 3 4 5 6 
#
# 1 0.039339 -0.000347 -0.002971 0.000000 0.001882 0.000000
# 2 -0.000347 0.013848 -0.004958 0.000000 0.001125 0.000000
# 3 -0.002971 -0.004958 0.009440 0.000000 0.000655 0.000000
# 4 0.000000 0.000000 0.000000 -0.066649 0.000000 -0.059139
# 5 0.001882 0.001125 0.000655 0.000000 0.024106 0.000000
# 6 0.000000 0.000000 0.000000 -0.059139 0.000000 0.111164
#
#
# Mechanical properties :
#
#
# Convention : Reuss Voigt Hill
#
# Bulk Modulus (GPa) = 21.70411 42.60775 32.15593
# Shear Modulus (GPa) = 30.64477 20.11284 25.37880
#
# Velocity S-wave (km/s) = 3.77040 3.05454 3.43119
# Velocity P-wave (km/s) = 5.38730 5.67502 5.53303
#
# Compressibility (1/GPa) = 0.04607421
#
# Stress axis : x y z
#
# Youngs Moduli (GPa) = 25.41999 72.21050 105.93239
#
# Poissons Ratio (x) = 0.02506 0.31476
# Poissons Ratio (y) = 0.00882 0.52524
# Poissons Ratio (z) = 0.07553 0.35804
#
# Static dielectric constant tensor:
#      x y z
#    x 1.603840 0.000000 0.026210 
#    y 0.000000 1.821950 0.000000 
#    z 0.026210 0.000000 1.729280 
# 
# From -- ./inp_files/72411.got.cif
#   From: 2010.05.17/outbox.cif.g08.bks.cpg/sg12_37_cif.got.tgz:72411.got - 2010.06.03 13:09:07.
