data_PCOD9201160
_publ_section_title
;
Structure prediction by ZEFSAII (Michael W. Deem and Ramdas Pophale) SiO2 
 PCOD9201160
Probable space group: C 2/M
;
_chemical_formula_sum "Si O2"
_cell_formula_units_Z 64
_cell_length_a 15.968508
_cell_length_b 8.851286
_cell_length_c 24.521847
_cell_angle_alpha 90.000000
_cell_angle_beta 80.435940
_cell_angle_gamma 90.000000
_cell_volume 3417.787447
_symmetry_space_group_name_H-M "C 2/M"
_symmetry_group_IT_number 12
_symmetry_cell_setting 'monoclinic'
loop_
_space_group_symop_operation_xyz
x,y,z
-x,y,-z
-x,-y,-z
x,-y,z
1/2+x,1/2+y,z
1/2-x,1/2+y,-z
1/2-x,1/2-y,-z
1/2+x,1/2-y,z
loop_
_atom_site_type_symbol
_atom_site_label
_atom_site_fract_x
_atom_site_fract_y
_atom_site_fract_z
Si Si1 0.913239 0.680552 0.675012
Si Si2 0.793650 0.178783 0.442338
Si Si3 0.437535 0.182251 0.257322
Si Si4 0.856081 0.182018 0.936090
Si Si5 0.321984 0.317960 0.064715
Si Si6 0.034895 0.817151 0.864561
Si Si7 0.974326 0.679031 0.440244
Si Si8 0.741296 0.819462 0.669231
O O1 0.900142 0.500000 0.680519
O O2 0.824445 0.764101 0.691954
O O3 0.985869 0.724835 0.710270
O O4 0.951102 0.711891 0.610668
O O5 0.750000 0.250000 0.500000
O O6 0.892331 0.224488 0.434086
O O7 0.756412 0.247129 0.390951
O O8 0.781869 0.000000 0.444008
O O9 0.450840 0.252412 0.196798
O O10 0.346795 0.227426 0.292595
O O11 0.437710 0.000000 0.253505
O O12 0.771664 0.249993 0.918270
O O13 0.943613 0.230239 0.898616
O O14 0.851544 0.000000 0.934015
O O15 0.853502 0.224837 0.000456
O O16 0.316334 0.500000 0.066785
O O17 0.389778 0.269657 0.102633
O O18 0.035407 0.000000 0.862594
O O19 0.953181 0.500000 0.436385
O O20 0.000000 0.704947 0.500000
O O21 0.741147 0.000000 0.664390
#
# Coordination Sequence:
#
# PCOD9201160 Si02
#       8
#     8   8   8   8   8   8   8   8
#     4  10  21  40  62  86 117 153 191 236 297 353
#     4  12  24  38  60  89 121 154 192 237 289 350
#     4  10  23  42  60  81 118 160 194 240 296 350
#     4   9  18  34  56  83 116 152 191 240 295 346
#     4   9  18  34  56  83 116 153 192 239 294 347
#     4  10  21  36  57  83 113 151 199 244 286 344
#     4  10  20  37  61  87 119 153 188 235 293 350
#     4  11  23  42  64  87 116 152 195 242 295 350
#
# _framework density 18.725566000000001
#
# number of rings (size 3 to 8) (size 9 to 14) (size 15 to 20)
#    0.000    1.875    1.250    2.625    0.000    6.750 
#    0.000    5.000    0.000    3.750    0.000    0.000 
#    0.000    0.000    0.000    0.000    0.000    0.000 
#
# Total GULP energy -178779.164715 kJ/mol
# GULP energy per Si atom -5586.848897 kJ/mol
# Density = 1.868295 g / cm^3
# Si number density = 18.725566 Si / 1000 Ang^3
#
#
#
# Elastic Constant Matrix: (Units=GPa)
#
#
# Indices 1 2 3 4 5 6 
#
# 1 175.3294 52.9517 94.2894 0.0000 8.2323 0.0000
# 2 52.9517 33.5062 34.4716 0.0000 2.2487 0.0000
# 3 94.2894 34.4716 128.5027 0.0000 4.5276 0.0000
# 4 0.0000 0.0000 0.0000 31.9275 0.0000 0.7626
# 5 8.2323 2.2487 4.5276 0.0000 10.8628 0.0000
# 6 0.0000 0.0000 0.0000 0.7626 0.0000 34.0517
#
#
#
# Elastic Compliance Matrix: (Units=1/GPa)
#
#
# Indices 1 2 3 4 5 6 
#
# 1 0.013642 -0.015349 -0.005724 0.000000 -0.004775 0.000000
# 2 -0.015349 0.058663 -0.004522 0.000000 0.001374 0.000000
# 3 -0.005724 -0.004522 0.013203 0.000000 -0.000229 0.000000
# 4 0.000000 0.000000 0.000000 0.031338 0.000000 -0.000702
# 5 -0.004775 0.001374 -0.000229 0.000000 0.095487 0.000000
# 6 0.000000 0.000000 0.000000 -0.000702 0.000000 0.029383
#
#
# Mechanical properties :
#
#
# Convention : Reuss Voigt Hill
#
# Bulk Modulus (GPa) = 29.14044 77.86264 53.50154
# Shear Modulus (GPa) = 16.42868 25.74345 21.08606
#
# Velocity S-wave (km/s) = 2.96521 3.71182 3.35932
# Velocity P-wave (km/s) = 5.22675 7.74863 6.60909
#
# Compressibility (1/GPa) = 0.03431657
#
# Stress axis : x y z
#
# Youngs Moduli (GPa) = 73.30506 17.04646 75.74015
#
# Poissons Ratio (x) = 0.26165 0.43352
# Poissons Ratio (y) = 1.12519 0.34253
# Poissons Ratio (z) = 0.41958 0.07709
#
# Static dielectric constant tensor:
#      x y z
#    x 1.646060 0.000000 0.002280 
#    y 0.000000 1.631010 0.000000 
#    z 0.002280 0.000000 1.626640 
# 
# From -- ./inp_files/338708.got.cif
#   From: 2010.05.17/outbox.cif.g08.bks.cpg/sg12_170_cif.got.tgz:338708.got - 2010.06.03 13:09:07.
