data_PCOD9201348
_publ_section_title
;
Structure prediction by ZEFSAII (Michael W. Deem and Ramdas Pophale) SiO2 
 PCOD9201348
Probable space group: C 2/M
;
_chemical_formula_sum "Si O2"
_cell_formula_units_Z 58
_cell_length_a 19.328515
_cell_length_b 10.321297
_cell_length_c 21.466417
_cell_angle_alpha 90.000000
_cell_angle_beta 48.513977
_cell_angle_gamma 90.000000
_cell_volume 3208.057738
_symmetry_space_group_name_H-M "C 2/M"
_symmetry_group_IT_number 12
_symmetry_cell_setting 'monoclinic'
loop_
_space_group_symop_operation_xyz
x,y,z
-x,y,-z
-x,-y,-z
x,-y,z
1/2+x,1/2+y,z
1/2-x,1/2+y,-z
1/2-x,1/2-y,-z
1/2+x,1/2-y,z
loop_
_atom_site_type_symbol
_atom_site_label
_atom_site_fract_x
_atom_site_fract_y
_atom_site_fract_z
Si Si1 0.434070 0.850662 0.847001
Si Si2 0.215352 0.344205 0.397932
Si Si3 0.367475 0.153963 0.683568
Si Si4 0.060819 0.212411 0.566901
Si Si5 0.912883 0.650412 0.006520
Si Si6 0.244317 0.345526 0.126395
Si Si7 0.426739 0.351911 0.297485
Si Si8 0.500000 0.500000 0.500000
O O1 0.329148 0.829765 0.885904
O O2 0.500293 0.748538 0.774026
O O3 0.457570 0.000000 0.815557
O O4 0.440749 0.838062 0.917365
O O5 0.205285 0.500000 0.407263
O O6 0.176105 0.296588 0.354880
O O7 0.323383 0.315061 0.338409
O O8 0.153822 0.281725 0.488518
O O9 0.474115 0.190833 0.623580
O O10 0.310768 0.195576 0.778208
O O11 0.359873 0.000000 0.686650
O O12 0.072054 0.153078 0.628473
O O13 0.032132 0.111104 0.531379
O O14 0.882104 0.500000 0.034383
O O15 0.832567 0.754202 0.066619
O O16 0.000000 0.672529 0.000000
O O17 0.267352 0.500000 0.116521
O O18 0.446023 0.500000 0.265645
#
# Coordination Sequence:
#
# PCOD9201348 Si02
#       8
#     8   8   8   8   8   8   8   2
#     4  10  22  42  63  87 121 160 201 243 295 358
#     4  10  22  38  58  85 116 157 201 249 296 348
#     4  10  20  37  62  86 115 152 202 246 293 351
#     4  12  21  40  58  84 119 161 198 247 299 352
#     4  10  23  42  63  91 125 156 192 239 300 367
#     4  10  21  38  63  92 119 153 202 247 288 354
#     4  11  24  39  59  89 123 154 202 253 296 348
#     4  12  24  36  58  80 124 152 198 254 292 352
#
# _framework density 18.079474999999999
#
# number of rings (size 3 to 8) (size 9 to 14) (size 15 to 20)
#    0.000    1.517    3.448    1.241    1.931    3.034 
#    2.483    0.000    0.000    0.000    0.000    0.000 
#    0.000    0.000    0.000    0.000    0.000    0.000 
#
# Total GULP energy -161587.203436 kJ/mol
# GULP energy per Si atom -5571.972532 kJ/mol
# Density = 1.803833 g / cm^3
# Si number density = 18.079475 Si / 1000 Ang^3
#
#
#
# Elastic Constant Matrix: (Units=GPa)
#
#
# Indices 1 2 3 4 5 6 
#
# 1 99.1375 47.9225 43.2673 0.0000 -7.0380 0.0000
# 2 47.9225 80.8964 65.6179 0.0000 -13.5053 0.0000
# 3 43.2673 65.6179 79.2185 0.0000 -8.9655 0.0000
# 4 0.0000 0.0000 0.0000 25.5744 0.0000 -5.3299
# 5 -7.0380 -13.5053 -8.9655 0.0000 24.9250 0.0000
# 6 0.0000 0.0000 0.0000 -5.3299 0.0000 24.0836
#
#
#
# Elastic Compliance Matrix: (Units=1/GPa)
#
#
# Indices 1 2 3 4 5 6 
#
# 1 0.014288 -0.006595 -0.002386 0.000000 -0.000397 0.000000
# 2 -0.006595 0.043047 -0.030882 0.000000 0.010354 0.000000
# 3 -0.002386 -0.030882 0.039130 0.000000 -0.003332 0.000000
# 4 0.000000 0.000000 0.000000 0.040992 0.000000 0.009072
# 5 -0.000397 0.010354 -0.003332 0.000000 0.044420 0.000000
# 6 0.000000 0.000000 0.000000 0.009072 0.000000 0.043530
#
#
# Mechanical properties :
#
#
# Convention : Reuss Voigt Hill
#
# Bulk Modulus (GPa) = 59.74563 63.65198 61.69881
# Shear Modulus (GPa) = 16.09207 21.74624 18.91915
#
# Velocity S-wave (km/s) = 2.98665 3.47192 3.23839
# Velocity P-wave (km/s) = 6.70904 7.16628 6.94143
#
# Compressibility (1/GPa) = 0.01673762
#
# Stress axis : x y z
#
# Youngs Moduli (GPa) = 69.98774 23.23060 25.55616
#
# Poissons Ratio (x) = 0.15321 0.06097
# Poissons Ratio (y) = 0.46159 0.78923
# Poissons Ratio (z) = 0.16698 0.71741
#
# Static dielectric constant tensor:
#      x y z
#    x 1.624180 0.000000 0.019250 
#    y 0.000000 1.606230 0.000000 
#    z 0.019250 0.000000 1.592650 
# 
# From -- ./inp_files/315958.got.cif
#   From: 2010.05.17/outbox.cif.g08.bks.cpg/sg12_158_cif.got.tgz:315958.got - 2010.06.03 13:09:07.
