data_PCOD9201129
_publ_section_title
;
Structure prediction by ZEFSAII (Michael W. Deem and Ramdas Pophale) SiO2 
 PCOD9201129
Probable space group: C 2/M
;
_chemical_formula_sum "Si O2"
_cell_formula_units_Z 48
_cell_length_a 18.528770
_cell_length_b 14.776685
_cell_length_c 13.156265
_cell_angle_alpha 90.000000
_cell_angle_beta 134.763092
_cell_angle_gamma 90.000000
_cell_volume 2557.581887
_symmetry_space_group_name_H-M "C 2/M"
_symmetry_group_IT_number 12
_symmetry_cell_setting 'monoclinic'
loop_
_space_group_symop_operation_xyz
x,y,z
-x,y,-z
-x,-y,-z
x,-y,z
1/2+x,1/2+y,z
1/2-x,1/2+y,-z
1/2-x,1/2-y,-z
1/2+x,1/2-y,z
loop_
_atom_site_type_symbol
_atom_site_label
_atom_site_fract_x
_atom_site_fract_y
_atom_site_fract_z
Si Si1 0.723180 0.896597 0.170585
Si Si2 0.610012 0.893654 0.654442
Si Si3 0.955571 0.106345 0.345558
Si Si4 0.947405 0.603403 0.170584
Si Si5 0.244967 0.772395 0.331561
Si Si6 0.086593 0.772395 0.331560
O O1 0.834371 0.883428 0.230998
O O2 0.713123 0.820554 0.245619
O O3 0.720684 0.000000 0.208368
O O4 0.636014 0.887718 0.000001
O O5 0.500000 0.864784 0.500000
O O6 0.603373 0.883428 0.769002
O O7 0.700856 0.837546 0.695301
O O8 0.621598 0.000000 0.641572
O O9 0.000000 0.135216 0.500000
O O10 0.005555 0.162454 0.304699
O O11 0.980026 0.000000 0.358428
O O12 0.987683 0.500000 0.208367
O O13 0.032495 0.679446 0.245617
O O14 0.148876 0.811221 0.297751
O O15 0.331018 0.750001 0.500000
#
# Coordination Sequence:
#
# PCOD9201129 Si02
#       6
#     8   8   8   8   8   8
#     4  10  22  40  63  90 118 156 206 252 294 347
#     4  10  20  37  61  86 116 156 199 245 297 354
#     4  10  20  37  61  86 116 156 199 245 297 354
#     4  10  22  40  63  90 118 156 206 252 294 347
#     4  11  23  36  56  88 123 159 197 240 298 361
#     4  11  23  36  56  88 123 159 197 240 298 361
#
# _framework density 18.767728000000002
#
# number of rings (size 3 to 8) (size 9 to 14) (size 15 to 20)
#    0.000    1.667    3.333    1.000    0.000    4.667 
#    0.000    5.000    0.000    0.000    0.000    7.000 
#    0.000    0.000    0.000    0.000    0.000    0.000 
#
# Total GULP energy -134049.282847 kJ/mol
# GULP energy per Si atom -5585.386785 kJ/mol
# Density = 1.872501 g / cm^3
# Si number density = 18.767728 Si / 1000 Ang^3
#
#
#
# Elastic Constant Matrix: (Units=GPa)
#
#
# Indices 1 2 3 4 5 6 
#
# 1 79.4981 51.1355 20.9990 0.0000 25.0596 0.0000
# 2 51.1355 81.3501 35.1737 0.0000 2.1658 0.0000
# 3 20.9990 35.1737 67.5387 0.0000 -23.4367 0.0000
# 4 0.0000 0.0000 0.0000 29.0220 0.0000 -2.8827
# 5 25.0596 2.1658 -23.4367 0.0000 -56.6600 0.0000
# 6 0.0000 0.0000 0.0000 -2.8827 0.0000 7.7444
#
#
#
# Elastic Compliance Matrix: (Units=1/GPa)
#
#
# Indices 1 2 3 4 5 6 
#
# 1 0.018107 -0.012954 0.003256 0.000000 0.006166 0.000000
# 2 -0.012954 0.024369 -0.009032 0.000000 -0.001062 0.000000
# 3 0.003256 -0.009032 0.016508 0.000000 -0.005733 0.000000
# 4 0.000000 0.000000 0.000000 0.035780 0.000000 0.013318
# 5 0.006166 -0.001062 -0.005733 0.000000 -0.012591 0.000000
# 6 0.000000 0.000000 0.000000 0.013318 0.000000 0.134083
#
#
# Mechanical properties :
#
#
# Convention : Reuss Voigt Hill
#
# Bulk Modulus (GPa) = 46.45806 49.22259 47.84033
# Shear Modulus (GPa) = 19.16511 4.09318 11.62915
#
# Velocity S-wave (km/s) = 3.19905 1.47841 2.49195
# Velocity P-wave (km/s) = 6.20106 5.40356 5.81600
#
# Compressibility (1/GPa) = 0.02152479
#
# Stress axis : x y z
#
# Youngs Moduli (GPa) = 55.22578 41.03597 60.57637
#
# Poissons Ratio (x) = 0.53159 -0.19726
# Poissons Ratio (y) = 0.71541 0.54712
# Poissons Ratio (z) = -0.17984 0.37063
#
# Static dielectric constant tensor:
#      x y z
#    x 1.641400 0.000000 0.002340 
#    y 0.000000 1.660520 0.000000 
#    z 0.002340 0.000000 1.624120 
# 
# From -- ./inp_files/146942.got.cif
#   From: 2010.05.17/outbox.cif.g08.bks.cpg/sg12_74_cif.got.tgz:146942.got - 2010.06.03 13:09:07.
