data_PCOD9201683
_publ_section_title
;
Structure prediction by ZEFSAII (Michael W. Deem and Ramdas Pophale) SiO2 
 PCOD9201683
Probable space group: C 2/M
;
_chemical_formula_sum "Si O2"
_cell_formula_units_Z 60
_cell_length_a 23.671791
_cell_length_b 24.333841
_cell_length_c 11.432391
_cell_angle_alpha 90.000000
_cell_angle_beta 28.485903
_cell_angle_gamma 90.000000
_cell_volume 3140.833377
_symmetry_space_group_name_H-M "C 2/M"
_symmetry_group_IT_number 12
_symmetry_cell_setting 'monoclinic'
loop_
_space_group_symop_operation_xyz
x,y,z
-x,y,-z
-x,-y,-z
x,-y,z
1/2+x,1/2+y,z
1/2-x,1/2+y,-z
1/2-x,1/2-y,-z
1/2+x,1/2-y,z
loop_
_atom_site_type_symbol
_atom_site_label
_atom_site_fract_x
_atom_site_fract_y
_atom_site_fract_z
Si Si1 0.555353 0.336448 0.275434
Si Si2 0.351140 0.935283 0.016550
Si Si3 0.239169 0.935984 0.964373
Si Si4 0.730087 0.154729 0.480556
Si Si5 0.500000 0.212627 0.000000
Si Si6 0.835436 0.760209 0.108512
Si Si7 0.182681 0.846697 0.432126
Si Si8 0.123500 0.435361 0.526440
O O1 0.500000 0.319566 0.500000
O O2 0.636721 0.390339 0.145481
O O3 0.445359 0.350887 0.391840
O O4 0.627322 0.287754 0.080839
O O5 0.487095 0.916314 0.782093
O O6 0.344801 0.000000 0.057845
O O7 0.310155 0.929758 0.956365
O O8 0.263360 0.898949 0.253141
O O9 0.196946 0.000000 0.035917
O O10 0.324917 0.926996 0.697481
O O11 0.609396 0.176605 0.757532
O O12 0.766018 0.194907 0.311087
O O13 0.822570 0.157571 0.418094
O O14 0.704637 0.096141 0.470852
O O15 0.549956 0.245608 0.020639
O O16 0.753010 0.706315 0.253170
O O17 0.124255 0.500000 0.547991
#
# Coordination Sequence:
#
# PCOD9201683 Si02
#       8
#     8   8   8   8   4   8   8   8
#     4  12  24  42  63  89 122 160 207 254 304 357
#     4  10  21  39  63  90 121 158 204 254 303 360
#     4  10  21  41  64  88 118 162 209 249 303 365
#     4  11  21  38  62  89 124 160 201 249 300 363
#     4  10  20  38  63  90 113 164 208 242 292 370
#     4  11  22  40  61  87 123 163 203 247 303 359
#     4  11  24  39  61  93 122 160 205 247 300 369
#     4  10  20  37  63  93 123 156 200 255 308 360
#
# _framework density 19.103210000000001
#
# number of rings (size 3 to 8) (size 9 to 14) (size 15 to 20)
#    0.000    1.333    2.667    5.200    0.000    3.467 
#    0.000    1.667    0.000    1.600    0.000    0.000 
#    0.000    0.000    0.000    0.000    0.000    0.000 
#
# Total GULP energy -167616.146967 kJ/mol
# GULP energy per Si atom -5587.204899 kJ/mol
# Density = 1.905973 g / cm^3
# Si number density = 19.103210 Si / 1000 Ang^3
#
#
#
# Elastic Constant Matrix: (Units=GPa)
#
#
# Indices 1 2 3 4 5 6 
#
# 1 44.7530 17.7776 4.4965 -0.0006 -4.0687 -0.0004
# 2 17.7776 54.4963 10.0785 0.0002 6.4223 -0.0002
# 3 4.4965 10.0785 33.3626 0.0001 12.6677 -0.0008
# 4 -0.0006 0.0002 0.0001 15.1163 -0.0013 -8.6857
# 5 -4.0687 6.4223 12.6677 -0.0013 32.9179 0.0004
# 6 -0.0004 -0.0002 -0.0008 -8.6857 0.0004 23.9180
#
#
#
# Elastic Compliance Matrix: (Units=1/GPa)
#
#
# Indices 1 2 3 4 5 6 
#
# 1 0.026775 -0.008863 -0.003331 0.000002 0.006321 0.000001
# 2 -0.008863 0.022461 -0.004112 -0.000001 -0.003895 0.000000
# 3 -0.003331 -0.004112 0.036910 -0.000001 -0.013813 0.000001
# 4 0.000002 -0.000001 -0.000001 0.083597 0.000004 0.030358
# 5 0.006321 -0.003895 -0.013813 0.000004 0.037236 0.000000
# 6 0.000001 0.000000 0.000001 0.030358 0.000000 0.052834
#
#
# Mechanical properties :
#
#
# Convention : Reuss Voigt Hill
#
# Bulk Modulus (GPa) = 18.67985 21.92412 20.30199
# Shear Modulus (GPa) = 16.11508 21.07439 18.59474
#
# Velocity S-wave (km/s) = 2.90760 3.32503 3.12329
# Velocity P-wave (km/s) = 4.59040 5.12276 4.86387
#
# Compressibility (1/GPa) = 0.05353362
#
# Stress axis : x y z
#
# Youngs Moduli (GPa) = 37.34827 44.52227 27.09321
#
# Poissons Ratio (x) = 0.39461 0.09025
# Poissons Ratio (y) = 0.33103 0.11139
# Poissons Ratio (z) = 0.12441 0.18305
#
# Static dielectric constant tensor:
#      x y z
#    x 1.666940 0.000000 0.003910 
#    y 0.000000 1.657920 0.000000 
#    z 0.003910 0.000000 1.652270 
# 
# From -- ./inp_files/178009.got.cif
#   From: 2010.05.17/outbox.cif.g08.bks.cpg/sg12_90_cif.got.tgz:178009.got - 2010.06.03 13:09:07.
