data_PCOD9201086
_publ_section_title
;
Structure prediction by ZEFSAII (Michael W. Deem and Ramdas Pophale) SiO2 
 PCOD9201086
Probable space group: C 2/M
;
_chemical_formula_sum "Si O2"
_cell_formula_units_Z 56
_cell_length_a 11.016348
_cell_length_b 18.050509
_cell_length_c 14.319822
_cell_angle_alpha 90.000000
_cell_angle_beta 86.709353
_cell_angle_gamma 90.000000
_cell_volume 2842.811499
_symmetry_space_group_name_H-M "C 2/M"
_symmetry_group_IT_number 12
_symmetry_cell_setting 'monoclinic'
loop_
_space_group_symop_operation_xyz
x,y,z
-x,y,-z
-x,-y,-z
x,-y,z
1/2+x,1/2+y,z
1/2-x,1/2+y,-z
1/2-x,1/2-y,-z
1/2+x,1/2-y,z
loop_
_atom_site_type_symbol
_atom_site_label
_atom_site_fract_x
_atom_site_fract_y
_atom_site_fract_z
Si Si1 0.403217 0.916199 0.417353
Si Si2 0.866611 0.915720 0.957142
Si Si3 0.528089 0.658487 0.217700
Si Si4 0.063654 0.675496 0.279626
Si Si5 0.243246 0.324593 0.443838
Si Si6 0.770441 0.910478 0.157677
Si Si7 0.031874 0.084704 0.607564
O O1 0.500000 0.914520 0.500000
O O2 0.448812 0.867726 0.328626
O O3 0.287585 0.885757 0.476732
O O4 0.389076 0.000000 0.387588
O O5 0.878611 0.861869 0.869090
O O6 0.844107 0.000000 0.925944
O O7 0.775486 0.897482 0.045600
O O8 0.000000 0.915901 0.000000
O O9 0.528758 0.746144 0.236260
O O10 0.395640 0.625902 0.191833
O O11 0.561997 0.613983 0.311032
O O12 0.143503 0.687926 0.369216
O O13 0.151677 0.625722 0.210308
O O14 0.250000 0.250000 0.500000
O O15 0.362455 0.354420 0.389169
O O16 0.773986 0.000000 0.172628
O O17 0.000000 0.086059 0.500000
O O18 0.067963 0.000000 0.628692
#
# Coordination Sequence:
#
# PCOD9201086 Si02
#       7
#     8   8   8   8   8   8   8
#     4   9  19  34  51  72 101 142 190 225 263 322
#     4   8  16  32  56  83 111 145 184 228 279 335
#     4  11  20  34  54  83 117 144 179 232 288 326
#     4  11  22  33  54  83 109 143 182 232 282 325
#     4  11  21  35  52  72 112 148 186 227 279 328
#     4  10  20  37  61  85 110 147 193 232 276 338
#     4  11  22  35  54  80 109 148 193 228 271 334
#
# _framework density 19.698809000000001
#
# number of rings (size 3 to 8) (size 9 to 14) (size 15 to 20)
#    0.000    1.857    1.429    4.714    0.000    2.857 
#    0.000    0.000    0.000    0.000    0.000    0.000 
#    0.000   12.571    0.000    0.000    0.000    0.000 
#
# Total GULP energy -156105.081478 kJ/mol
# GULP energy per Si atom -5575.181481 kJ/mol
# Density = 1.965397 g / cm^3
# Si number density = 19.698809 Si / 1000 Ang^3
#
#
#
# Elastic Constant Matrix: (Units=GPa)
#
#
# Indices 1 2 3 4 5 6 
#
# 1 15.0941 9.0613 15.1721 0.0000 -5.8821 0.0000
# 2 9.0613 141.0782 76.3129 0.0000 -2.3526 0.0000
# 3 15.1721 76.3129 158.5607 0.0000 -23.3138 0.0000
# 4 0.0000 0.0000 0.0000 30.3163 0.0000 7.6903
# 5 -5.8821 -2.3526 -23.3138 0.0000 20.8000 0.0000
# 6 0.0000 0.0000 0.0000 7.6903 0.0000 13.5984
#
#
#
# Elastic Compliance Matrix: (Units=1/GPa)
#
#
# Indices 1 2 3 4 5 6 
#
# 1 0.078472 -0.002848 -0.003499 0.000000 0.017947 0.000000
# 2 -0.002848 0.010121 -0.005446 0.000000 -0.005765 0.000000
# 3 -0.003499 -0.005446 0.010808 0.000000 0.010509 0.000000
# 4 0.000000 0.000000 0.000000 0.038510 0.000000 -0.021779
# 5 0.017947 -0.005765 0.010509 0.000000 0.064279 0.000000
# 6 0.000000 0.000000 0.000000 -0.021779 0.000000 0.085855
#
#
# Mechanical properties :
#
#
# Convention : Reuss Voigt Hill
#
# Bulk Modulus (GPa) = 13.19015 57.31394 35.25205
# Shear Modulus (GPa) = 14.84106 27.22207 21.03156
#
# Velocity S-wave (km/s) = 2.74779 3.72144 3.27105
# Velocity P-wave (km/s) = 4.09604 6.90100 5.67457
#
# Compressibility (1/GPa) = 0.07581415
#
# Stress axis : x y z
#
# Youngs Moduli (GPa) = 12.74338 98.80345 92.52513
#
# Poissons Ratio (x) = 0.28141 0.32375
# Poissons Ratio (y) = 0.03630 0.50392
# Poissons Ratio (z) = 0.04459 0.53811
#
# Static dielectric constant tensor:
#      x y z
#    x 1.727090 0.000000 0.011130 
#    y 0.000000 1.654000 0.000000 
#    z 0.011130 0.000000 1.702080 
# 
# From -- ./inp_files/206097.got.cif
#   From: 2010.05.17/outbox.cif.g08.bks.cpg/sg12_104_cif.got.tgz:206097.got - 2010.06.03 13:09:07.
