data_PCOD9201820
_publ_section_title
;
Structure prediction by ZEFSAII (Michael W. Deem and Ramdas Pophale) SiO2 
 PCOD9201820
Probable space group: C 2/M
;
_chemical_formula_sum "Si O2"
_cell_formula_units_Z 56
_cell_length_a 16.936489
_cell_length_b 29.236622
_cell_length_c 8.704683
_cell_angle_alpha 90.000000
_cell_angle_beta 40.791297
_cell_angle_gamma 90.000000
_cell_volume 2815.917494
_symmetry_space_group_name_H-M "C 2/M"
_symmetry_group_IT_number 12
_symmetry_cell_setting 'monoclinic'
loop_
_space_group_symop_operation_xyz
x,y,z
-x,y,-z
-x,-y,-z
x,-y,z
1/2+x,1/2+y,z
1/2-x,1/2+y,-z
1/2-x,1/2-y,-z
1/2+x,1/2-y,z
loop_
_atom_site_type_symbol
_atom_site_label
_atom_site_fract_x
_atom_site_fract_y
_atom_site_fract_z
Si Si1 0.368385 0.149502 0.268549
Si Si2 0.348159 0.288705 0.498283
Si Si3 0.134503 0.450704 0.732014
Si Si4 0.872165 0.448051 0.625555
Si Si5 0.125153 0.688137 0.407124
Si Si6 0.674551 0.626498 0.984113
Si Si7 0.000000 0.147409 0.500000
Si Si8 0.000000 0.173295 0.000000
O O1 0.282576 0.189567 0.336066
O O2 0.312607 0.099484 0.308868
O O3 0.380144 0.155183 0.435442
O O4 0.500000 0.152701 0.000000
O O5 0.346049 0.237808 0.566291
O O6 0.418051 0.320143 0.516052
O O7 0.423068 0.295505 0.229966
O O8 0.191368 0.500000 0.693796
O O9 0.122668 0.450740 0.565777
O O10 0.000000 0.450395 0.000000
O O11 0.860013 0.500000 0.704174
O O12 0.759203 0.417082 0.836325
O O13 0.000000 0.429392 0.500000
O O14 0.231824 0.669081 0.141848
O O15 0.000000 0.689244 0.500000
O O16 0.588105 0.620576 0.256644
O O17 0.590540 0.641154 0.963989
#
# Coordination Sequence:
#
# PCOD9201820 Si02
#       8
#     8   8   8   8   8   8   4   4
#     4  11  24  37  62  94 125 163 206 258 311 380
#     4  11  23  44  58  91 121 171 206 262 312 369
#     4   9  18  34  56  90 127 157 191 242 309 370
#     4  10  20  37  64  96 128 159 202 259 323 374
#     4  12  25  40  63  92 126 161 212 260 315 375
#     4  11  23  42  63  89 122 170 209 262 311 377
#     4  10  26  42  63  82 124 168 213 258 306 368
#     4  10  22  42  65  80 126 162 217 252 314 370
#
# _framework density 19.886945000000001
#
# number of rings (size 3 to 8) (size 9 to 14) (size 15 to 20)
#    0.000    1.429    3.571    0.857    3.000    2.857 
#    0.000    0.714    0.000    3.429    0.000    0.000 
#    0.000    0.000    0.000    0.000    0.000    0.000 
#
# Total GULP energy -156367.373807 kJ/mol
# GULP energy per Si atom -5584.549065 kJ/mol
# Density = 1.984168 g / cm^3
# Si number density = 19.886945 Si / 1000 Ang^3
#
#
#
# Elastic Constant Matrix: (Units=GPa)
#
#
# Indices 1 2 3 4 5 6 
#
# 1 83.1725 36.4217 38.0793 0.0000 -19.3050 0.0000
# 2 36.4217 136.1954 50.8411 0.0000 -15.6230 0.0000
# 3 38.0793 50.8411 134.8578 0.0000 -1.8268 0.0000
# 4 0.0000 0.0000 0.0000 -4.9136 0.0000 3.2673
# 5 -19.3050 -15.6230 -1.8268 0.0000 27.2629 0.0000
# 6 0.0000 0.0000 0.0000 3.2673 0.0000 8.9955
#
#
#
# Elastic Compliance Matrix: (Units=1/GPa)
#
#
# Indices 1 2 3 4 5 6 
#
# 1 0.017186 -0.001858 -0.004006 0.000000 0.010836 0.000000
# 2 -0.001858 0.009389 -0.002963 0.000000 0.003866 0.000000
# 3 -0.004006 -0.002963 0.009610 0.000000 -0.003890 0.000000
# 4 0.000000 0.000000 0.000000 -0.163926 0.000000 0.059540
# 5 0.010836 0.003866 -0.003890 0.000000 0.046308 0.000000
# 6 0.000000 0.000000 0.000000 0.059540 0.000000 0.089541
#
#
# Mechanical properties :
#
#
# Convention : Reuss Voigt Hill
#
# Bulk Modulus (GPa) = 53.95681 67.21221 60.58451
# Shear Modulus (GPa) = 156.55486 21.52786 89.04136
#
# Velocity S-wave (km/s) = 8.88219 3.29372 6.69858
# Velocity P-wave (km/s) = 11.50573 6.95236 9.50571
#
# Compressibility (1/GPa) = 0.01853334
#
# Stress axis : x y z
#
# Youngs Moduli (GPa) = 58.18764 106.51263 104.05320
#
# Poissons Ratio (x) = 0.19785 0.41680
# Poissons Ratio (y) = 0.10808 0.30827
# Poissons Ratio (z) = 0.23308 0.31555
#
# Static dielectric constant tensor:
#      x y z
#    x 1.699430 0.000000 0.016780 
#    y 0.000000 1.740210 0.000000 
#    z 0.016780 0.000000 1.697460 
# 
# From -- ./inp_files/80459.got.cif
#   From: 2010.05.17/outbox.cif.g08.bks.cpg/sg12_41_cif.got.tgz:80459.got - 2010.06.03 13:09:07.
