data_PCOD9201100
_publ_section_title
;
Structure prediction by ZEFSAII (Michael W. Deem and Ramdas Pophale) SiO2 
 PCOD9201100
Probable space group: C 2/M
;
_chemical_formula_sum "Si O2"
_cell_formula_units_Z 40
_cell_length_a 18.113005
_cell_length_b 13.050412
_cell_length_c 8.889121
_cell_angle_alpha 90.000000
_cell_angle_beta 114.570290
_cell_angle_gamma 90.000000
_cell_volume 1910.967299
_symmetry_space_group_name_H-M "C 2/M"
_symmetry_group_IT_number 12
_symmetry_cell_setting 'monoclinic'
loop_
_space_group_symop_operation_xyz
x,y,z
-x,y,-z
-x,-y,-z
x,-y,z
1/2+x,1/2+y,z
1/2-x,1/2+y,-z
1/2-x,1/2-y,-z
1/2+x,1/2-y,z
loop_
_atom_site_type_symbol
_atom_site_label
_atom_site_fract_x
_atom_site_fract_y
_atom_site_fract_z
Si Si1 0.641112 0.621115 0.025603
Si Si2 0.952624 0.773965 0.321222
Si Si3 0.700185 0.816555 0.689753
Si Si4 0.235510 0.389488 0.391238
Si Si5 0.067812 0.699305 0.164192
O O1 0.631101 0.500000 0.042418
O O2 0.735630 0.652448 0.126955
O O3 0.596896 0.693861 0.111356
O O4 0.601406 0.654587 0.833762
O O5 0.891145 0.685641 0.327863
O O6 0.000000 0.824925 0.500000
O O7 0.023631 0.725886 0.280597
O O8 0.712598 0.701364 0.635979
O O9 0.724907 0.880375 0.562519
O O10 0.268305 0.500000 0.378718
O O11 0.145706 0.370220 0.251379
O O12 0.000000 0.651892 0.000000
#
# Coordination Sequence:
#
# PCOD9201100 Si02
#       5
#     8   8   8   8   8
#     4  10  22  40  62  87 118 162 199 231 291 360
#     4  11  21  38  60  86 121 155 191 247 298 336
#     4  10  21  39  60  85 120 156 193 248 291 344
#     4  10  20  37  61  85 114 157 201 238 290 353
#     4   9  20  38  60  85 120 157 189 243 296 346
#
# _framework density 20.931806999999999
#
# number of rings (size 3 to 8) (size 9 to 14) (size 15 to 20)
#    0.000    2.000    2.000    1.200    0.000    5.200 
#    0.000    3.000    0.000    1.200    0.000    0.000 
#    0.000    0.000    0.000    0.000    0.000    0.000 
#
# Total GULP energy -111609.553471 kJ/mol
# GULP energy per Si atom -5580.477674 kJ/mol
# Density = 2.088417 g / cm^3
# Si number density = 20.931807 Si / 1000 Ang^3
#
#
#
# Elastic Constant Matrix: (Units=GPa)
#
#
# Indices 1 2 3 4 5 6 
#
# 1 64.6798 -13.6283 17.5124 0.0000 -2.8412 0.0000
# 2 -13.6283 64.4164 4.2749 0.0000 -2.8646 0.0000
# 3 17.5124 4.2749 113.4883 0.0000 12.6502 0.0000
# 4 0.0000 0.0000 0.0000 8.3675 0.0000 1.8151
# 5 -2.8412 -2.8646 12.6502 0.0000 32.4600 0.0000
# 6 0.0000 0.0000 0.0000 1.8151 0.0000 -5.0233
#
#
#
# Elastic Compliance Matrix: (Units=1/GPa)
#
#
# Indices 1 2 3 4 5 6 
#
# 1 0.017299 0.004008 -0.003166 0.000000 0.003102 0.000000
# 2 0.004008 0.016579 -0.001511 0.000000 0.002403 0.000000
# 3 -0.003166 -0.001511 0.009830 0.000000 -0.004241 0.000000
# 4 0.000000 0.000000 0.000000 0.110823 0.000000 0.040045
# 5 0.003102 0.002403 -0.004241 0.000000 0.032944 0.000000
# 6 0.000000 0.000000 0.000000 0.040045 0.000000 -0.184601
#
#
# Mechanical properties :
#
#
# Convention : Reuss Voigt Hill
#
# Bulk Modulus (GPa) = 23.60189 28.76696 26.18443
# Shear Modulus (GPa) = 272.71598 22.78920 147.75259
#
# Velocity S-wave (km/s) = 11.42675 3.30318 8.41076
# Velocity P-wave (km/s) = 13.61596 5.32175 10.33720
#
# Compressibility (1/GPa) = 0.04236948
#
# Stress axis : x y z
#
# Youngs Moduli (GPa) = 57.80768 60.31713 101.73244
#
# Poissons Ratio (x) = -0.24174 0.32209
# Poissons Ratio (y) = -0.23169 0.15370
# Poissons Ratio (z) = 0.18302 0.09113
#
# Static dielectric constant tensor:
#      x y z
#    x 1.751090 0.000000 0.005090 
#    y 0.000000 1.712550 0.000000 
#    z 0.005090 0.000000 1.814140 
# 
# From -- ./inp_files/83722.got.cif
#   From: 2010.05.17/outbox.cif.g08.bks.cpg/sg12_42_cif.got.tgz:83722.got - 2010.06.03 13:09:07.
