data_PCOD9201904
_publ_section_title
;
Structure prediction by ZEFSAII (Michael W. Deem and Ramdas Pophale) SiO2 
 PCOD9201904
Probable space group: C 2/M
;
_chemical_formula_sum "Si O2"
_cell_formula_units_Z 64
_cell_length_a 11.554609
_cell_length_b 30.758555
_cell_length_c 17.500429
_cell_angle_alpha 90.000000
_cell_angle_beta 29.129636
_cell_angle_gamma 90.000000
_cell_volume 3027.673855
_symmetry_space_group_name_H-M "C 2/M"
_symmetry_group_IT_number 12
_symmetry_cell_setting 'monoclinic'
loop_
_space_group_symop_operation_xyz
x,y,z
-x,y,-z
-x,-y,-z
x,-y,z
1/2+x,1/2+y,z
1/2-x,1/2+y,-z
1/2-x,1/2-y,-z
1/2+x,1/2-y,z
loop_
_atom_site_type_symbol
_atom_site_label
_atom_site_fract_x
_atom_site_fract_y
_atom_site_fract_z
Si Si1 0.009396 0.047640 0.131563
Si Si2 0.472795 0.950891 0.219663
Si Si3 0.746614 0.660250 0.828651
Si Si4 0.521572 0.198376 0.154766
Si Si5 0.992896 0.575888 0.633834
Si Si6 0.331216 0.119141 0.172898
Si Si7 0.598705 0.383993 0.686172
Si Si8 0.556565 0.705393 0.793552
O O1 0.745760 0.049739 0.248518
O O2 0.034251 0.090186 0.169745
O O3 0.033391 0.000000 0.156737
O O4 0.237776 0.050477 0.945004
O O5 0.397007 0.939774 0.349626
O O6 0.387527 0.917805 0.203416
O O7 0.401456 0.000000 0.241134
O O8 0.890554 0.677854 0.816900
O O9 0.901424 0.624700 0.698492
O O10 0.662385 0.695695 0.816329
O O11 0.500000 0.639460 0.000000
O O12 0.369960 0.164845 0.193168
O O13 0.396829 0.243909 0.247303
O O14 0.768333 0.203570 0.964520
O O15 0.185799 0.583288 0.457067
O O16 0.066676 0.117235 0.292376
O O17 0.500000 0.115821 0.000000
O O18 0.642630 0.334515 0.690123
#
# Coordination Sequence:
#
# PCOD9201904 Si02
#       8
#     8   8   8   8   8   8   8   8
#     4  11  23  42  70 101 129 169 221 277 332 394
#     4  11  24  44  71  99 129 172 226 278 330 397
#     4  10  20  37  66  93 122 167 220 272 323 386
#     4  10  21  38  66  96 126 168 227 275 325 391
#     4  12  24  41  65  94 137 171 214 269 337 397
#     4  12  23  42  69  94 131 177 226 278 329 397
#     4  12  26  41  63  97 139 176 216 271 341 396
#     4  10  21  37  64  99 130 165 216 283 337 385
#
# _framework density 21.138339999999999
#
# number of rings (size 3 to 8) (size 9 to 14) (size 15 to 20)
#    0.000    1.000    5.000    1.875    1.750    4.250 
#    0.000    1.250    2.750    0.000    0.000    0.000 
#    0.000    0.000    0.000    0.000    0.000    0.000 
#
# Total GULP energy -178605.490843 kJ/mol
# GULP energy per Si atom -5581.421589 kJ/mol
# Density = 2.109023 g / cm^3
# Si number density = 21.138340 Si / 1000 Ang^3
#
#
#
# Elastic Constant Matrix: (Units=GPa)
#
#
# Indices 1 2 3 4 5 6 
#
# 1 115.7130 34.4267 6.4093 0.0000 -7.4572 0.0000
# 2 34.4267 120.4892 0.8267 0.0000 5.1633 0.0000
# 3 6.4093 0.8267 30.1457 0.0003 12.7223 0.0000
# 4 0.0000 0.0000 0.0003 24.5960 -0.0001 2.0433
# 5 -7.4572 5.1633 12.7223 -0.0001 17.7219 0.0000
# 6 0.0000 0.0000 0.0000 2.0433 0.0000 8.6556
#
#
#
# Elastic Compliance Matrix: (Units=1/GPa)
#
#
# Indices 1 2 3 4 5 6 
#
# 1 0.010675 -0.003440 -0.006447 0.000000 0.010122 0.000000
# 2 -0.003440 0.009541 0.003233 0.000000 -0.006548 0.000000
# 3 -0.006447 0.003233 0.051643 -0.000001 -0.040728 0.000000
# 4 0.000000 0.000000 -0.000001 0.041470 0.000001 -0.009790
# 5 0.010122 -0.006548 -0.040728 0.000001 0.091833 0.000000
# 6 0.000000 0.000000 0.000000 -0.009790 0.000000 0.117843
#
#
# Mechanical properties :
#
#
# Convention : Reuss Voigt Hill
#
# Bulk Modulus (GPa) = 17.07916 38.85260 27.96588
# Shear Modulus (GPa) = 14.05170 25.17371 19.61271
#
# Velocity S-wave (km/s) = 2.58107 3.45469 3.04933
# Velocity P-wave (km/s) = 4.12066 5.85946 5.06523
#
# Compressibility (1/GPa) = 0.05855088
#
# Stress axis : x y z
#
# Youngs Moduli (GPa) = 93.67799 104.81419 19.36384
#
# Poissons Ratio (x) = 0.36052 0.12484
# Poissons Ratio (y) = 0.32222 -0.06260
# Poissons Ratio (z) = 0.60396 -0.33887
#
# Static dielectric constant tensor:
#      x y z
#    x 1.768540 0.000000 0.012280 
#    y 0.000000 1.762760 0.000000 
#    z 0.012280 0.000000 1.873170 
# 
# From -- ./inp_files/161226.got.cif
#   From: 2010.05.17/outbox.cif.g08.bks.cpg/sg12_81_cif.got.tgz:161226.got - 2010.06.03 13:09:07.
