data_PCOD9201377
_publ_section_title
;
Structure prediction by ZEFSAII (Michael W. Deem and Ramdas Pophale) SiO2 
 PCOD9201377
Probable space group: C 2/M
;
_chemical_formula_sum "Si O2"
_cell_formula_units_Z 64
_cell_length_a 27.333853
_cell_length_b 7.679763
_cell_length_c 14.743339
_cell_angle_alpha 90.000000
_cell_angle_beta 64.961785
_cell_angle_gamma 90.000000
_cell_volume 2804.045425
_symmetry_space_group_name_H-M "C 2/M"
_symmetry_group_IT_number 12
_symmetry_cell_setting 'monoclinic'
loop_
_space_group_symop_operation_xyz
x,y,z
-x,y,-z
-x,-y,-z
x,-y,z
1/2+x,1/2+y,z
1/2-x,1/2+y,-z
1/2-x,1/2-y,-z
1/2+x,1/2-y,z
loop_
_atom_site_type_symbol
_atom_site_label
_atom_site_fract_x
_atom_site_fract_y
_atom_site_fract_z
Si Si1 0.086699 0.287176 0.567892
Si Si2 0.472473 0.299511 0.738501
Si Si3 0.364629 0.292930 0.186936
Si Si4 0.695398 0.791677 0.150915
Si Si5 0.984001 0.786897 0.114115
Si Si6 0.608884 0.798731 0.350122
Si Si7 0.181749 0.210492 0.964022
Si Si8 0.806645 0.293813 0.408572
O O1 0.081975 0.500000 0.575942
O O2 0.034256 0.209778 0.656404
O O3 0.089327 0.227690 0.461133
O O4 0.142039 0.230708 0.573171
O O5 0.454039 0.500000 0.755645
O O6 0.475995 0.227102 0.837906
O O7 0.436486 0.206997 0.691668
O O8 0.371294 0.500000 0.172374
O O9 0.422287 0.226274 0.177560
O O10 0.351390 0.225581 0.096738
O O11 0.317301 0.265282 0.296995
O O12 0.661669 0.719228 0.261463
O O13 0.756431 0.725107 0.096149
O O14 0.698917 0.000000 0.158397
O O15 0.665614 0.758760 0.078661
O O16 0.985505 0.000000 0.117697
O O17 0.000000 0.737674 0.000000
O O18 0.621933 0.000000 0.359921
O O19 0.181783 0.000000 0.961001
O O20 0.810293 0.500000 0.404317
O O21 0.750000 0.250000 0.500000
#
# Coordination Sequence:
#
# PCOD9201377 Si02
#       8
#     8   8   8   8   8   8   8   8
#     4  10  22  41  62  81 111 153 192 229 281 350
#     4  11  22  37  60  87 115 144 185 240 288 333
#     4  10  20  37  62  87 116 155 194 236 288 349
#     4   9  19  36  55  80 113 147 187 238 283 330
#     4   9  19  35  56  84 117 152 188 230 284 344
#     4  10  22  38  58  81 109 150 193 231 282 345
#     4   9  19  34  58  83 111 150 191 230 281 342
#     4  11  24  40  62  89 119 154 195 242 292 346
#
# _framework density 22.824165000000001
#
# number of rings (size 3 to 8) (size 9 to 14) (size 15 to 20)
#    0.000    2.125    1.250    1.125    3.500    3.500 
#    0.000    0.000    0.000    1.875    0.000    0.000 
#    0.000    0.000    0.000    0.000    0.000    0.000 
#
# Total GULP energy -178755.095198 kJ/mol
# GULP energy per Si atom -5586.096725 kJ/mol
# Density = 2.277222 g / cm^3
# Si number density = 22.824165 Si / 1000 Ang^3
#
#
#
# Elastic Constant Matrix: (Units=GPa)
#
#
# Indices 1 2 3 4 5 6 
#
# 1 27.6108 -5.9743 -10.0774 0.0000 6.1440 0.0000
# 2 -5.9743 41.4413 -9.5688 0.0000 4.4855 0.0000
# 3 -10.0774 -9.5688 93.3219 0.0000 15.5312 0.0000
# 4 0.0000 0.0000 0.0000 20.0342 0.0000 1.5536
# 5 6.1440 4.4855 15.5312 0.0000 39.0823 0.0000
# 6 0.0000 0.0000 0.0000 1.5536 0.0000 10.7298
#
#
#
# Elastic Compliance Matrix: (Units=1/GPa)
#
#
# Indices 1 2 3 4 5 6 
#
# 1 0.043298 0.009121 0.007408 0.000000 -0.010797 0.000000
# 2 0.009121 0.027271 0.004862 0.000000 -0.006496 0.000000
# 3 0.007408 0.004862 0.013172 0.000000 -0.006957 0.000000
# 4 0.000000 0.000000 0.000000 0.050482 0.000000 -0.007309
# 5 -0.010797 -0.006496 -0.006957 0.000000 0.030795 0.000000
# 6 0.000000 0.000000 0.000000 -0.007309 0.000000 0.094257
#
#
# Mechanical properties :
#
#
# Convention : Reuss Voigt Hill
#
# Bulk Modulus (GPa) = 7.90368 12.34809 10.12589
# Shear Modulus (GPa) = 19.32992 26.50221 22.91607
#
# Velocity S-wave (km/s) = 2.91332 3.41126 3.17208
# Velocity P-wave (km/s) = 3.84538 4.57574 4.22637
#
# Compressibility (1/GPa) = 0.12652327
#
# Stress axis : x y z
#
# Youngs Moduli (GPa) = 23.09594 36.66858 75.91893
#
# Poissons Ratio (x) = -0.33446 -0.56239
# Poissons Ratio (y) = -0.21066 -0.36915
# Poissons Ratio (z) = -0.17109 -0.17830
#
# Static dielectric constant tensor:
#      x y z
#    x 1.827640 0.000000 0.049380 
#    y 0.000000 1.854370 0.000000 
#    z 0.049380 0.000000 1.751590 
# 
# From -- ./inp_files/243865.got.cif
#   From: 2010.05.17/outbox.cif.g08.bks.cpg/sg12_122_cif.got.tgz:243865.got - 2010.06.03 13:09:07.
