data_PCOD9201634
_publ_section_title
;
Structure prediction by ZEFSAII (Michael W. Deem and Ramdas Pophale) SiO2 
 PCOD9201634
Probable space group: C 2/M
;
_chemical_formula_sum "Si O2"
_cell_formula_units_Z 64
_cell_length_a 9.267814
_cell_length_b 19.406157
_cell_length_c 23.361971
_cell_angle_alpha 90.000000
_cell_angle_beta 50.513777
_cell_angle_gamma 90.000000
_cell_volume 3242.787187
_symmetry_space_group_name_H-M "C 2/M"
_symmetry_group_IT_number 12
_symmetry_cell_setting 'monoclinic'
loop_
_space_group_symop_operation_xyz
x,y,z
-x,y,-z
-x,-y,-z
x,-y,z
1/2+x,1/2+y,z
1/2-x,1/2+y,-z
1/2-x,1/2-y,-z
1/2+x,1/2-y,z
loop_
_atom_site_type_symbol
_atom_site_label
_atom_site_fract_x
_atom_site_fract_y
_atom_site_fract_z
Si Si1 0.517535 0.316259 0.586220
Si Si2 0.523585 0.581593 0.178723
Si Si3 0.816137 0.418259 0.009087
Si Si4 0.184033 0.668759 0.579040
Si Si5 0.917501 0.582022 0.722787
Si Si6 0.497671 0.798591 0.787109
Si Si7 0.718641 0.697733 0.955646
Si Si8 0.609162 0.676672 0.260500
O O1 0.687134 0.350139 0.508079
O O2 0.336078 0.317053 0.591072
O O3 0.575708 0.237771 0.586867
O O4 0.474331 0.349417 0.658437
O O5 0.549585 0.500000 0.178683
O O6 0.635836 0.601047 0.093028
O O7 0.303058 0.595867 0.230562
O O8 0.607715 0.620347 0.211604
O O9 0.814869 0.500000 0.998620
O O10 0.806970 0.374327 0.954129
O O11 0.000000 0.401922 0.000000
O O12 0.039859 0.612788 0.639769
O O13 0.944595 0.500000 0.722453
O O14 0.974858 0.627049 0.763483
O O15 0.324588 0.780397 0.871583
O O16 0.504144 0.741524 0.735927
O O17 0.684348 0.797179 0.776960
O O18 0.500000 0.690525 0.000000
O O19 0.750000 0.750000 0.000000
#
# Coordination Sequence:
#
# PCOD9201634 Si02
#       8
#     8   8   8   8   8   8   8   8
#     4  10  20  37  63  90 121 147 199 244 296 358
#     4  10  23  40  61  87 121 161 201 250 305 355
#     4  10  21  41  64  85 116 161 206 250 302 359
#     4  10  21  39  60  94 116 157 193 244 305 349
#     4  11  23  41  59  85 126 163 201 247 301 357
#     4  12  24  37  62  89 119 157 202 245 304 358
#     4  12  24  39  58  88 122 156 196 252 303 358
#     4  12  21  38  61  90 118 154 197 252 292 364
#
# _framework density 19.73611
#
# number of rings (size 3 to 8) (size 9 to 14) (size 15 to 20)
#    0.000    1.125    2.500    4.125    1.750    1.250 
#    0.000    1.875    0.000    1.500    0.000    0.000 
#    0.000    0.000    0.000    0.000    0.000    0.000 
#
# Total GULP energy -178880.267072 kJ/mol
# GULP energy per Si atom -5590.008346 kJ/mol
# Density = 1.969119 g / cm^3
# Si number density = 19.736110 Si / 1000 Ang^3
#
#
#
# Elastic Constant Matrix: (Units=GPa)
#
#
# Indices 1 2 3 4 5 6 
#
# 1 71.4724 24.9245 -2.8424 -0.0002 -1.9825 0.0002
# 2 24.9245 44.9309 9.3861 -0.0001 1.0426 0.0001
# 3 -2.8424 9.3861 95.7608 -0.0001 1.3821 0.0002
# 4 -0.0002 -0.0001 -0.0001 31.0735 0.0001 4.2858
# 5 -1.9825 1.0426 1.3821 0.0001 34.4722 -0.0001
# 6 0.0002 0.0001 0.0002 4.2858 -0.0001 32.1229
#
#
#
# Elastic Compliance Matrix: (Units=1/GPa)
#
#
# Indices 1 2 3 4 5 6 
#
# 1 0.017612 -0.010112 0.001496 0.000000 0.001259 0.000000
# 2 -0.010112 0.028539 -0.003078 0.000000 -0.001321 0.000000
# 3 0.001496 -0.003078 0.010792 0.000000 -0.000254 0.000000
# 4 0.000000 0.000000 0.000000 0.032785 0.000000 -0.004374
# 5 0.001259 -0.001321 -0.000254 0.000000 0.029131 0.000000
# 6 0.000000 0.000000 0.000000 -0.004374 0.000000 0.031714
#
#
# Mechanical properties :
#
#
# Convention : Reuss Voigt Hill
#
# Bulk Modulus (GPa) = 29.80152 30.56670 30.18411
# Shear Modulus (GPa) = 27.00544 31.58010 29.29277
#
# Velocity S-wave (km/s) = 3.70310 4.00449 3.85674
# Velocity P-wave (km/s) = 5.78072 6.07475 5.92956
#
# Compressibility (1/GPa) = 0.03355534
#
# Stress axis : x y z
#
# Youngs Moduli (GPa) = 56.77953 35.03938 92.65718
#
# Poissons Ratio (x) = 0.35430 -0.13859
# Poissons Ratio (y) = 0.57413 0.28523
# Poissons Ratio (z) = -0.08492 0.10786
#
# Static dielectric constant tensor:
#      x y z
#    x 1.659960 0.000000 -0.016520 
#    y 0.000000 1.684510 0.000000 
#    z -0.016520 0.000000 1.731380 
# 
# From -- ./inp_files/333712.got.cif
#   From: 2010.05.17/outbox.cif.g08.bks.cpg/sg12_167_cif.got.tgz:333712.got - 2010.06.03 13:09:07.
