data_PCOD9201664
_publ_section_title
;
Structure prediction by ZEFSAII (Michael W. Deem and Ramdas Pophale) SiO2 
 PCOD9201664
Probable space group: C 2/M
;
_chemical_formula_sum "Si O2"
_cell_formula_units_Z 40
_cell_length_a 23.300683
_cell_length_b 8.867746
_cell_length_c 10.270047
_cell_angle_alpha 90.000000
_cell_angle_beta 90.307697
_cell_angle_gamma 90.000000
_cell_volume 2122.013121
_symmetry_space_group_name_H-M "C 2/M"
_symmetry_group_IT_number 12
_symmetry_cell_setting 'monoclinic'
loop_
_space_group_symop_operation_xyz
x,y,z
-x,y,-z
-x,-y,-z
x,-y,z
1/2+x,1/2+y,z
1/2-x,1/2+y,-z
1/2-x,1/2-y,-z
1/2+x,1/2-y,z
loop_
_atom_site_type_symbol
_atom_site_label
_atom_site_fract_x
_atom_site_fract_y
_atom_site_fract_z
Si Si1 0.862301 0.677664 0.256065
Si Si2 0.251335 0.179286 0.854485
Si Si3 0.132438 0.822407 0.240749
Si Si4 0.066811 0.681952 0.484317
Si Si5 0.432136 0.174346 0.992469
O O1 0.846741 0.500000 0.265205
O O2 0.805701 0.771486 0.222844
O O3 0.896438 0.719978 0.386659
O O4 0.904522 0.693719 0.133561
O O5 0.306646 0.241244 0.779211
O O6 0.254688 0.000000 0.867559
O O7 0.250000 0.250000 0.000000
O O8 0.096752 0.756920 0.360979
O O9 0.141086 0.000000 0.255423
O O10 0.096825 0.784600 0.110208
O O11 0.067774 0.500000 0.468730
O O12 0.000000 0.726147 0.500000
O O13 0.420945 0.000000 0.950780
O O14 0.500000 0.195454 0.000000
#
# Coordination Sequence:
#
# PCOD9201664 Si02
#       5
#     8   8   8   8   8
#     4  10  21  38  64  94 125 163 210 261 314 373
#     4  12  24  41  65  92 126 165 210 264 320 377
#     4  12  25  40  62  93 128 168 210 260 317 372
#     4  10  22  43  68  94 127 170 213 256 311 377
#     4  10  20  37  63  92 122 162 210 260 313 375
#
# _framework density 18.850024999999999
#
# number of rings (size 3 to 8) (size 9 to 14) (size 15 to 20)
#    0.000    1.200    2.000    4.800    0.000    5.600 
#    0.000    2.000    0.000    0.000    0.000    0.000 
#    0.000    0.000    0.000    0.000    0.000    0.000 
#
# Total GULP energy -111846.444742 kJ/mol
# GULP energy per Si atom -5592.322237 kJ/mol
# Density = 1.880712 g / cm^3
# Si number density = 18.850025 Si / 1000 Ang^3
#
#
#
# Elastic Constant Matrix: (Units=GPa)
#
#
# Indices 1 2 3 4 5 6 
#
# 1 656.8031 421.2169 508.0348 0.0000 46.9779 0.0000
# 2 421.2169 337.1402 369.0140 0.0000 37.3297 0.0000
# 3 508.0348 369.0140 511.2936 0.0000 51.2230 0.0000
# 4 0.0000 0.0000 0.0000 26.1861 0.0000 6.1001
# 5 46.9779 37.3297 51.2230 0.0000 41.5562 0.0000
# 6 0.0000 0.0000 0.0000 6.1001 0.0000 27.8495
#
#
#
# Elastic Compliance Matrix: (Units=1/GPa)
#
#
# Indices 1 2 3 4 5 6 
#
# 1 0.009133 -0.007041 -0.004098 0.000000 0.001052 0.000000
# 2 -0.007041 0.019551 -0.007019 0.000000 -0.000951 0.000000
# 3 -0.004098 -0.007019 0.011406 0.000000 -0.003122 0.000000
# 4 0.000000 0.000000 0.000000 0.040242 0.000000 -0.008814
# 5 0.001052 -0.000951 -0.003122 0.000000 0.027577 0.000000
# 6 0.000000 0.000000 0.000000 -0.008814 0.000000 0.037838
#
#
# Mechanical properties :
#
#
# Convention : Reuss Voigt Hill
#
# Bulk Modulus (GPa) = 264.99422 455.75206 360.37314
# Shear Modulus (GPa) = 27.27445 32.91641 30.09543
#
# Velocity S-wave (km/s) = 3.80797 4.18332 4.00005
# Velocity P-wave (km/s) = 12.65779 16.29836 14.59205
#
# Compressibility (1/GPa) = 0.00377367
#
# Stress axis : x y z
#
# Youngs Moduli (GPa) = 109.49330 51.14740 87.67077
#
# Poissons Ratio (x) = 0.36015 0.35929
# Poissons Ratio (y) = 0.77099 0.61535
# Poissons Ratio (z) = 0.44872 0.35900
#
# Static dielectric constant tensor:
#      x y z
#    x 1.637960 0.000000 0.003800 
#    y 0.000000 1.645210 0.000000 
#    z 0.003800 0.000000 1.621230 
# 
# From -- ./inp_files/92810.got.cif
#   From: 2010.05.17/outbox.cif.g08.bks.cpg/sg12_47_cif.got.tgz:92810.got - 2010.06.03 13:09:07.
