data_PCOD9201700
_publ_section_title
;
Structure prediction by ZEFSAII (Michael W. Deem and Ramdas Pophale) SiO2 
 PCOD9201700
Probable space group: C 2/M
;
_chemical_formula_sum "Si O2"
_cell_formula_units_Z 48
_cell_length_a 23.055556
_cell_length_b 21.657379
_cell_length_c 6.891261
_cell_angle_alpha 90.000000
_cell_angle_beta 35.372729
_cell_angle_gamma 90.000000
_cell_volume 1991.950729
_symmetry_space_group_name_H-M "C 2/M"
_symmetry_group_IT_number 12
_symmetry_cell_setting 'monoclinic'
loop_
_space_group_symop_operation_xyz
x,y,z
-x,y,-z
-x,-y,-z
x,-y,z
1/2+x,1/2+y,z
1/2-x,1/2+y,-z
1/2-x,1/2-y,-z
1/2+x,1/2-y,z
loop_
_atom_site_type_symbol
_atom_site_label
_atom_site_fract_x
_atom_site_fract_y
_atom_site_fract_z
Si Si1 0.247247 0.099176 0.409701
Si Si2 0.072213 0.793085 0.531209
Si Si3 0.890598 0.334119 0.711006
Si Si4 0.334410 0.933572 0.563234
Si Si5 0.128541 0.066134 0.364588
Si Si6 0.853282 0.212870 0.231281
O O1 0.319180 0.069204 0.373149
O O2 0.178751 0.143486 0.727314
O O3 0.314044 0.138344 0.076440
O O4 0.172499 0.065521 0.465590
O O5 0.132021 0.738022 0.263666
O O6 0.111064 0.787660 0.644246
O O7 0.080302 0.866101 0.463569
O O8 0.044242 0.772725 0.159320
O O9 0.884003 0.373971 0.529331
O O10 0.000000 0.343118 0.500000
O O11 0.225014 0.935214 0.961619
O O12 0.383565 0.000000 0.479671
O O13 0.073299 0.000000 0.488559
O O14 0.750000 0.250000 0.500000
#
# Coordination Sequence:
#
# PCOD9201700 Si02
#       6
#     8   8   8   8   8   8
#     4  10  21  38  63  91 122 165 212 262 322 387
#     4  10  22  39  62  97 132 169 219 269 322 385
#     4  11  24  40  62  93 127 166 215 272 326 382
#     4  10  22  41  65  92 126 170 216 264 326 394
#     4   9  20  40  64  92 129 170 212 261 321 390
#     4  10  20  37  63  93 130 172 213 262 322 383
#
# _framework density 24.096982000000001
#
# number of rings (size 3 to 8) (size 9 to 14) (size 15 to 20)
#    0.000    2.000    0.000    2.500    0.000   11.667 
#    0.000    8.333    0.000    2.500    0.000    1.167 
#    0.000    0.000    0.000    0.333    0.000    0.000 
#
# Total GULP energy -133885.190478 kJ/mol
# GULP energy per Si atom -5578.549603 kJ/mol
# Density = 2.404214 g / cm^3
# Si number density = 24.096982 Si / 1000 Ang^3
#
#
#
# Elastic Constant Matrix: (Units=GPa)
#
#
# Indices 1 2 3 4 5 6 
#
# 1 111.0795 66.2155 20.0030 0.0000 6.0875 0.0000
# 2 66.2155 177.6997 37.7004 0.0000 15.1628 0.0000
# 3 20.0030 37.7004 53.2476 0.0000 2.9790 0.0000
# 4 0.0000 0.0000 0.0000 -19.0258 0.0000 0.3487
# 5 6.0875 15.1628 2.9790 0.0000 47.0693 0.0000
# 6 0.0000 0.0000 0.0000 0.3487 0.0000 -12.0538
#
#
#
# Elastic Compliance Matrix: (Units=1/GPa)
#
#
# Indices 1 2 3 4 5 6 
#
# 1 0.011680 -0.004016 -0.001538 0.000000 -0.000120 0.000000
# 2 -0.004016 0.008166 -0.004170 0.000000 -0.001847 0.000000
# 3 -0.001538 -0.004170 0.022303 0.000000 0.000131 0.000000
# 4 0.000000 0.000000 0.000000 -0.052588 0.000000 -0.001521
# 5 -0.000120 -0.001847 0.000131 0.000000 0.021848 0.000000
# 6 0.000000 0.000000 0.000000 -0.001521 0.000000 -0.083005
#
#
# Mechanical properties :
#
#
# Convention : Reuss Voigt Hill
#
# Bulk Modulus (GPa) = 44.04864 65.54051 54.79457
# Shear Modulus (GPa) = -112.15200 17.73845 -47.20678
#
# Velocity S-wave (km/s) = -6.82957 2.71611 -4.43090
# Velocity P-wave (km/s) = 6.62353 6.09049 1.84081
#
# Compressibility (1/GPa) = 0.02270218
#
# Stress axis : x y z
#
# Youngs Moduli (GPa) = 85.61743 122.45657 44.83717
#
# Poissons Ratio (x) = 0.49176 0.06895
# Poissons Ratio (y) = 0.34382 0.18697
# Poissons Ratio (z) = 0.13166 0.51063
#
# Static dielectric constant tensor:
#      x y z
#    x 1.939510 0.000000 0.016320 
#    y 0.000000 1.984920 0.000000 
#    z 0.016320 0.000000 1.947340 
# 
# From -- ./inp_files/21024.got.cif
#   From: 2010.05.17/outbox.cif.g08.bks.cpg/sg12_11_cif.got.tgz:21024.got - 2010.06.03 13:09:07.
