data_PCOD9201790
_publ_section_title
;
Structure prediction by ZEFSAII (Michael W. Deem and Ramdas Pophale) SiO2 
 PCOD9201790
Probable space group: C 2/M
;
_chemical_formula_sum "Si O2"
_cell_formula_units_Z 56
_cell_length_a 24.318028
_cell_length_b 18.928216
_cell_length_c 12.011738
_cell_angle_alpha 90.000000
_cell_angle_beta 148.092506
_cell_angle_gamma 90.000000
_cell_volume 2922.331295
_symmetry_space_group_name_H-M "C 2/M"
_symmetry_group_IT_number 12
_symmetry_cell_setting 'monoclinic'
loop_
_space_group_symop_operation_xyz
x,y,z
-x,y,-z
-x,-y,-z
x,-y,z
1/2+x,1/2+y,z
1/2-x,1/2+y,-z
1/2-x,1/2-y,-z
1/2+x,1/2-y,z
loop_
_atom_site_type_symbol
_atom_site_label
_atom_site_fract_x
_atom_site_fract_y
_atom_site_fract_z
Si Si1 0.727170 0.786571 0.636148
Si Si2 0.251236 0.578924 0.801053
Si Si3 0.588163 0.712802 0.222977
Si Si4 0.396120 0.578340 0.393874
Si Si5 0.102571 0.580549 0.752088
Si Si6 0.727094 0.197817 0.065171
Si Si7 0.005102 0.920290 0.817456
O O1 0.697638 0.862179 0.634614
O O2 0.632303 0.750038 0.408906
O O3 0.816190 0.797500 0.696727
O O4 0.770961 0.741960 0.816483
O O5 0.234875 0.500000 0.729227
O O6 0.200198 0.581679 0.834534
O O7 0.375138 0.592748 0.013116
O O8 0.536624 0.639811 0.173947
O O9 0.500000 0.752740 0.000000
O O10 0.500000 0.583558 0.500000
O O11 0.349897 0.500000 0.293396
O O12 0.320109 0.641583 0.236094
O O13 0.433371 0.581488 0.585017
O O14 0.095570 0.500000 0.787545
O O15 0.000000 0.590759 0.500000
O O16 0.126162 0.647733 0.871242
O O17 0.750000 0.250000 0.000000
O O18 0.000716 0.000000 0.856355
#
# Coordination Sequence:
#
# PCOD9201790 Si02
#       7
#     8   8   8   8   8   8   8
#     4  11  24  40  59  93 122 163 207 249 316 369
#     4  10  20  39  64  91 123 157 206 257 305 370
#     4  11  23  41  63  84 127 163 204 260 308 368
#     4  10  21  37  60  90 128 160 195 252 315 374
#     4  10  22  40  60  86 124 171 210 246 298 365
#     4  12  23  38  60  91 125 161 201 251 306 375
#     4  10  20  37  64  94 120 159 205 257 320 372
#
# _framework density 19.162783000000001
#
# number of rings (size 3 to 8) (size 9 to 14) (size 15 to 20)
#    0.000    1.429    4.286    1.286    0.000    4.857 
#    0.000    0.000    0.000    0.429    0.000    0.000 
#    0.000    0.000    0.000    0.000    0.000    0.000 
#
# Total GULP energy -156283.056177 kJ/mol
# GULP energy per Si atom -5581.537721 kJ/mol
# Density = 1.911917 g / cm^3
# Si number density = 19.162783 Si / 1000 Ang^3
#
#
#
# Elastic Constant Matrix: (Units=GPa)
#
#
# Indices 1 2 3 4 5 6 
#
# 1 64.6693 39.6905 27.9295 0.0000 -11.1134 0.0000
# 2 39.6905 125.3735 53.8619 0.0000 -11.0503 0.0000
# 3 27.9295 53.8619 96.8064 0.0000 -15.3788 0.0000
# 4 0.0000 0.0000 0.0000 19.4715 0.0000 6.7159
# 5 -11.1134 -11.0503 -15.3788 0.0000 30.5405 0.0000
# 6 0.0000 0.0000 0.0000 6.7159 0.0000 30.0158
#
#
#
# Elastic Compliance Matrix: (Units=1/GPa)
#
#
# Indices 1 2 3 4 5 6 
#
# 1 0.020328 -0.005031 -0.002369 0.000000 0.004384 0.000000
# 2 -0.005031 0.011751 -0.005111 0.000000 -0.000153 0.000000
# 3 -0.002369 -0.005111 0.014594 0.000000 0.004637 0.000000
# 4 0.000000 0.000000 0.000000 0.055652 0.000000 -0.012452
# 5 0.004384 -0.000153 0.004637 0.000000 0.036619 0.000000
# 6 0.000000 0.000000 0.000000 -0.012452 0.000000 0.036102
#
#
# Mechanical properties :
#
#
# Convention : Reuss Voigt Hill
#
# Bulk Modulus (GPa) = 46.18862 58.86810 52.52836
# Shear Modulus (GPa) = 24.12152 27.03004 25.57578
#
# Velocity S-wave (km/s) = 3.55176 3.75980 3.65726
# Velocity P-wave (km/s) = 6.40122 7.04520 6.73092
#
# Compressibility (1/GPa) = 0.02165035
#
# Stress axis : x y z
#
# Youngs Moduli (GPa) = 49.19424 85.09782 68.52253
#
# Poissons Ratio (x) = 0.42814 0.16233
# Poissons Ratio (y) = 0.24750 0.35021
# Poissons Ratio (z) = 0.11654 0.43493
#
# Static dielectric constant tensor:
#      x y z
#    x 1.675720 0.000000 -0.020890 
#    y 0.000000 1.694110 0.000000 
#    z -0.020890 0.000000 1.712780 
# 
# From -- ./inp_files/177948.got.cif
#   From: 2010.05.17/outbox.cif.g08.bks.cpg/sg12_89_cif.got.tgz:177948.got - 2010.06.03 13:09:07.
