data_PCOD9201501
_publ_section_title
;
Structure prediction by ZEFSAII (Michael W. Deem and Ramdas Pophale) SiO2 
 PCOD9201501
Probable space group: C 2/M
;
_chemical_formula_sum "Si O2"
_cell_formula_units_Z 64
_cell_length_a 16.007600
_cell_length_b 7.843875
_cell_length_c 24.065057
_cell_angle_alpha 90.000000
_cell_angle_beta 91.814943
_cell_angle_gamma 90.000000
_cell_volume 3020.131528
_symmetry_space_group_name_H-M "C 2/M"
_symmetry_group_IT_number 12
_symmetry_cell_setting 'monoclinic'
loop_
_space_group_symop_operation_xyz
x,y,z
-x,y,-z
-x,-y,-z
x,-y,z
1/2+x,1/2+y,z
1/2-x,1/2+y,-z
1/2-x,1/2-y,-z
1/2+x,1/2-y,z
loop_
_atom_site_type_symbol
_atom_site_label
_atom_site_fract_x
_atom_site_fract_y
_atom_site_fract_z
Si Si1 0.472531 0.707764 0.060170
Si Si2 0.108991 0.802202 0.754234
Si Si3 0.278724 0.705565 0.562849
Si Si4 0.229919 0.802528 0.178202
Si Si5 0.952480 0.790793 0.823047
Si Si6 0.280056 0.703367 0.062012
Si Si7 0.034492 0.798284 0.442156
Si Si8 0.877041 0.301981 0.369826
O O1 0.475993 0.500000 0.059057
O O2 0.527273 0.764699 0.113536
O O3 0.376812 0.755264 0.068927
O O4 0.500000 0.768692 0.000000
O O5 0.189384 0.789326 0.795687
O O6 0.027598 0.734596 0.784870
O O7 0.126633 0.714405 0.696292
O O8 0.092933 0.000000 0.741519
O O9 0.280666 0.500000 0.569228
O O10 0.250000 0.750000 0.500000
O O11 0.373890 0.770268 0.572299
O O12 0.206781 0.770552 0.603044
O O13 0.230737 0.788625 0.111352
O O14 0.140077 0.736074 0.196215
O O15 0.237639 0.000000 0.194429
O O16 0.952607 0.000000 0.823452
O O17 0.274331 0.500000 0.068882
O O18 0.250000 0.750000 0.000000
O O19 0.000000 0.726188 0.500000
O O20 0.961842 0.777807 0.395562
O O21 0.047198 0.000000 0.451438
O O22 0.881960 0.500000 0.385385
#
# Coordination Sequence:
#
# PCOD9201501 Si02
#       8
#     8   8   8   8   8   8   8   8
#     4   9  16  30  55  83 111 148 195 239 284 353
#     4  11  23  43  65  85 118 163 208 247 290 357
#     4  10  21  37  60  89 124 161 200 246 299 358
#     4  11  22  39  64  90 118 153 198 252 307 358
#     4   9  19  37  61  86 113 156 202 239 294 366
#     4  11  21  35  57  86 122 158 199 245 300 363
#     4  10  20  37  62  90 121 160 203 242 292 358
#     4  11  24  40  60  91 126 159 200 251 303 350
#
# _framework density 21.191130999999999
#
# number of rings (size 3 to 8) (size 9 to 14) (size 15 to 20)
#    0.000    1.750    2.500    2.250    0.000    4.250 
#    0.000    7.500    0.000    1.500    0.000    0.000 
#    0.000    0.000    0.000    0.000    0.000    0.000 
#
# Total GULP energy -178766.019213 kJ/mol
# GULP energy per Si atom -5586.438100 kJ/mol
# Density = 2.114290 g / cm^3
# Si number density = 21.191131 Si / 1000 Ang^3
#
#
#
# Elastic Constant Matrix: (Units=GPa)
#
#
# Indices 1 2 3 4 5 6 
#
# 1 178.1204 5.4664 52.9025 0.0000 -21.3794 0.0000
# 2 5.4664 23.3402 -13.0747 0.0000 -4.4573 0.0000
# 3 52.9025 -13.0747 103.0423 0.0000 -17.3499 0.0000
# 4 0.0000 0.0000 0.0000 25.7344 0.0000 4.6754
# 5 -21.3794 -4.4573 -17.3499 0.0000 30.9699 0.0000
# 6 0.0000 0.0000 0.0000 4.6754 0.0000 10.3167
#
#
#
# Elastic Compliance Matrix: (Units=1/GPa)
#
#
# Indices 1 2 3 4 5 6 
#
# 1 0.007083 -0.003248 -0.003648 0.000000 0.002378 0.000000
# 2 -0.003248 0.051240 0.009974 0.000000 0.010720 0.000000
# 3 -0.003648 0.009974 0.013980 0.000000 0.006749 0.000000
# 4 0.000000 0.000000 0.000000 0.042345 0.000000 -0.019190
# 5 0.002378 0.010720 0.006749 0.000000 0.039255 0.000000
# 6 0.000000 0.000000 0.000000 -0.019190 0.000000 0.105627
#
#
# Mechanical properties :
#
#
# Convention : Reuss Voigt Hill
#
# Bulk Modulus (GPa) = 12.74564 43.89903 28.32234
# Shear Modulus (GPa) = 17.88745 30.68478 24.28612
#
# Velocity S-wave (km/s) = 2.90849 3.80939 3.38901
# Velocity P-wave (km/s) = 4.16014 6.33319 5.35799
#
# Compressibility (1/GPa) = 0.07845819
#
# Stress axis : x y z
#
# Youngs Moduli (GPa) = 141.18682 19.51609 71.53266
#
# Poissons Ratio (x) = 0.06339 0.26096
# Poissons Ratio (y) = 0.45861 -0.71349
# Poissons Ratio (z) = 0.51506 -0.19466
#
# Static dielectric constant tensor:
#      x y z
#    x 1.780760 0.000000 -0.010590 
#    y 0.000000 1.792130 0.000000 
#    z -0.010590 0.000000 1.775390 
# 
# From -- ./inp_files/338741.got.cif
#   From: 2010.05.17/outbox.cif.g08.bks.cpg/sg12_170_cif.got.tgz:338741.got - 2010.06.03 13:09:07.
