data_PCOD9201142
_publ_section_title
;
Structure prediction by ZEFSAII (Michael W. Deem and Ramdas Pophale) SiO2 
 PCOD9201142
Probable space group: C 2/M
;
_chemical_formula_sum "Si O2"
_cell_formula_units_Z 64
_cell_length_a 17.409620
_cell_length_b 15.501525
_cell_length_c 23.005267
_cell_angle_alpha 90.000000
_cell_angle_beta 151.560935
_cell_angle_gamma 90.000000
_cell_volume 2956.665138
_symmetry_space_group_name_H-M "C 2/M"
_symmetry_group_IT_number 12
_symmetry_cell_setting 'monoclinic'
loop_
_space_group_symop_operation_xyz
x,y,z
-x,y,-z
-x,-y,-z
x,-y,z
1/2+x,1/2+y,z
1/2-x,1/2+y,-z
1/2-x,1/2-y,-z
1/2+x,1/2-y,z
loop_
_atom_site_type_symbol
_atom_site_label
_atom_site_fract_x
_atom_site_fract_y
_atom_site_fract_z
Si Si1 0.379568 0.100054 0.496927
Si Si2 0.825681 0.098349 0.916420
Si Si3 0.208371 0.407438 0.425080
Si Si4 0.946723 0.231110 0.084215
Si Si5 0.690800 0.804215 0.718819
Si Si6 0.548915 0.647640 0.683793
Si Si7 0.902797 0.232990 0.698738
Si Si8 0.366113 0.904127 0.961395
O O1 0.360368 0.103674 0.554951
O O2 0.557769 0.134941 0.600551
O O3 0.240265 0.164884 0.382523
O O4 0.355857 0.000000 0.464239
O O5 0.718758 0.151488 0.800224
O O6 0.772151 0.000000 0.889776
O O7 0.000000 0.094831 0.000000
O O8 0.845897 0.154199 0.987829
O O9 0.152284 0.500000 0.365537
O O10 0.401584 0.407041 0.561596
O O11 0.163093 0.329041 0.353342
O O12 0.132937 0.210633 0.190186
O O13 0.957059 0.229823 0.160283
O O14 0.894161 0.322717 0.022213
O O15 0.615432 0.710521 0.678671
O O16 0.467961 0.706235 0.679510
O O17 0.695524 0.602160 0.814414
O O18 0.380191 0.000000 0.997555
O O19 0.500000 0.895944 0.000000
#
# Coordination Sequence:
#
# PCOD9201142 Si02
#       8
#     8   8   8   8   8   8   8   8
#     4  10  20  37  62  88 113 150 198 238 280 342
#     4   9  18  34  56  80 109 148 190 229 274 334
#     4  10  20  37  61  87 113 150 196 239 282 338
#     4  11  23  37  57  86 123 154 182 236 293 347
#     4  11  18  36  62  85 110 150 195 237 281 331
#     4  11  19  39  64  81 108 153 197 240 278 335
#     4  11  23  38  58  86 123 154 185 233 294 347
#     4  11  22  39  63  87 111 150 201 245 282 332
#
# _framework density 21.646008999999999
#
# number of rings (size 3 to 8) (size 9 to 14) (size 15 to 20)
#    0.000    1.500    5.000    1.875    0.000    3.000 
#    0.000    0.625    0.000    0.750    0.000    0.000 
#    0.000    0.000    0.000    0.000    0.000    0.000 
#
# Total GULP energy -178811.318154 kJ/mol
# GULP energy per Si atom -5587.853692 kJ/mol
# Density = 2.159674 g / cm^3
# Si number density = 21.646009 Si / 1000 Ang^3
#
#
#
# Elastic Constant Matrix: (Units=GPa)
#
#
# Indices 1 2 3 4 5 6 
#
# 1 24.4854 15.1842 5.3438 0.0002 9.1569 0.0005
# 2 15.1842 150.2032 22.1796 -0.0037 -8.8659 0.0005
# 3 5.3438 22.1796 68.7351 -0.0046 3.3493 0.0013
# 4 0.0002 -0.0037 -0.0046 17.0658 -0.0010 4.7606
# 5 9.1569 -8.8659 3.3493 -0.0010 39.7521 0.0004
# 6 0.0005 0.0005 0.0013 4.7606 0.0004 11.0710
#
#
#
# Elastic Compliance Matrix: (Units=1/GPa)
#
#
# Indices 1 2 3 4 5 6 
#
# 1 0.049217 -0.005496 -0.001447 -0.000003 -0.012441 0.000000
# 2 -0.005496 0.007729 -0.002221 0.000001 0.003177 -0.000001
# 3 -0.001447 -0.002221 0.015449 0.000005 -0.001464 -0.000004
# 4 -0.000003 0.000001 0.000005 0.066584 0.000003 -0.028632
# 5 -0.012441 0.003177 -0.001464 0.000003 0.028854 -0.000002
# 6 0.000000 -0.000001 -0.000004 -0.028632 -0.000002 0.102638
#
#
# Mechanical properties :
#
#
# Convention : Reuss Voigt Hill
#
# Bulk Modulus (GPa) = 18.49564 36.53767 27.51665
# Shear Modulus (GPa) = 16.29611 26.95885 21.62748
#
# Velocity S-wave (km/s) = 2.74678 3.53291 3.16435
# Velocity P-wave (km/s) = 4.31542 5.79295 5.10789
#
# Compressibility (1/GPa) = 0.05406681
#
# Stress axis : x y z
#
# Youngs Moduli (GPa) = 20.31804 129.38592 64.72809
#
# Poissons Ratio (x) = 0.71113 0.09364
# Poissons Ratio (y) = 0.11167 0.14379
# Poissons Ratio (z) = 0.02939 0.28743
#
# Static dielectric constant tensor:
#      x y z
#    x 1.806840 0.000000 0.030600 
#    y 0.000000 1.791160 0.000000 
#    z 0.030600 0.000000 1.781780 
# 
# From -- ./inp_files/344107.got.cif
#   From: 2010.05.17/outbox.cif.g08.bks.cpg/sg12_173_cif.got.tgz:344107.got - 2010.06.03 13:09:07.
