data_PCOD9201642
_publ_section_title
;
Structure prediction by ZEFSAII (Michael W. Deem and Ramdas Pophale) SiO2 
 PCOD9201642
Probable space group: C 2/M
;
_chemical_formula_sum "Si O2"
_cell_formula_units_Z 42
_cell_length_a 8.581948
_cell_length_b 21.664620
_cell_length_c 10.747869
_cell_angle_alpha 90.000000
_cell_angle_beta 106.256591
_cell_angle_gamma 90.000000
_cell_volume 1918.397237
_symmetry_space_group_name_H-M "C 2/M"
_symmetry_group_IT_number 12
_symmetry_cell_setting 'monoclinic'
loop_
_space_group_symop_operation_xyz
x,y,z
-x,y,-z
-x,-y,-z
x,-y,z
1/2+x,1/2+y,z
1/2-x,1/2+y,-z
1/2-x,1/2-y,-z
1/2+x,1/2-y,z
loop_
_atom_site_type_symbol
_atom_site_label
_atom_site_fract_x
_atom_site_fract_y
_atom_site_fract_z
Si Si1 0.692200 0.566750 0.007937
Si Si2 0.500000 0.500000 0.500000
Si Si3 0.408761 0.291728 0.665801
Si Si4 0.186854 0.198026 0.079779
Si Si5 0.334692 0.600498 0.281823
Si Si6 0.623400 0.841807 0.430338
O O1 0.760820 0.500000 0.062727
O O2 0.703041 0.574150 0.862060
O O3 0.500000 0.565030 0.000000
O O4 0.763639 0.629876 0.080911
O O5 0.440259 0.553597 0.387057
O O6 0.317969 0.284939 0.776980
O O7 0.561563 0.336736 0.714031
O O8 0.451130 0.223342 0.629967
O O9 0.287993 0.323085 0.539771
O O10 0.250000 0.250000 0.000000
O O11 0.000000 0.191049 0.000000
O O12 0.176058 0.617227 0.326237
O O13 0.500000 0.872037 0.500000
#
# Coordination Sequence:
#
# PCOD9201642 Si02
#       6
#     8   2   8   8   8   8
#     4  10  20  37  63  91 118 157 204 256 304 359
#     4  12  24  36  64  92 120 168 210 256 292 364
#     4  11  21  39  61  90 125 157 209 254 310 372
#     4  11  23  38  60  94 124 161 205 259 311 368
#     4  12  21  41  63  91 124 157 211 255 303 371
#     4  11  24  37  61  91 124 164 199 259 316 362
#
# _framework density 21.893276
#
# number of rings (size 3 to 8) (size 9 to 14) (size 15 to 20)
#    0.000    0.952    6.667    3.429    2.667    0.000 
#    0.000    0.476    0.000    0.571    0.000    0.000 
#    0.000    0.000    0.000    0.000    0.000    0.000 
#
# Total GULP energy -117157.260250 kJ/mol
# GULP energy per Si atom -5578.917155 kJ/mol
# Density = 2.184345 g / cm^3
# Si number density = 21.893276 Si / 1000 Ang^3
#
#
#
# Elastic Constant Matrix: (Units=GPa)
#
#
# Indices 1 2 3 4 5 6 
#
# 1 78.4560 35.7886 20.3542 0.0000 -35.9535 0.0000
# 2 35.7886 138.1062 16.2081 0.0000 -25.1828 0.0000
# 3 20.3542 16.2081 66.5448 0.0000 -37.6970 0.0000
# 4 0.0000 0.0000 0.0000 -116.9941 0.0000 100.0559
# 5 -35.9535 -25.1828 -37.6970 0.0000 47.9553 0.0000
# 6 0.0000 0.0000 0.0000 100.0559 0.0000 -73.3380
#
#
#
# Elastic Compliance Matrix: (Units=1/GPa)
#
#
# Indices 1 2 3 4 5 6 
#
# 1 0.020958 -0.002716 0.004226 0.000000 0.017609 0.000000
# 2 -0.002716 0.008382 0.000233 0.000000 0.002548 0.000000
# 3 0.004226 0.000233 0.028020 0.000000 0.025317 0.000000
# 4 0.000000 0.000000 0.000000 0.051247 0.000000 0.069917
# 5 0.017609 0.002548 0.025317 0.000000 0.055294 0.000000
# 6 0.000000 0.000000 0.000000 0.069917 0.000000 0.081753
#
#
# Mechanical properties :
#
#
# Convention : Reuss Voigt Hill
#
# Bulk Modulus (GPa) = 16.43502 47.53430 31.98466
# Shear Modulus (GPa) = 19.05124 -14.42495 2.31314
#
# Velocity S-wave (km/s) = 2.95309 -2.56964 1.02900
# Velocity P-wave (km/s) = 4.37617 3.59929 4.00660
#
# Compressibility (1/GPa) = 0.06084567
#
# Stress axis : x y z
#
# Youngs Moduli (GPa) = 47.71439 119.30319 35.68902
#
# Poissons Ratio (x) = 0.32405 -0.15083
# Poissons Ratio (y) = 0.12960 -0.00831
# Poissons Ratio (z) = -0.20166 -0.02777
#
# Static dielectric constant tensor:
#      x y z
#    x 1.821330 0.000000 0.029500 
#    y 0.000000 1.837250 0.000000 
#    z 0.029500 0.000000 1.714210 
# 
# From -- ./inp_files/120928.got.cif
#   From: 2010.05.17/outbox.cif.g08.bks.cpg/sg12_61_cif.got.tgz:120928.got - 2010.06.03 13:09:07.
