data_PCOD9201610
_publ_section_title
;
Structure prediction by ZEFSAII (Michael W. Deem and Ramdas Pophale) SiO2 
 PCOD9201610
Probable space group: C 2/M
;
_chemical_formula_sum "Si O2"
_cell_formula_units_Z 64
_cell_length_a 20.032597
_cell_length_b 8.012870
_cell_length_c 30.765386
_cell_angle_alpha 90.000000
_cell_angle_beta 141.932487
_cell_angle_gamma 90.000000
_cell_volume 3044.976186
_symmetry_space_group_name_H-M "C 2/M"
_symmetry_group_IT_number 12
_symmetry_cell_setting 'monoclinic'
loop_
_space_group_symop_operation_xyz
x,y,z
-x,y,-z
-x,-y,-z
x,-y,z
1/2+x,1/2+y,z
1/2-x,1/2+y,-z
1/2-x,1/2-y,-z
1/2+x,1/2-y,z
loop_
_atom_site_type_symbol
_atom_site_label
_atom_site_fract_x
_atom_site_fract_y
_atom_site_fract_z
Si Si1 0.014883 0.799788 0.718288
Si Si2 0.464199 0.200900 0.117060
Si Si3 0.117420 0.692748 0.680872
Si Si4 0.459630 0.304914 0.526587
Si Si5 0.775194 0.194678 0.610355
Si Si6 0.826834 0.201228 0.125178
Si Si7 0.918542 0.704442 0.995976
Si Si8 0.313600 0.195007 0.726059
O O1 0.076883 0.760797 0.705928
O O2 0.084106 0.735457 0.794713
O O3 0.891377 0.737080 0.654350
O O4 0.006596 0.000000 0.719012
O O5 0.364048 0.249286 0.096144
O O6 0.454014 0.259499 0.062342
O O7 0.573574 0.260786 0.196834
O O8 0.470408 0.000000 0.118729
O O9 0.146628 0.500000 0.700271
O O10 0.220519 0.787274 0.714169
O O11 0.021231 0.712829 0.596598
O O12 0.500000 0.243783 0.500000
O O13 0.489563 0.500000 0.545143
O O14 0.330730 0.285210 0.461719
O O15 0.778422 0.211943 0.664305
O O16 0.765688 0.000000 0.593750
O O17 0.826653 0.000000 0.127249
O O18 0.705756 0.257684 0.074413
O O19 0.919560 0.500000 0.996254
O O20 0.000000 0.759820 0.000000
O O21 0.326022 0.000000 0.720999
#
# Coordination Sequence:
#
# PCOD9201610 Si02
#       8
#     8   8   8   8   8   8   8   8
#     4  10  23  41  61  89 123 159 201 250 306 361
#     4  10  21  36  60  90 120 159 203 250 298 355
#     4  12  26  41  62  90 121 159 202 251 305 360
#     4  11  23  40  64  91 121 160 201 245 302 362
#     4  11  22  39  64  91 121 157 203 252 300 357
#     4  10  20  37  63  88 118 161 202 248 299 355
#     4   9  19  35  58  89 121 158 205 249 295 352
#     4  11  22  37  60  89 122 159 203 253 304 359
#
# _framework density 21.018228000000001
#
# number of rings (size 3 to 8) (size 9 to 14) (size 15 to 20)
#    0.000    1.500    2.500    2.625    1.750    3.000 
#    0.000    0.000    0.000    0.750    0.000    0.000 
#    0.000    0.000    0.000    0.000    0.000    0.000 
#
# Total GULP energy -178909.104519 kJ/mol
# GULP energy per Si atom -5590.909516 kJ/mol
# Density = 2.097039 g / cm^3
# Si number density = 21.018228 Si / 1000 Ang^3
#
#
#
# Elastic Constant Matrix: (Units=GPa)
#
#
# Indices 1 2 3 4 5 6 
#
# 1 133.3476 -12.1265 31.3184 0.0001 7.5279 -0.0002
# 2 -12.1265 12.4943 -0.7347 0.0004 5.2679 -0.0012
# 3 31.3184 -0.7347 80.1161 0.0000 14.7492 0.0000
# 4 0.0001 0.0004 0.0000 2.4845 0.0000 -4.0311
# 5 7.5279 5.2679 14.7492 0.0000 31.2974 0.0002
# 6 -0.0002 -0.0012 0.0000 -4.0311 0.0002 25.2717
#
#
#
# Elastic Compliance Matrix: (Units=1/GPa)
#
#
# Indices 1 2 3 4 5 6 
#
# 1 0.009253 0.009823 -0.003080 -0.000002 -0.002427 0.000000
# 2 0.009823 0.097641 0.000565 -0.000014 -0.019064 0.000003
# 3 -0.003080 0.000565 0.014862 0.000000 -0.006358 0.000000
# 4 -0.000002 -0.000014 0.000000 0.543035 0.000002 0.086619
# 5 -0.002427 -0.019064 -0.006358 0.000002 0.038740 -0.000001
# 6 0.000000 0.000003 0.000000 0.086619 -0.000001 0.053387
#
#
# Mechanical properties :
#
#
# Convention : Reuss Voigt Hill
#
# Bulk Modulus (GPa) = 7.33295 29.20805 18.27050
# Shear Modulus (GPa) = 6.34712 25.64410 15.99561
#
# Velocity S-wave (km/s) = 1.73965 3.49677 2.76168
# Velocity P-wave (km/s) = 2.74437 5.49817 4.34520
#
# Compressibility (1/GPa) = 0.13637078
#
# Stress axis : x y z
#
# Youngs Moduli (GPa) = 108.07406 10.24163 67.28748
#
# Poissons Ratio (x) = -0.10060 0.20725
# Poissons Ratio (y) = -1.06159 -0.03802
# Poissons Ratio (z) = 0.33288 -0.00579
#
# Static dielectric constant tensor:
#      x y z
#    x 1.733970 0.000000 0.018290 
#    y 0.000000 1.739550 0.000000 
#    z 0.018290 0.000000 1.744430 
# 
# From -- ./inp_files/378374.got.cif
#   From: 2010.05.17/outbox.cif.g08.bks.cpg/sg12_190_cif.got.tgz:378374.got - 2010.06.03 13:09:07.
