data_PCOD9201391
_publ_section_title
;
Structure prediction by ZEFSAII (Michael W. Deem and Ramdas Pophale) SiO2 
 PCOD9201391
Probable space group: C 2/M
;
_chemical_formula_sum "Si O2"
_cell_formula_units_Z 56
_cell_length_a 9.626109
_cell_length_b 23.937883
_cell_length_c 19.190688
_cell_angle_alpha 90.000000
_cell_angle_beta 29.969776
_cell_angle_gamma 90.000000
_cell_volume 2209.021892
_symmetry_space_group_name_H-M "C 2/M"
_symmetry_group_IT_number 12
_symmetry_cell_setting 'monoclinic'
loop_
_space_group_symop_operation_xyz
x,y,z
-x,y,-z
-x,-y,-z
x,-y,z
1/2+x,1/2+y,z
1/2-x,1/2+y,-z
1/2-x,1/2-y,-z
1/2+x,1/2-y,z
loop_
_atom_site_type_symbol
_atom_site_label
_atom_site_fract_x
_atom_site_fract_y
_atom_site_fract_z
Si Si1 0.681367 0.160408 0.646595
Si Si2 0.406828 0.203090 0.164343
Si Si3 0.839545 0.822125 0.191599
Si Si4 0.818326 0.172780 0.360225
Si Si5 0.549874 0.440114 0.240499
Si Si6 0.345494 0.914618 0.966837
Si Si7 0.309127 0.935265 0.821946
O O1 0.501678 0.182624 0.337338
O O2 0.000000 0.170402 0.500000
O O3 0.566812 0.192898 0.764161
O O4 0.612720 0.094282 0.683303
O O5 0.462424 0.264442 0.109032
O O6 0.597930 0.152545 0.053184
O O7 0.077665 0.193752 0.292774
O O8 0.917349 0.821055 0.237686
O O9 0.854362 0.881370 0.143771
O O10 0.500000 0.193090 0.500000
O O11 0.839284 0.106044 0.359683
O O12 0.419561 0.500000 0.304360
O O13 0.840827 0.436371 0.155466
O O14 0.655920 0.433135 0.114192
O O15 0.265486 0.936352 0.924481
O O16 0.289320 0.000000 0.805423
#
# Coordination Sequence:
#
# PCOD9201391 Si02
#       7
#     8   8   8   8   8   8   8
#     4   9  19  33  55  85 113 163 211 253 300 351
#     4  10  20  37  62  87 121 153 209 257 298 360
#     4  10  22  36  56  89 122 163 196 245 315 359
#     4  11  24  38  58  88 126 162 195 251 309 364
#     4  10  20  37  65  92 119 157 204 248 302 362
#     4   9  18  37  66  92 114 153 208 259 293 346
#     4   9  19  35  57  83 119 157 201 249 298 359
#
# _framework density 25.350584999999999
#
# number of rings (size 3 to 8) (size 9 to 14) (size 15 to 20)
#    0.857    1.429    0.000    3.429    0.000    4.571 
#    0.000    1.429    6.286    1.714    0.000    0.000 
#    0.000    0.000    0.000    0.000    0.000    0.000 
#
# Total GULP energy -156124.947297 kJ/mol
# GULP energy per Si atom -5575.890975 kJ/mol
# Density = 2.529289 g / cm^3
# Si number density = 25.350585 Si / 1000 Ang^3
#
#
#
# Elastic Constant Matrix: (Units=GPa)
#
#
# Indices 1 2 3 4 5 6 
#
# 1 91.0976 28.5955 -20.7456 -0.0063 8.7620 -0.0026
# 2 28.5955 238.5723 15.8720 -0.0136 -8.4419 0.0006
# 3 -20.7456 15.8720 47.1082 -0.0648 -6.2616 -0.0218
# 4 -0.0063 -0.0136 -0.0648 5.2517 -0.0056 -2.1387
# 5 8.7620 -8.4419 -6.2616 -0.0056 23.2913 0.0028
# 6 -0.0026 0.0006 -0.0218 -2.1387 0.0028 11.0458
#
#
#
# Elastic Compliance Matrix: (Units=1/GPa)
#
#
# Indices 1 2 3 4 5 6 
#
# 1 0.013450 -0.002166 0.006094 0.000095 -0.004207 0.000035
# 2 -0.002166 0.004670 -0.002275 -0.000020 0.001896 -0.000010
# 3 0.006094 -0.002275 0.025163 0.000365 0.003648 0.000121
# 4 0.000095 -0.000020 0.000365 0.206718 0.000100 0.040026
# 5 -0.004207 0.001896 0.003648 0.000100 0.046185 0.000014
# 6 0.000035 -0.000010 0.000121 0.040026 0.000014 0.098283
#
#
# Mechanical properties :
#
#
# Convention : Reuss Voigt Hill
#
# Bulk Modulus (GPa) = 21.46518 47.13575 34.30047
# Shear Modulus (GPa) = 12.29429 31.45484 21.87456
#
# Velocity S-wave (km/s) = 2.20459 3.52631 2.94067
# Velocity P-wave (km/s) = 3.86859 5.93412 5.00898
#
# Compressibility (1/GPa) = 0.04658708
#
# Stress axis : x y z
#
# Youngs Moduli (GPa) = 74.35148 214.14535 39.74015
#
# Poissons Ratio (x) = 0.46391 -0.24217
# Poissons Ratio (y) = 0.16107 0.09043
# Poissons Ratio (z) = -0.45309 0.48727
#
# Static dielectric constant tensor:
#      x y z
#    x 2.081670 0.000000 -0.146270 
#    y 0.000000 2.140850 0.000020 
#    z -0.146270 0.000020 2.105510 
# 
# From -- ./inp_files/336742.got.cif
#   From: 2010.05.17/outbox.cif.g08.bks.cpg/sg12_169_cif.got.tgz:336742.got - 2010.06.03 13:09:07.
