data_PCOD9201781
_publ_section_title
;
Structure prediction by ZEFSAII (Michael W. Deem and Ramdas Pophale) SiO2 
 PCOD9201781
Probable space group: C 2/M
;
_chemical_formula_sum "Si O2"
_cell_formula_units_Z 64
_cell_length_a 11.808028
_cell_length_b 15.046334
_cell_length_c 24.631024
_cell_angle_alpha 90.000000
_cell_angle_beta 40.990735
_cell_angle_gamma 90.000000
_cell_volume 2870.467645
_symmetry_space_group_name_H-M "C 2/M"
_symmetry_group_IT_number 12
_symmetry_cell_setting 'monoclinic'
loop_
_space_group_symop_operation_xyz
x,y,z
-x,y,-z
-x,-y,-z
x,-y,z
1/2+x,1/2+y,z
1/2-x,1/2+y,-z
1/2-x,1/2-y,-z
1/2+x,1/2-y,z
loop_
_atom_site_type_symbol
_atom_site_label
_atom_site_fract_x
_atom_site_fract_y
_atom_site_fract_z
Si Si1 0.652719 0.859594 0.762712
Si Si2 0.107474 0.094933 0.190016
Si Si3 0.307561 0.234105 0.058823
Si Si4 0.439271 0.897448 0.322171
Si Si5 0.136193 0.601625 0.060558
Si Si6 0.966090 0.902652 0.364170
Si Si7 0.230161 0.838412 0.728328
Si Si8 0.202626 0.729327 0.418598
O O1 0.540693 0.883012 0.750038
O O2 0.562628 0.903854 0.847104
O O3 0.665885 0.756488 0.772795
O O4 0.849464 0.884717 0.674760
O O5 0.211939 0.184905 0.142346
O O6 0.031740 0.096346 0.278007
O O7 0.938466 0.100610 0.212751
O O8 0.196726 0.000000 0.148342
O O9 0.212437 0.322165 0.072755
O O10 0.500000 0.263527 0.000000
O O11 0.327689 0.151626 0.009049
O O12 0.611039 0.874141 0.294228
O O13 0.294340 0.824756 0.388762
O O14 0.392837 0.000000 0.348768
O O15 0.203444 0.500000 0.037429
O O16 0.812601 0.831832 0.420605
O O17 0.901444 0.000000 0.402900
O O18 0.278165 0.815132 0.648332
O O19 0.000000 0.735237 0.500000
#
# Coordination Sequence:
#
# PCOD9201781 Si02
#       8
#     8   8   8   8   8   8   8   8
#     4  11  21  40  64  91 123 160 207 257 307 364
#     4  10  20  38  64  91 119 157 207 259 308 365
#     4  11  24  40  62  89 123 164 205 252 310 365
#     4  11  23  40  64  93 126 166 207 252 305 369
#     4  11  24  41  60  89 126 161 203 256 307 363
#     4  10  20  37  64  93 120 158 208 260 308 364
#     4  10  21  40  66  89 122 160 208 253 306 367
#     4  10  23  41  64  92 127 163 204 255 310 364
#
# _framework density 22.296018
#
# number of rings (size 3 to 8) (size 9 to 14) (size 15 to 20)
#    0.000    1.500    2.500    2.625    0.000    4.750 
#    0.000    0.000    0.000    0.000    0.000    0.000 
#    0.000    0.000    0.000    0.000    0.000    0.000 
#
# Total GULP energy -178591.229563 kJ/mol
# GULP energy per Si atom -5580.975924 kJ/mol
# Density = 2.224527 g / cm^3
# Si number density = 22.296018 Si / 1000 Ang^3
#
#
#
# Elastic Constant Matrix: (Units=GPa)
#
#
# Indices 1 2 3 4 5 6 
#
# 1 104.7089 23.4673 9.2062 0.0000 -19.6737 0.0000
# 2 23.4673 139.6296 9.0222 -0.0002 -4.9871 -0.0001
# 3 9.2062 9.0222 40.3437 -0.0004 -19.6507 -0.0001
# 4 0.0000 -0.0002 -0.0004 6.9854 0.0000 -4.7520
# 5 -19.6737 -4.9871 -19.6507 0.0000 25.8309 0.0000
# 6 0.0000 -0.0001 -0.0001 -4.7520 0.0000 24.8284
#
#
#
# Elastic Compliance Matrix: (Units=1/GPa)
#
#
# Indices 1 2 3 4 5 6 
#
# 1 0.011729 -0.001778 0.003027 0.000000 0.010893 0.000000
# 2 -0.001778 0.007537 -0.001955 0.000000 -0.001386 0.000000
# 3 0.003027 -0.001955 0.040468 0.000003 0.032713 0.000001
# 4 0.000000 0.000000 0.000003 0.164584 0.000003 0.031500
# 5 0.010893 -0.001386 0.032713 0.000003 0.071628 0.000001
# 6 0.000000 0.000000 0.000001 0.031500 0.000001 0.046305
#
#
# Mechanical properties :
#
#
# Convention : Reuss Voigt Hill
#
# Bulk Modulus (GPa) = 17.14625 40.89706 29.02166
# Shear Modulus (GPa) = 13.77009 27.72804 20.74907
#
# Velocity S-wave (km/s) = 2.48786 3.53034 3.05391
# Velocity P-wave (km/s) = 3.99494 5.91611 5.04777
#
# Compressibility (1/GPa) = 0.05832179
#
# Stress axis : x y z
#
# Youngs Moduli (GPa) = 85.25703 132.67135 24.71110
#
# Poissons Ratio (x) = 0.23587 -0.07479
# Poissons Ratio (y) = 0.15157 0.04831
# Poissons Ratio (z) = -0.25804 0.25938
#
# Static dielectric constant tensor:
#      x y z
#    x 1.884080 0.000000 0.002380 
#    y 0.000000 1.831960 0.000000 
#    z 0.002380 0.000000 1.899580 
# 
# From -- ./inp_files/358416.got.cif
#   From: 2010.05.17/outbox.cif.g08.bks.cpg/sg12_180_cif.got.tgz:358416.got - 2010.06.03 13:09:07.
