data_PCOD9201623
_publ_section_title
;
Structure prediction by ZEFSAII (Michael W. Deem and Ramdas Pophale) SiO2 
 PCOD9201623
Probable space group: C 2/M
;
_chemical_formula_sum "Si O2"
_cell_formula_units_Z 56
_cell_length_a 14.778423
_cell_length_b 14.612032
_cell_length_c 17.680458
_cell_angle_alpha 90.000000
_cell_angle_beta 46.243379
_cell_angle_gamma 90.000000
_cell_volume 2757.656964
_symmetry_space_group_name_H-M "C 2/M"
_symmetry_group_IT_number 12
_symmetry_cell_setting 'monoclinic'
loop_
_space_group_symop_operation_xyz
x,y,z
-x,y,-z
-x,-y,-z
x,-y,z
1/2+x,1/2+y,z
1/2-x,1/2+y,-z
1/2-x,1/2-y,-z
1/2+x,1/2-y,z
loop_
_atom_site_type_symbol
_atom_site_label
_atom_site_fract_x
_atom_site_fract_y
_atom_site_fract_z
Si Si1 0.959748 0.241834 0.604793
Si Si2 0.879746 0.391370 0.407006
Si Si3 0.954040 0.276007 0.950373
Si Si4 0.818937 0.179115 0.254807
Si Si5 0.893585 0.108747 0.378143
Si Si6 0.818708 0.098674 0.098178
Si Si7 0.559351 0.896400 0.172165
O O1 0.817189 0.275425 0.677683
O O2 0.000000 0.203700 0.500000
O O3 0.046106 0.329627 0.575648
O O4 0.994355 0.168493 0.650286
O O5 0.900259 0.500000 0.408445
O O6 0.731716 0.374172 0.499224
O O7 0.938384 0.368117 0.291372
O O8 0.886603 0.339726 0.929550
O O9 0.075797 0.250026 0.832078
O O10 0.883997 0.184805 0.019691
O O11 0.000000 0.324760 0.000000
O O12 0.852411 0.140914 0.317941
O O13 0.833324 0.104816 0.179609
O O14 0.920105 0.000000 0.362523
O O15 0.671561 0.104529 0.167369
O O16 0.863775 0.000000 0.043140
O O17 0.536141 0.000000 0.159744
#
# Coordination Sequence:
#
# PCOD9201623 Si02
#       7
#     8   8   8   8   8   8   8
#     4  12  24  39  65  94 131 170 217 264 318 379
#     4  10  21  38  63  94 126 164 212 264 319 376
#     4  10  23  39  59  87 123 162 208 258 317 377
#     4  11  23  39  66  93 126 167 211 264 320 376
#     4  11  25  43  64  95 135 175 214 261 317 382
#     4  10  21  39  64  93 121 157 205 263 321 372
#     4  10  20  37  63  89 121 162 207 260 313 371
#
# _framework density 20.307093999999999
#
# number of rings (size 3 to 8) (size 9 to 14) (size 15 to 20)
#    0.000    1.429    2.857    2.143    2.000    4.571 
#    0.000    0.714    0.000    0.000    0.000    0.000 
#    0.000    0.000    0.000    0.000    0.000    0.000 
#
# Total GULP energy -156141.009859 kJ/mol
# GULP energy per Si atom -5576.464638 kJ/mol
# Density = 2.026087 g / cm^3
# Si number density = 20.307094 Si / 1000 Ang^3
#
#
#
# Elastic Constant Matrix: (Units=GPa)
#
#
# Indices 1 2 3 4 5 6 
#
# 1 74.1572 41.3492 26.9018 0.0000 26.6591 0.0000
# 2 41.3492 58.7169 25.5847 0.0000 22.0913 0.0000
# 3 26.9018 25.5847 81.1033 0.0000 14.3991 0.0000
# 4 0.0000 0.0000 0.0000 25.6169 0.0000 6.9060
# 5 26.6591 22.0913 14.3991 0.0000 38.4744 0.0000
# 6 0.0000 0.0000 0.0000 6.9060 0.0000 29.4605
#
#
#
# Elastic Compliance Matrix: (Units=1/GPa)
#
#
# Indices 1 2 3 4 5 6 
#
# 1 0.024865 -0.013103 -0.002561 0.000000 -0.008747 0.000000
# 2 -0.013103 0.030674 -0.004087 0.000000 -0.007004 0.000000
# 3 -0.002561 -0.004087 0.014715 0.000000 -0.001386 0.000000
# 4 0.000000 0.000000 0.000000 0.041670 0.000000 -0.009768
# 5 -0.008747 -0.007004 -0.001386 0.000000 0.036592 0.000000
# 6 0.000000 0.000000 0.000000 -0.009768 0.000000 0.036234
#
#
# Mechanical properties :
#
#
# Convention : Reuss Voigt Hill
#
# Bulk Modulus (GPa) = 32.51887 44.62764 38.57326
# Shear Modulus (GPa) = 21.32185 26.71982 24.02083
#
# Velocity S-wave (km/s) = 3.24384 3.63131 3.44303
# Velocity P-wave (km/s) = 5.48437 6.29333 5.90272
#
# Compressibility (1/GPa) = 0.03075137
#
# Stress axis : x y z
#
# Youngs Moduli (GPa) = 40.21794 32.60089 67.95928
#
# Poissons Ratio (x) = 0.42718 0.17405
# Poissons Ratio (y) = 0.52698 0.27772
# Poissons Ratio (z) = 0.10300 0.13323
#
# Static dielectric constant tensor:
#      x y z
#    x 1.769090 0.000000 0.005910 
#    y 0.000000 1.793900 0.000000 
#    z 0.005910 0.000000 1.732800 
# 
# From -- ./inp_files/270175.got.cif
#   From: 2010.05.17/outbox.cif.g08.bks.cpg/sg12_136_cif.got.tgz:270175.got - 2010.06.03 13:09:07.
