data_PCOD9201172
_publ_section_title
;
Structure prediction by ZEFSAII (Michael W. Deem and Ramdas Pophale) SiO2 
 PCOD9201172
Probable space group: C 2/M
;
_chemical_formula_sum "Si O2"
_cell_formula_units_Z 50
_cell_length_a 13.618945
_cell_length_b 13.011930
_cell_length_c 11.857475
_cell_angle_alpha 90.000000
_cell_angle_beta 70.436649
_cell_angle_gamma 90.000000
_cell_volume 1979.947204
_symmetry_space_group_name_H-M "C 2/M"
_symmetry_group_IT_number 12
_symmetry_cell_setting 'monoclinic'
loop_
_space_group_symop_operation_xyz
x,y,z
-x,y,-z
-x,-y,-z
x,-y,z
1/2+x,1/2+y,z
1/2-x,1/2+y,-z
1/2-x,1/2-y,-z
1/2+x,1/2-y,z
loop_
_atom_site_type_symbol
_atom_site_label
_atom_site_fract_x
_atom_site_fract_y
_atom_site_fract_z
Si Si1 0.940325 0.675778 0.851708
Si Si2 0.858839 0.661003 0.462833
Si Si3 0.361581 0.614288 0.516071
Si Si4 0.655208 0.822136 0.861607
Si Si5 0.391517 0.611767 0.762599
Si Si6 0.736590 0.884006 0.250570
Si Si7 0.500000 0.000000 0.500000
O O1 0.939359 0.793779 0.810362
O O2 0.860629 0.620506 0.798085
O O3 0.059777 0.640758 0.819885
O O4 0.888681 0.672991 0.994938
O O5 0.764108 0.626044 0.420916
O O6 0.884795 0.780721 0.441072
O O7 0.808835 0.641940 0.607910
O O8 0.957225 0.589180 0.430200
O O9 0.379258 0.500000 0.461349
O O10 0.411876 0.619173 0.620319
O O11 0.765955 0.878869 0.819412
O O12 0.684611 0.704825 0.816648
O O13 0.425003 0.500000 0.790439
O O14 0.777972 0.000000 0.237169
#
# Coordination Sequence:
#
# PCOD9201172 Si02
#       7
#     8   8   8   8   8   8   2
#     4  10  22  39  57  89 124 157 207 260 309 372
#     4  11  22  40  62  92 131 158 210 256 310 380
#     4  10  20  40  63  90 122 168 203 252 312 374
#     4  10  22  39  59  86 123 161 203 258 318 362
#     4  10  20  37  61  87 120 161 206 249 311 368
#     4  11  21  40  62  88 122 163 206 253 310 377
#     4  12  24  40  62 100 124 166 204 264 312 368
#
# _framework density 25.253197
#
# number of rings (size 3 to 8) (size 9 to 14) (size 15 to 20)
#    0.000    1.600    4.800    1.920    0.000    5.120 
#    0.000    3.600    0.000    0.000    0.000    0.000 
#    0.000    0.000    0.000    0.000    0.000    0.000 
#
# Total GULP energy -139753.482153 kJ/mol
# GULP energy per Si atom -5590.139286 kJ/mol
# Density = 2.519572 g / cm^3
# Si number density = 25.253197 Si / 1000 Ang^3
#
#
#
# Elastic Constant Matrix: (Units=GPa)
#
#
# Indices 1 2 3 4 5 6 
#
# 1 104.7403 -2.7719 21.7151 0.0000 2.8904 0.0000
# 2 -2.7719 164.8453 -15.4369 0.0000 -1.3980 0.0000
# 3 21.7151 -15.4369 83.8345 0.0000 -3.7241 0.0000
# 4 0.0000 0.0000 0.0000 -2.8092 0.0000 16.9185
# 5 2.8904 -1.3980 -3.7241 0.0000 46.2706 0.0000
# 6 0.0000 0.0000 0.0000 16.9185 0.0000 -64.9506
#
#
#
# Elastic Compliance Matrix: (Units=1/GPa)
#
#
# Indices 1 2 3 4 5 6 
#
# 1 0.010123 -0.000088 -0.002676 0.000000 -0.000850 0.000000
# 2 -0.000088 0.006177 0.001173 0.000000 0.000287 0.000000
# 3 -0.002676 0.001173 0.012892 0.000000 0.001240 0.000000
# 4 0.000000 0.000000 0.000000 0.625862 0.000000 0.163026
# 5 -0.000850 0.000287 0.001240 0.000000 0.021774 0.000000
# 6 0.000000 0.000000 0.000000 0.163026 0.000000 0.027069
#
#
# Mechanical properties :
#
#
# Convention : Reuss Voigt Hill
#
# Bulk Modulus (GPa) = 38.44489 40.04806 39.24647
# Shear Modulus (GPa) = 6.98569 19.02976 13.00772
#
# Velocity S-wave (km/s) = 1.66501 2.74808 2.27203
# Velocity P-wave (km/s) = 4.35352 5.09532 4.73896
#
# Compressibility (1/GPa) = 0.02601126
#
# Stress axis : x y z
#
# Youngs Moduli (GPa) = 98.78116 161.88875 77.56453
#
# Poissons Ratio (x) = 0.01418 0.20757
# Poissons Ratio (y) = 0.00865 -0.09097
# Poissons Ratio (z) = 0.26435 -0.18987
#
# Static dielectric constant tensor:
#      x y z
#    x 2.047770 0.000000 -0.055360 
#    y 0.000000 2.045170 0.000000 
#    z -0.055360 0.000000 2.024070 
# 
# From -- ./inp_files/143683.got.cif
#   From: 2010.05.17/outbox.cif.g08.bks.cpg/sg12_72_cif.got.tgz:143683.got - 2010.06.03 13:09:07.
