data_PCOD9201449
_publ_section_title
;
Structure prediction by ZEFSAII (Michael W. Deem and Ramdas Pophale) SiO2 
 PCOD9201449
Probable space group: C 2/M
;
_chemical_formula_sum "Si O2"
_cell_formula_units_Z 64
_cell_length_a 31.159047
_cell_length_b 8.810350
_cell_length_c 14.642386
_cell_angle_alpha 90.000000
_cell_angle_beta 53.317775
_cell_angle_gamma 90.000000
_cell_volume 3223.609541
_symmetry_space_group_name_H-M "C 2/M"
_symmetry_group_IT_number 12
_symmetry_cell_setting 'monoclinic'
loop_
_space_group_symop_operation_xyz
x,y,z
-x,y,-z
-x,-y,-z
x,-y,z
1/2+x,1/2+y,z
1/2-x,1/2+y,-z
1/2-x,1/2-y,-z
1/2+x,1/2-y,z
loop_
_atom_site_type_symbol
_atom_site_label
_atom_site_fract_x
_atom_site_fract_y
_atom_site_fract_z
Si Si1 0.051216 0.323418 0.869009
Si Si2 0.258526 0.681611 0.589597
Si Si3 0.834682 0.683487 0.638412
Si Si4 0.457605 0.182628 0.479456
Si Si5 0.299575 0.181846 0.881269
Si Si6 0.498260 0.320589 0.241180
Si Si7 0.842711 0.317866 0.154186
Si Si8 0.877192 0.818921 0.923706
O O1 0.057806 0.500000 0.833003
O O2 0.103860 0.277379 0.857308
O O3 0.038081 0.224329 0.798116
O O4 0.000000 0.314107 0.000000
O O5 0.262132 0.500000 0.577824
O O6 0.250000 0.750000 0.500000
O O7 0.309310 0.746663 0.579692
O O8 0.208021 0.719659 0.718891
O O9 0.832680 0.500000 0.634194
O O10 0.896386 0.731103 0.572502
O O11 0.802795 0.728846 0.770979
O O12 0.500000 0.240469 0.500000
O O13 0.477373 0.234775 0.356062
O O14 0.457638 0.000000 0.483706
O O15 0.352356 0.238134 0.867122
O O16 0.296802 0.000000 0.887821
O O17 0.250000 0.250000 0.000000
O O18 0.496487 0.500000 0.258956
O O19 0.560303 0.278538 0.143675
O O20 0.843310 0.500000 0.137708
O O21 0.845345 0.235492 0.053791
O O22 0.872368 0.000000 0.920256
#
# Coordination Sequence:
#
# PCOD9201449 Si02
#       8
#     8   8   8   8   8   8   8   8
#     4  10  20  37  62  89 118 158 204 254 306 363
#     4  11  25  43  64  90 123 163 208 257 308 365
#     4  10  23  43  65  91 123 160 208 259 306 365
#     4  10  22  42  67  91 119 162 212 258 305 364
#     4  11  23  40  65  93 123 158 200 250 306 365
#     4  11  24  38  57  90 127 160 197 247 311 371
#     4  10  22  40  62  88 119 159 210 258 304 362
#     4  11  23  38  59  90 127 162 197 245 303 368
#
# _framework density 19.85352
#
# number of rings (size 3 to 8) (size 9 to 14) (size 15 to 20)
#    0.000    1.500    1.250    3.000    1.750    8.000 
#    0.000    0.000    0.000    0.000    0.000    0.000 
#    0.000    0.000    0.000    0.000    0.000    0.000 
#
# Total GULP energy -178919.741094 kJ/mol
# GULP energy per Si atom -5591.241909 kJ/mol
# Density = 1.980833 g / cm^3
# Si number density = 19.853520 Si / 1000 Ang^3
#
#
#
# Elastic Constant Matrix: (Units=GPa)
#
#
# Indices 1 2 3 4 5 6 
#
# 1 120.2401 26.7799 36.8867 0.0000 8.9187 0.0000
# 2 26.7799 21.3313 27.7330 0.0000 1.2727 0.0000
# 3 36.8867 27.7330 100.5930 0.0000 9.0039 0.0000
# 4 0.0000 0.0000 0.0000 -0.8076 0.0000 -24.8017
# 5 8.9187 1.2727 9.0039 0.0000 33.0288 0.0000
# 6 0.0000 0.0000 0.0000 -24.8017 0.0000 10.6611
#
#
#
# Elastic Compliance Matrix: (Units=1/GPa)
#
#
# Indices 1 2 3 4 5 6 
#
# 1 0.011766 -0.014510 -0.000082 0.000000 -0.002596 0.000000
# 2 -0.014510 0.091208 -0.020358 0.000000 0.005953 0.000000
# 3 -0.000082 -0.020358 0.015899 0.000000 -0.003528 0.000000
# 4 0.000000 0.000000 0.000000 -0.017092 0.000000 -0.039763
# 5 -0.002596 0.005953 -0.003528 0.000000 0.031710 0.000000
# 6 0.000000 0.000000 0.000000 -0.039763 0.000000 0.001295
#
#
# Mechanical properties :
#
#
# Convention : Reuss Voigt Hill
#
# Bulk Modulus (GPa) = 20.41899 47.21818 33.81858
# Shear Modulus (GPa) = 22.62344 18.62746 20.62545
#
# Velocity S-wave (km/s) = 3.37934 3.06640 3.22666
# Velocity P-wave (km/s) = 5.05309 6.03092 5.56353
#
# Compressibility (1/GPa) = 0.04897403
#
# Stress axis : x y z
#
# Youngs Moduli (GPa) = 84.99039 10.96394 62.89573
#
# Poissons Ratio (x) = 0.15909 0.00514
# Poissons Ratio (y) = 1.23323 1.28041
# Poissons Ratio (z) = 0.00695 0.22320
#
# Static dielectric constant tensor:
#      x y z
#    x 1.703280 0.000000 -0.018910 
#    y 0.000000 1.669430 0.000000 
#    z -0.018910 0.000000 1.680460 
# 
# From -- ./inp_files/249654.got.cif
#   From: 2010.05.17/outbox.cif.g08.bks.cpg/sg12_125_cif.got.tgz:249654.got - 2010.06.03 13:09:07.
