data_PCOD9201917
_publ_section_title
;
Structure prediction by ZEFSAII (Michael W. Deem and Ramdas Pophale) SiO2 
 PCOD9201917
Probable space group: C 2/M
;
_chemical_formula_sum "Si O2"
_cell_formula_units_Z 56
_cell_length_a 9.059280
_cell_length_b 13.448794
_cell_length_c 22.994045
_cell_angle_alpha 90.000000
_cell_angle_beta 112.991764
_cell_angle_gamma 90.000000
_cell_volume 2578.962205
_symmetry_space_group_name_H-M "C 2/M"
_symmetry_group_IT_number 12
_symmetry_cell_setting 'monoclinic'
loop_
_space_group_symop_operation_xyz
x,y,z
-x,y,-z
-x,-y,-z
x,-y,z
1/2+x,1/2+y,z
1/2-x,1/2+y,-z
1/2-x,1/2-y,-z
1/2+x,1/2-y,z
loop_
_atom_site_type_symbol
_atom_site_label
_atom_site_fract_x
_atom_site_fract_y
_atom_site_fract_z
Si Si1 0.278223 0.749369 0.811772
Si Si2 0.058615 0.199752 0.275148
Si Si3 0.184630 0.618554 0.354921
Si Si4 0.446381 0.618554 0.601164
Si Si5 0.354913 0.121247 0.518255
Si Si6 0.614763 0.808331 0.899550
Si Si7 0.854673 0.111367 0.023354
O O1 0.339536 0.683595 0.767102
O O2 0.427793 0.815138 0.856399
O O3 0.215027 0.684278 0.855744
O O4 0.127874 0.814440 0.767443
O O5 0.084962 0.316205 0.294612
O O6 0.106174 0.143659 0.341186
O O7 0.175174 0.500000 0.343879
O O8 0.370784 0.652290 0.379816
O O9 0.124846 0.642496 0.410699
O O10 0.453423 0.500000 0.595837
O O11 0.315857 0.654115 0.534437
O O12 0.500000 0.155894 0.500000
O O13 0.353281 0.000000 0.514802
O O14 0.691650 0.875718 0.961135
O O15 0.638795 0.695718 0.927107
O O16 0.869991 0.000000 0.048507
O O17 0.000000 0.129579 0.000000
#
# Coordination Sequence:
#
# PCOD9201917 Si02
#       7
#     8   8   8   8   8   8   8
#     4  10  22  39  60  83 122 164 198 228 292 338
#     4  11  22  40  58  84 116 157 200 248 278 353
#     4  10  21  39  60  83 113 151 194 247 305 356
#     4  10  21  39  60  83 113 151 194 247 305 356
#     4   9  19  34  57  86 114 144 190 248 309 363
#     4  10  20  41  62  87 126 164 182 242 288 340
#     4  10  20  37  66  99 122 151 195 240 288 340
#
# _framework density 21.714162000000002
#
# number of rings (size 3 to 8) (size 9 to 14) (size 15 to 20)
#    0.000    2.000    2.857    0.429    2.000    2.286 
#    0.000   10.000    0.000    0.000    0.000    0.000 
#    0.000    0.000    0.000    0.000    0.000    0.000 
#
# Total GULP energy -156467.920657 kJ/mol
# GULP energy per Si atom -5588.140023 kJ/mol
# Density = 2.166474 g / cm^3
# Si number density = 21.714162 Si / 1000 Ang^3
#
#
#
# Elastic Constant Matrix: (Units=GPa)
#
#
# Indices 1 2 3 4 5 6 
#
# 1 104.5535 14.6877 30.7950 0.0000 -4.1450 0.0000
# 2 14.6877 51.4098 15.0993 0.0000 1.6360 0.0000
# 3 30.7950 15.0993 98.6517 0.0000 4.2473 0.0000
# 4 0.0000 0.0000 0.0000 6.0732 0.0000 -2.9729
# 5 -4.1450 1.6360 4.2473 0.0000 36.9975 0.0000
# 6 0.0000 0.0000 0.0000 -2.9729 0.0000 14.9376
#
#
#
# Elastic Compliance Matrix: (Units=1/GPa)
#
#
# Indices 1 2 3 4 5 6 
#
# 1 0.010865 -0.002241 -0.003121 0.000000 0.001675 0.000000
# 2 -0.002241 0.020840 -0.002452 0.000000 -0.000891 0.000000
# 3 -0.003121 -0.002452 0.011554 0.000000 -0.001568 0.000000
# 4 0.000000 0.000000 0.000000 0.182432 0.000000 0.036308
# 5 0.001675 -0.000891 -0.001568 0.000000 0.027436 0.000000
# 6 0.000000 0.000000 0.000000 0.036308 0.000000 0.074171
#
#
# Mechanical properties :
#
#
# Convention : Reuss Voigt Hill
#
# Bulk Modulus (GPa) = 36.19006 41.75324 38.97165
# Shear Modulus (GPa) = 14.19910 24.53717 19.36814
#
# Velocity S-wave (km/s) = 2.55994 3.36521 2.98981
# Velocity P-wave (km/s) = 5.04386 5.86258 5.46856
#
# Compressibility (1/GPa) = 0.02763189
#
# Stress axis : x y z
#
# Youngs Moduli (GPa) = 92.04021 47.98416 86.55323
#
# Poissons Ratio (x) = 0.10752 0.27010
# Poissons Ratio (y) = 0.20624 0.21222
# Poissons Ratio (z) = 0.28723 0.11765
#
# Static dielectric constant tensor:
#      x y z
#    x 1.800560 0.000000 0.013890 
#    y 0.000000 1.774840 0.000000 
#    z 0.013890 0.000000 1.779360 
# 
# From -- ./inp_files/333025.got.cif
#   From: 2010.05.17/outbox.cif.g08.bks.cpg/sg12_167_cif.got.tgz:333025.got - 2010.06.03 13:09:07.
