data_PCOD9201800
_publ_section_title
;
Structure prediction by ZEFSAII (Michael W. Deem and Ramdas Pophale) SiO2 
 PCOD9201800
Probable space group: C 2/M
;
_chemical_formula_sum "Si O2"
_cell_formula_units_Z 56
_cell_length_a 17.982855
_cell_length_b 27.887740
_cell_length_c 9.539068
_cell_angle_alpha 90.000000
_cell_angle_beta 35.251791
_cell_angle_gamma 90.000000
_cell_volume 2761.100387
_symmetry_space_group_name_H-M "C 2/M"
_symmetry_group_IT_number 12
_symmetry_cell_setting 'monoclinic'
loop_
_space_group_symop_operation_xyz
x,y,z
-x,y,-z
-x,-y,-z
x,-y,z
1/2+x,1/2+y,z
1/2-x,1/2+y,-z
1/2-x,1/2-y,-z
1/2+x,1/2-y,z
loop_
_atom_site_type_symbol
_atom_site_label
_atom_site_fract_x
_atom_site_fract_y
_atom_site_fract_z
Si Si1 0.856840 0.446384 0.872819
Si Si2 0.844674 0.309183 0.228004
Si Si3 0.745510 0.092295 0.706717
Si Si4 0.994068 0.943780 0.177357
Si Si5 0.874805 0.445687 0.375127
Si Si6 0.744445 0.610778 0.815866
Si Si7 0.345717 0.698169 0.206433
O O1 0.847743 0.500000 0.823286
O O2 0.848203 0.404467 0.772037
O O3 0.987022 0.444732 0.763721
O O4 0.751122 0.436361 0.154198
O O5 0.790639 0.352279 0.216659
O O6 0.753978 0.310841 0.508919
O O7 0.833422 0.254652 0.192454
O O8 0.000000 0.317678 0.000000
O O9 0.640432 0.069974 0.761341
O O10 0.876768 0.085324 0.421821
O O11 0.980079 0.000000 0.228704
O O12 0.122764 0.921796 0.042536
O O13 0.000000 0.937925 0.000000
O O14 0.823662 0.500000 0.465186
O O15 0.792140 0.409786 0.594709
O O16 0.700050 0.664381 0.850565
O O17 0.500000 0.688820 0.000000
#
# Coordination Sequence:
#
# PCOD9201800 Si02
#       7
#     8   8   8   8   8   8   8
#     4  11  25  39  55  87 129 164 199 252 316 373
#     4  10  20  37  64  94 124 158 210 269 323 366
#     4  12  22  38  62  90 121 159 212 257 311 371
#     4  11  21  35  60  89 119 159 209 257 304 372
#     4  11  21  37  60  84 117 159 207 249 295 366
#     4  12  22  38  59  86 122 161 204 251 314 372
#     4  10  21  39  64  96 123 159 213 270 317 379
#
# _framework density 20.281768
#
# number of rings (size 3 to 8) (size 9 to 14) (size 15 to 20)
#    0.000    1.000    2.857    5.571    0.000    2.857 
#    0.000    2.143    0.000    0.000    3.714    0.000 
#    0.000    0.000    0.000    0.000    0.000    0.000 
#
# Total GULP energy -156271.606536 kJ/mol
# GULP energy per Si atom -5581.128805 kJ/mol
# Density = 2.023561 g / cm^3
# Si number density = 20.281768 Si / 1000 Ang^3
#
#
#
# Elastic Constant Matrix: (Units=GPa)
#
#
# Indices 1 2 3 4 5 6 
#
# 1 63.7717 35.7159 16.1563 0.0000 3.1861 -0.0001
# 2 35.7159 135.8891 22.8468 0.0000 -0.8754 0.0000
# 3 16.1563 22.8468 90.3586 0.0000 -14.6797 -0.0001
# 4 0.0000 0.0000 0.0000 17.2368 0.0000 -10.2502
# 5 3.1861 -0.8754 -14.6797 0.0000 29.8254 0.0001
# 6 -0.0001 0.0000 -0.0001 -10.2502 0.0001 21.5349
#
#
#
# Elastic Compliance Matrix: (Units=1/GPa)
#
#
# Indices 1 2 3 4 5 6 
#
# 1 0.019144 -0.004576 -0.002848 0.000000 -0.003581 0.000000
# 2 -0.004576 0.008797 -0.001396 0.000000 0.000060 0.000000
# 3 -0.002848 -0.001396 0.013013 0.000000 0.006668 0.000000
# 4 0.000000 0.000000 0.000000 0.080920 0.000000 0.038517
# 5 -0.003581 0.000060 0.006668 0.000000 0.037195 0.000000
# 6 0.000000 0.000000 0.000000 0.038517 0.000000 0.064769
#
#
# Mechanical properties :
#
#
# Convention : Reuss Voigt Hill
#
# Bulk Modulus (GPa) = 42.89392 48.82858 45.86125
# Shear Modulus (GPa) = 20.06028 28.07279 24.06653
#
# Velocity S-wave (km/s) = 3.14838 3.72444 3.44846
# Velocity P-wave (km/s) = 5.86611 6.52860 6.20620
#
# Compressibility (1/GPa) = 0.02331333
#
# Stress axis : x y z
#
# Youngs Moduli (GPa) = 52.23538 113.67782 76.84906
#
# Poissons Ratio (x) = 0.52018 0.21885
# Poissons Ratio (y) = 0.23903 0.10731
# Poissons Ratio (z) = 0.14875 0.15873
#
# Static dielectric constant tensor:
#      x y z
#    x 1.665500 0.000000 0.045980 
#    y 0.000000 1.711560 0.000000 
#    z 0.045980 0.000000 1.680590 
# 
# From -- ./inp_files/80010.got.cif
#   From: 2010.05.17/outbox.cif.g08.bks.cpg/sg12_41_cif.got.tgz:80010.got - 2010.06.03 13:09:07.
