data_PCOD9201356
_publ_section_title
;
Structure prediction by ZEFSAII (Michael W. Deem and Ramdas Pophale) SiO2 
 PCOD9201356
Probable space group: C 2/M
;
_chemical_formula_sum "Si O2"
_cell_formula_units_Z 64
_cell_length_a 22.368883
_cell_length_b 8.174190
_cell_length_c 20.661818
_cell_angle_alpha 90.000000
_cell_angle_beta 45.283238
_cell_angle_gamma 90.000000
_cell_volume 2684.595690
_symmetry_space_group_name_H-M "C 2/M"
_symmetry_group_IT_number 12
_symmetry_cell_setting 'monoclinic'
loop_
_space_group_symop_operation_xyz
x,y,z
-x,y,-z
-x,-y,-z
x,-y,z
1/2+x,1/2+y,z
1/2-x,1/2+y,-z
1/2-x,1/2-y,-z
1/2+x,1/2-y,z
loop_
_atom_site_type_symbol
_atom_site_label
_atom_site_fract_x
_atom_site_fract_y
_atom_site_fract_z
Si Si1 0.938764 0.807650 0.856931
Si Si2 0.850088 0.303028 0.197066
Si Si3 0.879435 0.301578 0.035105
Si Si4 0.110945 0.312690 0.692205
Si Si5 0.364739 0.312844 0.464688
Si Si6 0.545710 0.812399 0.357474
Si Si7 0.188404 0.196404 0.150778
Si Si8 0.836357 0.803974 0.625758
O O1 0.849553 0.769249 0.891274
O O2 0.010383 0.707959 0.764973
O O3 0.955347 0.000000 0.835137
O O4 0.936912 0.763417 0.933727
O O5 0.866251 0.500000 0.186239
O O6 0.893381 0.244234 0.098195
O O7 0.871594 0.232044 0.251159
O O8 0.749541 0.280526 0.269136
O O9 0.885012 0.500000 0.029823
O O10 0.783816 0.251680 0.089720
O O11 0.135952 0.500000 0.679804
O O12 0.150209 0.255208 0.595293
O O13 0.339300 0.500000 0.481216
O O14 0.464718 0.296410 0.403190
O O15 0.324645 0.242072 0.561042
O O16 0.621760 0.773984 0.250662
O O17 0.586423 0.777574 0.396359
O O18 0.518679 0.000000 0.372309
O O19 0.186332 0.000000 0.162618
O O20 0.851412 0.000000 0.611808
#
# Coordination Sequence:
#
# PCOD9201356 Si02
#       8
#     8   8   8   8   8   8   8   8
#     4  11  23  38  59  89 123 157 196 242 297 357
#     4   9  20  40  64  87 114 156 205 248 293 351
#     4  10  20  38  64  88 116 156 199 242 291 355
#     4  11  23  40  62  87 117 155 203 253 297 346
#     4  11  23  39  62  89 119 159 200 240 297 360
#     4  12  23  35  59  92 125 156 192 243 297 350
#     4  10  20  37  62  86 118 159 196 237 294 363
#     4  10  21  41  65  87 118 160 200 239 293 361
#
# _framework density 23.839715999999999
#
# number of rings (size 3 to 8) (size 9 to 14) (size 15 to 20)
#    0.000    1.500    2.500    3.000    0.000    4.500 
#    0.000    5.000    0.000    0.000    0.000    0.000 
#    0.000    0.000    0.000    0.000    0.000    0.000 
#
# Total GULP energy -178934.464035 kJ/mol
# GULP energy per Si atom -5591.702001 kJ/mol
# Density = 2.378546 g / cm^3
# Si number density = 23.839716 Si / 1000 Ang^3
#
#
#
# Elastic Constant Matrix: (Units=GPa)
#
#
# Indices 1 2 3 4 5 6 
#
# 1 83.5000 9.1889 16.8563 0.0001 32.0199 0.0009
# 2 9.1889 12.1724 14.1852 0.0003 10.0658 0.0004
# 3 16.8563 14.1852 137.7216 0.0005 35.4847 -0.0002
# 4 0.0001 0.0003 0.0005 26.6236 -0.0003 11.7967
# 5 32.0199 10.0658 35.4847 -0.0003 51.3800 0.0000
# 6 0.0009 0.0004 -0.0002 11.7967 0.0000 15.8800
#
#
#
# Elastic Compliance Matrix: (Units=1/GPa)
#
#
# Indices 1 2 3 4 5 6 
#
# 1 0.016073 -0.005367 0.001089 0.000000 -0.009718 -0.000001
# 2 -0.005367 0.104480 -0.006925 0.000000 -0.012341 -0.000002
# 3 0.001089 -0.006925 0.009326 0.000000 -0.005763 0.000001
# 4 0.000000 0.000000 0.000000 0.055990 0.000001 -0.041593
# 5 -0.009718 -0.012341 -0.005763 0.000001 0.031917 0.000000
# 6 -0.000001 -0.000002 0.000001 -0.041593 0.000000 0.093870
#
#
# Mechanical properties :
#
#
# Convention : Reuss Voigt Hill
#
# Bulk Modulus (GPa) = 9.30458 34.87277 22.08867
# Shear Modulus (GPa) = 13.51767 31.65430 22.58599
#
# Velocity S-wave (km/s) = 2.38381 3.64785 3.08134
# Velocity P-wave (km/s) = 3.38942 5.69229 4.68457
#
# Compressibility (1/GPa) = 0.10747400
#
# Stress axis : x y z
#
# Youngs Moduli (GPa) = 62.21523 9.57117 107.22960
#
# Poissons Ratio (x) = 0.05137 -0.11681
# Poissons Ratio (y) = 0.33393 0.74253
# Poissons Ratio (z) = -0.06777 0.06628
#
# Static dielectric constant tensor:
#      x y z
#    x 1.975470 0.000000 0.030300 
#    y 0.000000 1.847630 0.000000 
#    z 0.030300 0.000000 1.900950 
# 
# From -- ./inp_files/324169.got.cif
#   From: 2010.05.17/outbox.cif.g08.bks.cpg/sg12_163_cif.got.tgz:324169.got - 2010.06.03 13:09:07.
