data_PCOD9201755
_publ_section_title
;
Structure prediction by ZEFSAII (Michael W. Deem and Ramdas Pophale) SiO2 
 PCOD9201755
Probable space group: C 2/M
;
_chemical_formula_sum "Si O2"
_cell_formula_units_Z 40
_cell_length_a 16.999086
_cell_length_b 24.732489
_cell_length_c 9.901374
_cell_angle_alpha 90.000000
_cell_angle_beta 149.679274
_cell_angle_gamma 90.000000
_cell_volume 2101.563630
_symmetry_space_group_name_H-M "C 2/M"
_symmetry_group_IT_number 12
_symmetry_cell_setting 'monoclinic'
loop_
_space_group_symop_operation_xyz
x,y,z
-x,y,-z
-x,-y,-z
x,-y,z
1/2+x,1/2+y,z
1/2-x,1/2+y,-z
1/2-x,1/2-y,-z
1/2+x,1/2-y,z
loop_
_atom_site_type_symbol
_atom_site_label
_atom_site_fract_x
_atom_site_fract_y
_atom_site_fract_z
Si Si1 0.685357 0.278616 0.271021
Si Si2 0.184247 0.396827 0.612774
Si Si3 0.692757 0.099420 0.940597
Si Si4 0.684421 0.713642 0.784088
Si Si5 0.690511 0.000000 0.126465
Si Si6 0.689161 0.000000 0.438005
O O1 0.750000 0.250000 0.500000
O O2 0.755639 0.338218 0.346129
O O3 0.735294 0.237370 0.228614
O O4 0.500000 0.283948 0.000000
O O5 0.232294 0.407641 0.840224
O O6 0.234510 0.445961 0.588653
O O7 0.995503 0.395427 0.332220
O O8 0.769503 0.153076 0.112159
O O9 0.739075 0.051244 0.109134
O O10 0.500000 0.719578 0.500000
O O11 0.750000 0.750000 0.000000
O O12 0.742305 0.000000 0.359995
O O13 0.500585 0.000000 0.847223
#
# Coordination Sequence:
#
# PCOD9201755 Si02
#       6
#     8   8   8   8   4   4
#     4  12  26  41  62  94 130 166 207 259 318 372
#     4  10  20  38  62  89 124 165 208 252 308 372
#     4  10  20  37  64  90 120 164 213 255 299 369
#     4  12  24  43  66  92 126 168 212 259 310 375
#     4   9  19  35  58  93 124 159 207 255 308 367
#     4   9  19  35  58  91 128 161 199 255 314 371
#
# _framework density 19.033446999999999
#
# number of rings (size 3 to 8) (size 9 to 14) (size 15 to 20)
#    0.000    1.400    2.000    4.200    2.800    2.400 
#    0.000    1.000    0.000    0.000    0.000    0.000 
#    0.000    0.000    0.000    0.000    0.000    0.000 
#
# Total GULP energy -111710.628820 kJ/mol
# GULP energy per Si atom -5585.531441 kJ/mol
# Density = 1.899013 g / cm^3
# Si number density = 19.033447 Si / 1000 Ang^3
#
#
#
# Elastic Constant Matrix: (Units=GPa)
#
#
# Indices 1 2 3 4 5 6 
#
# 1 126.7122 83.0762 72.5313 0.0000 -48.7756 0.0000
# 2 83.0762 178.6773 81.3913 0.0000 -35.6260 0.0000
# 3 72.5313 81.3913 99.3314 0.0000 -36.5794 0.0000
# 4 0.0000 0.0000 0.0000 38.7797 0.0000 -2.5729
# 5 -48.7756 -35.6260 -36.5794 0.0000 43.9650 0.0000
# 6 0.0000 0.0000 0.0000 -2.5729 0.0000 35.8393
#
#
#
# Elastic Compliance Matrix: (Units=1/GPa)
#
#
# Indices 1 2 3 4 5 6 
#
# 1 0.018404 -0.003244 -0.006098 0.000000 0.012715 0.000000
# 2 -0.003244 0.009586 -0.005696 0.000000 -0.000570 0.000000
# 3 -0.006098 -0.005696 0.021620 0.000000 0.006608 0.000000
# 4 0.000000 0.000000 0.000000 0.025910 0.000000 0.001860
# 5 0.012715 -0.000570 0.006608 0.000000 0.041888 0.000000
# 6 0.000000 0.000000 0.000000 0.001860 0.000000 0.028036
#
#
# Mechanical properties :
#
#
# Convention : Reuss Voigt Hill
#
# Bulk Modulus (GPa) = 51.19035 97.63542 74.41288
# Shear Modulus (GPa) = 27.46796 34.89828 31.18312
#
# Velocity S-wave (km/s) = 3.80299 4.28661 4.05202
# Velocity P-wave (km/s) = 6.79978 8.71253 7.81490
#
# Compressibility (1/GPa) = 0.01953493
#
# Stress axis : x y z
#
# Youngs Moduli (GPa) = 54.33713 104.32086 46.25262
#
# Poissons Ratio (x) = 0.33840 0.28204
# Poissons Ratio (y) = 0.17626 0.26345
# Poissons Ratio (z) = 0.33133 0.59420
#
# Static dielectric constant tensor:
#      x y z
#    x 1.640530 0.000000 0.005880 
#    y 0.000000 1.592730 0.000000 
#    z 0.005880 0.000000 1.630270 
# 
# From -- ./inp_files/51005.got.cif
#   From: 2010.05.17/outbox.cif.g08.bks.cpg/sg12_26_cif.got.tgz:51005.got - 2010.06.03 13:09:07.
