data_PCOD9201250
_publ_section_title
;
Structure prediction by ZEFSAII (Michael W. Deem and Ramdas Pophale) SiO2 
 PCOD9201250
Probable space group: C 2/M
;
_chemical_formula_sum "Si O2"
_cell_formula_units_Z 48
_cell_length_a 19.321958
_cell_length_b 13.459736
_cell_length_c 12.025225
_cell_angle_alpha 90.000000
_cell_angle_beta 45.808132
_cell_angle_gamma 90.000000
_cell_volume 2242.362522
_symmetry_space_group_name_H-M "C 2/M"
_symmetry_group_IT_number 12
_symmetry_cell_setting 'monoclinic'
loop_
_space_group_symop_operation_xyz
x,y,z
-x,y,-z
-x,-y,-z
x,-y,z
1/2+x,1/2+y,z
1/2-x,1/2+y,-z
1/2-x,1/2-y,-z
1/2+x,1/2-y,z
loop_
_atom_site_type_symbol
_atom_site_label
_atom_site_fract_x
_atom_site_fract_y
_atom_site_fract_z
Si Si1 0.279223 0.380164 0.338137
Si Si2 0.056508 0.393596 0.053018
Si Si3 0.947888 0.112537 0.719478
Si Si4 0.361591 0.275096 0.459631
Si Si5 0.576364 0.668010 0.010017
Si Si6 0.220938 0.111399 0.256110
O O1 0.285183 0.500000 0.338627
O O2 0.344543 0.325315 0.359018
O O3 0.171717 0.339021 0.490256
O O4 0.322751 0.344838 0.170033
O O5 0.032053 0.500000 0.139308
O O6 0.042616 0.277110 0.094834
O O7 0.171591 0.393148 0.909966
O O8 0.000000 0.399950 0.000000
O O9 0.855844 0.144709 0.750198
O O10 0.036751 0.187866 0.606918
O O11 0.976012 0.000000 0.655590
O O12 0.921339 0.108286 0.879119
O O13 0.283429 0.326008 0.627980
O O14 0.500000 0.637311 0.000000
O O15 0.193301 0.000000 0.319272
#
# Coordination Sequence:
#
# PCOD9201250 Si02
#       6
#     8   8   8   8   8   8
#     4  11  23  38  61  90 121 159 203 254 309 364
#     4   9  19  36  59  88 122 157 196 244 300 363
#     4  11  23  37  62  91 121 160 205 257 306 357
#     4  11  22  39  58  89 120 161 200 254 305 352
#     4  11  21  38  61  90 121 157 202 251 312 362
#     4  10  20  37  61  90 119 157 206 252 302 356
#
# _framework density 21.405995000000001
#
# number of rings (size 3 to 8) (size 9 to 14) (size 15 to 20)
#    0.000    1.500    3.333    2.500    0.000    2.667 
#    0.000    0.833    0.000    2.000    0.000    0.000 
#    0.000    0.000    0.000    0.000    0.000    0.000 
#
# Total GULP energy -133625.989901 kJ/mol
# GULP energy per Si atom -5567.749579 kJ/mol
# Density = 2.135727 g / cm^3
# Si number density = 21.405995 Si / 1000 Ang^3
#
#
#
# Elastic Constant Matrix: (Units=GPa)
#
#
# Indices 1 2 3 4 5 6 
#
# 1 82.5351 18.6672 25.2118 0.0000 -17.6611 0.0000
# 2 18.6672 124.5488 20.3921 0.0000 1.1788 0.0000
# 3 25.2118 20.3921 53.9628 0.0000 7.0151 0.0000
# 4 0.0000 0.0000 0.0000 31.8145 0.0000 -11.1338
# 5 -17.6611 1.1788 7.0151 0.0000 39.0359 0.0000
# 6 0.0000 0.0000 0.0000 -11.1338 0.0000 21.5499
#
#
#
# Elastic Compliance Matrix: (Units=1/GPa)
#
#
# Indices 1 2 3 4 5 6 
#
# 1 0.017047 -0.001216 -0.008716 0.000000 0.009316 0.000000
# 2 -0.001216 0.008649 -0.002657 0.000000 -0.000334 0.000000
# 3 -0.008716 -0.002657 0.024686 0.000000 -0.008299 0.000000
# 4 0.000000 0.000000 0.000000 0.038370 0.000000 0.019824
# 5 0.009316 -0.000334 -0.008299 0.000000 0.031334 0.000000
# 6 0.000000 0.000000 0.000000 0.019824 0.000000 0.056646
#
#
# Mechanical properties :
#
#
# Convention : Reuss Voigt Hill
#
# Bulk Modulus (GPa) = 39.67498 43.28764 41.48131
# Shear Modulus (GPa) = 23.77424 31.59843 27.68634
#
# Velocity S-wave (km/s) = 3.33623 3.84624 3.60028
# Velocity P-wave (km/s) = 5.78060 6.32383 6.05831
#
# Compressibility (1/GPa) = 0.02520480
#
# Stress axis : x y z
#
# Youngs Moduli (GPa) = 58.66172 115.61460 40.50817
#
# Poissons Ratio (x) = 0.14060 0.35306
# Poissons Ratio (y) = 0.07134 0.10763
# Poissons Ratio (z) = 0.51129 0.30718
#
# Static dielectric constant tensor:
#      x y z
#    x 1.760040 0.000000 -0.048080 
#    y 0.000000 1.918190 0.000000 
#    z -0.048080 0.000000 1.823940 
# 
# From -- ./inp_files/166863.got.cif
#   From: 2010.05.17/outbox.cif.g08.bks.cpg/sg12_84_cif.got.tgz:166863.got - 2010.06.03 13:09:07.
