data_PCOD9201776
_publ_section_title
;
Structure prediction by ZEFSAII (Michael W. Deem and Ramdas Pophale) SiO2 
 PCOD9201776
Probable space group: C 2/M
;
_chemical_formula_sum "Si O2"
_cell_formula_units_Z 48
_cell_length_a 9.965360
_cell_length_b 23.502461
_cell_length_c 12.663566
_cell_angle_alpha 90.000000
_cell_angle_beta 113.284109
_cell_angle_gamma 90.000000
_cell_volume 2724.382070
_symmetry_space_group_name_H-M "C 2/M"
_symmetry_group_IT_number 12
_symmetry_cell_setting 'monoclinic'
loop_
_space_group_symop_operation_xyz
x,y,z
-x,y,-z
-x,-y,-z
x,-y,z
1/2+x,1/2+y,z
1/2-x,1/2+y,-z
1/2-x,1/2-y,-z
1/2+x,1/2-y,z
loop_
_atom_site_type_symbol
_atom_site_label
_atom_site_fract_x
_atom_site_fract_y
_atom_site_fract_z
Si Si1 0.323900 0.063251 0.459110
Si Si2 0.648990 0.066840 0.099964
Si Si3 0.825816 0.934210 0.945583
Si Si4 0.331005 0.257027 0.413270
Si Si5 0.832277 0.628721 0.673864
Si Si6 0.175543 0.646847 0.729001
O O1 0.500000 0.060389 0.500000
O O2 0.289376 0.088286 0.562813
O O3 0.279600 0.106041 0.354066
O O4 0.264367 0.000000 0.426796
O O5 0.675945 0.097516 0.217581
O O6 0.628732 0.000000 0.116515
O O7 0.500000 0.088344 0.000000
O O8 0.770669 0.072849 0.048176
O O9 0.756524 0.883990 0.852462
O O10 0.781707 0.000000 0.898935
O O11 0.000000 0.931371 0.000000
O O12 0.500000 0.254235 0.500000
O O13 0.250000 0.250000 0.500000
O O14 0.273425 0.317363 0.355293
O O15 0.297762 0.209364 0.313219
O O16 0.001913 0.644806 0.701705
#
# Coordination Sequence:
#
# PCOD9201776 Si02
#       6
#     8   8   8   8   8   8
#     4   9  17  29  54  89 116 143 191 251 301 353
#     4  10  20  37  64  92 119 157 199 246 305 362
#     4  10  22  40  63  92 127 161 196 247 309 365
#     4  12  23  41  61  88 121 163 204 249 305 357
#     4  11  21  37  61  89 120 155 206 251 298 360
#     4  11  20  37  62  87 117 159 207 246 299 364
#
# _framework density 17.618675
#
# number of rings (size 3 to 8) (size 9 to 14) (size 15 to 20)
#    0.000    1.500    5.000    1.500    0.000    2.667 
#    0.000    1.667    0.000    1.000    0.000    0.000 
#    0.000    0.000    0.000    0.000    0.000    0.000 
#
# Total GULP energy -133752.044604 kJ/mol
# GULP energy per Si atom -5573.001858 kJ/mol
# Density = 1.757857 g / cm^3
# Si number density = 17.618675 Si / 1000 Ang^3
#
#
#
# Elastic Constant Matrix: (Units=GPa)
#
#
# Indices 1 2 3 4 5 6 
#
# 1 83.2402 28.8839 24.1448 0.0000 -13.0547 0.0000
# 2 28.8839 121.5034 62.2008 0.0000 -11.9173 0.0000
# 3 24.1448 62.2008 103.2358 0.0000 -25.5399 0.0000
# 4 0.0000 0.0000 0.0000 26.2893 0.0000 13.1250
# 5 -13.0547 -11.9173 -25.5399 0.0000 23.4339 0.0000
# 6 0.0000 0.0000 0.0000 13.1250 0.0000 8.4266
#
#
#
# Elastic Compliance Matrix: (Units=1/GPa)
#
#
# Indices 1 2 3 4 5 6 
#
# 1 0.013951 -0.002641 -0.000111 0.000000 0.006308 0.000000
# 2 -0.002641 0.012501 -0.007812 0.000000 -0.003628 0.000000
# 3 -0.000111 -0.007812 0.018376 0.000000 0.015993 0.000000
# 4 0.000000 0.000000 0.000000 0.171049 0.000000 -0.266420
# 5 0.006308 -0.003628 0.015993 0.000000 0.061772 0.000000
# 6 0.000000 0.000000 0.000000 -0.266420 0.000000 0.533640
#
#
# Mechanical properties :
#
#
# Convention : Reuss Voigt Hill
#
# Bulk Modulus (GPa) = 42.19370 59.82650 51.01010
# Shear Modulus (GPa) = 5.95012 24.47993 15.21503
#
# Velocity S-wave (km/s) = 1.83970 3.73155 2.94185
# Velocity P-wave (km/s) = 5.33975 7.25231 6.36824
#
# Compressibility (1/GPa) = 0.02370022
#
# Stress axis : x y z
#
# Youngs Moduli (GPa) = 71.67769 79.99086 54.41894
#
# Poissons Ratio (x) = 0.21125 0.00605
# Poissons Ratio (y) = 0.18929 0.42513
# Poissons Ratio (z) = 0.00797 0.62490
#
# Static dielectric constant tensor:
#      x y z
#    x 1.721210 0.000000 0.280450 
#    y 0.000000 1.318630 0.000000 
#    z 0.280450 0.000000 2.343180 
# 
# From -- ./inp_files/122566.got.cif
#   From: 2010.05.17/outbox.cif.g08.bks.cpg/sg12_62_cif.got.tgz:122566.got - 2010.06.03 13:09:07.
