data_PCOD9201528
_publ_section_title
;
Structure prediction by ZEFSAII (Michael W. Deem and Ramdas Pophale) SiO2 
 PCOD9201528
Probable space group: C 2/M
;
_chemical_formula_sum "Si O2"
_cell_formula_units_Z 40
_cell_length_a 17.015006
_cell_length_b 10.646162
_cell_length_c 12.575793
_cell_angle_alpha 90.000000
_cell_angle_beta 56.475784
_cell_angle_gamma 90.000000
_cell_volume 1899.090230
_symmetry_space_group_name_H-M "C 2/M"
_symmetry_group_IT_number 12
_symmetry_cell_setting 'monoclinic'
loop_
_space_group_symop_operation_xyz
x,y,z
-x,y,-z
-x,-y,-z
x,-y,z
1/2+x,1/2+y,z
1/2-x,1/2+y,-z
1/2-x,1/2-y,-z
1/2+x,1/2-y,z
loop_
_atom_site_type_symbol
_atom_site_label
_atom_site_fract_x
_atom_site_fract_y
_atom_site_fract_z
Si Si1 0.458802 0.363732 0.170336
Si Si2 0.146871 0.855855 0.306898
Si Si3 0.171130 0.146443 0.528411
Si Si4 0.127413 0.633470 0.893082
Si Si5 0.362337 0.243667 0.901039
O O1 0.432402 0.500000 0.146468
O O2 0.407976 0.349963 0.322002
O O3 0.419465 0.251273 0.128736
O O4 0.570769 0.353959 0.104160
O O5 0.128115 0.826771 0.443966
O O6 0.260845 0.859001 0.212083
O O7 0.117431 0.754220 0.239906
O O8 0.113677 0.000000 0.308457
O O9 0.250000 0.250000 0.500000
O O10 0.206832 0.000000 0.497686
O O11 0.094575 0.500000 0.873988
O O12 0.111842 0.638004 0.032067
O O13 0.250000 0.250000 0.000000
#
# Coordination Sequence:
#
# PCOD9201528 Si02
#       5
#     8   8   8   8   8
#     4  11  23  37  61  95 123 155 204 256 303 356
#     4   9  18  36  61  86 119 160 198 244 304 365
#     4  10  20  37  62  91 121 156 199 250 306 364
#     4  10  21  39  62  87 119 162 206 246 300 368
#     4  10  22  38  56  84 123 161 200 247 301 355
#
# _framework density 21.062718
#
# number of rings (size 3 to 8) (size 9 to 14) (size 15 to 20)
#    0.000    2.000    2.000    1.200    0.000    5.600 
#    0.000    7.000    0.000    0.000    0.000    4.200 
#    0.000    0.000    0.000    0.000    0.000    0.000 
#
# Total GULP energy -111360.568886 kJ/mol
# GULP energy per Si atom -5568.028444 kJ/mol
# Density = 2.101478 g / cm^3
# Si number density = 21.062718 Si / 1000 Ang^3
#
#
#
# Elastic Constant Matrix: (Units=GPa)
#
#
# Indices 1 2 3 4 5 6 
#
# 1 70.1030 57.5431 27.2080 0.0000 14.2631 0.0000
# 2 57.5431 146.6882 42.3537 0.0000 19.4177 0.0000
# 3 27.2080 42.3537 132.4841 0.0000 41.5041 0.0000
# 4 0.0000 0.0000 0.0000 21.4932 0.0000 6.4108
# 5 14.2631 19.4177 41.5041 0.0000 48.1986 0.0000
# 6 0.0000 0.0000 0.0000 6.4108 0.0000 28.1247
#
#
#
# Elastic Compliance Matrix: (Units=1/GPa)
#
#
# Indices 1 2 3 4 5 6 
#
# 1 0.021622 -0.007832 -0.001261 0.000000 -0.002157 0.000000
# 2 -0.007832 0.010409 -0.001549 0.000000 -0.000541 0.000000
# 3 -0.001261 -0.001549 0.010942 0.000000 -0.008425 0.000000
# 4 0.000000 0.000000 0.000000 0.049920 0.000000 -0.011379
# 5 -0.002157 -0.000541 -0.008425 0.000000 0.028858 0.000000
# 6 0.000000 0.000000 0.000000 -0.011379 0.000000 0.038150
#
#
# Mechanical properties :
#
#
# Convention : Reuss Voigt Hill
#
# Bulk Modulus (GPa) = 46.10986 67.05388 56.58187
# Shear Modulus (GPa) = 26.53720 34.37466 30.45593
#
# Velocity S-wave (km/s) = 3.55338 4.04420 3.80671
# Velocity P-wave (km/s) = 6.22692 7.32884 6.80024
#
# Compressibility (1/GPa) = 0.02168733
#
# Stress axis : x y z
#
# Youngs Moduli (GPa) = 46.24912 96.07356 91.39489
#
# Poissons Ratio (x) = 0.75248 0.11522
# Poissons Ratio (y) = 0.36224 0.14161
# Poissons Ratio (z) = 0.05831 0.14886
#
# Static dielectric constant tensor:
#      x y z
#    x 1.790740 0.000000 -0.000520 
#    y 0.000000 1.743050 0.000000 
#    z -0.000520 0.000000 1.807310 
# 
# From -- ./inp_files/220575.got.cif
#   From: 2010.05.17/outbox.cif.g08.bks.cpg/sg12_111_cif.got.tgz:220575.got - 2010.06.03 13:09:07.
