data_PCOD9201399
_publ_section_title
;
Structure prediction by ZEFSAII (Michael W. Deem and Ramdas Pophale) SiO2 
 PCOD9201399
Probable space group: C 2/M
;
_chemical_formula_sum "Si O2"
_cell_formula_units_Z 56
_cell_length_a 20.758196
_cell_length_b 22.519924
_cell_length_c 11.786535
_cell_angle_alpha 90.000000
_cell_angle_beta 147.946539
_cell_angle_gamma 90.000000
_cell_volume 2924.153815
_symmetry_space_group_name_H-M "C 2/M"
_symmetry_group_IT_number 12
_symmetry_cell_setting 'monoclinic'
loop_
_space_group_symop_operation_xyz
x,y,z
-x,y,-z
-x,-y,-z
x,-y,z
1/2+x,1/2+y,z
1/2-x,1/2+y,-z
1/2-x,1/2-y,-z
1/2+x,1/2-y,z
loop_
_atom_site_type_symbol
_atom_site_label
_atom_site_fract_x
_atom_site_fract_y
_atom_site_fract_z
Si Si1 0.615015 0.218263 0.741764
Si Si2 0.830229 0.339671 0.703574
Si Si3 0.298790 0.348864 0.121259
Si Si4 0.552229 0.219723 0.915122
Si Si5 0.500814 0.567117 0.678992
Si Si6 0.057301 0.848817 0.206285
Si Si7 0.280185 0.932835 0.808654
O O1 0.500000 0.199193 0.500000
O O2 0.651408 0.285229 0.759262
O O3 0.587233 0.216756 0.835256
O O4 0.726360 0.172603 0.901157
O O5 0.941347 0.324019 0.786191
O O6 0.701885 0.338853 0.445937
O O7 0.835935 0.402249 0.779767
O O8 0.847080 0.293466 0.835743
O O9 0.410582 0.390447 0.257754
O O10 0.212402 0.387102 0.075437
O O11 0.502970 0.286041 0.854016
O O12 0.548226 0.500000 0.752601
O O13 0.483882 0.598357 0.773689
O O14 0.364954 0.565190 0.427342
O O15 0.000000 0.863538 0.000000
O O16 0.323101 0.000000 0.892903
#
# Coordination Sequence:
#
# PCOD9201399 Si02
#       7
#     8   8   8   8   8   8   8
#     4  11  24  36  58  90 123 152 191 241 293 352
#     4  10  22  38  60  87 117 149 201 239 286 361
#     4  11  21  36  58  86 118 155 191 238 295 346
#     4  11  21  38  58  84 120 158 189 236 293 345
#     4  10  21  36  57  84 114 152 195 240 291 347
#     4  11  22  35  58  88 116 153 188 242 300 348
#     4  10  20  37  62  88 115 148 196 249 291 338
#
# _framework density 19.150839999999999
#
# number of rings (size 3 to 8) (size 9 to 14) (size 15 to 20)
#    0.000    1.429    4.286    2.143    2.000    2.571 
#    0.000    1.429    0.000    1.714    0.000    0.000 
#    0.000    0.000    0.000    0.000    0.000    0.000 
#
# Total GULP energy -156037.607845 kJ/mol
# GULP energy per Si atom -5572.771709 kJ/mol
# Density = 1.910725 g / cm^3
# Si number density = 19.150840 Si / 1000 Ang^3
#
#
#
# Elastic Constant Matrix: (Units=GPa)
#
#
# Indices 1 2 3 4 5 6 
#
# 1 70.9937 22.9526 13.9320 0.0000 -6.2642 0.0000
# 2 22.9526 131.3044 22.6677 0.0000 -0.7651 0.0000
# 3 13.9320 22.6677 100.2602 0.0000 -11.8432 0.0000
# 4 0.0000 0.0000 0.0000 20.5099 0.0000 6.5361
# 5 -6.2642 -0.7651 -11.8432 0.0000 17.1773 0.0000
# 6 0.0000 0.0000 0.0000 6.5361 0.0000 12.5941
#
#
#
# Elastic Compliance Matrix: (Units=1/GPa)
#
#
# Indices 1 2 3 4 5 6 
#
# 1 0.015525 -0.002510 -0.001017 0.000000 0.004848 0.000000
# 2 -0.002510 0.008346 -0.001744 0.000000 -0.001746 0.000000
# 3 -0.001017 -0.001744 0.011384 0.000000 0.007400 0.000000
# 4 0.000000 0.000000 0.000000 0.058419 0.000000 -0.030318
# 5 0.004848 -0.001746 0.007400 0.000000 0.065009 0.000000
# 6 0.000000 0.000000 0.000000 -0.030318 0.000000 0.095136
#
#
# Mechanical properties :
#
#
# Convention : Reuss Voigt Hill
#
# Bulk Modulus (GPa) = 40.46718 46.85144 43.65931
# Shear Modulus (GPa) = 18.34205 26.25668 22.29936
#
# Velocity S-wave (km/s) = 3.09814 3.70678 3.41604
# Velocity P-wave (km/s) = 5.82877 6.54506 6.19727
#
# Compressibility (1/GPa) = 0.02471138
#
# Stress axis : x y z
#
# Youngs Moduli (GPa) = 64.41376 119.82366 87.84336
#
# Poissons Ratio (x) = 0.30075 0.08934
# Poissons Ratio (y) = 0.16167 0.15323
# Poissons Ratio (z) = 0.06551 0.20901
#
# Static dielectric constant tensor:
#      x y z
#    x 1.751220 0.000000 0.023170 
#    y 0.000000 1.681890 0.000000 
#    z 0.023170 0.000000 1.694980 
# 
# From -- ./inp_files/177936.got.cif
#   From: 2010.05.17/outbox.cif.g08.bks.cpg/sg12_89_cif.got.tgz:177936.got - 2010.06.03 13:09:07.
