data_PCOD9201556
_publ_section_title
;
Structure prediction by ZEFSAII (Michael W. Deem and Ramdas Pophale) SiO2 
 PCOD9201556
Probable space group: C 2/M
;
_chemical_formula_sum "Si O2"
_cell_formula_units_Z 48
_cell_length_a 9.061142
_cell_length_b 19.068714
_cell_length_c 17.114445
_cell_angle_alpha 90.000000
_cell_angle_beta 127.395731
_cell_angle_gamma 90.000000
_cell_volume 2349.303512
_symmetry_space_group_name_H-M "C 2/M"
_symmetry_group_IT_number 12
_symmetry_cell_setting 'monoclinic'
loop_
_space_group_symop_operation_xyz
x,y,z
-x,y,-z
-x,-y,-z
x,-y,z
1/2+x,1/2+y,z
1/2-x,1/2+y,-z
1/2-x,1/2-y,-z
1/2+x,1/2-y,z
loop_
_atom_site_type_symbol
_atom_site_label
_atom_site_fract_x
_atom_site_fract_y
_atom_site_fract_z
Si Si1 0.791156 0.191904 0.189797
Si Si2 0.343526 0.245035 0.615431
Si Si3 0.774795 0.079629 0.803191
Si Si4 0.919477 0.349647 0.391190
Si Si5 0.388453 0.819822 0.120941
Si Si6 0.709759 0.581884 0.934469
O O1 0.604012 0.199754 0.179492
O O2 0.790335 0.247553 0.116965
O O3 0.786489 0.114789 0.150842
O O4 0.977715 0.209873 0.297980
O O5 0.250000 0.250000 0.500000
O O6 0.182111 0.276206 0.618518
O O7 0.428237 0.167726 0.626938
O O8 0.727926 0.101454 0.699397
O O9 0.665828 0.129220 0.826346
O O10 0.993872 0.086462 0.889837
O O11 0.719931 0.000000 0.798787
O O12 0.000000 0.376184 0.500000
O O13 0.325542 0.865423 0.026228
O O14 0.766366 0.500000 0.956715
#
# Coordination Sequence:
#
# PCOD9201556 Si02
#       6
#     8   8   8   8   8   8
#     4  12  23  41  67  94 127 163 210 263 314 376
#     4  10  20  37  63  95 123 153 200 257 317 375
#     4  11  23  41  63  87 124 169 213 260 313 376
#     4  10  20  37  62  92 121 157 203 258 321 377
#     4  12  25  40  63  94 127 163 215 263 311 367
#     4  11  25  44  63  89 129 174 215 257 312 374
#
# _framework density 20.431588000000001
#
# number of rings (size 3 to 8) (size 9 to 14) (size 15 to 20)
#    0.000    1.000    3.333    4.000    0.000    5.000 
#    0.000    0.000    0.000    0.000    0.000    2.333 
#    0.000    0.000    0.000    0.000    0.000    0.000 
#
# Total GULP energy -133651.914821 kJ/mol
# GULP energy per Si atom -5568.829784 kJ/mol
# Density = 2.038508 g / cm^3
# Si number density = 20.431588 Si / 1000 Ang^3
#
#
#
# Elastic Constant Matrix: (Units=GPa)
#
#
# Indices 1 2 3 4 5 6 
#
# 1 84.0323 23.8590 -0.2929 0.0000 4.5936 0.0000
# 2 23.8590 80.5762 30.7560 0.0000 2.9745 0.0000
# 3 -0.2929 30.7560 117.3935 0.0000 10.2665 0.0000
# 4 0.0000 0.0000 0.0000 9.7516 0.0000 8.2893
# 5 4.5936 2.9745 10.2665 0.0000 21.5921 0.0000
# 6 0.0000 0.0000 0.0000 8.2893 0.0000 20.2343
#
#
#
# Elastic Compliance Matrix: (Units=1/GPa)
#
#
# Indices 1 2 3 4 5 6 
#
# 1 0.013308 -0.004381 0.001436 0.000000 -0.002910 0.000000
# 2 -0.004381 0.015233 -0.004069 0.000000 0.000768 0.000000
# 3 0.001436 -0.004069 0.009981 0.000000 -0.004490 0.000000
# 4 0.000000 0.000000 0.000000 0.157336 0.000000 -0.064455
# 5 -0.002910 0.000768 -0.004490 0.000000 0.048962 0.000000
# 6 0.000000 0.000000 0.000000 -0.064455 0.000000 0.075826
#
#
# Mechanical properties :
#
#
# Convention : Reuss Voigt Hill
#
# Bulk Modulus (GPa) = 40.82893 43.40515 42.11704
# Shear Modulus (GPa) = 14.58412 25.49426 20.03919
#
# Velocity S-wave (km/s) = 2.67461 3.53623 3.13516
# Velocity P-wave (km/s) = 5.43734 6.16146 5.81069
#
# Compressibility (1/GPa) = 0.02449243
#
# Stress axis : x y z
#
# Youngs Moduli (GPa) = 75.14169 65.64853 100.19368
#
# Poissons Ratio (x) = 0.28761 -0.14383
# Poissons Ratio (y) = 0.32921 0.40768
# Poissons Ratio (z) = -0.10787 0.26712
#
# Static dielectric constant tensor:
#      x y z
#    x 1.783780 0.000000 0.014020 
#    y 0.000000 1.728830 0.000000 
#    z 0.014020 0.000000 1.808050 
# 
# From -- ./inp_files/258282.got.cif
#   From: 2010.05.17/outbox.cif.g08.bks.cpg/sg12_130_cif.got.tgz:258282.got - 2010.06.03 13:09:07.
