data_PCOD9201322
_publ_section_title
;
Structure prediction by ZEFSAII (Michael W. Deem and Ramdas Pophale) SiO2 
 PCOD9201322
Probable space group: C 2/M
;
_chemical_formula_sum "Si O2"
_cell_formula_units_Z 56
_cell_length_a 5.210923
_cell_length_b 28.863016
_cell_length_c 20.214027
_cell_angle_alpha 90.000000
_cell_angle_beta 124.123501
_cell_angle_gamma 90.000000
_cell_volume 2516.810573
_symmetry_space_group_name_H-M "C 2/M"
_symmetry_group_IT_number 12
_symmetry_cell_setting 'monoclinic'
loop_
_space_group_symop_operation_xyz
x,y,z
-x,y,-z
-x,-y,-z
x,-y,z
1/2+x,1/2+y,z
1/2-x,1/2+y,-z
1/2-x,1/2-y,-z
1/2+x,1/2-y,z
loop_
_atom_site_type_symbol
_atom_site_label
_atom_site_fract_x
_atom_site_fract_y
_atom_site_fract_z
Si Si1 0.238568 0.265468 0.349046
Si Si2 0.369958 0.447507 0.055280
Si Si3 0.705294 0.625934 0.196765
Si Si4 0.322087 0.359131 0.410548
Si Si5 0.525666 0.949370 0.583244
Si Si6 0.565408 0.601420 0.700994
Si Si7 0.016028 0.768984 0.170000
O O1 0.605458 0.265740 0.388423
O O2 0.125642 0.316530 0.353366
O O3 0.135066 0.248648 0.260407
O O4 0.441881 0.500000 0.089999
O O5 0.520183 0.408411 0.122075
O O6 0.500000 0.443743 0.000000
O O7 0.000000 0.442664 0.000000
O O8 0.563148 0.619830 0.249100
O O9 0.639428 0.679807 0.171005
O O10 0.063721 0.608649 0.245622
O O11 0.500000 0.341646 0.500000
O O12 0.538872 0.370950 0.379706
O O13 0.155948 0.406760 0.408790
O O14 0.500000 0.945628 0.500000
O O15 0.881713 0.945907 0.660180
O O16 0.397538 0.000000 0.583374
O O17 0.151284 0.735442 0.132773
#
# Coordination Sequence:
#
# PCOD9201322 Si02
#       7
#     8   8   8   8   8   8   8
#     4  10  22  38  60  90 126 169 223 288 351 412
#     4  10  23  46  75 108 147 185 220 269 343 426
#     4  12  24  42  74 106 143 181 229 285 346 417
#     4  12  25  42  68  92 134 187 246 297 362 418
#     4  11  26  46  66  91 132 187 239 295 367 425
#     4  12  24  41  66  99 134 178 235 297 344 405
#     4  10  20  37  61  95 135 183 221 275 343 405
#
# _framework density 22.250381999999998
#
# number of rings (size 3 to 8) (size 9 to 14) (size 15 to 20)
#    0.000    1.000    2.857    5.143    2.000    2.571 
#    0.000    0.000    0.000    2.571    0.000    0.000 
#    0.000    0.000    0.000    0.000    0.000    0.000 
#
# Total GULP energy -156097.235357 kJ/mol
# GULP energy per Si atom -5574.901263 kJ/mol
# Density = 2.219974 g / cm^3
# Si number density = 22.250382 Si / 1000 Ang^3
#
#
#
# Elastic Constant Matrix: (Units=GPa)
#
#
# Indices 1 2 3 4 5 6 
#
# 1 161.2449 37.7276 26.4035 0.0000 -20.3615 0.0000
# 2 37.7276 161.7255 33.0685 0.0000 1.0845 0.0000
# 3 26.4035 33.0685 36.5737 0.0000 -3.0466 0.0000
# 4 0.0000 0.0000 0.0000 29.8902 0.0000 6.7976
# 5 -20.3615 1.0845 -3.0466 0.0000 23.3658 0.0000
# 6 0.0000 0.0000 0.0000 6.7976 0.0000 15.3589
#
#
#
# Elastic Compliance Matrix: (Units=1/GPa)
#
#
# Indices 1 2 3 4 5 6 
#
# 1 0.007953 -0.001023 -0.004282 0.000000 0.006419 0.000000
# 2 -0.001023 0.007754 -0.006447 0.000000 -0.002092 0.000000
# 3 -0.004282 -0.006447 0.036371 0.000000 0.001310 0.000000
# 4 0.000000 0.000000 0.000000 0.037200 0.000000 -0.016464
# 5 0.006419 -0.002092 0.001310 0.000000 0.048660 0.000000
# 6 0.000000 0.000000 0.000000 -0.016464 0.000000 0.072396
#
#
# Mechanical properties :
#
#
# Convention : Reuss Voigt Hill
#
# Bulk Modulus (GPa) = 34.99523 61.54927 48.27225
# Shear Modulus (GPa) = 20.54555 31.21261 25.87908
#
# Velocity S-wave (km/s) = 3.04201 3.74945 3.41410
# Velocity P-wave (km/s) = 5.30099 6.81664 6.10603
#
# Compressibility (1/GPa) = 0.02857533
#
# Stress axis : x y z
#
# Youngs Moduli (GPa) = 125.74147 128.96325 27.49416
#
# Poissons Ratio (x) = 0.13190 0.11773
# Poissons Ratio (y) = 0.12860 0.17725
# Poissons Ratio (z) = 0.53841 0.83141
#
# Static dielectric constant tensor:
#      x y z
#    x 2.028510 0.000000 0.115850 
#    y 0.000000 1.929650 0.000000 
#    z 0.115850 0.000000 1.835440 
# 
# From -- ./inp_files/253655.got.cif
#   From: 2010.05.17/outbox.cif.g08.bks.cpg/sg12_127_cif.got.tgz:253655.got - 2010.06.03 13:09:07.
