data_PCOD9201312
_publ_section_title
;
Structure prediction by ZEFSAII (Michael W. Deem and Ramdas Pophale) SiO2 
 PCOD9201312
Probable space group: C 2/M
;
_chemical_formula_sum "Si O2"
_cell_formula_units_Z 48
_cell_length_a 11.689545
_cell_length_b 18.402069
_cell_length_c 11.937638
_cell_angle_alpha 90.000000
_cell_angle_beta 67.161291
_cell_angle_gamma 90.000000
_cell_volume 2366.604404
_symmetry_space_group_name_H-M "C 2/M"
_symmetry_group_IT_number 12
_symmetry_cell_setting 'monoclinic'
loop_
_space_group_symop_operation_xyz
x,y,z
-x,y,-z
-x,-y,-z
x,-y,z
1/2+x,1/2+y,z
1/2-x,1/2+y,-z
1/2-x,1/2-y,-z
1/2+x,1/2-y,z
loop_
_atom_site_type_symbol
_atom_site_label
_atom_site_fract_x
_atom_site_fract_y
_atom_site_fract_z
Si Si1 0.857898 0.585824 0.517551
Si Si2 0.848491 0.157140 0.261481
Si Si3 0.982145 0.578787 0.139440
Si Si4 0.206880 0.319741 0.674796
Si Si5 0.628225 0.318209 0.181254
Si Si6 0.288431 0.158531 0.910104
O O1 0.860734 0.500000 0.491011
O O2 0.753367 0.602219 0.650611
O O3 0.810101 0.633668 0.430776
O O4 0.000000 0.606593 0.500000
O O5 0.821494 0.235070 0.329916
O O6 0.818290 0.163577 0.141575
O O7 0.994356 0.145213 0.220673
O O8 0.932117 0.500000 0.192401
O O9 0.894439 0.643849 0.206390
O O10 0.114894 0.593969 0.144794
O O11 0.000000 0.579403 0.000000
O O12 0.329834 0.323092 0.705158
O O13 0.634204 0.233574 0.138304
O O14 0.727551 0.350266 0.055239
#
# Coordination Sequence:
#
# PCOD9201312 Si02
#       6
#     8   8   8   8   8   8
#     4  11  26  47  67  88 122 169 218 270 324 379
#     4  11  23  39  65  96 125 166 215 259 315 383
#     4  11  21  36  61  93 129 167 212 259 308 373
#     4  11  22  40  63  94 128 161 213 266 316 376
#     4  10  21  36  63  96 129 164 203 258 318 377
#     4  10  20  37  61  93 134 166 203 255 313 375
#
# _framework density 20.282222999999998
#
# number of rings (size 3 to 8) (size 9 to 14) (size 15 to 20)
#    0.000    1.333    3.333    2.500    2.333    2.667 
#    0.000    3.333    0.000    2.000    0.000    0.000 
#    0.000    0.000    0.000    0.000    0.000    0.000 
#
# Total GULP energy -133850.517300 kJ/mol
# GULP energy per Si atom -5577.104887 kJ/mol
# Density = 2.023606 g / cm^3
# Si number density = 20.282223 Si / 1000 Ang^3
#
#
#
# Elastic Constant Matrix: (Units=GPa)
#
#
# Indices 1 2 3 4 5 6 
#
# 1 107.0548 15.2186 23.6973 0.0000 -7.1959 0.0000
# 2 15.2186 47.9354 9.9435 0.0000 3.1836 0.0000
# 3 23.6973 9.9435 71.0522 0.0000 8.6415 0.0000
# 4 0.0000 0.0000 0.0000 1.5135 0.0000 0.2187
# 5 -7.1959 3.1836 8.6415 0.0000 24.1283 0.0000
# 6 0.0000 0.0000 0.0000 0.2187 0.0000 22.4516
#
#
#
# Elastic Compliance Matrix: (Units=1/GPa)
#
#
# Indices 1 2 3 4 5 6 
#
# 1 0.010960 -0.003017 -0.003847 0.000000 0.005045 0.000000
# 2 -0.003017 0.022394 -0.001735 0.000000 -0.003233 0.000000
# 3 -0.003847 -0.001735 0.016427 0.000000 -0.006802 0.000000
# 4 0.000000 0.000000 0.000000 0.661637 0.000000 -0.006444
# 5 0.005045 -0.003233 -0.006802 0.000000 0.045812 0.000000
# 6 0.000000 0.000000 0.000000 -0.006444 0.000000 0.044603
#
#
# Mechanical properties :
#
#
# Convention : Reuss Voigt Hill
#
# Bulk Modulus (GPa) = 30.68904 35.97348 33.33126
# Shear Modulus (GPa) = 6.02488 21.43088 13.72788
#
# Velocity S-wave (km/s) = 1.72539 3.25412 2.60444
# Velocity P-wave (km/s) = 4.37415 5.64748 5.05110
#
# Compressibility (1/GPa) = 0.03258492
#
# Stress axis : x y z
#
# Youngs Moduli (GPa) = 91.23692 44.65540 60.87481
#
# Poissons Ratio (x) = 0.13472 0.23418
# Poissons Ratio (y) = 0.27524 0.10559
# Poissons Ratio (z) = 0.35098 0.07746
#
# Static dielectric constant tensor:
#      x y z
#    x 1.721990 0.000000 0.028140 
#    y 0.000000 1.706080 0.000000 
#    z 0.028140 0.000000 1.789510 
# 
# From -- ./inp_files/131638.got.cif
#   From: 2010.05.17/outbox.cif.g08.bks.cpg/sg12_66_cif.got.tgz:131638.got - 2010.06.03 13:09:07.
