data_PCOD9201182
_publ_section_title
;
Structure prediction by ZEFSAII (Michael W. Deem and Ramdas Pophale) SiO2 
 PCOD9201182
Probable space group: C 2/M
;
_chemical_formula_sum "Si O2"
_cell_formula_units_Z 60
_cell_length_a 14.037424
_cell_length_b 9.557947
_cell_length_c 23.327199
_cell_angle_alpha 90.000000
_cell_angle_beta 72.555309
_cell_angle_gamma 90.000000
_cell_volume 2985.836988
_symmetry_space_group_name_H-M "C 2/M"
_symmetry_group_IT_number 12
_symmetry_cell_setting 'monoclinic'
loop_
_space_group_symop_operation_xyz
x,y,z
-x,y,-z
-x,-y,-z
x,-y,z
1/2+x,1/2+y,z
1/2-x,1/2+y,-z
1/2-x,1/2-y,-z
1/2+x,1/2-y,z
loop_
_atom_site_type_symbol
_atom_site_label
_atom_site_fract_x
_atom_site_fract_y
_atom_site_fract_z
Si Si1 0.510656 0.661653 0.721266
Si Si2 0.734004 0.659146 0.736407
Si Si3 0.569870 0.165207 0.162164
Si Si4 0.848524 0.340132 0.150812
Si Si5 0.108979 0.835796 0.591772
Si Si6 0.264518 0.667146 0.938609
Si Si7 0.686350 0.835284 0.393258
Si Si8 0.500000 0.248748 0.500000
O O1 0.472782 0.500000 0.728210
O O2 0.622579 0.656297 0.728373
O O3 0.447648 0.764991 0.772398
O O4 0.531896 0.719256 0.653572
O O5 0.764066 0.500000 0.743888
O O6 0.719542 0.743202 0.797128
O O7 0.801750 0.724248 0.673338
O O8 0.462704 0.175169 0.149400
O O9 0.646129 0.259332 0.112429
O O10 0.596547 0.000000 0.159985
O O11 0.818432 0.500000 0.167752
O O12 0.829629 0.314879 0.087279
O O13 0.220437 0.780167 0.584997
O O14 0.068782 0.822298 0.535121
O O15 0.111830 0.000000 0.603703
O O16 0.280340 0.500000 0.944353
O O17 0.250000 0.750000 0.000000
O O18 0.582747 0.823510 0.445072
O O19 0.702940 0.000000 0.381615
#
# Coordination Sequence:
#
# PCOD9201182 Si02
#       8
#     8   8   8   8   8   8   8   4
#     4   8  15  32  56  79 105 141 179 221 275 332
#     4   8  15  31  56  80 104 138 181 223 271 330
#     4  10  20  37  61  88 114 142 180 229 277 324
#     4   9  20  38  60  85 114 144 178 225 280 324
#     4   9  19  35  52  71 101 137 176 221 270 323
#     4  11  24  41  58  82 117 156 191 223 264 318
#     4   9  19  35  51  71 102 138 173 219 274 326
#     4  12  20  30  50  76 100 134 182 224 268 326
#
# _framework density 20.094868000000002
#
# number of rings (size 3 to 8) (size 9 to 14) (size 15 to 20)
#    0.000    2.667    0.000    3.200    0.000    3.200 
#    0.000    8.000    0.000    6.400    0.000    0.000 
#    0.000    0.000    0.000    0.000    0.000    0.000 
#
# Total GULP energy -167163.388898 kJ/mol
# GULP energy per Si atom -5572.112963 kJ/mol
# Density = 2.004913 g / cm^3
# Si number density = 20.094868 Si / 1000 Ang^3
#
#
#
# Elastic Constant Matrix: (Units=GPa)
#
#
# Indices 1 2 3 4 5 6 
#
# 1 54.6062 10.2437 12.1427 0.0000 1.7026 0.0000
# 2 10.2437 60.6328 36.8627 0.0000 -0.0209 0.0000
# 3 12.1427 36.8627 118.3158 0.0000 5.1354 0.0000
# 4 0.0000 0.0000 0.0000 32.4041 0.0000 7.4319
# 5 1.7026 -0.0209 5.1354 0.0000 31.3188 0.0000
# 6 0.0000 0.0000 0.0000 7.4319 0.0000 43.1323
#
#
#
# Elastic Compliance Matrix: (Units=1/GPa)
#
#
# Indices 1 2 3 4 5 6 
#
# 1 0.019066 -0.002534 -0.001130 0.000000 -0.000853 0.000000
# 2 -0.002534 0.020719 -0.006246 0.000000 0.001176 0.000000
# 3 -0.001130 -0.006246 0.010587 0.000000 -0.001679 0.000000
# 4 0.000000 0.000000 0.000000 0.032130 0.000000 -0.005536
# 5 -0.000853 0.001176 -0.001679 0.000000 0.032252 0.000000
# 6 0.000000 0.000000 0.000000 -0.005536 0.000000 0.024138
#
#
# Mechanical properties :
#
#
# Convention : Reuss Voigt Hill
#
# Bulk Modulus (GPa) = 32.73258 39.11699 35.92479
# Shear Modulus (GPa) = 29.60381 32.99142 31.29761
#
# Velocity S-wave (km/s) = 3.84240 4.05629 3.95079
# Velocity P-wave (km/s) = 6.00081 6.43789 6.22319
#
# Compressibility (1/GPa) = 0.03055060
#
# Stress axis : x y z
#
# Youngs Moduli (GPa) = 52.44864 48.26549 94.45678
#
# Poissons Ratio (x) = 0.12232 0.10675
# Poissons Ratio (y) = 0.13293 0.58999
# Poissons Ratio (z) = 0.05927 0.30147
#
# Static dielectric constant tensor:
#      x y z
#    x 1.770400 0.000000 0.014410 
#    y 0.000000 1.693630 0.000000 
#    z 0.014410 0.000000 1.724950 
# 
# From -- ./inp_files/338633.got.cif
#   From: 2010.05.17/outbox.cif.g08.bks.cpg/sg12_170_cif.got.tgz:338633.got - 2010.06.03 13:09:07.
