data_PCOD9201816
_publ_section_title
;
Structure prediction by ZEFSAII (Michael W. Deem and Ramdas Pophale) SiO2 
 PCOD9201816
Probable space group: C 2/M
;
_chemical_formula_sum "Si O2"
_cell_formula_units_Z 42
_cell_length_a 18.406287
_cell_length_b 7.555475
_cell_length_c 15.964751
_cell_angle_alpha 90.000000
_cell_angle_beta 126.721920
_cell_angle_gamma 90.000000
_cell_volume 1779.586394
_symmetry_space_group_name_H-M "C 2/M"
_symmetry_group_IT_number 12
_symmetry_cell_setting 'monoclinic'
loop_
_space_group_symop_operation_xyz
x,y,z
-x,y,-z
-x,-y,-z
x,-y,z
1/2+x,1/2+y,z
1/2-x,1/2+y,-z
1/2-x,1/2-y,-z
1/2+x,1/2-y,z
loop_
_atom_site_type_symbol
_atom_site_label
_atom_site_fract_x
_atom_site_fract_y
_atom_site_fract_z
Si Si1 0.954883 0.715488 0.776143
Si Si2 0.351480 0.789429 0.542329
Si Si3 0.500000 0.500000 0.500000
Si Si4 0.149163 0.304198 0.956385
Si Si5 0.178274 0.792697 0.160598
Si Si6 0.875311 0.286572 0.367602
O O1 0.955319 0.500000 0.775633
O O2 0.914609 0.778481 0.660243
O O3 0.886679 0.763356 0.804730
O O4 0.056573 0.785344 0.861552
O O5 0.250000 0.750000 0.500000
O O6 0.357196 0.725586 0.451210
O O7 0.365931 0.000000 0.546861
O O8 0.458417 0.657887 0.407704
O O9 0.142134 0.500000 0.915928
O O10 0.250000 0.250000 0.000000
O O11 0.145689 0.303059 0.054688
O O12 0.282578 0.748453 0.254496
O O13 0.176629 0.000000 0.139085
O O14 0.893502 0.500000 0.374489
#
# Coordination Sequence:
#
# PCOD9201816 Si02
#       6
#     8   8   2   8   8   8
#     4  10  22  40  67  97 128 169 222 279 335 398
#     4  10  20  37  64  95 133 167 212 277 337 392
#     4  12  26  40  68  94 134 188 228 266 348 412
#     4  11  25  44  65  94 130 173 223 277 338 405
#     4  11  23  41  67  96 132 173 218 277 335 396
#     4  10  24  43  64 101 139 176 224 281 334 406
#
# _framework density 23.600988999999998
#
# number of rings (size 3 to 8) (size 9 to 14) (size 15 to 20)
#    0.000    1.524    1.905    2.000    4.000    5.333 
#    0.000    3.810    0.000    0.000    0.000    0.000 
#    0.000    0.000    0.000    0.000    0.000    0.000 
#
# Total GULP energy -117058.484519 kJ/mol
# GULP energy per Si atom -5574.213549 kJ/mol
# Density = 2.354727 g / cm^3
# Si number density = 23.600989 Si / 1000 Ang^3
#
#
#
# Elastic Constant Matrix: (Units=GPa)
#
#
# Indices 1 2 3 4 5 6 
#
# 1 55.5411 -3.1184 30.7817 0.0000 17.3469 0.0000
# 2 -3.1184 69.0705 6.8953 0.0000 20.3172 0.0000
# 3 30.7817 6.8953 150.2774 0.0000 33.5649 0.0000
# 4 0.0000 0.0000 0.0000 17.5891 0.0000 5.0989
# 5 17.3469 20.3172 33.5649 0.0000 54.0206 0.0000
# 6 0.0000 0.0000 0.0000 5.0989 0.0000 16.4679
#
#
#
# Elastic Compliance Matrix: (Units=1/GPa)
#
#
# Indices 1 2 3 4 5 6 
#
# 1 0.021918 0.003137 -0.003249 0.000000 -0.006200 0.000000
# 2 0.003137 0.016795 0.000258 0.000000 -0.007485 0.000000
# 3 -0.003249 0.000258 0.008240 0.000000 -0.004174 0.000000
# 4 0.000000 0.000000 0.000000 0.062460 0.000000 -0.019339
# 5 -0.006200 -0.007485 -0.004174 0.000000 0.025911 0.000000
# 6 0.000000 0.000000 0.000000 -0.019339 0.000000 0.066712
#
#
# Mechanical properties :
#
#
# Convention : Reuss Voigt Hill
#
# Bulk Modulus (GPa) = 21.16503 38.22291 29.69397
# Shear Modulus (GPa) = 22.98949 33.63754 28.31351
#
# Velocity S-wave (km/s) = 3.12443 3.77936 3.46739
# Velocity P-wave (km/s) = 4.69078 5.93931 5.35158
#
# Compressibility (1/GPa) = 0.04724774
#
# Stress axis : x y z
#
# Youngs Moduli (GPa) = 45.62546 59.53976 121.35628
#
# Poissons Ratio (x) = -0.18680 0.39425
# Poissons Ratio (y) = -0.14315 -0.03137
# Poissons Ratio (z) = 0.14822 -0.01539
#
# Static dielectric constant tensor:
#      x y z
#    x 2.004640 0.000000 0.026000 
#    y 0.000000 1.935760 0.000000 
#    z 0.026000 0.000000 1.873700 
# 
# From -- ./inp_files/220771.got.cif
#   From: 2010.05.17/outbox.cif.g08.bks.cpg/sg12_111_cif.got.tgz:220771.got - 2010.06.03 13:09:07.
