data_PCOD9201938
_publ_section_title
;
Structure prediction by ZEFSAII (Michael W. Deem and Ramdas Pophale) SiO2 
 PCOD9201938
Probable space group: C 2/M
;
_chemical_formula_sum "Si O2"
_cell_formula_units_Z 48
_cell_length_a 11.213459
_cell_length_b 28.362569
_cell_length_c 14.079785
_cell_angle_alpha 90.000000
_cell_angle_beta 29.671768
_cell_angle_gamma 90.000000
_cell_volume 2216.732208
_symmetry_space_group_name_H-M "C 2/M"
_symmetry_group_IT_number 12
_symmetry_cell_setting 'monoclinic'
loop_
_space_group_symop_operation_xyz
x,y,z
-x,y,-z
-x,-y,-z
x,-y,z
1/2+x,1/2+y,z
1/2-x,1/2+y,-z
1/2-x,1/2-y,-z
1/2+x,1/2-y,z
loop_
_atom_site_type_symbol
_atom_site_label
_atom_site_fract_x
_atom_site_fract_y
_atom_site_fract_z
Si Si1 0.691793 0.944657 0.606351
Si Si2 0.989365 0.624164 0.894356
Si Si3 0.441348 0.604573 0.280226
Si Si4 0.514231 0.222960 0.200774
Si Si5 0.250907 0.554826 0.229314
Si Si6 0.641553 0.194793 0.494286
O O1 0.659019 0.911950 0.720416
O O2 0.918720 0.930836 0.384448
O O3 0.466656 0.933227 0.691126
O O4 0.686004 0.000000 0.632988
O O5 0.038111 0.677509 0.827121
O O6 0.713391 0.611887 0.059061
O O7 0.000000 0.620511 0.000000
O O8 0.287406 0.584568 0.298967
O O9 0.331092 0.654282 0.390168
O O10 0.533485 0.205077 0.296344
O O11 0.291171 0.258961 0.360736
O O12 0.750000 0.250000 0.000000
O O13 0.220476 0.500000 0.277598
O O14 0.500000 0.558963 0.000000
O O15 0.500000 0.178846 0.500000
#
# Coordination Sequence:
#
# PCOD9201938 Si02
#       6
#     8   8   8   8   8   8
#     4  11  24  45  69  99 136 175 225 278 337 400
#     4  12  28  46  68  95 136 184 230 273 329 399
#     4  12  23  42  68 103 135 173 218 275 338 401
#     4  11  25  47  66  97 135 180 222 267 336 399
#     4  10  20  37  68 102 136 172 209 271 345 401
#     4  11  25  41  72 105 135 167 222 280 334 402
#
# _framework density 21.653496000000001
#
# number of rings (size 3 to 8) (size 9 to 14) (size 15 to 20)
#    0.000    0.833    5.000    2.000    2.333    3.000 
#    0.000    0.833    0.000    0.000    0.000    0.000 
#    0.000    0.000    0.000    0.000    0.000    0.000 
#
# Total GULP energy -134284.184965 kJ/mol
# GULP energy per Si atom -5595.174374 kJ/mol
# Density = 2.160421 g / cm^3
# Si number density = 21.653496 Si / 1000 Ang^3
#
#
#
# Elastic Constant Matrix: (Units=GPa)
#
#
# Indices 1 2 3 4 5 6 
#
# 1 67.7240 36.6141 4.0285 0.0000 27.3647 0.0000
# 2 36.6141 121.8211 30.3944 0.0000 33.0018 0.0000
# 3 4.0285 30.3944 92.4699 0.0000 33.2441 0.0000
# 4 0.0000 0.0000 0.0000 36.6178 0.0000 9.1767
# 5 27.3647 33.0018 33.2441 0.0000 38.2378 0.0000
# 6 0.0000 0.0000 0.0000 9.1767 0.0000 21.6441
#
#
#
# Elastic Compliance Matrix: (Units=1/GPa)
#
#
# Indices 1 2 3 4 5 6 
#
# 1 0.024978 -0.003621 0.007862 0.000000 -0.021585 0.000000
# 2 -0.003621 0.011244 -0.001427 0.000000 -0.005872 0.000000
# 3 0.007862 -0.001427 0.018214 0.000000 -0.020230 0.000000
# 4 0.000000 0.000000 0.000000 0.030556 0.000000 -0.012955
# 5 -0.021585 -0.005872 -0.020230 0.000000 0.064256 0.000000
# 6 0.000000 0.000000 0.000000 -0.012955 0.000000 0.051695
#
#
# Mechanical properties :
#
#
# Convention : Reuss Voigt Hill
#
# Bulk Modulus (GPa) = 16.64901 47.12099 31.88500
# Shear Modulus (GPa) = 23.21962 33.36514 28.29238
#
# Velocity S-wave (km/s) = 3.27819 3.92965 3.61861
# Velocity P-wave (km/s) = 4.69407 6.51138 5.67593
#
# Compressibility (1/GPa) = 0.06006365
#
# Stress axis : x y z
#
# Youngs Moduli (GPa) = 40.03560 88.93652 54.90311
#
# Poissons Ratio (x) = 0.32207 -0.43167
# Poissons Ratio (y) = 0.14498 0.07835
# Poissons Ratio (z) = -0.31477 0.12691
#
# Static dielectric constant tensor:
#      x y z
#    x 1.782740 0.000000 -0.008250 
#    y 0.000000 1.782900 0.000000 
#    z -0.008250 0.000000 1.774760 
# 
# From -- ./inp_files/209266.got.cif
#   From: 2010.05.17/outbox.cif.g08.bks.cpg/sg12_105_cif.got.tgz:209266.got - 2010.06.03 13:09:07.
