data_PCOD9201747
_publ_section_title
;
Structure prediction by ZEFSAII (Michael W. Deem and Ramdas Pophale) SiO2 
 PCOD9201747
Probable space group: C 2/M
;
_chemical_formula_sum "Si O2"
_cell_formula_units_Z 56
_cell_length_a 9.125183
_cell_length_b 16.962644
_cell_length_c 27.107334
_cell_angle_alpha 90.000000
_cell_angle_beta 42.541138
_cell_angle_gamma 90.000000
_cell_volume 2836.908513
_symmetry_space_group_name_H-M "C 2/M"
_symmetry_group_IT_number 12
_symmetry_cell_setting 'monoclinic'
loop_
_space_group_symop_operation_xyz
x,y,z
-x,y,-z
-x,-y,-z
x,-y,z
1/2+x,1/2+y,z
1/2-x,1/2+y,-z
1/2-x,1/2-y,-z
1/2+x,1/2-y,z
loop_
_atom_site_type_symbol
_atom_site_label
_atom_site_fract_x
_atom_site_fract_y
_atom_site_fract_z
Si Si1 0.155833 0.913077 0.780223
Si Si2 0.348052 0.830598 0.916220
Si Si3 0.007942 0.840306 0.080051
Si Si4 0.974137 0.291416 0.306106
Si Si5 0.830050 0.130855 0.777999
Si Si6 0.868374 0.910628 0.656444
Si Si7 0.254226 0.802218 0.548010
O O1 0.064300 0.895256 0.857374
O O2 0.332923 0.847233 0.723187
O O3 0.962332 0.907047 0.789361
O O4 0.254000 0.000000 0.754543
O O5 0.195303 0.827687 0.906125
O O6 0.412457 0.741999 0.916193
O O7 0.573999 0.872772 0.850264
O O8 0.205253 0.867271 0.995900
O O9 0.812792 0.347442 0.315506
O O10 0.845826 0.249585 0.382367
O O11 0.086221 0.221567 0.247142
O O12 0.878658 0.092769 0.713138
O O13 0.096983 0.876881 0.580668
O O14 0.824316 0.000000 0.651197
O O15 0.500000 0.823887 0.500000
O O16 0.250000 0.750000 0.500000
#
# Coordination Sequence:
#
# PCOD9201747 Si02
#       7
#     8   8   8   8   8   8   8
#     4  12  25  40  60  95 134 165 207 265 321 368
#     4  10  20  37  64  89 120 161 220 266 306 373
#     4  10  21  37  60  94 121 162 213 267 317 366
#     4  11  23  41  68  90 125 170 212 251 304 377
#     4  11  22  39  64  93 122 171 216 260 305 374
#     4  11  24  42  64  95 129 165 206 257 314 367
#     4  11  23  44  70  97 123 161 207 252 302 370
#
# _framework density 19.739798
#
# number of rings (size 3 to 8) (size 9 to 14) (size 15 to 20)
#    0.000    1.143    2.857    4.286    2.000    2.000 
#    0.000    6.429    0.000    0.000    0.000    0.000 
#    0.000    0.000    0.000    0.000    0.000    0.000 
#
# Total GULP energy -156520.321590 kJ/mol
# GULP energy per Si atom -5590.011485 kJ/mol
# Density = 1.969487 g / cm^3
# Si number density = 19.739798 Si / 1000 Ang^3
#
#
#
# Elastic Constant Matrix: (Units=GPa)
#
#
# Indices 1 2 3 4 5 6 
#
# 1 103.9021 8.5101 33.7025 -0.0006 -10.1376 0.0005
# 2 8.5101 79.7021 14.5685 0.0026 -9.4766 -0.0002
# 3 33.7025 14.5685 102.0709 0.0055 -14.3221 0.0010
# 4 -0.0006 0.0026 0.0055 6.8181 0.0012 0.6272
# 5 -10.1376 -9.4766 -14.3221 0.0012 39.7451 -0.0003
# 6 0.0005 -0.0002 0.0010 0.6272 -0.0003 10.3706
#
#
#
# Elastic Compliance Matrix: (Units=1/GPa)
#
#
# Indices 1 2 3 4 5 6 
#
# 1 0.010880 -0.000376 -0.003330 0.000004 0.001485 0.000000
# 2 -0.000376 0.013143 -0.001396 -0.000004 0.002535 0.000001
# 3 -0.003330 -0.001396 0.011512 -0.000010 0.002966 0.000000
# 4 0.000004 -0.000004 -0.000010 0.147490 -0.000008 -0.008920
# 5 0.001485 0.002535 0.002966 -0.000008 0.027212 0.000001
# 6 0.000000 0.000001 0.000000 -0.008920 0.000001 0.096966
#
#
# Mechanical properties :
#
#
# Convention : Reuss Voigt Hill
#
# Bulk Modulus (GPa) = 39.47811 44.35971 41.91891
# Shear Modulus (GPa) = 15.34431 26.64635 20.99533
#
# Velocity S-wave (km/s) = 2.79109 3.67806 3.26483
# Velocity P-wave (km/s) = 5.51630 6.36855 5.95768
#
# Compressibility (1/GPa) = 0.02533049
#
# Stress axis : x y z
#
# Youngs Moduli (GPa) = 91.90763 76.08337 86.86420
#
# Poissons Ratio (x) = 0.02864 0.28930
# Poissons Ratio (y) = 0.03459 0.12126
# Poissons Ratio (z) = 0.30609 0.10621
#
# Static dielectric constant tensor:
#      x y z
#    x 1.677540 0.000000 -0.005380 
#    y 0.000000 1.687610 0.000000 
#    z -0.005380 0.000000 1.690010 
# 
# From -- ./inp_files/356643.got.cif
#   From: 2010.05.17/outbox.cif.g08.bks.cpg/sg12_179_cif.got.tgz:356643.got - 2010.06.03 13:09:07.
