data_PCOD9201048
_publ_section_title
;
Structure prediction by ZEFSAII (Michael W. Deem and Ramdas Pophale) SiO2 
 PCOD9201048
Probable space group: C 2/M
;
_chemical_formula_sum "Si O2"
_cell_formula_units_Z 58
_cell_length_a 26.878696
_cell_length_b 20.190944
_cell_length_c 10.069534
_cell_angle_alpha 90.000000
_cell_angle_beta 33.639875
_cell_angle_gamma 90.000000
_cell_volume 3027.340637
_symmetry_space_group_name_H-M "C 2/M"
_symmetry_group_IT_number 12
_symmetry_cell_setting 'monoclinic'
loop_
_space_group_symop_operation_xyz
x,y,z
-x,y,-z
-x,-y,-z
x,-y,z
1/2+x,1/2+y,z
1/2-x,1/2+y,-z
1/2-x,1/2-y,-z
1/2+x,1/2-y,z
loop_
_atom_site_type_symbol
_atom_site_label
_atom_site_fract_x
_atom_site_fract_y
_atom_site_fract_z
Si Si1 0.689025 0.141908 0.850002
Si Si2 0.500000 0.500000 0.000000
Si Si3 0.134338 0.121816 0.673147
Si Si4 0.893412 0.421877 0.716320
Si Si5 0.328603 0.144843 0.595390
Si Si6 0.897427 0.574737 0.184832
Si Si7 0.339851 0.291039 0.120730
Si Si8 0.030956 0.759226 0.780862
O O1 0.776434 0.103604 0.605038
O O2 0.609475 0.117713 0.931737
O O3 0.705413 0.218742 0.781046
O O4 0.661256 0.123694 0.059347
O O5 0.577368 0.558563 0.840122
O O6 0.160121 0.167814 0.742005
O O7 0.075918 0.169769 0.708502
O O8 0.876672 0.500000 0.778313
O O9 0.861785 0.401384 0.640304
O O10 0.000000 0.410873 0.500000
O O11 0.341157 0.107065 0.428061
O O12 0.224318 0.167612 0.835522
O O13 0.396269 0.207667 0.435560
O O14 0.867165 0.500000 0.225773
O O15 0.000000 0.572743 0.000000
O O16 0.445427 0.271841 0.875243
O O17 0.000000 0.736948 0.000000
#
# Coordination Sequence:
#
# PCOD9201048 Si02
#       8
#     8   2   8   8   8   8   8   8
#     4  12  23  40  67  91 127 176 214 268 322 388
#     4  12  24  40  64  96 146 180 208 260 340 408
#     4  11  22  39  62  99 133 171 217 270 324 392
#     4  11  26  46  62  91 132 175 215 257 327 406
#     4  12  22  39  65  91 126 168 209 277 323 373
#     4  11  22  35  57  93 123 158 209 263 325 386
#     4  11  21  38  64  95 129 158 219 276 325 368
#     4  10  20  37  60  95 130 165 210 271 328 383
#
# _framework density 19.158729000000001
#
# number of rings (size 3 to 8) (size 9 to 14) (size 15 to 20)
#    0.000    0.828    4.828    5.793    1.931    2.759 
#    1.241    0.000    0.000    0.000    0.000    1.931 
#    0.000    0.000    0.000    0.000    0.000    0.000 
#
# Total GULP energy -161587.488321 kJ/mol
# GULP energy per Si atom -5571.982356 kJ/mol
# Density = 1.911512 g / cm^3
# Si number density = 19.158729 Si / 1000 Ang^3
#
#
#
# Elastic Constant Matrix: (Units=GPa)
#
#
# Indices 1 2 3 4 5 6 
#
# 1 63.2935 6.7648 7.6383 0.0000 -17.9864 0.0000
# 2 6.7648 97.5907 15.4437 0.0000 -1.5440 0.0000
# 3 7.6383 15.4437 50.9907 0.0000 -12.1699 0.0000
# 4 0.0000 0.0000 0.0000 -1.8740 0.0000 -3.5396
# 5 -17.9864 -1.5440 -12.1699 0.0000 30.2096 0.0000
# 6 0.0000 0.0000 0.0000 -3.5396 0.0000 25.1482
#
#
#
# Elastic Compliance Matrix: (Units=1/GPa)
#
#
# Indices 1 2 3 4 5 6 
#
# 1 0.019147 -0.001181 0.000217 0.000000 0.011427 0.000000
# 2 -0.001181 0.010855 -0.003481 0.000000 -0.001550 0.000000
# 3 0.000217 -0.003481 0.022815 0.000000 0.009142 0.000000
# 4 0.000000 0.000000 0.000000 -0.421547 0.000000 -0.059332
# 5 0.011427 -0.001550 0.009142 0.000000 0.043509 0.000000
# 6 0.000000 0.000000 0.000000 -0.059332 0.000000 0.031413
#
#
# Mechanical properties :
#
#
# Convention : Reuss Voigt Hill
#
# Bulk Modulus (GPa) = 22.76505 30.17427 26.46966
# Shear Modulus (GPa) = -18.49966 22.83195 2.16615
#
# Velocity S-wave (km/s) = -3.11078 3.45588 1.06447
# Velocity P-wave (km/s) = 0.99724 5.63098 3.91877
#
# Compressibility (1/GPa) = 0.04392699
#
# Stress axis : x y z
#
# Youngs Moduli (GPa) = 52.22861 92.12314 43.83043
#
# Poissons Ratio (x) = 0.10877 -0.00950
# Poissons Ratio (y) = 0.06167 0.15257
# Poissons Ratio (z) = -0.01132 0.32067
#
# Static dielectric constant tensor:
#      x y z
#    x 1.690250 0.000000 -0.052290 
#    y 0.000000 1.693680 0.000000 
#    z -0.052290 0.000000 1.687810 
# 
# From -- ./inp_files/99253.got.cif
#   From: 2010.05.17/outbox.cif.g08.bks.cpg/sg12_50_cif.got.tgz:99253.got - 2010.06.03 13:09:07.
