data_PCOD9201499
_publ_section_title
;
Structure prediction by ZEFSAII (Michael W. Deem and Ramdas Pophale) SiO2 
 PCOD9201499
Probable space group: C 2/M
;
_chemical_formula_sum "Si O2"
_cell_formula_units_Z 64
_cell_length_a 20.629153
_cell_length_b 8.898651
_cell_length_c 32.052286
_cell_angle_alpha 90.000000
_cell_angle_beta 36.983073
_cell_angle_gamma 90.000000
_cell_volume 3539.625273
_symmetry_space_group_name_H-M "C 2/M"
_symmetry_group_IT_number 12
_symmetry_cell_setting 'monoclinic'
loop_
_space_group_symop_operation_xyz
x,y,z
-x,y,-z
-x,-y,-z
x,-y,z
1/2+x,1/2+y,z
1/2-x,1/2+y,-z
1/2-x,1/2-y,-z
1/2+x,1/2-y,z
loop_
_atom_site_type_symbol
_atom_site_label
_atom_site_fract_x
_atom_site_fract_y
_atom_site_fract_z
Si Si1 0.561428 0.822494 0.288961
Si Si2 0.646925 0.678724 0.075608
Si Si3 0.573690 0.178719 0.843447
Si Si4 0.634161 0.180517 0.550002
Si Si5 0.814938 0.176794 0.846364
Si Si6 0.708210 0.821197 0.294203
Si Si7 0.485466 0.679995 0.556314
Si Si8 0.604487 0.674984 0.917013
O O1 0.449225 0.785551 0.369381
O O2 0.590832 0.728702 0.233242
O O3 0.653066 0.796240 0.277098
O O4 0.562038 0.000000 0.278767
O O5 0.644242 0.500000 0.069075
O O6 0.538297 0.753504 0.114763
O O7 0.657018 0.703259 0.119971
O O8 0.750000 0.750000 0.000000
O O9 0.674563 0.248328 0.766687
O O10 0.588980 0.228171 0.883527
O O11 0.573749 0.000000 0.839814
O O12 0.750000 0.250000 0.500000
O O13 0.579078 0.248457 0.536873
O O14 0.640007 0.000000 0.543122
O O15 0.709277 0.269206 0.887657
O O16 0.793542 0.000000 0.851654
O O17 0.626448 0.747313 0.368997
O O18 0.713784 0.000000 0.297856
O O19 0.500000 0.713599 0.500000
O O20 0.486029 0.500000 0.561566
O O21 0.617985 0.500000 0.898081
O O22 0.500000 0.688019 0.000000
#
# Coordination Sequence:
#
# PCOD9201499 Si02
#       8
#     8   8   8   8   8   8   8   8
#     4   9  19  36  60  87 118 155 194 240 295 351
#     4  11  25  44  62  85 119 158 199 244 301 360
#     4  12  24  39  62  89 118 156 200 245 296 352
#     4  10  21  38  61  89 121 160 200 245 296 350
#     4  11  23  38  60  88 117 151 195 244 294 354
#     4  10  20  37  62  90 121 157 198 245 296 351
#     4  10  21  38  61  90 124 161 201 244 293 351
#     4  11  23  38  60  88 118 153 193 242 295 348
#
# _framework density 18.081011
#
# number of rings (size 3 to 8) (size 9 to 14) (size 15 to 20)
#    0.000    1.500    1.250    4.875    0.000    8.500 
#    2.250    0.000    0.000    0.000    0.000    0.000 
#    0.000    0.000    0.000    0.000    0.000    0.000 
#
# Total GULP energy -178876.322115 kJ/mol
# GULP energy per Si atom -5589.885066 kJ/mol
# Density = 1.803986 g / cm^3
# Si number density = 18.081011 Si / 1000 Ang^3
#
#
#
# Elastic Constant Matrix: (Units=GPa)
#
#
# Indices 1 2 3 4 5 6 
#
# 1 77.1873 60.2555 65.5889 0.0000 -18.0869 -0.0009
# 2 60.2555 105.3449 73.1607 0.0001 -1.4797 -0.0011
# 3 65.5889 73.1607 130.6263 0.0000 -15.0374 -0.0001
# 4 0.0000 0.0001 0.0000 35.9779 0.0000 -1.5141
# 5 -18.0869 -1.4797 -15.0374 0.0000 37.8529 0.0001
# 6 -0.0009 -0.0011 -0.0001 -1.5141 0.0001 32.5170
#
#
#
# Elastic Compliance Matrix: (Units=1/GPa)
#
#
# Indices 1 2 3 4 5 6 
#
# 1 0.032438 -0.013146 -0.007545 0.000000 0.011988 0.000000
# 2 -0.013146 0.021192 -0.006179 0.000000 -0.007907 0.000000
# 3 -0.007545 -0.006179 0.015154 0.000000 0.002174 0.000000
# 4 0.000000 0.000000 0.000000 0.027849 0.000000 0.001297
# 5 0.011988 -0.007907 0.002174 0.000000 0.032701 0.000000
# 6 0.000000 0.000000 0.000000 0.001297 0.000000 0.030814
#
#
# Mechanical properties :
#
#
# Convention : Reuss Voigt Hill
#
# Bulk Modulus (GPa) = 66.46383 79.01873 72.74128
# Shear Modulus (GPa) = 22.84139 28.87979 25.86059
#
# Velocity S-wave (km/s) = 3.55812 4.00089 3.78598
# Velocity P-wave (km/s) = 7.32933 8.07095 7.70906
#
# Compressibility (1/GPa) = 0.01504578
#
# Stress axis : x y z
#
# Youngs Moduli (GPa) = 30.82825 47.18831 65.98756
#
# Poissons Ratio (x) = 0.62033 0.49785
# Poissons Ratio (y) = 0.40526 0.40771
# Poissons Ratio (z) = 0.23259 0.29156
#
# Static dielectric constant tensor:
#      x y z
#    x 1.587130 0.000000 0.002710 
#    y 0.000000 1.603430 0.000000 
#    z 0.002710 0.000000 1.610550 
# 
# From -- ./inp_files/378221.got.cif
#   From: 2010.05.17/outbox.cif.g08.bks.cpg/sg12_190_cif.got.tgz:378221.got - 2010.06.03 13:09:07.
