data_PCOD9201718
_publ_section_title
;
Structure prediction by ZEFSAII (Michael W. Deem and Ramdas Pophale) SiO2 
 PCOD9201718
Probable space group: C 2/M
;
_chemical_formula_sum "Si O2"
_cell_formula_units_Z 48
_cell_length_a 8.585846
_cell_length_b 27.381719
_cell_length_c 9.834958
_cell_angle_alpha 90.000000
_cell_angle_beta 87.178888
_cell_angle_gamma 90.000000
_cell_volume 2309.349473
_symmetry_space_group_name_H-M "C 2/M"
_symmetry_group_IT_number 12
_symmetry_cell_setting 'monoclinic'
loop_
_space_group_symop_operation_xyz
x,y,z
-x,y,-z
-x,-y,-z
x,-y,z
1/2+x,1/2+y,z
1/2-x,1/2+y,-z
1/2-x,1/2-y,-z
1/2+x,1/2-y,z
loop_
_atom_site_type_symbol
_atom_site_label
_atom_site_fract_x
_atom_site_fract_y
_atom_site_fract_z
Si Si1 0.582851 0.291080 0.127049
Si Si2 0.816122 0.618583 0.480813
Si Si3 0.373042 0.617856 0.233218
Si Si4 0.182242 0.627578 0.974814
Si Si5 0.683704 0.442604 0.257360
Si Si6 0.656465 0.713908 0.409560
O O1 0.464878 0.332444 0.190727
O O2 0.626213 0.262748 0.262340
O O3 0.500000 0.267287 0.000000
O O4 0.730382 0.321940 0.067470
O O5 0.728020 0.623061 0.627596
O O6 0.754806 0.572019 0.400401
O O7 0.758105 0.664774 0.393499
O O8 0.000000 0.618873 0.500000
O O9 0.263255 0.608281 0.109188
O O10 0.507452 0.577847 0.251412
O O11 0.218379 0.587904 0.857420
O O12 0.000000 0.634891 0.000000
O O13 0.689446 0.500000 0.234100
O O14 0.500000 0.702141 0.500000
O O15 0.750000 0.750000 0.500000
#
# Coordination Sequence:
#
# PCOD9201718 Si02
#       6
#     8   8   8   8   8   8
#     4   9  19  39  65  89 126 169 213 252 318 390
#     4  12  23  40  64  92 126 166 214 271 328 382
#     4  10  20  37  64  86 122 171 210 258 314 388
#     4  10  20  37  63  95 124 169 210 261 322 378
#     4  11  23  40  61  89 127 171 219 264 318 387
#     4  12  23  43  67  97 131 167 216 263 323 392
#
# _framework density 20.785074999999999
#
# number of rings (size 3 to 8) (size 9 to 14) (size 15 to 20)
#    0.000    1.333    5.000    3.500    0.000    3.333 
#    0.000    2.500    0.000    0.000    0.000    0.000 
#    0.000    0.000    0.000    0.000    0.000    0.000 
#
# Total GULP energy -134200.714197 kJ/mol
# GULP energy per Si atom -5591.696425 kJ/mol
# Density = 2.073777 g / cm^3
# Si number density = 20.785075 Si / 1000 Ang^3
#
#
#
# Elastic Constant Matrix: (Units=GPa)
#
#
# Indices 1 2 3 4 5 6 
#
# 1 168.4047 17.2319 65.5471 0.0000 0.6602 0.0000
# 2 17.2319 42.8737 10.7834 0.0000 9.7912 0.0000
# 3 65.5471 10.7834 154.8038 0.0000 16.3179 0.0000
# 4 0.0000 0.0000 0.0000 21.2847 0.0000 5.6091
# 5 0.6602 9.7912 16.3179 0.0000 36.2276 0.0000
# 6 0.0000 0.0000 0.0000 5.6091 0.0000 10.2003
#
#
#
# Elastic Compliance Matrix: (Units=1/GPa)
#
#
# Indices 1 2 3 4 5 6 
#
# 1 0.007438 -0.002650 -0.003177 0.000000 0.002012 0.000000
# 2 -0.002650 0.025974 0.000050 0.000000 -0.006994 0.000000
# 3 -0.003177 0.000050 0.008185 0.000000 -0.003643 0.000000
# 4 0.000000 0.000000 0.000000 0.054944 0.000000 -0.030214
# 5 0.002012 -0.006994 -0.003643 0.000000 0.031098 0.000000
# 6 0.000000 0.000000 0.000000 -0.030214 0.000000 0.114651
#
#
# Mechanical properties :
#
#
# Convention : Reuss Voigt Hill
#
# Bulk Modulus (GPa) = 33.28459 61.46746 47.37602
# Shear Modulus (GPa) = 18.94958 31.71050 25.33004
#
# Velocity S-wave (km/s) = 3.02270 3.91018 3.49472
# Velocity P-wave (km/s) = 5.31326 7.07270 6.25515
#
# Compressibility (1/GPa) = 0.03004394
#
# Stress axis : x y z
#
# Youngs Moduli (GPa) = 134.44825 38.49998 122.16901
#
# Poissons Ratio (x) = 0.10202 0.38810
# Poissons Ratio (y) = 0.35626 -0.00610
# Poissons Ratio (z) = 0.42711 -0.00192
#
# Static dielectric constant tensor:
#      x y z
#    x 1.738430 0.000000 0.026240 
#    y 0.000000 1.741860 0.000000 
#    z 0.026240 0.000000 1.798780 
# 
# From -- ./inp_files/42233.got.cif
#   From: 2010.05.17/outbox.cif.g08.bks.cpg/sg12_22_cif.got.tgz:42233.got - 2010.06.03 13:09:07.
