data_PCOD9201787
_publ_section_title
;
Structure prediction by ZEFSAII (Michael W. Deem and Ramdas Pophale) SiO2 
 PCOD9201787
Probable space group: C 2/M
;
_chemical_formula_sum "Si O2"
_cell_formula_units_Z 44
_cell_length_a 16.221980
_cell_length_b 19.965294
_cell_length_c 5.670278
_cell_angle_alpha 90.000000
_cell_angle_beta 97.358487
_cell_angle_gamma 90.000000
_cell_volume 1821.345593
_symmetry_space_group_name_H-M "C 2/M"
_symmetry_group_IT_number 12
_symmetry_cell_setting 'monoclinic'
loop_
_space_group_symop_operation_xyz
x,y,z
-x,y,-z
-x,-y,-z
x,-y,z
1/2+x,1/2+y,z
1/2-x,1/2+y,-z
1/2-x,1/2-y,-z
1/2+x,1/2-y,z
loop_
_atom_site_type_symbol
_atom_site_label
_atom_site_fract_x
_atom_site_fract_y
_atom_site_fract_z
Si Si1 0.500000 0.344051 0.500000
Si Si2 0.449488 0.000000 0.233153
Si Si3 0.671581 0.500000 0.890312
Si Si4 0.361696 0.615565 0.787566
Si Si5 0.640618 0.276322 0.837937
Si Si6 0.761094 0.620539 0.642357
Si Si7 0.096332 0.635521 0.978858
O O1 0.566965 0.387019 0.382362
O O2 0.554029 0.298082 0.690196
O O3 0.500000 0.000000 0.500000
O O4 0.400036 0.069116 0.181135
O O5 0.500000 0.000000 0.000000
O O6 0.622205 0.559094 0.016632
O O7 0.725425 0.559009 0.779926
O O8 0.273004 0.605185 0.629554
O O9 0.359464 0.687781 0.908495
O O10 0.712985 0.311767 0.711706
O O11 0.640735 0.197386 0.866811
O O12 0.856142 0.625575 0.754820
O O13 0.000000 0.650882 0.000000
#
# Coordination Sequence:
#
# PCOD9201787 Si02
#       7
#     4   4   4   8   8   8   8
#     4  10  20  37  64  93 134 164 218 278 326 421
#     4  10  25  49  68 105 144 184 245 300 362 430
#     4  10  21  40  62  87 129 177 212 268 336 399
#     4  10  21  39  63  95 131 173 224 274 343 410
#     4  10  22  41  65  97 132 175 222 279 352 415
#     4  10  22  42  63  96 133 173 231 281 342 419
#     4  11  23  44  68  98 134 176 231 289 355 416
#
# _framework density 24.157962999999999
#
# number of rings (size 3 to 8) (size 9 to 14) (size 15 to 20)
#    0.000    1.818    0.000    3.273    1.273    1.091 
#   22.909   11.818    0.000    0.000    0.000    0.000 
#    0.000    0.000    0.000    0.000    0.000    0.000 
#
# Total GULP energy -122569.161548 kJ/mol
# GULP energy per Si atom -5571.325525 kJ/mol
# Density = 2.410298 g / cm^3
# Si number density = 24.157963 Si / 1000 Ang^3
#
#
#
# Elastic Constant Matrix: (Units=GPa)
#
#
# Indices 1 2 3 4 5 6 
#
# 1 90.1967 9.8070 32.7935 0.0000 18.9948 0.0000
# 2 9.8070 167.1791 -5.1394 0.0000 -9.0994 0.0000
# 3 32.7935 -5.1394 60.0350 0.0000 22.1918 0.0000
# 4 0.0000 0.0000 0.0000 95.6737 0.0000 -34.6838
# 5 18.9948 -9.0994 22.1918 0.0000 49.5547 0.0000
# 6 0.0000 0.0000 0.0000 -34.6838 0.0000 34.1380
#
#
#
# Elastic Compliance Matrix: (Units=1/GPa)
#
#
# Indices 1 2 3 4 5 6 
#
# 1 0.014288 -0.001192 -0.006952 0.000000 -0.002582 0.000000
# 2 -0.001192 0.006142 0.000709 0.000000 0.001268 0.000000
# 3 -0.006952 0.000709 0.023347 0.000000 -0.007660 0.000000
# 4 0.000000 0.000000 0.000000 0.016547 0.000000 0.016811
# 5 -0.002582 0.001268 -0.007660 0.000000 0.024833 0.000000
# 6 0.000000 0.000000 0.000000 0.016811 0.000000 0.046373
#
#
# Mechanical properties :
#
#
# Convention : Reuss Voigt Hill
#
# Bulk Modulus (GPa) = 34.59599 43.59256 39.09428
# Shear Modulus (GPa) = 32.04376 54.53657 43.29017
#
# Velocity S-wave (km/s) = 3.64597 4.75647 4.23775
# Velocity P-wave (km/s) = 5.66356 6.94617 6.33740
#
# Compressibility (1/GPa) = 0.02890508
#
# Stress axis : x y z
#
# Youngs Moduli (GPa) = 69.98869 162.80444 42.83246
#
# Poissons Ratio (x) = 0.19413 0.29778
# Poissons Ratio (y) = 0.08346 -0.03035
# Poissons Ratio (z) = 0.48658 -0.11536
#
# Static dielectric constant tensor:
#      x y z
#    x 1.951960 0.000000 -0.001910 
#    y 0.000000 1.879550 0.000000 
#    z -0.001910 0.000000 1.995870 
# 
# From -- ./inp_files/16179.got.cif
#   From: 2010.05.17/outbox.cif.g08.bks.cpg/sg12_9_cif.got.tgz:16179.got - 2010.06.03 13:09:07.
