data_PCOD9201726
_publ_section_title
;
Structure prediction by ZEFSAII (Michael W. Deem and Ramdas Pophale) SiO2 
 PCOD9201726
Probable space group: C 2/M
;
_chemical_formula_sum "Si O2"
_cell_formula_units_Z 52
_cell_length_a 23.350534
_cell_length_b 13.407887
_cell_length_c 12.102787
_cell_angle_alpha 90.000000
_cell_angle_beta 36.799789
_cell_angle_gamma 90.000000
_cell_volume 2269.783015
_symmetry_space_group_name_H-M "C 2/M"
_symmetry_group_IT_number 12
_symmetry_cell_setting 'monoclinic'
loop_
_space_group_symop_operation_xyz
x,y,z
-x,y,-z
-x,-y,-z
x,-y,z
1/2+x,1/2+y,z
1/2-x,1/2+y,-z
1/2-x,1/2-y,-z
1/2+x,1/2-y,z
loop_
_atom_site_type_symbol
_atom_site_label
_atom_site_fract_x
_atom_site_fract_y
_atom_site_fract_z
Si Si1 0.969078 0.614817 0.672431
Si Si2 0.000000 0.281807 0.000000
Si Si3 0.194026 0.785174 0.790792
Si Si4 0.382589 0.181533 0.381704
Si Si5 0.219545 0.112154 0.215527
Si Si6 0.053078 0.107323 0.637374
Si Si7 0.649839 0.688934 0.093987
O O1 0.935551 0.500000 0.725718
O O2 0.061891 0.625923 0.606360
O O3 0.000000 0.640348 0.500000
O O4 0.896164 0.699216 0.828577
O O5 0.916838 0.215736 0.070836
O O6 0.935720 0.345478 0.185718
O O7 0.269446 0.823703 0.583239
O O8 0.220704 0.671780 0.784525
O O9 0.206667 0.833173 0.892753
O O10 0.410284 0.298688 0.350025
O O11 0.114253 0.110772 0.431100
O O12 0.205394 0.163746 0.119305
O O13 0.254349 0.000000 0.149531
O O14 0.944003 0.121240 0.772572
O O15 0.069504 0.000000 0.666224
#
# Coordination Sequence:
#
# PCOD9201726 Si02
#       7
#     8   4   8   8   8   8   8
#     4  10  20  37  63  96 133 170 211 260 321 389
#     4  12  22  46  68  90 120 180 218 270 316 374
#     4  11  23  39  64  93 125 168 221 263 322 379
#     4  10  22  42  65  92 126 165 219 263 320 379
#     4  10  21  36  61  98 133 168 213 266 320 383
#     4   9  17  34  61  93 127 163 206 257 319 383
#     4  11  19  36  61  95 131 168 208 261 326 383
#
# _framework density 22.909678
#
# number of rings (size 3 to 8) (size 9 to 14) (size 15 to 20)
#    0.000    1.692    3.077    4.615    0.000    1.846 
#    0.000    5.000    0.000    1.846    0.000    0.000 
#    0.000    0.000    0.000    0.000    0.000    0.000 
#
# Total GULP energy -145100.302305 kJ/mol
# GULP energy per Si atom -5580.780858 kJ/mol
# Density = 2.285753 g / cm^3
# Si number density = 22.909678 Si / 1000 Ang^3
#
#
#
# Elastic Constant Matrix: (Units=GPa)
#
#
# Indices 1 2 3 4 5 6 
#
# 1 77.4210 -13.4603 39.5914 0.0000 0.1136 0.0000
# 2 -13.4603 73.7342 2.4525 0.0000 -0.9549 0.0000
# 3 39.5914 2.4525 181.4987 0.0000 0.1182 0.0000
# 4 0.0000 0.0000 0.0000 -2.5936 0.0000 -6.4245
# 5 0.1136 -0.9549 0.1182 0.0000 41.7867 0.0000
# 6 0.0000 0.0000 0.0000 -6.4245 0.0000 -4.0588
#
#
#
# Elastic Compliance Matrix: (Units=1/GPa)
#
#
# Indices 1 2 3 4 5 6 
#
# 1 0.015122 0.002872 -0.003338 0.000000 0.000034 0.000000
# 2 0.002872 0.014118 -0.000817 0.000000 0.000317 0.000000
# 3 -0.003338 -0.000817 0.006249 0.000000 -0.000027 0.000000
# 4 0.000000 0.000000 0.000000 0.132003 0.000000 -0.208942
# 5 0.000034 0.000317 -0.000027 0.000000 0.023938 0.000000
# 6 0.000000 0.000000 0.000000 -0.208942 0.000000 0.084349
#
#
# Mechanical properties :
#
#
# Convention : Reuss Voigt Hill
#
# Bulk Modulus (GPa) = 30.37382 43.31346 36.84364
# Shear Modulus (GPa) = 17.28192 27.29822 22.29007
#
# Velocity S-wave (km/s) = 2.74952 3.45564 3.12261
# Velocity P-wave (km/s) = 4.83391 5.90501 5.39610
#
# Compressibility (1/GPa) = 0.03292308
#
# Stress axis : x y z
#
# Youngs Moduli (GPa) = 66.12694 70.83246 160.03096
#
# Poissons Ratio (x) = -0.20344 0.53412
# Poissons Ratio (y) = -0.18992 0.13082
# Poissons Ratio (z) = 0.22070 0.05790
#
# Static dielectric constant tensor:
#      x y z
#    x 1.839670 0.000000 0.017020 
#    y 0.000000 1.889060 0.000000 
#    z 0.017020 0.000000 1.938190 
# 
# From -- ./inp_files/176398.got.cif
#   From: 2010.05.17/outbox.cif.g08.bks.cpg/sg12_89_cif.got.tgz:176398.got - 2010.06.03 13:09:07.
