data_PCOD9201750
_publ_section_title
;
Structure prediction by ZEFSAII (Michael W. Deem and Ramdas Pophale) SiO2 
 PCOD9201750
Probable space group: C 2/M
;
_chemical_formula_sum "Si O2"
_cell_formula_units_Z 64
_cell_length_a 9.883151
_cell_length_b 16.246047
_cell_length_c 31.151376
_cell_angle_alpha 90.000000
_cell_angle_beta 38.090470
_cell_angle_gamma 90.000000
_cell_volume 3085.593025
_symmetry_space_group_name_H-M "C 2/M"
_symmetry_group_IT_number 12
_symmetry_cell_setting 'monoclinic'
loop_
_space_group_symop_operation_xyz
x,y,z
-x,y,-z
-x,-y,-z
x,-y,z
1/2+x,1/2+y,z
1/2-x,1/2+y,-z
1/2-x,1/2-y,-z
1/2+x,1/2-y,z
loop_
_atom_site_type_symbol
_atom_site_label
_atom_site_fract_x
_atom_site_fract_y
_atom_site_fract_z
Si Si1 0.413998 0.904367 0.389027
Si Si2 0.173699 0.900333 0.364311
Si Si3 0.164480 0.600389 0.495846
Si Si4 0.863912 0.399468 0.992092
Si Si5 0.865397 0.904008 0.131656
Si Si6 0.577588 0.820452 0.777584
Si Si7 0.374769 0.625848 0.230521
Si Si8 0.670756 0.906932 0.839704
O O1 0.263281 0.870516 0.388212
O O2 0.390961 0.868408 0.442388
O O3 0.662892 0.900828 0.310306
O O4 0.346437 0.000000 0.409903
O O5 0.312416 0.860209 0.291742
O O6 0.917636 0.881145 0.423037
O O7 0.201226 0.000000 0.355466
O O8 0.144663 0.500000 0.501393
O O9 0.000000 0.630476 0.500000
O O10 0.870095 0.500000 0.990890
O O11 0.610072 0.376006 0.058211
O O12 0.000000 0.372137 0.000000
O O13 0.988303 0.373095 0.918023
O O14 0.674636 0.849511 0.159035
O O15 0.846446 0.898433 0.188012
O O16 0.838004 0.000000 0.126107
O O17 0.601984 0.723446 0.771125
O O18 0.690876 0.854100 0.792134
O O19 0.600563 0.590359 0.192221
O O20 0.608903 0.000000 0.842672
#
# Coordination Sequence:
#
# PCOD9201750 Si02
#       8
#     8   8   8   8   8   8   8   8
#     4  10  20  37  64  90 116 162 213 247 293 365
#     4  10  20  38  63  87 120 164 207 247 297 366
#     4   9  19  35  58  94 127 152 197 260 307 348
#     4   9  18  36  64  93 116 151 209 266 304 357
#     4  11  21  42  69  88 117 164 214 253 302 375
#     4  12  26  40  57  94 134 162 197 259 317 357
#     4  12  24  40  61  91 127 167 206 252 306 370
#     4  11  23  40  64  92 121 159 210 260 309 363
#
# _framework density 20.741557
#
# number of rings (size 3 to 8) (size 9 to 14) (size 15 to 20)
#    0.000    1.500    2.500    3.375    1.750    2.000 
#    0.000    6.250    0.000    0.000    0.000    0.000 
#    0.000    0.000    0.000    0.000    0.000    0.000 
#
# Total GULP energy -178906.349450 kJ/mol
# GULP energy per Si atom -5590.823420 kJ/mol
# Density = 2.069435 g / cm^3
# Si number density = 20.741557 Si / 1000 Ang^3
#
#
#
# Elastic Constant Matrix: (Units=GPa)
#
#
# Indices 1 2 3 4 5 6 
#
# 1 57.3400 10.0416 22.3779 -0.0076 10.2593 -0.0072
# 2 10.0416 48.0775 5.0784 0.0019 8.2749 0.0015
# 3 22.3779 5.0784 86.0820 0.0096 -1.4686 0.0004
# 4 -0.0076 0.0019 0.0096 -18.4088 -0.0009 -2.3184
# 5 10.2593 8.2749 -1.4686 -0.0009 30.4358 0.0023
# 6 -0.0072 0.0015 0.0004 -2.3184 0.0023 19.0283
#
#
#
# Elastic Compliance Matrix: (Units=1/GPa)
#
#
# Indices 1 2 3 4 5 6 
#
# 1 0.021249 -0.002708 -0.005478 -0.000012 -0.006691 0.000008
# 2 -0.002708 0.022333 -0.000702 0.000004 -0.005193 -0.000002
# 3 -0.005478 -0.000702 0.013128 0.000009 0.002671 -0.000001
# 4 -0.000012 0.000004 0.000009 -0.053501 0.000003 -0.006518
# 5 -0.006691 -0.005193 0.002671 0.000003 0.036652 -0.000006
# 6 0.000008 -0.000002 -0.000001 -0.006518 -0.000006 0.051759
#
#
# Mechanical properties :
#
#
# Convention : Reuss Voigt Hill
#
# Bulk Modulus (GPa) = 25.68475 29.61059 27.64767
# Shear Modulus (GPa) = 40.85784 16.47784 28.66784
#
# Velocity S-wave (km/s) = 4.44312 2.82163 3.72175
# Velocity P-wave (km/s) = 6.22349 4.99224 5.64156
#
# Compressibility (1/GPa) = 0.03893361
#
# Stress axis : x y z
#
# Youngs Moduli (GPa) = 47.06063 44.77618 76.17317
#
# Poissons Ratio (x) = 0.12125 0.41730
# Poissons Ratio (y) = 0.12743 0.05349
# Poissons Ratio (z) = 0.25781 0.03144
#
# Static dielectric constant tensor:
#      x y z
#    x 1.718680 0.000000 0.003290 
#    y 0.000000 1.751600 0.000000 
#    z 0.003290 0.000000 1.713700 
# 
# From -- ./inp_files/372951.got.cif
#   From: 2010.05.17/outbox.cif.g08.bks.cpg/sg12_187_cif.got.tgz:372951.got - 2010.06.03 13:09:07.
