data_PCOD9201384
_publ_section_title
;
Structure prediction by ZEFSAII (Michael W. Deem and Ramdas Pophale) SiO2 
 PCOD9201384
Probable space group: C 2/M
;
_chemical_formula_sum "Si O2"
_cell_formula_units_Z 48
_cell_length_a 18.549144
_cell_length_b 12.083879
_cell_length_c 11.550703
_cell_angle_alpha 90.000000
_cell_angle_beta 71.473786
_cell_angle_gamma 90.000000
_cell_volume 2454.871180
_symmetry_space_group_name_H-M "C 2/M"
_symmetry_group_IT_number 12
_symmetry_cell_setting 'monoclinic'
loop_
_space_group_symop_operation_xyz
x,y,z
-x,y,-z
-x,-y,-z
x,-y,z
1/2+x,1/2+y,z
1/2-x,1/2+y,-z
1/2-x,1/2-y,-z
1/2+x,1/2-y,z
loop_
_atom_site_type_symbol
_atom_site_label
_atom_site_fract_x
_atom_site_fract_y
_atom_site_fract_z
Si Si1 0.311345 0.874184 0.650766
Si Si2 0.079541 0.372131 0.027867
Si Si3 0.337224 0.712857 0.182310
Si Si4 0.121014 0.240609 0.580056
Si Si5 0.054663 0.000000 0.860229
Si Si6 0.555480 0.500000 0.587758
Si Si7 0.028612 0.627324 0.304006
O O1 0.249571 0.827463 0.771570
O O2 0.319588 0.796847 0.535836
O O3 0.395746 0.875536 0.659217
O O4 0.289136 0.000000 0.631775
O O5 0.105322 0.500000 0.025711
O O6 0.139221 0.297779 0.928948
O O7 0.056632 0.329060 0.165677
O O8 0.000000 0.371484 0.000000
O O9 0.353223 0.761126 0.301679
O O10 0.392804 0.607542 0.151325
O O11 0.106011 0.111644 0.560228
O O12 0.038915 0.299826 0.612102
O O13 0.023726 0.000000 0.740461
O O14 0.000000 0.000000 0.000000
O O15 0.500000 0.500000 0.500000
O O16 0.001166 0.500000 0.303970
#
# Coordination Sequence:
#
# PCOD9201384 Si02
#       7
#     8   8   8   8   4   4   8
#     4  11  23  40  60  87 124 156 199 251 304 356
#     4  10  20  37  62  87 117 150 198 248 296 356
#     4  11  22  39  60  89 121 160 195 250 303 359
#     4  11  22  39  62  88 118 158 207 242 299 365
#     4  10  22  38  64  92 117 161 216 247 297 371
#     4  10  22  38  60  88 126 157 198 260 304 357
#     4  10  21  38  64  91 115 153 202 252 297 354
#
# _framework density 19.552961
#
# number of rings (size 3 to 8) (size 9 to 14) (size 15 to 20)
#    0.000    1.500    2.500    3.000    2.333    2.667 
#    1.500    0.000    0.000    0.000    0.000    0.000 
#    0.000    0.000    0.000    0.000    0.000    0.000 
#
# Total GULP energy -133947.614178 kJ/mol
# GULP energy per Si atom -5581.150591 kJ/mol
# Density = 1.950846 g / cm^3
# Si number density = 19.552961 Si / 1000 Ang^3
#
#
#
# Elastic Constant Matrix: (Units=GPa)
#
#
# Indices 1 2 3 4 5 6 
#
# 1 39.1474 15.7557 11.8770 0.0000 -12.7385 0.0000
# 2 15.7557 86.3018 51.8592 0.0000 -25.6084 0.0000
# 3 11.8770 51.8592 127.1615 0.0000 -18.3807 0.0000
# 4 0.0000 0.0000 0.0000 27.9106 0.0000 0.6163
# 5 -12.7385 -25.6084 -18.3807 0.0000 36.5862 0.0000
# 6 0.0000 0.0000 0.0000 0.6163 0.0000 10.0963
#
#
#
# Elastic Compliance Matrix: (Units=1/GPa)
#
#
# Indices 1 2 3 4 5 6 
#
# 1 0.029410 -0.002665 -0.000485 0.000000 0.008131 0.000000
# 2 -0.002665 0.018265 -0.005916 0.000000 0.008884 0.000000
# 3 -0.000485 -0.005916 0.010458 0.000000 0.000945 0.000000
# 4 0.000000 0.000000 0.000000 0.035877 0.000000 -0.002190
# 5 0.008131 0.008884 0.000945 0.000000 0.036857 0.000000
# 6 0.000000 0.000000 0.000000 -0.002190 0.000000 0.099180
#
#
# Mechanical properties :
#
#
# Convention : Reuss Voigt Hill
#
# Bulk Modulus (GPa) = 24.99880 45.73271 35.36575
# Shear Modulus (GPa) = 19.11953 26.45987 22.78970
#
# Velocity S-wave (km/s) = 3.13042 3.68263 3.41770
# Velocity P-wave (km/s) = 5.08714 6.44378 5.80523
#
# Compressibility (1/GPa) = 0.04000193
#
# Stress axis : x y z
#
# Youngs Moduli (GPa) = 34.00210 54.74997 95.61709
#
# Poissons Ratio (x) = 0.14593 0.04634
# Poissons Ratio (y) = 0.09063 0.56564
# Poissons Ratio (z) = 0.01648 0.32388
#
# Static dielectric constant tensor:
#      x y z
#    x 1.713860 0.000000 0.033170 
#    y 0.000000 1.701990 0.000000 
#    z 0.033170 0.000000 1.688950 
# 
# From -- ./inp_files/164734.got.cif
#   From: 2010.05.17/outbox.cif.g08.bks.cpg/sg12_83_cif.got.tgz:164734.got - 2010.06.03 13:09:07.
