data_PCOD9201165
_publ_section_title
;
Structure prediction by ZEFSAII (Michael W. Deem and Ramdas Pophale) SiO2 
 PCOD9201165
Probable space group: C 2/M
;
_chemical_formula_sum "Si O2"
_cell_formula_units_Z 64
_cell_length_a 28.112201
_cell_length_b 15.775922
_cell_length_c 20.036965
_cell_angle_alpha 90.000000
_cell_angle_beta 21.738587
_cell_angle_gamma 90.000000
_cell_volume 3291.244712
_symmetry_space_group_name_H-M "C 2/M"
_symmetry_group_IT_number 12
_symmetry_cell_setting 'monoclinic'
loop_
_space_group_symop_operation_xyz
x,y,z
-x,y,-z
-x,-y,-z
x,-y,z
1/2+x,1/2+y,z
1/2-x,1/2+y,-z
1/2-x,1/2-y,-z
1/2+x,1/2-y,z
loop_
_atom_site_type_symbol
_atom_site_label
_atom_site_fract_x
_atom_site_fract_y
_atom_site_fract_z
Si Si1 0.714429 0.099239 0.521509
Si Si2 0.322332 0.701560 0.592054
Si Si3 0.291014 0.823043 0.997284
Si Si4 0.167127 0.236713 0.917806
Si Si5 0.366649 0.904909 0.648695
Si Si6 0.118317 0.259666 0.742857
Si Si7 0.525146 0.400702 0.392065
Si Si8 0.549194 0.873018 0.608083
O O1 0.823581 0.171766 0.364432
O O2 0.630883 0.153941 0.682912
O O3 0.632022 0.094733 0.561637
O O4 0.748032 0.000000 0.495736
O O5 0.264003 0.717797 0.740935
O O6 0.204869 0.714778 0.693858
O O7 0.410965 0.620587 0.488727
O O8 0.422947 0.773087 0.437552
O O9 0.347485 0.781641 0.991724
O O10 0.160702 0.868096 0.188809
O O11 0.250000 0.750000 0.000000
O O12 0.399327 0.880788 0.820543
O O13 0.239463 0.146864 0.832210
O O14 0.031122 0.237479 0.057381
O O15 0.500000 0.863244 0.500000
O O16 0.392142 0.909110 0.536362
O O17 0.359107 0.000000 0.686266
O O18 0.500000 0.365397 0.500000
O O19 0.533992 0.500000 0.387046
#
# Coordination Sequence:
#
# PCOD9201165 Si02
#       8
#     8   8   8   8   8   8   8   8
#     4  10  21  38  61  87 125 166 205 264 323 377
#     4  10  21  40  64  85 121 165 206 256 312 375
#     4  12  22  36  64  93 120 161 208 256 316 379
#     4  11  22  39  63  87 124 163 206 262 310 376
#     4  10  22  38  59  91 127 163 207 259 318 379
#     4  10  22  40  61  94 123 163 221 259 315 387
#     4  11  24  41  62  91 126 165 209 260 319 381
#     4  10  20  37  61  87 119 162 204 249 314 383
#
# _framework density 19.445530999999999
#
# number of rings (size 3 to 8) (size 9 to 14) (size 15 to 20)
#    0.000    1.500    3.750    1.500    1.750    2.000 
#    0.000    1.250    0.000    6.000    0.000    0.000 
#    0.000    0.000    0.000    0.000    0.000    0.000 
#
# Total GULP energy -178146.377354 kJ/mol
# GULP energy per Si atom -5567.074292 kJ/mol
# Density = 1.940127 g / cm^3
# Si number density = 19.445531 Si / 1000 Ang^3
#
#
#
# Elastic Constant Matrix: (Units=GPa)
#
#
# Indices 1 2 3 4 5 6 
#
# 1 64.4886 20.9045 9.4610 0.0000 -12.0000 0.0000
# 2 20.9045 96.4014 34.2325 0.0000 -4.2235 0.0000
# 3 9.4610 34.2325 99.0643 0.0000 -20.9128 0.0000
# 4 0.0000 0.0000 0.0000 -5.9129 0.0000 2.1701
# 5 -12.0000 -4.2235 -20.9128 0.0000 31.3094 0.0000
# 6 0.0000 0.0000 0.0000 2.1701 0.0000 7.0677
#
#
#
# Elastic Compliance Matrix: (Units=1/GPa)
#
#
# Indices 1 2 3 4 5 6 
#
# 1 0.017956 -0.003997 0.001170 0.000000 0.007125 0.000000
# 2 -0.003997 0.012761 -0.004643 0.000000 -0.002912 0.000000
# 3 0.001170 -0.004643 0.013445 0.000000 0.008803 0.000000
# 4 0.000000 0.000000 0.000000 -0.151994 0.000000 0.046670
# 5 0.007125 -0.002912 0.008803 0.000000 0.040157 0.000000
# 6 0.000000 0.000000 0.000000 0.046670 0.000000 0.127158
#
#
# Mechanical properties :
#
#
# Convention : Reuss Voigt Hill
#
# Bulk Modulus (GPa) = 34.21850 43.23892 38.72871
# Shear Modulus (GPa) = 59.40764 19.51661 39.46212
#
# Velocity S-wave (km/s) = 5.53327 3.17149 4.50974
# Velocity P-wave (km/s) = 7.64579 5.97456 6.86125
#
# Compressibility (1/GPa) = 0.02922396
#
# Stress axis : x y z
#
# Youngs Moduli (GPa) = 55.69031 78.36287 74.37540
#
# Poissons Ratio (x) = 0.31324 -0.08705
# Poissons Ratio (y) = 0.22261 0.34530
# Poissons Ratio (z) = -0.06518 0.36381
#
# Static dielectric constant tensor:
#      x y z
#    x 1.726330 0.000000 0.012670 
#    y 0.000000 1.708840 0.000000 
#    z 0.012670 0.000000 1.690930 
# 
# From -- ./inp_files/330361.got.cif
#   From: 2010.05.17/outbox.cif.g08.bks.cpg/sg12_166_cif.got.tgz:330361.got - 2010.06.03 13:09:07.
