data_PCOD9201380
_publ_section_title
;
Structure prediction by ZEFSAII (Michael W. Deem and Ramdas Pophale) SiO2 
 PCOD9201380
Probable space group: C 2/M
;
_chemical_formula_sum "Si O2"
_cell_formula_units_Z 64
_cell_length_a 28.968124
_cell_length_b 14.826098
_cell_length_c 9.135907
_cell_angle_alpha 90.000000
_cell_angle_beta 46.426420
_cell_angle_gamma 90.000000
_cell_volume 2842.700921
_symmetry_space_group_name_H-M "C 2/M"
_symmetry_group_IT_number 12
_symmetry_cell_setting 'monoclinic'
loop_
_space_group_symop_operation_xyz
x,y,z
-x,y,-z
-x,-y,-z
x,-y,z
1/2+x,1/2+y,z
1/2-x,1/2+y,-z
1/2-x,1/2-y,-z
1/2+x,1/2-y,z
loop_
_atom_site_type_symbol
_atom_site_label
_atom_site_fract_x
_atom_site_fract_y
_atom_site_fract_z
Si Si1 0.776485 0.602494 0.710237
Si Si2 0.230295 0.338328 0.956355
Si Si3 0.643475 0.390478 0.853765
Si Si4 0.895741 0.253427 0.860480
Si Si5 0.099143 0.609333 0.716208
Si Si6 0.848640 0.106002 0.496493
Si Si7 0.469948 0.107766 0.833982
Si Si8 0.069713 0.103062 0.421754
O O1 0.776623 0.500000 0.657054
O O2 0.782934 0.600406 0.871853
O O3 0.707782 0.633816 0.803798
O O4 0.836385 0.647330 0.496741
O O5 0.167360 0.315328 0.002658
O O6 0.250000 0.250000 0.000000
O O7 0.288763 0.363446 0.724586
O O8 0.631014 0.500000 0.893104
O O9 0.650204 0.360988 0.671518
O O10 0.593989 0.322406 0.036451
O O11 0.951599 0.326294 0.743878
O O12 0.893300 0.187033 0.727843
O O13 0.101340 0.500000 0.707687
O O14 0.038872 0.631853 0.747077
O O15 0.080565 0.629533 0.924250
O O16 0.915221 0.115516 0.439483
O O17 0.838282 0.000000 0.501828
O O18 0.467294 0.000000 0.809641
O O19 0.000000 0.106507 0.500000
O O20 0.094036 0.000000 0.334790
#
# Coordination Sequence:
#
# PCOD9201380 Si02
#       8
#     8   8   8   8   8   8   8   8
#     4  10  20  37  62  87 116 158 205 250 303 361
#     4  12  23  37  55  86 126 160 196 245 304 369
#     4  10  22  40  64  93 122 156 203 260 310 360
#     4  12  24  39  61  94 125 161 203 253 307 361
#     4   8  17  38  62  84 115 159 203 249 299 355
#     4  10  22  42  64  87 121 162 203 253 311 365
#     4   9  20  39  60  88 125 162 203 248 302 358
#     4  10  22  44  68  88 120 166 206 247 303 369
#
# _framework density 22.5138
#
# number of rings (size 3 to 8) (size 9 to 14) (size 15 to 20)
#    0.000    1.875    2.500    1.500    1.750    5.500 
#    4.500    0.000    0.000    5.625    0.000    0.000 
#    0.000    0.000    0.000    0.000    0.000    0.000 
#
# Total GULP energy -178345.363007 kJ/mol
# GULP energy per Si atom -5573.292594 kJ/mol
# Density = 2.246256 g / cm^3
# Si number density = 22.513800 Si / 1000 Ang^3
#
#
#
# Elastic Constant Matrix: (Units=GPa)
#
#
# Indices 1 2 3 4 5 6 
#
# 1 85.0710 37.8212 13.6763 0.0000 10.5494 0.0000
# 2 37.8212 65.7145 14.7814 0.0000 1.0978 0.0000
# 3 13.6763 14.7814 51.9268 0.0000 13.2477 0.0000
# 4 0.0000 0.0000 0.0000 19.6629 0.0000 -0.8307
# 5 10.5494 1.0978 13.2477 0.0000 28.3320 0.0000
# 6 0.0000 0.0000 0.0000 -0.8307 0.0000 11.5985
#
#
#
# Elastic Compliance Matrix: (Units=1/GPa)
#
#
# Indices 1 2 3 4 5 6 
#
# 1 0.016717 -0.009471 -0.000241 0.000000 -0.005745 0.000000
# 2 -0.009471 0.021700 -0.004960 0.000000 0.005005 0.000000
# 3 -0.000241 -0.004960 0.023460 0.000000 -0.010688 0.000000
# 4 0.000000 0.000000 0.000000 0.051012 0.000000 0.003653
# 5 -0.005745 0.005005 -0.010688 0.000000 0.042238 0.000000
# 6 0.000000 0.000000 0.000000 0.003653 0.000000 0.086479
#
#
# Mechanical properties :
#
#
# Convention : Reuss Voigt Hill
#
# Bulk Modulus (GPa) = 30.73764 37.25223 33.99494
# Shear Modulus (GPa) = 17.74349 21.01424 19.37886
#
# Velocity S-wave (km/s) = 2.81039 3.05846 2.93705
# Velocity P-wave (km/s) = 4.92072 5.39023 5.16082
#
# Compressibility (1/GPa) = 0.03253340
#
# Stress axis : x y z
#
# Youngs Moduli (GPa) = 59.82067 46.08269 42.62608
#
# Poissons Ratio (x) = 0.43644 0.01028
# Poissons Ratio (y) = 0.56655 0.21141
# Poissons Ratio (z) = 0.01443 0.22855
#
# Static dielectric constant tensor:
#      x y z
#    x 1.859990 0.000000 0.016330 
#    y 0.000000 1.673050 0.000000 
#    z 0.016330 0.000000 2.065530 
# 
# From -- ./inp_files/111996.got.cif
#   From: 2010.05.17/outbox.cif.g08.bks.cpg/sg12_56_cif.got.tgz:111996.got - 2010.06.03 13:09:07.
