data_PCOD9201804
_publ_section_title
;
Structure prediction by ZEFSAII (Michael W. Deem and Ramdas Pophale) SiO2 
 PCOD9201804
Probable space group: C 2/M
;
_chemical_formula_sum "Si O2"
_cell_formula_units_Z 50
_cell_length_a 25.394635
_cell_length_b 7.358716
_cell_length_c 12.343133
_cell_angle_alpha 90.000000
_cell_angle_beta 120.134130
_cell_angle_gamma 90.000000
_cell_volume 1994.855693
_symmetry_space_group_name_H-M "C 2/M"
_symmetry_group_IT_number 12
_symmetry_cell_setting 'monoclinic'
loop_
_space_group_symop_operation_xyz
x,y,z
-x,y,-z
-x,-y,-z
x,-y,z
1/2+x,1/2+y,z
1/2-x,1/2+y,-z
1/2-x,1/2-y,-z
1/2+x,1/2-y,z
loop_
_atom_site_type_symbol
_atom_site_label
_atom_site_fract_x
_atom_site_fract_y
_atom_site_fract_z
Si Si1 0.085911 0.791925 0.161978
Si Si2 0.032600 0.720618 0.335071
Si Si3 0.396412 0.221532 0.228037
Si Si4 0.698933 0.215191 0.037597
Si Si5 0.281214 0.296138 0.696179
Si Si6 0.500000 0.000000 0.000000
Si Si7 0.150962 0.722174 0.590761
O O1 0.044615 0.783633 0.226212
O O2 0.152893 0.719163 0.266054
O O3 0.053085 0.657889 0.046478
O O4 0.091797 0.000000 0.131300
O O5 0.032086 0.500000 0.331623
O O6 0.090207 0.777660 0.465492
O O7 0.966527 0.778277 0.308179
O O8 0.358468 0.278651 0.294419
O O9 0.395764 0.000000 0.227615
O O10 0.363087 0.279195 0.083928
O O11 0.714600 0.302016 0.168242
O O12 0.695199 0.000000 0.053559
O O13 0.750000 0.250000 0.000000
O O14 0.280147 0.500000 0.649934
O O15 0.214889 0.213055 0.606624
O O16 0.153367 0.500000 0.591828
#
# Coordination Sequence:
#
# PCOD9201804 Si02
#       7
#     8   8   8   8   8   2   8
#     4  11  26  44  67  99 132 170 215 267 322 384
#     4  10  20  37  64  94 126 171 220 263 322 387
#     4   9  18  32  57  91 122 161 216 269 319 386
#     4  11  21  34  57  86 123 163 210 263 327 390
#     4  10  22  40  61  91 128 166 213 267 324 383
#     4  12  26  48  72  90 134 168 216 260 322 396
#     4   9  17  35  62  91 126 169 216 268 319 383
#
# _framework density 25.064471000000001
#
# number of rings (size 3 to 8) (size 9 to 14) (size 15 to 20)
#    0.000    1.920    2.400    1.200    3.360    2.560 
#    0.000    1.600    0.000    0.960    0.000    0.000 
#    0.000    0.000    0.000    0.000    0.000    0.000 
#
# Total GULP energy -139593.312263 kJ/mol
# GULP energy per Si atom -5583.732491 kJ/mol
# Density = 2.500742 g / cm^3
# Si number density = 25.064471 Si / 1000 Ang^3
#
#
#
# Elastic Constant Matrix: (Units=GPa)
#
#
# Indices 1 2 3 4 5 6 
#
# 1 102.2360 11.6122 14.5759 0.0000 45.0831 0.0000
# 2 11.6122 117.9153 18.9477 0.0000 14.3711 0.0000
# 3 14.5759 18.9477 92.1285 0.0000 37.3622 0.0000
# 4 0.0000 0.0000 0.0000 11.4630 0.0000 -1.0808
# 5 45.0831 14.3711 37.3622 0.0000 60.6327 0.0000
# 6 0.0000 0.0000 0.0000 -1.0808 0.0000 6.3011
#
#
#
# Elastic Compliance Matrix: (Units=1/GPa)
#
#
# Indices 1 2 3 4 5 6 
#
# 1 0.015124 -0.000382 0.002946 0.000000 -0.012970 0.000000
# 2 -0.000382 0.008856 -0.001366 0.000000 -0.000973 0.000000
# 3 0.002946 -0.001366 0.015233 0.000000 -0.011253 0.000000
# 4 0.000000 0.000000 0.000000 0.088672 0.000000 0.015210
# 5 -0.012970 -0.000973 -0.011253 0.000000 0.033301 0.000000
# 6 0.000000 0.000000 0.000000 0.015210 0.000000 0.161311
#
#
# Mechanical properties :
#
#
# Convention : Reuss Voigt Hill
#
# Bulk Modulus (GPa) = 24.03375 44.72793 34.38084
# Shear Modulus (GPa) = 14.97132 33.48896 24.23014
#
# Velocity S-wave (km/s) = 2.44665 3.65925 3.11257
# Velocity P-wave (km/s) = 4.19417 5.97808 5.16374
#
# Compressibility (1/GPa) = 0.04160816
#
# Stress axis : x y z
#
# Youngs Moduli (GPa) = 66.11947 112.91207 65.64704
#
# Poissons Ratio (x) = 0.04313 -0.19337
# Poissons Ratio (y) = 0.02526 0.08970
# Poissons Ratio (z) = -0.19477 0.15428
#
# Static dielectric constant tensor:
#      x y z
#    x 1.944010 0.000000 0.021380 
#    y 0.000000 1.956200 0.000000 
#    z 0.021380 0.000000 1.997290 
# 
# From -- ./inp_files/237233.got.cif
#   From: 2010.05.17/outbox.cif.g08.bks.cpg/sg12_119_cif.got.tgz:237233.got - 2010.06.03 13:09:07.
