data_PCOD9201212
_publ_section_title
;
Structure prediction by ZEFSAII (Michael W. Deem and Ramdas Pophale) SiO2 
 PCOD9201212
Probable space group: C 2/M
;
_chemical_formula_sum "Si O2"
_cell_formula_units_Z 48
_cell_length_a 8.268197
_cell_length_b 13.016247
_cell_length_c 18.219088
_cell_angle_alpha 90.000000
_cell_angle_beta 111.640577
_cell_angle_gamma 90.000000
_cell_volume 1822.551832
_symmetry_space_group_name_H-M "C 2/M"
_symmetry_group_IT_number 12
_symmetry_cell_setting 'monoclinic'
loop_
_space_group_symop_operation_xyz
x,y,z
-x,y,-z
-x,-y,-z
x,-y,z
1/2+x,1/2+y,z
1/2-x,1/2+y,-z
1/2-x,1/2-y,-z
1/2+x,1/2-y,z
loop_
_atom_site_type_symbol
_atom_site_label
_atom_site_fract_x
_atom_site_fract_y
_atom_site_fract_z
Si Si1 0.349548 0.117591 0.315960
Si Si2 0.593012 0.670522 0.626990
Si Si3 0.262256 0.619685 0.503918
Si Si4 0.607397 0.117134 0.217778
Si Si5 0.037832 0.880285 0.160226
Si Si6 0.295623 0.222586 0.090526
O O1 0.412829 0.204537 0.382715
O O2 0.479947 0.124848 0.268160
O O3 0.160151 0.141849 0.250371
O O4 0.355517 0.000000 0.341007
O O5 0.403984 0.620683 0.593462
O O6 0.678383 0.616528 0.571124
O O7 0.709786 0.655045 0.718097
O O8 0.182990 0.500000 0.497986
O O9 0.250000 0.750000 0.500000
O O10 0.480932 0.165683 0.134952
O O11 0.632716 0.000000 0.202397
O O12 0.146250 0.838604 0.107813
O O13 0.848964 0.830912 0.135341
O O14 0.024639 0.000000 0.149781
O O15 0.250000 0.250000 0.000000
#
# Coordination Sequence:
#
# PCOD9201212 Si02
#       6
#     8   8   8   8   8   8
#     4   9  19  36  61  92 124 164 213 265 325 394
#     4  11  20  38  65  90 121 161 209 261 322 393
#     4  11  25  42  63  93 127 165 208 262 328 399
#     4  10  20  37  61  88 121 165 214 265 326 391
#     4  10  22  43  67  94 133 178 226 283 345 407
#     4  11  22  38  65  97 131 176 228 276 341 411
#
# _framework density 26.336698999999999
#
# number of rings (size 3 to 8) (size 9 to 14) (size 15 to 20)
#    0.000    1.667    1.667    5.000    0.000    4.667 
#    0.000    3.333    0.000    5.000    0.000    0.000 
#    0.000    0.000    0.000    0.000    0.000    0.000 
#
# Total GULP energy -133768.357621 kJ/mol
# GULP energy per Si atom -5573.681568 kJ/mol
# Density = 2.627676 g / cm^3
# Si number density = 26.336699 Si / 1000 Ang^3
#
#
#
# Elastic Constant Matrix: (Units=GPa)
#
#
# Indices 1 2 3 4 5 6 
#
# 1 38.6762 15.7661 33.2118 0.0000 10.0346 0.0000
# 2 15.7661 192.6058 60.7617 0.0000 2.1609 0.0000
# 3 33.2118 60.7617 171.6574 0.0000 7.4733 0.0000
# 4 0.0000 0.0000 0.0000 18.0654 0.0000 -14.2424
# 5 10.0346 2.1609 7.4733 0.0000 36.3551 0.0000
# 6 0.0000 0.0000 0.0000 -14.2424 0.0000 31.7568
#
#
#
# Elastic Compliance Matrix: (Units=1/GPa)
#
#
# Indices 1 2 3 4 5 6 
#
# 1 0.033219 -0.000801 -0.005798 0.000000 -0.007929 0.000000
# 2 -0.000801 0.005864 -0.001933 0.000000 0.000270 0.000000
# 3 -0.005798 -0.001933 0.007625 0.000000 0.000148 0.000000
# 4 0.000000 0.000000 0.000000 0.085632 0.000000 0.038404
# 5 -0.007929 0.000270 0.000148 0.000000 0.029649 0.000000
# 6 0.000000 0.000000 0.000000 0.038404 0.000000 0.048713
#
#
# Mechanical properties :
#
#
# Convention : Reuss Voigt Hill
#
# Bulk Modulus (GPa) = 33.73346 69.15761 51.44554
# Shear Modulus (GPa) = 21.03966 36.78211 28.91088
#
# Velocity S-wave (km/s) = 2.82950 3.74118 3.31681
# Velocity P-wave (km/s) = 4.84882 6.70656 5.85188
#
# Compressibility (1/GPa) = 0.02964415
#
# Stress axis : x y z
#
# Youngs Moduli (GPa) = 30.10360 170.52793 131.14739
#
# Poissons Ratio (x) = 0.13659 0.76043
# Poissons Ratio (y) = 0.02411 0.25344
# Poissons Ratio (z) = 0.17455 0.32955
#
# Static dielectric constant tensor:
#      x y z
#    x 2.229850 0.000000 0.019710 
#    y 0.000000 2.177330 0.000000 
#    z 0.019710 0.000000 1.997510 
# 
# From -- ./inp_files/335372.got.cif
#   From: 2010.05.17/outbox.cif.g08.bks.cpg/sg12_168_cif.got.tgz:335372.got - 2010.06.03 13:09:07.
