data_PCOD9201637
_publ_section_title
;
Structure prediction by ZEFSAII (Michael W. Deem and Ramdas Pophale) SiO2 
 PCOD9201637
Probable space group: C 2/M
;
_chemical_formula_sum "Si O2"
_cell_formula_units_Z 56
_cell_length_a 23.575209
_cell_length_b 12.429909
_cell_length_c 11.957650
_cell_angle_alpha 90.000000
_cell_angle_beta 53.102118
_cell_angle_gamma 90.000000
_cell_volume 2802.206628
_symmetry_space_group_name_H-M "C 2/M"
_symmetry_group_IT_number 12
_symmetry_cell_setting 'monoclinic'
loop_
_space_group_symop_operation_xyz
x,y,z
-x,y,-z
-x,-y,-z
x,-y,z
1/2+x,1/2+y,z
1/2-x,1/2+y,-z
1/2-x,1/2-y,-z
1/2+x,1/2-y,z
loop_
_atom_site_type_symbol
_atom_site_label
_atom_site_fract_x
_atom_site_fract_y
_atom_site_fract_z
Si Si1 0.392678 0.802925 0.692475
Si Si2 0.897465 0.873445 0.863544
Si Si3 0.759819 0.870924 0.645800
Si Si4 0.260467 0.721951 0.118631
Si Si5 0.031899 0.377775 0.610539
Si Si6 0.856593 0.725617 0.375628
Si Si7 0.965915 0.872176 0.154524
O O1 0.387320 0.687150 0.757923
O O2 0.312397 0.844029 0.770913
O O3 0.447010 0.864805 0.710914
O O4 0.433885 0.805476 0.527513
O O5 0.976285 0.850414 0.816885
O O6 0.889911 0.000000 0.858089
O O7 0.837080 0.835008 0.023061
O O8 0.740894 0.819279 0.789672
O O9 0.819929 0.792376 0.520424
O O10 0.696804 0.847420 0.631747
O O11 0.775205 0.000000 0.633235
O O12 0.250000 0.750000 0.000000
O O13 0.047833 0.500000 0.560061
O O14 0.076603 0.345231 0.664643
O O15 0.890710 0.818275 0.260366
O O16 0.957454 0.000000 0.158499
O O17 0.000000 0.832462 0.000000
#
# Coordination Sequence:
#
# PCOD9201637 Si02
#       7
#     8   8   8   8   8   8   8
#     4  10  20  39  59  89 126 165 210 264 307 372
#     4  10  21  37  59  89 123 161 210 260 315 372
#     4  11  24  43  67  95 129 169 212 268 327 380
#     4  10  22  40  62  90 129 168 213 265 315 379
#     4  11  22  39  62  90 126 168 211 258 316 376
#     4  11  22  42  67  95 131 163 213 270 317 389
#     4  10  20  37  63  90 123 164 202 258 319 377
#
# _framework density 19.984251
#
# number of rings (size 3 to 8) (size 9 to 14) (size 15 to 20)
#    0.000    1.571    2.857    2.571    0.000    3.429 
#    0.000    6.429    0.000    1.714    0.000    0.000 
#    0.000    0.000    0.000    0.000    0.000    0.000 
#
# Total GULP energy -155891.259911 kJ/mol
# GULP energy per Si atom -5567.544997 kJ/mol
# Density = 1.993877 g / cm^3
# Si number density = 19.984251 Si / 1000 Ang^3
#
#
#
# Elastic Constant Matrix: (Units=GPa)
#
#
# Indices 1 2 3 4 5 6 
#
# 1 60.0489 33.9938 -11.9958 0.0000 -8.0279 0.0000
# 2 33.9938 79.3768 30.2050 0.0000 6.8379 0.0000
# 3 -11.9958 30.2050 57.4775 0.0000 1.2509 0.0000
# 4 0.0000 0.0000 0.0000 19.6800 0.0000 4.2206
# 5 -8.0279 6.8379 1.2509 0.0000 35.4480 0.0000
# 6 0.0000 0.0000 0.0000 4.2206 0.0000 17.4697
#
#
#
# Elastic Compliance Matrix: (Units=1/GPa)
#
#
# Indices 1 2 3 4 5 6 
#
# 1 0.035651 -0.023788 0.019681 0.000000 0.011968 0.000000
# 2 -0.023788 0.031891 -0.021489 0.000000 -0.010781 0.000000
# 3 0.019681 -0.021489 0.032636 0.000000 0.007451 0.000000
# 4 0.000000 0.000000 0.000000 0.053589 0.000000 -0.012947
# 5 0.011968 -0.010781 0.007451 0.000000 0.032737 0.000000
# 6 0.000000 0.000000 0.000000 -0.012947 0.000000 0.060370
#
#
# Mechanical properties :
#
#
# Convention : Reuss Voigt Hill
#
# Bulk Modulus (GPa) = 20.41398 33.47881 26.94640
# Shear Modulus (GPa) = 15.90345 24.16624 20.03485
#
# Velocity S-wave (km/s) = 2.82405 3.48122 3.16971
# Velocity P-wave (km/s) = 4.56847 5.73999 5.18741
#
# Compressibility (1/GPa) = 0.04898603
#
# Stress axis : x y z
#
# Youngs Moduli (GPa) = 28.04965 31.35634 30.64076
#
# Poissons Ratio (x) = 0.74590 -0.60304
# Poissons Ratio (y) = 0.66724 0.65845
# Poissons Ratio (z) = -0.55204 0.67383
#
# Static dielectric constant tensor:
#      x y z
#    x 1.806230 0.000000 -0.008660 
#    y 0.000000 1.695140 0.000000 
#    z -0.008660 0.000000 1.749900 
# 
# From -- ./inp_files/182455.got.cif
#   From: 2010.05.17/outbox.cif.g08.bks.cpg/sg12_92_cif.got.tgz:182455.got - 2010.06.03 13:09:07.
