data_PCOD9201947
_publ_section_title
;
Structure prediction by ZEFSAII (Michael W. Deem and Ramdas Pophale) SiO2 
 PCOD9201947
Probable space group: C 2/M
;
_chemical_formula_sum "Si O2"
_cell_formula_units_Z 56
_cell_length_a 19.977501
_cell_length_b 31.133620
_cell_length_c 8.797355
_cell_angle_alpha 90.000000
_cell_angle_beta 30.758080
_cell_angle_gamma 90.000000
_cell_volume 2798.309498
_symmetry_space_group_name_H-M "C 2/M"
_symmetry_group_IT_number 12
_symmetry_cell_setting 'monoclinic'
loop_
_space_group_symop_operation_xyz
x,y,z
-x,y,-z
-x,-y,-z
x,-y,z
1/2+x,1/2+y,z
1/2-x,1/2+y,-z
1/2-x,1/2-y,-z
1/2+x,1/2-y,z
loop_
_atom_site_type_symbol
_atom_site_label
_atom_site_fract_x
_atom_site_fract_y
_atom_site_fract_z
Si Si1 0.725184 0.370040 0.850156
Si Si2 0.857809 0.178990 0.700598
Si Si3 0.109104 0.451245 0.155792
Si Si4 0.028554 0.802081 0.117970
Si Si5 0.870440 0.048676 0.847203
Si Si6 0.014775 0.372523 0.153125
Si Si7 0.909359 0.714284 0.827400
O O1 0.872181 0.374489 0.509750
O O2 0.705839 0.356530 0.065537
O O3 0.654617 0.331876 0.897931
O O4 0.653992 0.415678 0.977914
O O5 0.000000 0.188510 0.500000
O O6 0.907730 0.172300 0.432524
O O7 0.744778 0.214331 0.912286
O O8 0.090461 0.500000 0.131573
O O9 0.000000 0.444493 0.500000
O O10 0.092820 0.413942 0.063709
O O11 0.247241 0.450065 0.973161
O O12 0.049510 0.756382 0.159606
O O13 0.000000 0.794515 0.000000
O O14 0.000000 0.059259 0.500000
O O15 0.881651 0.000000 0.883699
O O16 0.074368 0.328235 0.101173
O O17 0.000000 0.372348 0.000000
O O18 0.000000 0.710151 0.500000
#
# Coordination Sequence:
#
# PCOD9201947 Si02
#       7
#     8   8   8   8   8   8   8
#     4  11  22  43  64  92 130 173 218 262 326 387
#     4  10  23  41  65  90 120 164 213 261 313 388
#     4  10  20  40  68  96 129 171 216 263 318 385
#     4  11  27  42  63  94 129 169 213 267 335 390
#     4  10  20  37  69 104 129 161 215 271 314 373
#     4  12  26  40  63  99 132 172 217 275 328 383
#     4  12  24  43  71  90 125 169 225 273 319 388
#
# _framework density 20.012084000000002
#
# number of rings (size 3 to 8) (size 9 to 14) (size 15 to 20)
#    0.000    1.143    2.857    4.286    4.000    3.714 
#    0.000    0.000    0.000    0.429    0.000    0.000 
#    0.000    0.000    0.000    0.000    0.000    0.000 
#
# Total GULP energy -156300.137902 kJ/mol
# GULP energy per Si atom -5582.147782 kJ/mol
# Density = 1.996654 g / cm^3
# Si number density = 20.012084 Si / 1000 Ang^3
#
#
#
# Elastic Constant Matrix: (Units=GPa)
#
#
# Indices 1 2 3 4 5 6 
#
# 1 68.7528 41.4828 35.5284 0.0000 12.1772 0.0000
# 2 41.4828 127.6644 8.8123 0.0000 10.5673 0.0000
# 3 35.5284 8.8123 105.9166 0.0000 -13.5690 0.0000
# 4 0.0000 0.0000 0.0000 14.9486 0.0000 -7.4599
# 5 12.1772 10.5673 -13.5690 0.0000 30.6439 0.0000
# 6 0.0000 0.0000 0.0000 -7.4599 0.0000 19.3792
#
#
#
# Elastic Compliance Matrix: (Units=1/GPa)
#
#
# Indices 1 2 3 4 5 6 
#
# 1 0.025707 -0.006681 -0.009627 0.000000 -0.012174 0.000000
# 2 -0.006681 0.009920 0.001397 0.000000 -0.000147 0.000000
# 3 -0.009627 0.001397 0.013763 0.000000 0.009438 0.000000
# 4 0.000000 0.000000 0.000000 0.082802 0.000000 0.031874
# 5 -0.012174 -0.000147 0.009438 0.000000 0.041701 0.000000
# 6 0.000000 0.000000 0.000000 0.031874 0.000000 0.063871
#
#
# Mechanical properties :
#
#
# Convention : Reuss Voigt Hill
#
# Bulk Modulus (GPa) = 51.10319 52.66453 51.88386
# Shear Modulus (GPa) = 18.24093 27.42837 22.83465
#
# Velocity S-wave (km/s) = 3.02237 3.70616 3.38160
# Velocity P-wave (km/s) = 6.14583 6.68489 6.42102
#
# Compressibility (1/GPa) = 0.01956825
#
# Stress axis : x y z
#
# Youngs Moduli (GPa) = 38.90031 100.80987 72.65602
#
# Poissons Ratio (x) = 0.67349 0.69944
# Poissons Ratio (y) = 0.25989 -0.10149
# Poissons Ratio (z) = 0.37448 -0.14081
#
# Static dielectric constant tensor:
#      x y z
#    x 1.726380 0.000000 -0.019180 
#    y 0.000000 1.742590 0.000000 
#    z -0.019180 0.000000 1.716700 
# 
# From -- ./inp_files/91555.got.cif
#   From: 2010.05.17/outbox.cif.g08.bks.cpg/sg12_46_cif.got.tgz:91555.got - 2010.06.03 13:09:07.
