data_PCOD9201254
_publ_section_title
;
Structure prediction by ZEFSAII (Michael W. Deem and Ramdas Pophale) SiO2 
 PCOD9201254
Probable space group: C 2/M
;
_chemical_formula_sum "Si O2"
_cell_formula_units_Z 48
_cell_length_a 21.462333
_cell_length_b 7.863645
_cell_length_c 15.228053
_cell_angle_alpha 90.000000
_cell_angle_beta 96.887053
_cell_angle_gamma 90.000000
_cell_volume 2551.527068
_symmetry_space_group_name_H-M "C 2/M"
_symmetry_group_IT_number 12
_symmetry_cell_setting 'monoclinic'
loop_
_space_group_symop_operation_xyz
x,y,z
-x,y,-z
-x,-y,-z
x,-y,z
1/2+x,1/2+y,z
1/2-x,1/2+y,-z
1/2-x,1/2-y,-z
1/2+x,1/2-y,z
loop_
_atom_site_type_symbol
_atom_site_label
_atom_site_fract_x
_atom_site_fract_y
_atom_site_fract_z
Si Si1 0.802337 0.703131 0.937778
Si Si2 0.216903 0.704779 0.265979
Si Si3 0.939836 0.799300 0.933584
Si Si4 0.014068 0.000000 0.356983
Si Si5 0.426771 0.807017 0.734110
Si Si6 0.698641 0.194152 0.563264
Si Si7 0.398494 0.500000 0.456864
O O1 0.807872 0.500000 0.935321
O O2 0.783011 0.760176 0.835880
O O3 0.872204 0.773190 0.967977
O O4 0.750000 0.750000 0.000000
O O5 0.226410 0.500000 0.270613
O O6 0.146824 0.737499 0.290938
O O7 0.267480 0.791136 0.336584
O O8 0.936746 0.703316 0.840537
O O9 0.946904 0.000000 0.916042
O O10 0.000000 0.744614 0.000000
O O11 0.030614 0.832375 0.304723
O O12 0.058998 0.000000 0.449341
O O13 0.943638 0.000000 0.380365
O O14 0.437525 0.000000 0.705553
O O15 0.750000 0.250000 0.500000
O O16 0.643777 0.331689 0.550128
O O17 0.678916 0.000000 0.543213
#
# Coordination Sequence:
#
# PCOD9201254 Si02
#       7
#     8   8   8   4   8   8   4
#     4  10  21  37  58  86 123 164 202 254 314 365
#     4   9  19  37  61  90 122 155 205 254 300 369
#     4  10  20  37  61  90 120 159 211 255 299 364
#     4  11  24  44  65  86 124 168 199 246 312 364
#     4  10  21  38  65  92 118 161 207 250 300 364
#     4  12  23  39  65  94 123 158 201 254 308 360
#     4  11  26  44  62  92 128 157 201 256 303 367
#
# _framework density 18.812266000000001
#
# number of rings (size 3 to 8) (size 9 to 14) (size 15 to 20)
#    0.000    1.667    2.500    3.000    1.167    5.333 
#    3.000    1.667    0.000    0.000    0.000    0.000 
#    0.000    0.000    0.000    0.000    0.000    0.000 
#
# Total GULP energy -134083.822869 kJ/mol
# GULP energy per Si atom -5586.825953 kJ/mol
# Density = 1.876945 g / cm^3
# Si number density = 18.812266 Si / 1000 Ang^3
#
#
#
# Elastic Constant Matrix: (Units=GPa)
#
#
# Indices 1 2 3 4 5 6 
#
# 1 117.1450 51.3348 47.7456 0.0000 -16.2650 0.0000
# 2 51.3348 110.2925 17.7918 0.0000 -16.6289 0.0000
# 3 47.7456 17.7918 54.9189 0.0000 -12.8925 0.0000
# 4 0.0000 0.0000 0.0000 24.5386 0.0000 -3.9963
# 5 -16.2650 -16.6289 -12.8925 0.0000 39.3181 0.0000
# 6 0.0000 0.0000 0.0000 -3.9963 0.0000 36.3243
#
#
#
# Elastic Compliance Matrix: (Units=1/GPa)
#
#
# Indices 1 2 3 4 5 6 
#
# 1 0.015795 -0.005377 -0.011906 0.000000 0.000356 0.000000
# 2 -0.005377 0.011805 0.001626 0.000000 0.003301 0.000000
# 3 -0.011906 0.001626 0.029293 0.000000 0.005367 0.000000
# 4 0.000000 0.000000 0.000000 0.041496 0.000000 0.004565
# 5 0.000356 0.003301 0.005367 0.000000 0.028737 0.000000
# 6 0.000000 0.000000 0.000000 0.004565 0.000000 0.028032
#
#
# Mechanical properties :
#
#
# Convention : Reuss Voigt Hill
#
# Bulk Modulus (GPa) = 39.09747 57.34454 48.22101
# Shear Modulus (GPa) = 25.64098 31.06846 28.35472
#
# Velocity S-wave (km/s) = 3.69588 4.06827 3.88654
# Velocity P-wave (km/s) = 6.24826 7.25372 6.76969
#
# Compressibility (1/GPa) = 0.02557710
#
# Stress axis : x y z
#
# Youngs Moduli (GPa) = 63.31099 84.70852 34.13745
#
# Poissons Ratio (x) = 0.45551 0.40645
# Poissons Ratio (y) = 0.34045 -0.05549
# Poissons Ratio (z) = 0.75381 -0.13770
#
# Static dielectric constant tensor:
#      x y z
#    x 1.632340 0.000000 0.008690 
#    y 0.000000 1.673290 0.000000 
#    z 0.008690 0.000000 1.656130 
# 
# From -- ./inp_files/221788.got.cif
#   From: 2010.05.17/outbox.cif.g08.bks.cpg/sg12_111_cif.got.tgz:221788.got - 2010.06.03 13:09:07.
