data_PCOD9201405
_publ_section_title
;
Structure prediction by ZEFSAII (Michael W. Deem and Ramdas Pophale) SiO2 
 PCOD9201405
Probable space group: C 2/M
;
_chemical_formula_sum "Si O2"
_cell_formula_units_Z 56
_cell_length_a 15.545718
_cell_length_b 8.972898
_cell_length_c 24.052287
_cell_angle_alpha 90.000000
_cell_angle_beta 63.720465
_cell_angle_gamma 90.000000
_cell_volume 3008.293778
_symmetry_space_group_name_H-M "C 2/M"
_symmetry_group_IT_number 12
_symmetry_cell_setting 'monoclinic'
loop_
_space_group_symop_operation_xyz
x,y,z
-x,y,-z
-x,-y,-z
x,-y,z
1/2+x,1/2+y,z
1/2-x,1/2+y,-z
1/2-x,1/2-y,-z
1/2+x,1/2-y,z
loop_
_atom_site_type_symbol
_atom_site_label
_atom_site_fract_x
_atom_site_fract_y
_atom_site_fract_z
Si Si1 0.180036 0.821636 0.858702
Si Si2 0.926091 0.678361 0.571519
Si Si3 0.767076 0.820333 0.434723
Si Si4 0.400299 0.179091 0.787806
Si Si5 0.341356 0.321969 0.004186
Si Si6 0.983839 0.178380 0.345222
Si Si7 0.489913 0.177693 0.881498
O O1 0.288731 0.779405 0.812631
O O2 0.098362 0.735714 0.848799
O O3 0.169522 0.000000 0.853879
O O4 0.164404 0.790064 0.928658
O O5 0.927234 0.500000 0.581257
O O6 0.820168 0.721991 0.580998
O O7 0.961279 0.760760 0.616314
O O8 0.000000 0.708759 0.500000
O O9 0.750000 0.750000 0.500000
O O10 0.871928 0.777301 0.382587
O O11 0.764254 0.000000 0.441140
O O12 0.466735 0.255560 0.723399
O O13 0.434711 0.215824 0.840308
O O14 0.406770 0.000000 0.780173
O O15 0.338974 0.500000 0.998041
O O16 0.435193 0.256199 0.948010
O O17 0.250000 0.250000 0.000000
O O18 0.988312 0.000000 0.342786
O O19 0.486534 0.000000 0.889683
#
# Coordination Sequence:
#
# PCOD9201405 Si02
#       7
#     8   8   8   8   8   8   8
#     4  10  22  41  62  87 120 160 202 249 304 358
#     4  10  20  37  62  88 116 155 194 230 290 360
#     4  10  21  37  59  88 119 150 189 237 290 350
#     4  10  23  44  62  80 119 165 202 242 296 363
#     4  11  21  37  62  91 123 159 203 254 309 360
#     4  11  24  39  59  90 122 151 196 250 296 346
#     4  11  23  40  62  92 123 157 204 252 303 363
#
# _framework density 18.615202
#
# number of rings (size 3 to 8) (size 9 to 14) (size 15 to 20)
#    0.000    1.571    2.857    1.714    0.000    7.143 
#    0.000    4.286    0.000    0.000    0.000    0.000 
#    0.000    0.000    0.000    0.000    0.000    0.000 
#
# Total GULP energy -156492.483369 kJ/mol
# GULP energy per Si atom -5589.017263 kJ/mol
# Density = 1.857283 g / cm^3
# Si number density = 18.615202 Si / 1000 Ang^3
#
#
#
# Elastic Constant Matrix: (Units=GPa)
#
#
# Indices 1 2 3 4 5 6 
#
# 1 124.3268 28.4323 33.4362 0.0000 -31.6383 0.0000
# 2 28.4323 22.7477 32.2894 0.0000 -8.5983 0.0000
# 3 33.4362 32.2894 103.6571 0.0000 -30.6222 0.0000
# 4 0.0000 0.0000 0.0000 34.4763 0.0000 -1.0786
# 5 -31.6383 -8.5983 -30.6222 0.0000 25.3511 0.0000
# 6 0.0000 0.0000 0.0000 -1.0786 0.0000 31.3580
#
#
#
# Elastic Compliance Matrix: (Units=1/GPa)
#
#
# Indices 1 2 3 4 5 6 
#
# 1 0.018148 -0.027680 0.010395 0.000000 0.025817 0.000000
# 2 -0.027680 0.121363 -0.041858 0.000000 -0.043943 0.000000
# 3 0.010395 -0.041858 0.029497 0.000000 0.034407 0.000000
# 4 0.000000 0.000000 0.000000 0.029037 0.000000 0.000999
# 5 0.025817 -0.043943 0.034407 0.000000 0.098322 0.000000
# 6 0.000000 0.000000 0.000000 0.000999 0.000000 0.031924
#
#
# Mechanical properties :
#
#
# Convention : Reuss Voigt Hill
#
# Bulk Modulus (GPa) = 19.71492 48.78305 34.24898
# Shear Modulus (GPa) = 10.78789 28.67533 19.73161
#
# Velocity S-wave (km/s) = 2.40993 3.92908 3.25925
# Velocity P-wave (km/s) = 4.28456 6.84445 5.70982
#
# Compressibility (1/GPa) = 0.05072301
#
# Stress axis : x y z
#
# Youngs Moduli (GPa) = 55.10398 8.23976 33.90152
#
# Poissons Ratio (x) = 0.22808 -0.35242
# Poissons Ratio (y) = 1.52527 1.41904
# Poissons Ratio (z) = -0.57282 0.34490
#
# Static dielectric constant tensor:
#      x y z
#    x 1.645570 0.000000 -0.015680 
#    y 0.000000 1.620380 0.000000 
#    z -0.015680 0.000000 1.612490 
# 
# From -- ./inp_files/337855.got.cif
#   From: 2010.05.17/outbox.cif.g08.bks.cpg/sg12_169_cif.got.tgz:337855.got - 2010.06.03 13:09:07.
