data_PCOD9201093
_publ_section_title
;
Structure prediction by ZEFSAII (Michael W. Deem and Ramdas Pophale) SiO2 
 PCOD9201093
Probable space group: C 2/M
;
_chemical_formula_sum "Si O2"
_cell_formula_units_Z 48
_cell_length_a 19.409229
_cell_length_b 13.178584
_cell_length_c 12.818804
_cell_angle_alpha 90.000000
_cell_angle_beta 142.639329
_cell_angle_gamma 90.000000
_cell_volume 1989.719542
_symmetry_space_group_name_H-M "C 2/M"
_symmetry_group_IT_number 12
_symmetry_cell_setting 'monoclinic'
loop_
_space_group_symop_operation_xyz
x,y,z
-x,y,-z
-x,-y,-z
x,-y,z
1/2+x,1/2+y,z
1/2-x,1/2+y,-z
1/2-x,1/2-y,-z
1/2+x,1/2-y,z
loop_
_atom_site_type_symbol
_atom_site_label
_atom_site_fract_x
_atom_site_fract_y
_atom_site_fract_z
Si Si1 0.702966 0.191900 0.077761
Si Si2 0.876632 0.382068 0.809733
Si Si3 0.039772 0.118077 0.926605
Si Si4 0.398143 0.179232 0.249460
Si Si5 0.707390 0.621974 0.426755
Si Si6 0.366617 0.112971 0.436330
O O1 0.701868 0.132263 0.183665
O O2 0.827055 0.218830 0.184211
O O3 0.634269 0.297831 0.014784
O O4 0.637331 0.137352 0.905106
O O5 0.897789 0.500000 0.810695
O O6 0.803785 0.339599 0.624070
O O7 0.000000 0.342113 0.000000
O O8 0.924922 0.148258 0.726022
O O9 0.072724 0.000000 0.943906
O O10 0.000000 0.118320 0.000000
O O11 0.361730 0.113986 0.306039
O O12 0.532549 0.188817 0.415097
O O13 0.705941 0.500000 0.439650
O O14 0.755130 0.637667 0.366905
O O15 0.402563 0.000000 0.513115
#
# Coordination Sequence:
#
# PCOD9201093 Si02
#       6
#     8   8   8   8   8   8
#     4  11  23  38  56  84 123 157 192 240 290 351
#     4  10  21  38  61  88 119 155 196 244 300 357
#     4  10  21  38  61  88 119 155 196 244 300 357
#     4  10  22  36  51  80 115 153 196 234 279 346
#     4   9  19  36  60  90 118 149 195 246 298 353
#     4  10  20  37  61  85 113 150 197 252 294 332
#
# _framework density 24.124002000000001
#
# number of rings (size 3 to 8) (size 9 to 14) (size 15 to 20)
#    0.000    2.000    0.000    3.500    0.000    8.000 
#    0.000    7.500    0.000    0.000    0.000   18.667 
#    0.000    2.667    0.000    0.000    0.000    0.000 
#
# Total GULP energy -134040.784235 kJ/mol
# GULP energy per Si atom -5585.032676 kJ/mol
# Density = 2.406910 g / cm^3
# Si number density = 24.124002 Si / 1000 Ang^3
#
#
#
# Elastic Constant Matrix: (Units=GPa)
#
#
# Indices 1 2 3 4 5 6 
#
# 1 63.1447 -3.8280 26.7385 0.0000 -4.1280 0.0000
# 2 -3.8280 65.6772 11.8582 0.0000 7.8110 0.0000
# 3 26.7385 11.8582 137.2073 0.0000 -4.3970 0.0000
# 4 0.0000 0.0000 0.0000 12.6098 0.0000 -11.5611
# 5 -4.1280 7.8110 -4.3970 0.0000 52.7458 0.0000
# 6 0.0000 0.0000 0.0000 -11.5611 0.0000 23.3448
#
#
#
# Elastic Compliance Matrix: (Units=1/GPa)
#
#
# Indices 1 2 3 4 5 6 
#
# 1 0.017473 0.001552 -0.003512 0.000000 0.000845 0.000000
# 2 0.001552 0.015916 -0.001754 0.000000 -0.002382 0.000000
# 3 -0.003512 -0.001754 0.008146 0.000000 0.000664 0.000000
# 4 0.000000 0.000000 0.000000 0.145257 0.000000 0.071936
# 5 0.000845 -0.002382 0.000664 0.000000 0.019433 0.000000
# 6 0.000000 0.000000 0.000000 0.071936 0.000000 0.078461
#
#
# Mechanical properties :
#
#
# Convention : Reuss Voigt Hill
#
# Bulk Modulus (GPa) = 29.32011 37.28518 33.30265
# Shear Modulus (GPa) = 16.47536 33.15744 24.81640
#
# Velocity S-wave (km/s) = 2.61616 3.71139 3.21082
# Velocity P-wave (km/s) = 4.61584 5.81851 5.25172
#
# Compressibility (1/GPa) = 0.03410628
#
# Stress axis : x y z
#
# Youngs Moduli (GPa) = 57.23050 62.82796 122.76584
#
# Poissons Ratio (x) = -0.09751 0.43118
# Poissons Ratio (y) = -0.08883 0.21538
# Poissons Ratio (z) = 0.20100 0.11022
#
# Static dielectric constant tensor:
#      x y z
#    x 1.887000 0.000000 -0.007940 
#    y 0.000000 1.937070 0.000000 
#    z -0.007940 0.000000 1.998690 
# 
# From -- ./inp_files/167631.got.cif
#   From: 2010.05.17/outbox.cif.g08.bks.cpg/sg12_84_cif.got.tgz:167631.got - 2010.06.03 13:09:07.
