data_PCOD9201793
_publ_section_title
;
Structure prediction by ZEFSAII (Michael W. Deem and Ramdas Pophale) SiO2 
 PCOD9201793
Probable space group: C 2/M
;
_chemical_formula_sum "Si O2"
_cell_formula_units_Z 44
_cell_length_a 25.055568
_cell_length_b 11.458527
_cell_length_c 11.695881
_cell_angle_alpha 90.000000
_cell_angle_beta 135.015122
_cell_angle_gamma 90.000000
_cell_volume 2373.757418
_symmetry_space_group_name_H-M "C 2/M"
_symmetry_group_IT_number 12
_symmetry_cell_setting 'monoclinic'
loop_
_space_group_symop_operation_xyz
x,y,z
-x,y,-z
-x,-y,-z
x,-y,z
1/2+x,1/2+y,z
1/2-x,1/2+y,-z
1/2-x,1/2-y,-z
1/2+x,1/2-y,z
loop_
_atom_site_type_symbol
_atom_site_label
_atom_site_fract_x
_atom_site_fract_y
_atom_site_fract_z
Si Si1 0.161915 0.725448 0.344339
Si Si2 0.585379 0.000000 0.341993
Si Si3 0.022046 0.871025 0.167871
Si Si4 0.623424 0.235722 0.018845
Si Si5 0.082431 0.500000 0.854456
Si Si6 0.243069 0.867928 0.063028
Si Si7 0.879079 0.500000 0.341749
O O1 0.250000 0.750000 0.500000
O O2 0.128413 0.611177 0.355177
O O3 0.107959 0.829806 0.306257
O O4 0.144640 0.714728 0.182849
O O5 0.494560 0.000000 0.186854
O O6 0.588754 0.000000 0.484115
O O7 0.011336 0.000000 0.199895
O O8 0.000000 0.874982 0.000000
O O9 0.962489 0.779456 0.126818
O O10 0.628792 0.115025 0.958626
O O11 0.677311 0.336408 0.052095
O O12 0.072749 0.500000 0.702044
O O13 0.228961 0.000000 0.990726
O O14 0.250000 0.750000 0.000000
O O15 0.322799 0.889284 0.246099
#
# Coordination Sequence:
#
# PCOD9201793 Si02
#       7
#     8   4   8   8   4   8   4
#     4  11  24  37  59  87 125 162 198 255 318 375
#     4  12  24  42  59  90 126 167 206 264 321 382
#     4   9  19  35  56  81 113 156 204 248 298 369
#     4  11  20  38  60  90 121 160 209 254 307 377
#     4  12  22  38  65  89 119 166 214 255 310 383
#     4  10  20  37  64  94 123 157 208 265 311 367
#     4  10  23  40  64  89 123 159 212 267 319 367
#
# _framework density 18.536014000000002
#
# number of rings (size 3 to 8) (size 9 to 14) (size 15 to 20)
#    0.545    0.909    3.636    2.455    1.273    1.455 
#    0.000    0.000    0.000    0.000    0.000    2.545 
#    0.000    0.000    0.000    0.000    0.000    0.000 
#
# Total GULP energy -122503.202584 kJ/mol
# GULP energy per Si atom -5568.327390 kJ/mol
# Density = 1.849382 g / cm^3
# Si number density = 18.536014 Si / 1000 Ang^3
#
#
#
# Elastic Constant Matrix: (Units=GPa)
#
#
# Indices 1 2 3 4 5 6 
#
# 1 96.1349 37.4604 33.8401 0.0000 13.1859 0.0000
# 2 37.4604 133.0148 29.8648 0.0000 0.5625 0.0000
# 3 33.8401 29.8648 73.0760 0.0000 15.8489 0.0000
# 4 0.0000 0.0000 0.0000 12.8220 0.0000 -0.9081
# 5 13.1859 0.5625 15.8489 0.0000 38.1135 0.0000
# 6 0.0000 0.0000 0.0000 -0.9081 0.0000 39.8585
#
#
#
# Elastic Compliance Matrix: (Units=1/GPa)
#
#
# Indices 1 2 3 4 5 6 
#
# 1 0.013438 -0.002763 -0.004500 0.000000 -0.002737 0.000000
# 2 -0.002763 0.008915 -0.002795 0.000000 0.001986 0.000000
# 3 -0.004500 -0.002795 0.018206 0.000000 -0.005972 0.000000
# 4 0.000000 0.000000 0.000000 0.078117 0.000000 0.001780
# 5 -0.002737 0.001986 -0.005972 0.000000 0.029639 0.000000
# 6 0.000000 0.000000 0.000000 0.001780 0.000000 0.025129
#
#
# Mechanical properties :
#
#
# Convention : Reuss Voigt Hill
#
# Bulk Modulus (GPa) = 48.91534 56.06182 52.48858
# Shear Modulus (GPa) = 24.95332 31.56283 28.25807
#
# Velocity S-wave (km/s) = 3.67305 4.13096 3.90872
# Velocity P-wave (km/s) = 6.66596 7.28447 6.98207
#
# Compressibility (1/GPa) = 0.02044349
#
# Stress axis : x y z
#
# Youngs Moduli (GPa) = 74.41562 112.16942 54.92694
#
# Poissons Ratio (x) = 0.30987 0.24719
# Poissons Ratio (y) = 0.20557 0.15352
# Poissons Ratio (z) = 0.33490 0.31351
#
# Static dielectric constant tensor:
#      x y z
#    x 1.664010 0.000000 0.012890 
#    y 0.000000 1.656660 0.000000 
#    z 0.012890 0.000000 1.628510 
# 
# From -- ./inp_files/175438.got.cif
#   From: 2010.05.17/outbox.cif.g08.bks.cpg/sg12_88_cif.got.tgz:175438.got - 2010.06.03 13:09:07.
