data_PCOD9201709
_publ_section_title
;
Structure prediction by ZEFSAII (Michael W. Deem and Ramdas Pophale) SiO2 
 PCOD9201709
Probable space group: C 2/M
;
_chemical_formula_sum "Si O2"
_cell_formula_units_Z 48
_cell_length_a 18.639954
_cell_length_b 15.041473
_cell_length_c 15.372619
_cell_angle_alpha 90.000000
_cell_angle_beta 31.931739
_cell_angle_gamma 90.000000
_cell_volume 2279.626249
_symmetry_space_group_name_H-M "C 2/M"
_symmetry_group_IT_number 12
_symmetry_cell_setting 'monoclinic'
loop_
_space_group_symop_operation_xyz
x,y,z
-x,y,-z
-x,-y,-z
x,-y,z
1/2+x,1/2+y,z
1/2-x,1/2+y,-z
1/2-x,1/2-y,-z
1/2+x,1/2-y,z
loop_
_atom_site_type_symbol
_atom_site_label
_atom_site_fract_x
_atom_site_fract_y
_atom_site_fract_z
Si Si1 0.250566 0.598466 0.343959
Si Si2 0.341164 0.898714 0.188412
Si Si3 0.094076 0.235955 0.185923
Si Si4 0.289962 0.772508 0.759117
Si Si5 0.656943 0.836270 0.616313
Si Si6 0.943965 0.895080 0.913370
O O1 0.238232 0.500000 0.318310
O O2 0.177627 0.671300 0.360233
O O3 0.192218 0.599146 0.501074
O O4 0.410753 0.620156 0.190218
O O5 0.267034 0.822990 0.209727
O O6 0.322000 0.874443 0.309789
O O7 0.295315 0.000000 0.219415
O O8 0.500000 0.894099 0.000000
O O9 0.095346 0.254311 0.287130
O O10 0.049371 0.140928 0.192827
O O11 0.997633 0.304856 0.235834
O O12 0.250000 0.250000 0.000000
O O13 0.170790 0.834907 0.923310
O O14 0.750000 0.750000 0.500000
O O15 0.915193 0.000000 0.946567
#
# Coordination Sequence:
#
# PCOD9201709 Si02
#       6
#     8   8   8   8   8   8
#     4  11  22  38  64  94 125 166 216 267 320 378
#     4  11  23  40  65  94 128 173 222 262 310 386
#     4  10  22  39  62  90 126 172 207 255 319 386
#     4  11  21  38  61  92 134 168 210 261 329 377
#     4  12  22  43  66  91 126 170 212 263 318 378
#     4  10  20  37  63  94 126 170 221 260 309 386
#
# _framework density 21.056084999999999
#
# number of rings (size 3 to 8) (size 9 to 14) (size 15 to 20)
#    0.000    1.167    3.333    4.500    0.000    2.667 
#    0.000   10.833    0.000    1.000    0.000    0.000 
#    0.000    0.000    0.000    0.000    0.000    0.000 
#
# Total GULP energy -134069.851322 kJ/mol
# GULP energy per Si atom -5586.243805 kJ/mol
# Density = 2.100816 g / cm^3
# Si number density = 21.056085 Si / 1000 Ang^3
#
#
#
# Elastic Constant Matrix: (Units=GPa)
#
#
# Indices 1 2 3 4 5 6 
#
# 1 97.8076 60.0466 11.8802 0.0000 13.2743 0.0000
# 2 60.0466 144.2421 19.8627 0.0000 11.2206 0.0000
# 3 11.8802 19.8627 69.8074 0.0000 7.7829 0.0000
# 4 0.0000 0.0000 0.0000 22.0166 0.0000 8.8062
# 5 13.2743 11.2206 7.7829 0.0000 30.7467 0.0000
# 6 0.0000 0.0000 0.0000 8.8062 0.0000 16.8370
#
#
#
# Elastic Compliance Matrix: (Units=1/GPa)
#
#
# Indices 1 2 3 4 5 6 
#
# 1 0.014228 -0.005557 -0.000393 0.000000 -0.004016 0.000000
# 2 -0.005557 0.009530 -0.001693 0.000000 -0.000650 0.000000
# 3 -0.000393 -0.001693 0.015215 0.000000 -0.003064 0.000000
# 4 0.000000 0.000000 0.000000 0.057436 0.000000 -0.030040
# 5 -0.004016 -0.000650 -0.003064 0.000000 0.035270 0.000000
# 6 0.000000 0.000000 0.000000 -0.030040 0.000000 0.075105
#
#
# Mechanical properties :
#
#
# Convention : Reuss Voigt Hill
#
# Bulk Modulus (GPa) = 42.21563 55.04843 48.63203
# Shear Modulus (GPa) = 21.74239 28.59125 25.16682
#
# Velocity S-wave (km/s) = 3.21689 3.68892 3.46096
# Velocity P-wave (km/s) = 5.82155 6.65917 6.25440
#
# Compressibility (1/GPa) = 0.02368791
#
# Stress axis : x y z
#
# Youngs Moduli (GPa) = 70.28309 104.93498 65.72289
#
# Poissons Ratio (x) = 0.58308 0.02581
# Poissons Ratio (y) = 0.39054 0.11130
# Poissons Ratio (z) = 0.02760 0.17770
#
# Static dielectric constant tensor:
#      x y z
#    x 1.781860 0.000000 0.077400 
#    y 0.000000 1.755130 0.000000 
#    z 0.077400 0.000000 1.879340 
# 
# From -- ./inp_files/225114.got.cif
#   From: 2010.05.17/outbox.cif.g08.bks.cpg/sg12_113_cif.got.tgz:225114.got - 2010.06.03 13:09:07.
