data_PCOD9201520
_publ_section_title
;
Structure prediction by ZEFSAII (Michael W. Deem and Ramdas Pophale) SiO2 
 PCOD9201520
Probable space group: C 2/M
;
_chemical_formula_sum "Si O2"
_cell_formula_units_Z 48
_cell_length_a 16.784820
_cell_length_b 7.678871
_cell_length_c 18.452960
_cell_angle_alpha 90.000000
_cell_angle_beta 58.704022
_cell_angle_gamma 90.000000
_cell_volume 2032.309171
_symmetry_space_group_name_H-M "C 2/M"
_symmetry_group_IT_number 12
_symmetry_cell_setting 'monoclinic'
loop_
_space_group_symop_operation_xyz
x,y,z
-x,y,-z
-x,-y,-z
x,-y,z
1/2+x,1/2+y,z
1/2-x,1/2+y,-z
1/2-x,1/2-y,-z
1/2+x,1/2-y,z
loop_
_atom_site_type_symbol
_atom_site_label
_atom_site_fract_x
_atom_site_fract_y
_atom_site_fract_z
Si Si1 0.804082 0.290177 0.047543
Si Si2 0.549053 0.500000 0.363155
Si Si3 0.295247 0.212501 0.207568
Si Si4 0.350286 0.500000 0.531098
Si Si5 0.496340 0.298737 0.263915
Si Si6 0.490326 0.799615 0.896708
Si Si7 0.716206 0.299606 0.625400
O O1 0.809404 0.500000 0.050346
O O2 0.760207 0.233477 0.144613
O O3 0.750000 0.250000 0.000000
O O4 0.909026 0.221193 0.983814
O O5 0.440939 0.500000 0.438275
O O6 0.609930 0.500000 0.405394
O O7 0.557831 0.330999 0.306730
O O8 0.404561 0.266500 0.152109
O O9 0.260435 0.288979 0.299491
O O10 0.288422 0.000000 0.217772
O O11 0.287312 0.670564 0.553087
O O12 0.482436 0.500000 0.245790
O O13 0.538567 0.206453 0.174510
O O14 0.391479 0.234195 0.330108
O O15 0.499171 0.000000 0.914649
O O16 0.722211 0.500000 0.599109
#
# Coordination Sequence:
#
# PCOD9201520 Si02
#       7
#     8   4   8   4   8   8   8
#     4  10  21  33  47  75 112 149 193 237 283 342
#     4   9  22  42  58  86 124 157 191 241 301 368
#     4   9  17  34  56  78 107 151 193 239 292 339
#     4  11  22  40  66  86 122 163 191 235 311 360
#     4   8  18  37  56  82 115 145 188 243 289 343
#     4   9  17  32  56  79 104 146 194 240 285 341
#     4  10  20  37  62  91 116 150 203 247 287 356
#
# _framework density 23.618454
#
# number of rings (size 3 to 8) (size 9 to 14) (size 15 to 20)
#    0.500    2.167    0.833    0.500    1.167    5.333 
#    0.000    5.000    0.000    5.000    0.000    0.000 
#    0.000    0.000    0.000    0.000    0.000    0.000 
#
# Total GULP energy -133946.614977 kJ/mol
# GULP energy per Si atom -5581.108957 kJ/mol
# Density = 2.356470 g / cm^3
# Si number density = 23.618454 Si / 1000 Ang^3
#
#
#
# Elastic Constant Matrix: (Units=GPa)
#
#
# Indices 1 2 3 4 5 6 
#
# 1 64.5904 9.6170 25.8956 0.0001 24.6271 0.0007
# 2 9.6170 65.8137 20.0376 0.0001 -3.5618 0.0019
# 3 25.8956 20.0376 107.4133 0.0000 6.2889 0.0000
# 4 0.0001 0.0001 0.0000 9.4935 0.0000 10.0550
# 5 24.6271 -3.5618 6.2889 0.0000 49.8880 0.0001
# 6 0.0007 0.0019 0.0000 10.0550 0.0001 21.3746
#
#
#
# Elastic Compliance Matrix: (Units=1/GPa)
#
#
# Indices 1 2 3 4 5 6 
#
# 1 0.021382 -0.002428 -0.004104 0.000001 -0.010211 -0.000001
# 2 -0.002428 0.016503 -0.002652 0.000002 0.002711 -0.000003
# 3 -0.004104 -0.002652 0.010766 -0.000001 0.000480 0.000001
# 4 0.000001 0.000002 -0.000001 0.209933 0.000000 -0.098756
# 5 -0.010211 0.002711 0.000480 0.000000 0.025219 0.000000
# 6 -0.000001 -0.000003 0.000001 -0.098756 0.000000 0.093241
#
#
# Mechanical properties :
#
#
# Convention : Reuss Voigt Hill
#
# Bulk Modulus (GPa) = 33.02086 38.76866 35.89476
# Shear Modulus (GPa) = 12.33024 28.30237 20.31631
#
# Velocity S-wave (km/s) = 2.28734 3.46543 2.93608
# Velocity P-wave (km/s) = 4.58118 5.69758 5.16961
#
# Compressibility (1/GPa) = 0.03028389
#
# Stress axis : x y z
#
# Youngs Moduli (GPa) = 46.76725 60.59392 92.88527
#
# Poissons Ratio (x) = 0.14710 0.38123
# Poissons Ratio (y) = 0.11353 0.24634
# Poissons Ratio (z) = 0.19195 0.16070
#
# Static dielectric constant tensor:
#      x y z
#    x 1.970720 0.000000 0.029200 
#    y 0.000000 1.874320 0.000000 
#    z 0.029200 0.000000 1.918480 
# 
# From -- ./inp_files/313236.got.cif
#   From: 2010.05.17/outbox.cif.g08.bks.cpg/sg12_157_cif.got.tgz:313236.got - 2010.06.03 13:09:07.
