data_PCOD9201635
_publ_section_title
;
Structure prediction by ZEFSAII (Michael W. Deem and Ramdas Pophale) SiO2 
 PCOD9201635
Probable space group: C 2/M
;
_chemical_formula_sum "Si O2"
_cell_formula_units_Z 52
_cell_length_a 16.084626
_cell_length_b 9.002539
_cell_length_c 17.058592
_cell_angle_alpha 90.000000
_cell_angle_beta 79.675774
_cell_angle_gamma 90.000000
_cell_volume 2430.133350
_symmetry_space_group_name_H-M "C 2/M"
_symmetry_group_IT_number 12
_symmetry_cell_setting 'monoclinic'
loop_
_space_group_symop_operation_xyz
x,y,z
-x,y,-z
-x,-y,-z
x,-y,z
1/2+x,1/2+y,z
1/2-x,1/2+y,-z
1/2-x,1/2-y,-z
1/2+x,1/2-y,z
loop_
_atom_site_type_symbol
_atom_site_label
_atom_site_fract_x
_atom_site_fract_y
_atom_site_fract_z
Si Si1 0.118495 0.669325 0.374966
Si Si2 0.685902 0.183214 0.945864
Si Si3 0.159839 0.825648 0.522334
Si Si4 0.035432 0.334110 0.170767
Si Si5 0.692562 0.674641 0.216962
Si Si6 0.000000 0.275301 0.000000
Si Si7 0.932970 0.668046 0.328269
O O1 0.142765 0.500000 0.388737
O O2 0.110235 0.759465 0.456473
O O3 0.183054 0.739709 0.300916
O O4 0.026829 0.669585 0.349855
O O5 0.728510 0.203907 0.853457
O O6 0.597867 0.273908 0.968845
O O7 0.673402 0.000000 0.958520
O O8 0.750000 0.250000 0.000000
O O9 0.250000 0.750000 0.500000
O O10 0.121084 0.778719 0.611687
O O11 0.165102 0.000000 0.514357
O O12 0.062459 0.500000 0.192305
O O13 0.110215 0.222830 0.180019
O O14 0.015863 0.342677 0.083070
O O15 0.951925 0.296313 0.234754
O O16 0.689534 0.500000 0.234082
O O17 0.898531 0.500000 0.340334
#
# Coordination Sequence:
#
# PCOD9201635 Si02
#       7
#     8   8   8   8   8   4   8
#     4  10  21  40  67  94 123 164 208 252 313 385
#     4  11  23  39  62  90 125 167 217 271 323 388
#     4  12  25  40  61  89 125 165 207 260 316 376
#     4  10  20  37  63  90 121 165 213 261 317 388
#     4  10  21  37  59  91 127 163 207 265 324 378
#     4  12  23  40  67  94 123 172 227 266 325 398
#     4   9  20  38  61  90 123 161 207 258 312 378
#
# _framework density 21.398004
#
# number of rings (size 3 to 8) (size 9 to 14) (size 15 to 20)
#    0.000    1.538    1.538    5.077    0.000    6.769 
#    0.000    3.077    0.000    0.000    0.000    0.000 
#    0.000    0.000    0.000    0.000    0.000    0.000 
#
# Total GULP energy -144999.241809 kJ/mol
# GULP energy per Si atom -5576.893916 kJ/mol
# Density = 2.134930 g / cm^3
# Si number density = 21.398004 Si / 1000 Ang^3
#
#
#
# Elastic Constant Matrix: (Units=GPa)
#
#
# Indices 1 2 3 4 5 6 
#
# 1 59.8772 19.9219 12.5022 0.0000 -16.9951 0.0000
# 2 19.9219 105.6129 61.7666 0.0000 -18.7193 0.0000
# 3 12.5022 61.7666 139.6072 0.0000 -21.9864 0.0000
# 4 0.0000 0.0000 0.0000 14.0646 0.0000 -1.3965
# 5 -16.9951 -18.7193 -21.9864 0.0000 34.7469 0.0000
# 6 0.0000 0.0000 0.0000 -1.3965 0.0000 13.1682
#
#
#
# Elastic Compliance Matrix: (Units=1/GPa)
#
#
# Indices 1 2 3 4 5 6 
#
# 1 0.019920 -0.002650 0.000776 0.000000 0.008806 0.000000
# 2 -0.002650 0.013562 -0.005350 0.000000 0.002625 0.000000
# 3 0.000776 -0.005350 0.010070 0.000000 0.003869 0.000000
# 4 0.000000 0.000000 0.000000 0.071857 0.000000 0.007620
# 5 0.008806 0.002625 0.003869 0.000000 0.036949 0.000000
# 6 0.000000 0.000000 0.000000 0.007620 0.000000 0.076749
#
#
# Mechanical properties :
#
#
# Convention : Reuss Voigt Hill
#
# Bulk Modulus (GPa) = 34.36021 54.83098 44.59559
# Shear Modulus (GPa) = 19.74276 26.45636 23.09956
#
# Velocity S-wave (km/s) = 3.04080 3.52005 3.28917
# Velocity P-wave (km/s) = 5.33115 6.49623 5.94231
#
# Compressibility (1/GPa) = 0.02910343
#
# Stress axis : x y z
#
# Youngs Moduli (GPa) = 50.20034 73.73278 99.30798
#
# Poissons Ratio (x) = 0.19541 -0.07702
# Poissons Ratio (y) = 0.13305 0.53127
# Poissons Ratio (z) = -0.03893 0.39445
#
# Static dielectric constant tensor:
#      x y z
#    x 2.338060 0.000000 -0.031310 
#    y 0.000000 1.753130 0.000000 
#    z -0.031310 0.000000 1.830740 
# 
# From -- ./inp_files/274193.got.cif
#   From: 2010.05.17/outbox.cif.g08.bks.cpg/sg12_138_cif.got.tgz:274193.got - 2010.06.03 13:09:07.
