data_PCOD9201773
_publ_section_title
;
Structure prediction by ZEFSAII (Michael W. Deem and Ramdas Pophale) SiO2 
 PCOD9201773
Probable space group: C 2/M
;
_chemical_formula_sum "Si O2"
_cell_formula_units_Z 56
_cell_length_a 8.132049
_cell_length_b 31.217873
_cell_length_c 16.346034
_cell_angle_alpha 90.000000
_cell_angle_beta 40.704135
_cell_angle_gamma 90.000000
_cell_volume 2706.233514
_symmetry_space_group_name_H-M "C 2/M"
_symmetry_group_IT_number 12
_symmetry_cell_setting 'monoclinic'
loop_
_space_group_symop_operation_xyz
x,y,z
-x,y,-z
-x,-y,-z
x,-y,z
1/2+x,1/2+y,z
1/2-x,1/2+y,-z
1/2-x,1/2-y,-z
1/2+x,1/2-y,z
loop_
_atom_site_type_symbol
_atom_site_label
_atom_site_fract_x
_atom_site_fract_y
_atom_site_fract_z
Si Si1 0.707909 0.674359 0.994606
Si Si2 0.099971 0.950560 0.141830
Si Si3 0.750733 0.607763 0.634434
Si Si4 0.526006 0.915744 0.107721
Si Si5 0.400404 0.210115 0.267682
Si Si6 0.724516 0.302086 0.723990
Si Si7 0.141752 0.119339 0.363184
O O1 0.864332 0.631379 0.954858
O O2 0.915993 0.707096 0.880961
O O3 0.500000 0.666667 0.000000
O O4 0.550673 0.689169 0.132243
O O5 0.310352 0.934126 0.128414
O O6 0.863033 0.920212 0.248951
O O7 0.043965 0.000000 0.178151
O O8 0.231631 0.944686 0.003806
O O9 0.797780 0.655943 0.646787
O O10 0.546559 0.611131 0.639981
O O11 0.000000 0.588880 0.500000
O O12 0.392901 0.907963 0.245477
O O13 0.281008 0.256773 0.319068
O O14 0.579997 0.202558 0.276444
O O15 0.214845 0.169621 0.334551
O O16 0.000000 0.108509 0.500000
#
# Coordination Sequence:
#
# PCOD9201773 Si02
#       7
#     8   8   8   8   8   8   8
#     4   9  18  32  53  84 120 160 194 237 288 344
#     4  10  20  37  64  92 116 143 189 246 297 355
#     4  11  23  38  61  88 115 158 198 244 295 351
#     4   9  17  34  59  90 113 148 188 233 290 346
#     4  10  21  34  55  83 120 165 197 246 284 339
#     4  11  20  36  53  84 122 155 206 242 291 339
#     4  10  21  38  57  85 118 160 199 236 288 344
#
# _framework density 20.692965999999998
#
# number of rings (size 3 to 8) (size 9 to 14) (size 15 to 20)
#    0.000    2.000    1.429    3.000    0.000    0.857 
#    0.000    2.857    0.000   12.429    0.000    0.000 
#    0.000    0.000    0.000    0.000    0.000    0.000 
#
# Total GULP energy -156212.099258 kJ/mol
# GULP energy per Si atom -5579.003545 kJ/mol
# Density = 2.064587 g / cm^3
# Si number density = 20.692966 Si / 1000 Ang^3
#
#
#
# Elastic Constant Matrix: (Units=GPa)
#
#
# Indices 1 2 3 4 5 6 
#
# 1 15.1302 13.5104 14.2454 0.0000 -6.2453 0.0000
# 2 13.5104 102.2345 36.8825 0.0000 -2.0969 0.0000
# 3 14.2454 36.8825 140.6708 0.0000 4.3292 0.0000
# 4 0.0000 0.0000 0.0000 5.7300 0.0000 4.6722
# 5 -6.2453 -2.0969 4.3292 0.0000 23.0212 0.0000
# 6 0.0000 0.0000 0.0000 4.6722 0.0000 17.6772
#
#
#
# Elastic Compliance Matrix: (Units=1/GPa)
#
#
# Indices 1 2 3 4 5 6 
#
# 1 0.091835 -0.008806 -0.007778 0.000000 0.025574 0.000000
# 2 -0.008806 0.011701 -0.002148 0.000000 -0.000919 0.000000
# 3 -0.007778 -0.002148 0.008580 0.000000 -0.003919 0.000000
# 4 0.000000 0.000000 0.000000 0.222465 0.000000 -0.058799
# 5 0.025574 -0.000919 -0.003919 0.000000 0.051030 0.000000
# 6 0.000000 0.000000 0.000000 -0.058799 0.000000 0.072111
#
#
# Mechanical properties :
#
#
# Convention : Reuss Voigt Hill
#
# Bulk Modulus (GPa) = 13.39527 43.03469 28.21498
# Shear Modulus (GPa) = 9.61409 22.17880 15.89645
#
# Velocity S-wave (km/s) = 2.15781 3.27739 2.77466
# Velocity P-wave (km/s) = 3.56309 5.92990 4.89179
#
# Compressibility (1/GPa) = 0.07465320
#
# Stress axis : x y z
#
# Youngs Moduli (GPa) = 10.88907 85.46177 116.54651
#
# Poissons Ratio (x) = 0.75253 0.90653
# Poissons Ratio (y) = 0.09588 0.25033
# Poissons Ratio (z) = 0.08470 0.18357
#
# Static dielectric constant tensor:
#      x y z
#    x 1.732640 0.000000 -0.002850 
#    y 0.000000 1.762000 0.000000 
#    z -0.002850 0.000000 1.804520 
# 
# From -- ./inp_files/259814.got.cif
#   From: 2010.05.17/outbox.cif.g08.bks.cpg/sg12_130_cif.got.tgz:259814.got - 2010.06.03 13:09:07.
