data_PCOD9201740
_publ_section_title
;
Structure prediction by ZEFSAII (Michael W. Deem and Ramdas Pophale) SiO2 
 PCOD9201740
Probable space group: C 2/M
;
_chemical_formula_sum "Si O2"
_cell_formula_units_Z 50
_cell_length_a 7.239853
_cell_length_b 26.531236
_cell_length_c 14.344242
_cell_angle_alpha 90.000000
_cell_angle_beta 68.861109
_cell_angle_gamma 90.000000
_cell_volume 2569.868994
_symmetry_space_group_name_H-M "C 2/M"
_symmetry_group_IT_number 12
_symmetry_cell_setting 'monoclinic'
loop_
_space_group_symop_operation_xyz
x,y,z
-x,y,-z
-x,-y,-z
x,-y,z
1/2+x,1/2+y,z
1/2-x,1/2+y,-z
1/2-x,1/2-y,-z
1/2+x,1/2-y,z
loop_
_atom_site_type_symbol
_atom_site_label
_atom_site_fract_x
_atom_site_fract_y
_atom_site_fract_z
Si Si1 0.500000 0.000000 0.500000
Si Si2 0.700734 0.313001 0.589119
Si Si3 0.684403 0.057456 0.039572
Si Si4 0.903290 0.058597 0.822038
Si Si5 0.436967 0.887725 0.230708
Si Si6 0.684359 0.081841 0.344948
Si Si7 0.758928 0.298451 0.365351
O O1 0.349350 0.956177 0.565805
O O2 0.777069 0.362250 0.625709
O O3 0.797031 0.308355 0.468556
O O4 0.464703 0.315981 0.615315
O O5 0.736160 0.262019 0.641235
O O6 0.615988 0.098405 0.127607
O O7 0.707910 0.000000 0.073648
O O8 0.500000 0.055285 0.000000
O O9 0.865219 0.070186 0.937858
O O10 0.758573 0.091857 0.784521
O O11 0.126149 0.066118 0.749790
O O12 0.846471 0.000000 0.820255
O O13 0.491133 0.918644 0.314102
O O14 0.400477 0.830750 0.272350
#
# Coordination Sequence:
#
# PCOD9201740 Si02
#       7
#     2   8   8   8   8   8   8
#     4  12  28  40  54  90 128 166 196 256 296 344
#     4  10  21  39  58  88 118 158 204 255 292 365
#     4   8  17  34  59  89 119 153 204 254 300 358
#     4  10  21  40  61  87 122 162 204 252 301 367
#     4  11  21  36  62  91 116 159 198 251 308 358
#     4  12  24  40  57  86 127 159 205 245 302 361
#     4  10  20  37  64  86 116 157 207 251 307 349
#
# _framework density 19.456244999999999
#
# number of rings (size 3 to 8) (size 9 to 14) (size 15 to 20)
#    0.000    1.760    2.400    3.360    2.240    3.200 
#    0.000    2.400    0.000    0.960    4.160    0.000 
#    0.000    0.000    0.000    0.000    0.000    0.000 
#
# Total GULP energy -139324.276149 kJ/mol
# GULP energy per Si atom -5572.971046 kJ/mol
# Density = 1.941196 g / cm^3
# Si number density = 19.456245 Si / 1000 Ang^3
#
#
#
# Elastic Constant Matrix: (Units=GPa)
#
#
# Indices 1 2 3 4 5 6 
#
# 1 60.3728 20.7205 25.3621 0.0000 0.8600 0.0000
# 2 20.7205 140.6431 81.4913 0.0000 -5.2362 0.0000
# 3 25.3621 81.4913 114.0764 0.0000 -24.6473 0.0000
# 4 0.0000 0.0000 0.0000 40.4830 0.0000 -5.3226
# 5 0.8600 -5.2362 -24.6473 0.0000 34.9551 0.0000
# 6 0.0000 0.0000 0.0000 -5.3226 0.0000 -4.4488
#
#
#
# Elastic Compliance Matrix: (Units=1/GPa)
#
#
# Indices 1 2 3 4 5 6 
#
# 1 0.018734 0.000011 -0.005040 0.000000 -0.004013 0.000000
# 2 0.000011 0.012943 -0.010416 0.000000 -0.005406 0.000000
# 3 -0.005040 -0.010416 0.020075 0.000000 0.012719 0.000000
# 4 0.000000 0.000000 0.000000 0.021344 0.000000 -0.025537
# 5 -0.004013 -0.005406 0.012719 0.000000 0.036865 0.000000
# 6 0.000000 0.000000 0.000000 -0.025537 0.000000 -0.194229
#
#
# Mechanical properties :
#
#
# Convention : Reuss Voigt Hill
#
# Bulk Modulus (GPa) = 47.93383 63.35999 55.64691
# Shear Modulus (GPa) = -107.70555 26.69910 -40.50322
#
# Velocity S-wave (km/s) = -7.44836 3.70843 -4.56758
# Velocity P-wave (km/s) = 7.02000 7.13951 0.91983
#
# Compressibility (1/GPa) = 0.02086209
#
# Stress axis : x y z
#
# Youngs Moduli (GPa) = 53.37769 77.26423 49.81222
#
# Poissons Ratio (x) = -0.00083 0.25104
# Poissons Ratio (y) = -0.00057 0.51885
# Poissons Ratio (z) = 0.26901 0.80479
#
# Static dielectric constant tensor:
#      x y z
#    x 1.744050 0.000000 -0.001590 
#    y 0.000000 1.654100 0.000000 
#    z -0.001590 0.000000 1.713220 
# 
# From -- ./inp_files/198284.got.cif
#   From: 2010.05.17/outbox.cif.g08.bks.cpg/sg12_100_cif.got.tgz:198284.got - 2010.06.03 13:09:07.
