data_PCOD9201354
_publ_section_title
;
Structure prediction by ZEFSAII (Michael W. Deem and Ramdas Pophale) SiO2 
 PCOD9201354
Probable space group: C 2/M
;
_chemical_formula_sum "Si O2"
_cell_formula_units_Z 56
_cell_length_a 11.819548
_cell_length_b 26.977651
_cell_length_c 14.771567
_cell_angle_alpha 90.000000
_cell_angle_beta 144.528309
_cell_angle_gamma 90.000000
_cell_volume 2733.283129
_symmetry_space_group_name_H-M "C 2/M"
_symmetry_group_IT_number 12
_symmetry_cell_setting 'monoclinic'
loop_
_space_group_symop_operation_xyz
x,y,z
-x,y,-z
-x,-y,-z
x,-y,z
1/2+x,1/2+y,z
1/2-x,1/2+y,-z
1/2-x,1/2-y,-z
1/2+x,1/2-y,z
loop_
_atom_site_type_symbol
_atom_site_label
_atom_site_fract_x
_atom_site_fract_y
_atom_site_fract_z
Si Si1 0.165495 0.655651 0.183636
Si Si2 0.291045 0.599618 0.840009
Si Si3 0.640584 0.817206 0.875593
Si Si4 0.931648 0.788324 0.230016
Si Si5 0.113465 0.444638 0.435555
Si Si6 0.269123 0.554535 0.333165
Si Si7 0.219038 0.346440 0.614835
O O1 0.351837 0.684156 0.266754
O O2 0.209200 0.598393 0.228649
O O3 0.066909 0.675707 0.210407
O O4 0.000000 0.661645 0.000000
O O5 0.207571 0.634457 0.865480
O O6 0.319129 0.636019 0.772997
O O7 0.119129 0.561626 0.705180
O O8 0.500000 0.577480 0.000000
O O9 0.612269 0.769918 0.792680
O O10 0.799407 0.805443 0.057219
O O11 0.150120 0.805593 0.349387
O O12 0.174468 0.500000 0.506187
O O13 0.168584 0.440856 0.365756
O O14 0.201545 0.396905 0.543852
O O15 0.500000 0.557507 0.500000
O O16 0.222526 0.500000 0.265938
O O17 0.000000 0.330918 0.500000
#
# Coordination Sequence:
#
# PCOD9201354 Si02
#       7
#     8   8   8   8   8   8   8
#     4  10  21  37  61  91 120 150 199 252 299 354
#     4  11  21  37  64  87 122 156 200 255 298 356
#     4  10  21  37  61  90 119 158 199 247 306 352
#     4  10  21  37  62  89 123 158 203 244 298 365
#     4  10  22  41  61  86 121 163 203 246 304 364
#     4  10  20  37  62  86 117 159 200 243 299 360
#     4  10  22  38  60  88 122 163 199 246 296 359
#
# _framework density 20.488181000000001
#
# number of rings (size 3 to 8) (size 9 to 14) (size 15 to 20)
#    0.000    1.857    2.857    0.857    2.000    3.714 
#    0.000    3.571    0.000    0.857    0.000    0.000 
#    0.000    0.000    0.000    0.000    0.000    0.000 
#
# Total GULP energy -156328.224873 kJ/mol
# GULP energy per Si atom -5583.150888 kJ/mol
# Density = 2.044155 g / cm^3
# Si number density = 20.488181 Si / 1000 Ang^3
#
#
#
# Elastic Constant Matrix: (Units=GPa)
#
#
# Indices 1 2 3 4 5 6 
#
# 1 84.1096 31.6322 0.6323 0.0000 16.5337 0.0000
# 2 31.6322 70.9111 -6.9570 0.0000 6.1804 0.0000
# 3 0.6323 -6.9570 20.5031 0.0000 12.4830 0.0000
# 4 0.0000 0.0000 0.0000 30.7090 0.0000 -1.9609
# 5 16.5337 6.1804 12.4830 0.0000 28.4265 0.0000
# 6 0.0000 0.0000 0.0000 -1.9609 0.0000 21.1609
#
#
#
# Elastic Compliance Matrix: (Units=1/GPa)
#
#
# Indices 1 2 3 4 5 6 
#
# 1 0.015962 -0.005990 0.003187 0.000000 -0.009381 0.000000
# 2 -0.005990 0.018035 0.008968 0.000000 -0.004376 0.000000
# 3 0.003187 0.008968 0.073752 0.000000 -0.036190 0.000000
# 4 0.000000 0.000000 0.000000 0.032758 0.000000 0.003036
# 5 -0.009381 -0.004376 -0.036190 0.000000 0.057479 0.000000
# 6 0.000000 0.000000 0.000000 0.003036 0.000000 0.047538
#
#
# Mechanical properties :
#
#
# Convention : Reuss Voigt Hill
#
# Bulk Modulus (GPa) = 8.32780 25.12652 16.72716
# Shear Modulus (GPa) = 18.30024 26.07369 22.18697
#
# Velocity S-wave (km/s) = 2.99190 3.57125 3.29434
# Velocity P-wave (km/s) = 4.00110 5.41255 4.75944
#
# Compressibility (1/GPa) = 0.12007970
#
# Stress axis : x y z
#
# Youngs Moduli (GPa) = 62.64817 55.44621 13.55897
#
# Poissons Ratio (x) = 0.33213 -0.04321
# Poissons Ratio (y) = 0.37527 -0.12160
# Poissons Ratio (z) = -0.19965 -0.49727
#
# Static dielectric constant tensor:
#      x y z
#    x 1.734830 0.000000 -0.001630 
#    y 0.000000 1.734290 0.000000 
#    z -0.001630 0.000000 1.741970 
# 
# From -- ./inp_files/209162.got.cif
#   From: 2010.05.17/outbox.cif.g08.bks.cpg/sg12_105_cif.got.tgz:209162.got - 2010.06.03 13:09:07.
