data_PCOD9201837
_publ_section_title
;
Structure prediction by ZEFSAII (Michael W. Deem and Ramdas Pophale) SiO2 
 PCOD9201837
Probable space group: C 2/M
;
_chemical_formula_sum "Si O2"
_cell_formula_units_Z 52
_cell_length_a 10.107369
_cell_length_b 21.959018
_cell_length_c 12.546209
_cell_angle_alpha 90.000000
_cell_angle_beta 62.311326
_cell_angle_gamma 90.000000
_cell_volume 2465.727087
_symmetry_space_group_name_H-M "C 2/M"
_symmetry_group_IT_number 12
_symmetry_cell_setting 'monoclinic'
loop_
_space_group_symop_operation_xyz
x,y,z
-x,y,-z
-x,-y,-z
x,-y,z
1/2+x,1/2+y,z
1/2-x,1/2+y,-z
1/2-x,1/2-y,-z
1/2+x,1/2-y,z
loop_
_atom_site_type_symbol
_atom_site_label
_atom_site_fract_x
_atom_site_fract_y
_atom_site_fract_z
Si Si1 0.070540 0.430297 0.855956
Si Si2 0.000000 0.844141 0.000000
Si Si3 0.178104 0.432524 0.433236
Si Si4 0.979992 0.773691 0.787119
Si Si5 0.740170 0.815006 0.736556
Si Si6 0.771799 0.429238 0.835532
Si Si7 0.325059 0.317054 0.475465
O O1 0.121248 0.500000 0.820314
O O2 0.935883 0.417745 0.823319
O O3 0.201113 0.381104 0.796290
O O4 0.000000 0.425824 0.000000
O O5 0.146028 0.885811 0.929644
O O6 0.975399 0.804270 0.903644
O O7 0.232615 0.500000 0.447455
O O8 0.225540 0.422467 0.293050
O O9 0.226417 0.376325 0.487343
O O10 0.000000 0.434405 0.500000
O O11 0.816658 0.770347 0.794555
O O12 0.081766 0.713927 0.760173
O O13 0.065287 0.814818 0.667164
O O14 0.848675 0.820878 0.593748
O O15 0.737644 0.500000 0.873347
O O16 0.250000 0.250000 0.500000
#
# Coordination Sequence:
#
# PCOD9201837 Si02
#       7
#     8   4   8   8   8   8   8
#     4  10  22  41  64  92 129 174 225 269 326 394
#     4  12  23  40  66  94 143 168 222 270 328 406
#     4  10  20  37  65 100 132 169 222 276 331 390
#     4  11  26  42  65  99 129 178 219 270 338 388
#     4  11  25  43  68  95 134 173 219 276 330 401
#     4  10  21  38  64  95 131 177 220 271 327 391
#     4  10  22  41  62  92 132 171 219 268 330 394
#
# _framework density 21.089115
#
# number of rings (size 3 to 8) (size 9 to 14) (size 15 to 20)
#    0.000    1.538    1.538    2.538    3.231    7.385 
#    0.000    1.538    0.000    1.846    0.000    0.000 
#    0.000    0.000    0.000    0.000    0.000    0.000 
#
# Total GULP energy -145084.410082 kJ/mol
# GULP energy per Si atom -5580.169619 kJ/mol
# Density = 2.104112 g / cm^3
# Si number density = 21.089115 Si / 1000 Ang^3
#
#
#
# Elastic Constant Matrix: (Units=GPa)
#
#
# Indices 1 2 3 4 5 6 
#
# 1 50.0096 37.2264 16.2162 0.0000 22.1869 0.0000
# 2 37.2264 100.1130 48.1143 0.0000 6.7581 0.0000
# 3 16.2162 48.1143 116.2170 0.0000 8.2340 0.0000
# 4 0.0000 0.0000 0.0000 36.2255 0.0000 -1.8471
# 5 22.1869 6.7581 8.2340 0.0000 36.5576 0.0000
# 6 0.0000 0.0000 0.0000 -1.8471 0.0000 31.1285
#
#
#
# Elastic Compliance Matrix: (Units=1/GPa)
#
#
# Indices 1 2 3 4 5 6 
#
# 1 0.039625 -0.014164 0.001883 0.000000 -0.021854 0.000000
# 2 -0.014164 0.017582 -0.005773 0.000000 0.006646 0.000000
# 3 0.001883 -0.005773 0.010911 0.000000 -0.002533 0.000000
# 4 0.000000 0.000000 0.000000 0.027689 0.000000 0.001643
# 5 -0.021854 0.006646 -0.002533 0.000000 0.039959 0.000000
# 6 0.000000 0.000000 0.000000 0.001643 0.000000 0.032222
#
#
# Mechanical properties :
#
#
# Convention : Reuss Voigt Hill
#
# Bulk Modulus (GPa) = 31.24074 52.16149 41.70111
# Shear Modulus (GPa) = 23.28117 31.76784 27.52450
#
# Velocity S-wave (km/s) = 3.32617 3.88540 3.61661
# Velocity P-wave (km/s) = 5.44031 6.70194 6.10381
#
# Compressibility (1/GPa) = 0.03200949
#
# Stress axis : x y z
#
# Youngs Moduli (GPa) = 25.23685 56.87782 91.64662
#
# Poissons Ratio (x) = 0.80562 -0.17260
# Poissons Ratio (y) = 0.35746 0.52911
# Poissons Ratio (z) = -0.04753 0.32838
#
# Static dielectric constant tensor:
#      x y z
#    x 1.796380 0.000000 -0.011220 
#    y 0.000000 1.719550 0.000000 
#    z -0.011220 0.000000 1.761580 
# 
# From -- ./inp_files/133804.got.cif
#   From: 2010.05.17/outbox.cif.g08.bks.cpg/sg12_67_cif.got.tgz:133804.got - 2010.06.03 13:09:07.
