data_PCOD9201263
_publ_section_title
;
Structure prediction by ZEFSAII (Michael W. Deem and Ramdas Pophale) SiO2 
 PCOD9201263
Probable space group: C 2/M
;
_chemical_formula_sum "Si O2"
_cell_formula_units_Z 56
_cell_length_a 18.425983
_cell_length_b 24.417606
_cell_length_c 9.510637
_cell_angle_alpha 90.000000
_cell_angle_beta 37.757708
_cell_angle_gamma 90.000000
_cell_volume 2620.139320
_symmetry_space_group_name_H-M "C 2/M"
_symmetry_group_IT_number 12
_symmetry_cell_setting 'monoclinic'
loop_
_space_group_symop_operation_xyz
x,y,z
-x,y,-z
-x,-y,-z
x,-y,z
1/2+x,1/2+y,z
1/2-x,1/2+y,-z
1/2-x,1/2-y,-z
1/2+x,1/2-y,z
loop_
_atom_site_type_symbol
_atom_site_label
_atom_site_fract_x
_atom_site_fract_y
_atom_site_fract_z
Si Si1 0.693730 0.821707 0.184876
Si Si2 0.126231 0.064424 0.258961
Si Si3 0.618562 0.899391 0.661656
Si Si4 0.145789 0.275387 0.569020
Si Si5 0.784594 0.437720 0.765405
Si Si6 0.060256 0.774449 0.258508
Si Si7 0.359066 0.935660 0.055422
O O1 0.681060 0.791508 0.354968
O O2 0.651654 0.884026 0.267407
O O3 0.618826 0.785892 0.190838
O O4 0.832111 0.815363 0.935110
O O5 0.240537 0.088214 0.166076
O O6 0.000000 0.087490 0.500000
O O7 0.122974 0.000000 0.304935
O O8 0.160539 0.064266 0.041212
O O9 0.618317 0.834169 0.678167
O O10 0.710690 0.922779 0.405958
O O11 0.643028 0.926012 0.774538
O O12 0.486452 0.913926 0.812350
O O13 0.250000 0.250000 0.500000
O O14 0.036313 0.233802 0.715306
O O15 0.830435 0.500000 0.715814
O O16 0.000000 0.787521 0.500000
O O17 0.361055 0.000000 0.021755
#
# Coordination Sequence:
#
# PCOD9201263 Si02
#       7
#     8   8   8   8   8   8   8
#     4   9  20  37  61  90 117 153 200 247 303 358
#     4   9  20  38  57  83 120 162 207 249 289 353
#     4  10  21  37  60  92 122 159 201 250 310 369
#     4  10  22  39  59  85 119 151 198 248 304 360
#     4  10  20  37  61  91 128 163 202 251 303 366
#     4   9  19  39  61  85 116 153 194 253 303 354
#     4  10  20  37  61  90 124 159 196 247 305 364
#
# _framework density 21.372907999999999
#
# number of rings (size 3 to 8) (size 9 to 14) (size 15 to 20)
#    0.000    2.429    0.000    1.714    2.000    4.000 
#    7.714    2.857    0.000    3.429    0.000    0.000 
#    0.000    0.000    0.000    0.000    0.000    0.000 
#
# Total GULP energy -156150.037501 kJ/mol
# GULP energy per Si atom -5576.787054 kJ/mol
# Density = 2.132426 g / cm^3
# Si number density = 21.372908 Si / 1000 Ang^3
#
#
#
# Elastic Constant Matrix: (Units=GPa)
#
#
# Indices 1 2 3 4 5 6 
#
# 1 102.5218 28.3016 22.9397 0.0000 -21.3836 0.0000
# 2 28.3016 122.4491 1.5667 0.0000 -12.8330 0.0000
# 3 22.9397 1.5667 93.2147 0.0000 -14.7882 0.0000
# 4 0.0000 0.0000 0.0000 16.8419 0.0000 2.0305
# 5 -21.3836 -12.8330 -14.7882 0.0000 27.2616 0.0000
# 6 0.0000 0.0000 0.0000 2.0305 0.0000 8.7942
#
#
#
# Elastic Compliance Matrix: (Units=1/GPa)
#
#
# Indices 1 2 3 4 5 6 
#
# 1 0.012324 -0.002012 -0.001768 0.000000 0.007760 0.000000
# 2 -0.002012 0.008944 0.000834 0.000000 0.003084 0.000000
# 3 -0.001768 0.000834 0.012026 0.000000 0.005530 0.000000
# 4 0.000000 0.000000 0.000000 0.061076 0.000000 -0.014102
# 5 0.007760 0.003084 0.005530 0.000000 0.047220 0.000000
# 6 0.000000 0.000000 0.000000 -0.014102 0.000000 0.116968
#
#
# Mechanical properties :
#
#
# Convention : Reuss Voigt Hill
#
# Bulk Modulus (GPa) = 36.49336 47.08906 41.79121
# Shear Modulus (GPa) = 18.27590 28.27137 23.27363
#
# Velocity S-wave (km/s) = 2.92738 3.64093 3.30348
# Velocity P-wave (km/s) = 5.34207 6.30517 5.84349
#
# Compressibility (1/GPa) = 0.02740225
#
# Stress axis : x y z
#
# Youngs Moduli (GPa) = 81.14419 111.80207 83.15148
#
# Poissons Ratio (x) = 0.22500 0.14700
# Poissons Ratio (y) = 0.16330 -0.06937
# Poissons Ratio (z) = 0.14345 -0.09327
#
# Static dielectric constant tensor:
#      x y z
#    x 1.747800 0.000000 -0.001800 
#    y 0.000000 1.819070 0.000000 
#    z -0.001800 0.000000 1.827880 
# 
# From -- ./inp_files/80019.got.cif
#   From: 2010.05.17/outbox.cif.g08.bks.cpg/sg12_41_cif.got.tgz:80019.got - 2010.06.03 13:09:07.
