data_PCOD9201752
_publ_section_title
;
Structure prediction by ZEFSAII (Michael W. Deem and Ramdas Pophale) SiO2 
 PCOD9201752
Probable space group: C 2/M
;
_chemical_formula_sum "Si O2"
_cell_formula_units_Z 56
_cell_length_a 9.742908
_cell_length_b 17.635756
_cell_length_c 17.027699
_cell_angle_alpha 90.000000
_cell_angle_beta 69.188614
_cell_angle_gamma 90.000000
_cell_volume 2734.868734
_symmetry_space_group_name_H-M "C 2/M"
_symmetry_group_IT_number 12
_symmetry_cell_setting 'monoclinic'
loop_
_space_group_symop_operation_xyz
x,y,z
-x,y,-z
-x,-y,-z
x,-y,z
1/2+x,1/2+y,z
1/2-x,1/2+y,-z
1/2-x,1/2-y,-z
1/2+x,1/2-y,z
loop_
_atom_site_type_symbol
_atom_site_label
_atom_site_fract_x
_atom_site_fract_y
_atom_site_fract_z
Si Si1 0.094521 0.085497 0.180057
Si Si2 0.143396 0.700671 0.075233
Si Si3 0.429646 0.412917 0.626445
Si Si4 0.641529 0.295681 0.824101
Si Si5 0.915545 0.760312 0.440958
Si Si6 0.642375 0.174128 0.696687
Si Si7 0.422760 0.909830 0.132760
O O1 0.079821 0.084516 0.277131
O O2 0.261158 0.117351 0.133736
O O3 0.953499 0.130746 0.178659
O O4 0.091372 0.000000 0.149824
O O5 0.229512 0.692796 0.140068
O O6 0.989910 0.745497 0.112525
O O7 0.074570 0.620014 0.064207
O O8 0.250000 0.750000 0.000000
O O9 0.449201 0.500000 0.596043
O O10 0.547571 0.349141 0.580059
O O11 0.275197 0.374638 0.633826
O O12 0.694237 0.247120 0.737981
O O13 0.750000 0.750000 0.500000
O O14 0.947333 0.711694 0.355977
O O15 0.000000 0.732334 0.500000
O O16 0.571489 0.119791 0.777341
O O17 0.416224 0.000000 0.132697
#
# Coordination Sequence:
#
# PCOD9201752 Si02
#       7
#     8   8   8   8   8   8   8
#     4   9  18  36  62  93 121 154 209 265 309 360
#     4  11  23  37  59  91 127 158 202 253 313 383
#     4  10  20  39  64  88 121 167 215 261 312 383
#     4  11  21  36  63  88 120 163 209 259 309 363
#     4  12  24  38  58  92 128 167 210 266 323 379
#     4  10  20  37  64  90 118 158 221 261 307 368
#     4   9  20  39  65  92 123 166 211 261 316 375
#
# _framework density 20.476303000000001
#
# number of rings (size 3 to 8) (size 9 to 14) (size 15 to 20)
#    0.000    1.714    2.857    4.286    2.000    0.857 
#    0.000    0.714    0.000   15.857    0.000    0.000 
#    0.000    0.000    0.000    0.000    0.000    0.000 
#
# Total GULP energy -156066.660536 kJ/mol
# GULP energy per Si atom -5573.809305 kJ/mol
# Density = 2.042970 g / cm^3
# Si number density = 20.476303 Si / 1000 Ang^3
#
#
#
# Elastic Constant Matrix: (Units=GPa)
#
#
# Indices 1 2 3 4 5 6 
#
# 1 121.4005 42.6210 20.7975 0.0000 7.5010 0.0000
# 2 42.6210 116.7621 13.7117 0.0000 -1.0277 0.0000
# 3 20.7975 13.7117 58.5276 0.0000 -1.0490 0.0000
# 4 0.0000 0.0000 0.0000 24.5708 0.0000 -8.0564
# 5 7.5010 -1.0277 -1.0490 0.0000 42.9783 0.0000
# 6 0.0000 0.0000 0.0000 -8.0564 0.0000 38.0020
#
#
#
# Elastic Compliance Matrix: (Units=1/GPa)
#
#
# Indices 1 2 3 4 5 6 
#
# 1 0.010008 -0.003340 -0.002808 0.000000 -0.001895 0.000000
# 2 -0.003340 0.009923 -0.001124 0.000000 0.000793 0.000000
# 3 -0.002808 -0.001124 0.018363 0.000000 0.000911 0.000000
# 4 0.000000 0.000000 0.000000 0.043739 0.000000 0.009273
# 5 -0.001895 0.000793 0.000911 0.000000 0.023639 0.000000
# 6 0.000000 0.000000 0.000000 0.009273 0.000000 0.028280
#
#
# Mechanical properties :
#
#
# Convention : Reuss Voigt Hill
#
# Bulk Modulus (GPa) = 42.10351 50.10562 46.10457
# Shear Modulus (GPa) = 31.96679 35.74754 33.85717
#
# Velocity S-wave (km/s) = 3.95544 4.18281 4.07071
# Velocity P-wave (km/s) = 6.43952 6.91745 6.68275
#
# Compressibility (1/GPa) = 0.02375099
#
# Stress axis : x y z
#
# Youngs Moduli (GPa) = 99.92081 100.78050 54.45667
#
# Poissons Ratio (x) = 0.33662 0.15290
# Poissons Ratio (y) = 0.33374 0.06118
# Poissons Ratio (z) = 0.28055 0.11323
#
# Static dielectric constant tensor:
#      x y z
#    x 1.718440 0.000000 -0.023330 
#    y 0.000000 1.831940 0.000000 
#    z -0.023330 0.000000 1.820620 
# 
# From -- ./inp_files/257072.got.cif
#   From: 2010.05.17/outbox.cif.g08.bks.cpg/sg12_129_cif.got.tgz:257072.got - 2010.06.03 13:09:07.
