data_PCOD9201662
_publ_section_title
;
Structure prediction by ZEFSAII (Michael W. Deem and Ramdas Pophale) SiO2 
 PCOD9201662
Probable space group: C 2/M
;
_chemical_formula_sum "Si O2"
_cell_formula_units_Z 40
_cell_length_a 27.751805
_cell_length_b 8.365319
_cell_length_c 9.119255
_cell_angle_alpha 90.000000
_cell_angle_beta 70.771853
_cell_angle_gamma 90.000000
_cell_volume 1998.958871
_symmetry_space_group_name_H-M "C 2/M"
_symmetry_group_IT_number 12
_symmetry_cell_setting 'monoclinic'
loop_
_space_group_symop_operation_xyz
x,y,z
-x,y,-z
-x,-y,-z
x,-y,z
1/2+x,1/2+y,z
1/2-x,1/2+y,-z
1/2-x,1/2-y,-z
1/2+x,1/2-y,z
loop_
_atom_site_type_symbol
_atom_site_label
_atom_site_fract_x
_atom_site_fract_y
_atom_site_fract_z
Si Si1 0.155384 0.313370 0.918735
Si Si2 0.051287 0.805108 0.530801
Si Si3 0.552983 0.306287 0.868551
Si Si4 0.848692 0.189634 0.749266
Si Si5 0.754120 0.687144 0.661075
O O1 0.165075 0.500000 0.883962
O O2 0.101342 0.264519 0.903787
O O3 0.200611 0.216294 0.795940
O O4 0.154954 0.276223 0.091633
O O5 0.052681 0.755176 0.698856
O O6 0.101621 0.756356 0.391683
O O7 0.000000 0.751704 0.500000
O O8 0.050698 0.000000 0.532122
O O9 0.556886 0.500000 0.869318
O O10 0.500000 0.261860 0.000000
O O11 0.798601 0.222564 0.703868
O O12 0.853607 0.000000 0.772068
O O13 0.766278 0.500000 0.647734
O O14 0.750000 0.750000 0.500000
#
# Coordination Sequence:
#
# PCOD9201662 Si02
#       5
#     8   8   8   8   8
#     4  12  25  41  61  88 123 162 206 256 310 365
#     4   9  18  34  59  90 120 153 196 245 298 360
#     4  10  20  37  63  92 122 159 204 254 310 371
#     4  11  22  39  63  90 122 161 206 255 307 364
#     4  12  25  43  65  91 123 159 202 250 306 368
#
# _framework density 20.010414999999998
#
# number of rings (size 3 to 8) (size 9 to 14) (size 15 to 20)
#    0.000    1.200    0.000    7.200    0.000    5.200 
#    0.000    1.000    0.000    4.200    0.000    0.000 
#    0.000    0.000    0.000    0.000    0.000    0.000 
#
# Total GULP energy -111918.611217 kJ/mol
# GULP energy per Si atom -5595.930561 kJ/mol
# Density = 1.996487 g / cm^3
# Si number density = 20.010415 Si / 1000 Ang^3
#
#
#
# Elastic Constant Matrix: (Units=GPa)
#
#
# Indices 1 2 3 4 5 6 
#
# 1 124.7993 -20.8343 44.4715 0.0000 7.3446 0.0000
# 2 -20.8343 24.9398 -15.0562 0.0000 -1.2987 0.0000
# 3 44.4715 -15.0562 140.3328 0.0000 6.2667 0.0000
# 4 0.0000 0.0000 0.0000 26.6210 0.0000 -0.3273
# 5 7.3446 -1.2987 6.2667 0.0000 44.1279 0.0000
# 6 0.0000 0.0000 0.0000 -0.3273 0.0000 18.2077
#
#
#
# Elastic Compliance Matrix: (Units=1/GPa)
#
#
# Indices 1 2 3 4 5 6 
#
# 1 0.010092 0.006920 -0.002405 0.000000 -0.001134 0.000000
# 2 0.006920 0.047634 0.002925 0.000000 -0.000165 0.000000
# 3 -0.002405 0.002925 0.008232 0.000000 -0.000683 0.000000
# 4 0.000000 0.000000 0.000000 0.037573 0.000000 0.000675
# 5 -0.001134 -0.000165 -0.000683 0.000000 0.022942 0.000000
# 6 0.000000 0.000000 0.000000 0.000675 0.000000 0.054934
#
#
# Mechanical properties :
#
#
# Convention : Reuss Voigt Hill
#
# Bulk Modulus (GPa) = 12.37045 34.13711 23.25378
# Shear Modulus (GPa) = 25.84326 36.55736 31.20031
#
# Velocity S-wave (km/s) = 3.59763 4.27888 3.95296
# Velocity P-wave (km/s) = 4.84280 6.44271 5.69917
#
# Compressibility (1/GPa) = 0.08083782
#
# Stress axis : x y z
#
# Youngs Moduli (GPa) = 99.09022 20.99330 121.47115
#
# Poissons Ratio (x) = -0.14526 0.29214
# Poissons Ratio (y) = -0.68566 -0.35533
# Poissons Ratio (z) = 0.23832 -0.06141
#
# Static dielectric constant tensor:
#      x y z
#    x 1.663430 0.000000 -0.004520 
#    y 0.000000 1.691120 0.000000 
#    z -0.004520 0.000000 1.668900 
# 
# From -- ./inp_files/92834.got.cif
#   From: 2010.05.17/outbox.cif.g08.bks.cpg/sg12_47_cif.got.tgz:92834.got - 2010.06.03 13:09:07.
