data_PCOD9201807
_publ_section_title
;
Structure prediction by ZEFSAII (Michael W. Deem and Ramdas Pophale) SiO2 
 PCOD9201807
Probable space group: C 2/M
;
_chemical_formula_sum "Si O2"
_cell_formula_units_Z 56
_cell_length_a 7.369612
_cell_length_b 14.806417
_cell_length_c 21.051619
_cell_angle_alpha 90.000000
_cell_angle_beta 84.771068
_cell_angle_gamma 90.000000
_cell_volume 2287.541683
_symmetry_space_group_name_H-M "C 2/M"
_symmetry_group_IT_number 12
_symmetry_cell_setting 'monoclinic'
loop_
_space_group_symop_operation_xyz
x,y,z
-x,y,-z
-x,-y,-z
x,-y,z
1/2+x,1/2+y,z
1/2-x,1/2+y,-z
1/2-x,1/2-y,-z
1/2+x,1/2-y,z
loop_
_atom_site_type_symbol
_atom_site_label
_atom_site_fract_x
_atom_site_fract_y
_atom_site_fract_z
Si Si1 0.235215 0.781309 0.598658
Si Si2 0.298683 0.900339 0.705164
Si Si3 0.207403 0.142125 0.183189
Si Si4 0.000000 0.310115 0.500000
Si Si5 0.262478 0.895645 0.326987
Si Si6 0.709722 0.855970 0.013174
Si Si7 0.361885 0.851014 0.842621
Si Si8 0.608125 0.500000 0.085871
O O1 0.191386 0.829208 0.666039
O O2 0.100659 0.752740 0.547562
O O3 0.360889 0.852643 0.554330
O O4 0.299076 0.681933 0.622362
O O5 0.515932 0.885801 0.685564
O O6 0.279767 0.891315 0.781105
O O7 0.246752 0.000000 0.686892
O O8 0.188013 0.123386 0.258613
O O9 0.422867 0.125517 0.161445
O O10 0.157690 0.244012 0.167019
O O11 0.095598 0.077308 0.142102
O O12 0.224912 0.000000 0.345931
O O13 0.724928 0.877642 0.087545
O O14 0.500000 0.872014 0.000000
O O15 0.750000 0.750000 0.000000
O O16 0.833234 0.920834 0.967725
#
# Coordination Sequence:
#
# PCOD9201807 Si02
#       8
#     8   8   8   4   8   8   8   4
#     4  11  20  43  62  95 123 166 196 259 300 372
#     4  10  22  37  65  92 124 158 213 255 303 365
#     4  11  22  38  66  88 124 159 218 258 311 363
#     4  10  24  38  68  90 130 164 200 234 326 372
#     4  10  20  37  64  95 120 165 207 255 302 366
#     4  12  24  39  62  88 127 168 209 261 320 371
#     4  11  22  39  62  90 121 164 208 262 312 359
#     4  12  23  38  63  94 125 168 217 257 303 394
#
# _framework density 24.480428
#
# number of rings (size 3 to 8) (size 9 to 14) (size 15 to 20)
#    0.000    1.143    6.429    0.214    2.000    0.000 
#    0.000    5.357    1.571    0.000    0.000    0.000 
#    0.000    0.000    0.000    0.000    0.000    0.000 
#
# Total GULP energy -156024.475443 kJ/mol
# GULP energy per Si atom -5572.302694 kJ/mol
# Density = 2.442471 g / cm^3
# Si number density = 24.480428 Si / 1000 Ang^3
#
#
#
# Elastic Constant Matrix: (Units=GPa)
#
#
# Indices 1 2 3 4 5 6 
#
# 1 58.4045 -5.9320 40.5436 0.0000 8.0311 0.0000
# 2 -5.9320 114.4475 37.8680 0.0000 6.0716 0.0000
# 3 40.5436 37.8680 189.6615 0.0000 12.2445 0.0000
# 4 0.0000 0.0000 0.0000 -224.3914 0.0000 -1.5402
# 5 8.0311 6.0716 12.2445 0.0000 41.3862 0.0000
# 6 0.0000 0.0000 0.0000 -1.5402 0.0000 -6.5838
#
#
#
# Elastic Compliance Matrix: (Units=1/GPa)
#
#
# Indices 1 2 3 4 5 6 
#
# 1 0.021259 0.002895 -0.004923 0.000000 -0.003094 0.000000
# 2 0.002895 0.009778 -0.002490 0.000000 -0.001260 0.000000
# 3 -0.004923 -0.002490 0.006868 0.000000 -0.000711 0.000000
# 4 0.000000 0.000000 0.000000 -0.004464 0.000000 0.001044
# 5 -0.003094 -0.001260 -0.000711 0.000000 0.025158 0.000000
# 6 0.000000 0.000000 0.000000 0.001044 0.000000 -0.152133
#
#
# Mechanical properties :
#
#
# Convention : Reuss Voigt Hill
#
# Bulk Modulus (GPa) = 34.63874 56.38584 45.51229
# Shear Modulus (GPa) = -66.77810 -18.58220 -42.68015
#
# Velocity S-wave (km/s) = -5.22852 -2.75810 -4.17998
# Velocity P-wave (km/s) = 4.71906 3.59725 2.15979
#
# Compressibility (1/GPa) = 0.02886941
#
# Stress axis : x y z
#
# Youngs Moduli (GPa) = 47.03977 102.26694 145.60467
#
# Poissons Ratio (x) = -0.29604 0.71676
# Poissons Ratio (y) = -0.13617 0.36253
# Poissons Ratio (z) = 0.23156 0.25463
#
# Static dielectric constant tensor:
#      x y z
#    x 2.254340 0.000000 -0.114240 
#    y 0.000000 1.855410 0.000000 
#    z -0.114240 0.000000 1.944290 
# 
# From -- ./inp_files/300184.got.cif
#   From: 2010.05.17/outbox.cif.g08.bks.cpg/sg12_151_cif.got.tgz:300184.got - 2010.06.03 13:09:07.
