data_PCOD9201912
_publ_section_title
;
Structure prediction by ZEFSAII (Michael W. Deem and Ramdas Pophale) SiO2 
 PCOD9201912
Probable space group: C 2/M
;
_chemical_formula_sum "Si O2"
_cell_formula_units_Z 64
_cell_length_a 28.668119
_cell_length_b 14.392415
_cell_length_c 9.071852
_cell_angle_alpha 90.000000
_cell_angle_beta 52.456176
_cell_angle_gamma 90.000000
_cell_volume 2967.839359
_symmetry_space_group_name_H-M "C 2/M"
_symmetry_group_IT_number 12
_symmetry_cell_setting 'monoclinic'
loop_
_space_group_symop_operation_xyz
x,y,z
-x,y,-z
-x,-y,-z
x,-y,z
1/2+x,1/2+y,z
1/2-x,1/2+y,-z
1/2-x,1/2-y,-z
1/2+x,1/2-y,z
loop_
_atom_site_type_symbol
_atom_site_label
_atom_site_fract_x
_atom_site_fract_y
_atom_site_fract_z
Si Si1 0.583515 0.280226 0.010858
Si Si2 0.754588 0.148453 0.564180
Si Si3 0.325101 0.607740 0.959578
Si Si4 0.361442 0.772706 0.701465
Si Si5 0.029251 0.832067 0.586316
Si Si6 0.701932 0.098813 0.367423
Si Si7 0.608419 0.602973 0.688724
Si Si8 0.654213 0.889460 0.978063
O O1 0.583800 0.318812 0.845597
O O2 0.607485 0.175507 0.980770
O O3 0.629888 0.346392 0.009912
O O4 0.521859 0.295074 0.209861
O O5 0.750000 0.250000 0.500000
O O6 0.721839 0.094114 0.496981
O O7 0.821537 0.117472 0.456400
O O8 0.716783 0.135749 0.783894
O O9 0.339309 0.500000 0.899993
O O10 0.329711 0.677857 0.813618
O O11 0.261073 0.610122 0.156811
O O12 0.430069 0.749372 0.559027
O O13 0.338404 0.814134 0.593593
O O14 0.348390 0.849185 0.851513
O O15 0.074490 0.889287 0.599644
O O16 0.000000 0.880111 0.500000
O O17 0.673610 0.000000 0.381872
O O18 0.597613 0.500000 0.772793
O O19 0.644870 0.000000 0.989809
#
# Coordination Sequence:
#
# PCOD9201912 Si02
#       8
#     8   8   8   8   8   8   8   8
#     4  11  23  46  69  95 135 183 233 284 347 399
#     4  12  22  43  71 106 142 181 217 283 349 419
#     4  10  20  37  66  96 134 179 222 274 343 417
#     4  11  24  44  64  97 138 186 225 283 345 398
#     4  12  26  48  66  95 132 187 238 291 335 402
#     4  11  22  39  67 100 136 174 221 273 340 417
#     4  12  26  45  73 105 140 184 232 280 349 423
#     4  11  23  42  71 103 141 180 228 282 343 415
#
# _framework density 21.564511
#
# number of rings (size 3 to 8) (size 9 to 14) (size 15 to 20)
#    0.000    0.750    5.000    4.125    0.000    3.250 
#    0.000    3.125    0.000    1.500    0.000    0.000 
#    0.000    0.000    0.000    0.000    0.000    0.000 
#
# Total GULP energy -178952.455604 kJ/mol
# GULP energy per Si atom -5592.264238 kJ/mol
# Density = 2.151543 g / cm^3
# Si number density = 21.564511 Si / 1000 Ang^3
#
#
#
# Elastic Constant Matrix: (Units=GPa)
#
#
# Indices 1 2 3 4 5 6 
#
# 1 109.6070 25.8425 14.1100 0.0000 17.2481 0.0000
# 2 25.8425 153.5396 8.6011 0.0000 10.5871 0.0000
# 3 14.1100 8.6011 91.3545 0.0000 -0.2669 0.0000
# 4 0.0000 0.0000 0.0000 -23.5751 0.0000 19.2209
# 5 17.2481 10.5871 -0.2669 0.0000 28.6546 0.0000
# 6 0.0000 0.0000 0.0000 19.2209 0.0000 11.8683
#
#
#
# Elastic Compliance Matrix: (Units=1/GPa)
#
#
# Indices 1 2 3 4 5 6 
#
# 1 0.010550 -0.001284 -0.001526 0.000000 -0.005890 0.000000
# 2 -0.001284 0.006877 -0.000454 0.000000 -0.001772 0.000000
# 3 -0.001526 -0.000454 0.011228 0.000000 0.001191 0.000000
# 4 0.000000 0.000000 0.000000 -0.018280 0.000000 0.029605
# 5 -0.005890 -0.001772 0.001191 0.000000 0.039110 0.000000
# 6 0.000000 0.000000 0.000000 0.029605 0.000000 0.036312
#
#
# Mechanical properties :
#
#
# Convention : Reuss Voigt Hill
#
# Bulk Modulus (GPa) = 45.19480 50.17868 47.68674
# Shear Modulus (GPa) = 50.15083 23.78605 36.96844
#
# Velocity S-wave (km/s) = 4.82770 3.32477 4.14492
# Velocity P-wave (km/s) = 7.21658 6.16915 6.71333
#
# Compressibility (1/GPa) = 0.02212644
#
# Stress axis : x y z
#
# Youngs Moduli (GPa) = 94.79117 145.41783 89.06084
#
# Poissons Ratio (x) = 0.18672 0.13588
# Poissons Ratio (y) = 0.12171 0.04046
# Poissons Ratio (z) = 0.14463 0.06606
#
# Static dielectric constant tensor:
#      x y z
#    x 1.823750 0.000000 0.042050 
#    y 0.000000 1.862990 0.000000 
#    z 0.042050 0.000000 1.790910 
# 
# From -- ./inp_files/111963.got.cif
#   From: 2010.05.17/outbox.cif.g08.bks.cpg/sg12_56_cif.got.tgz:111963.got - 2010.06.03 13:09:07.
