data_PCOD9201774
_publ_section_title
;
Structure prediction by ZEFSAII (Michael W. Deem and Ramdas Pophale) SiO2 
 PCOD9201774
Probable space group: C 2/M
;
_chemical_formula_sum "Si O2"
_cell_formula_units_Z 64
_cell_length_a 31.452223
_cell_length_b 17.554959
_cell_length_c 10.078329
_cell_angle_alpha 90.000000
_cell_angle_beta 38.667128
_cell_angle_gamma 90.000000
_cell_volume 3476.779149
_symmetry_space_group_name_H-M "C 2/M"
_symmetry_group_IT_number 12
_symmetry_cell_setting 'monoclinic'
loop_
_space_group_symop_operation_xyz
x,y,z
-x,y,-z
-x,-y,-z
x,-y,z
1/2+x,1/2+y,z
1/2-x,1/2+y,-z
1/2-x,1/2-y,-z
1/2+x,1/2-y,z
loop_
_atom_site_type_symbol
_atom_site_label
_atom_site_fract_x
_atom_site_fract_y
_atom_site_fract_z
Si Si1 0.636830 0.090835 0.895019
Si Si2 0.273287 0.910645 0.575499
Si Si3 0.347485 0.333018 0.722947
Si Si4 0.137384 0.912005 0.038890
Si Si5 0.500065 0.332361 0.656274
Si Si6 0.994952 0.313074 0.854710
Si Si7 0.356534 0.841106 0.607251
Si Si8 0.209901 0.410679 0.980319
O O1 0.695656 0.104674 0.643498
O O2 0.664020 0.117964 0.970708
O O3 0.624633 0.000000 0.930814
O O4 0.568599 0.132479 0.017205
O O5 0.310335 0.857798 0.592301
O O6 0.288450 0.000000 0.570219
O O7 0.192538 0.901398 0.788814
O O8 0.341915 0.356190 0.891116
O O9 0.423539 0.361259 0.500001
O O10 0.347421 0.243498 0.690188
O O11 0.282721 0.369962 0.810739
O O12 0.060621 0.892681 0.185702
O O13 0.142130 0.000000 0.073246
O O14 0.500000 0.307381 0.500000
O O15 0.485485 0.263132 0.790814
O O16 0.065585 0.348900 0.629231
O O17 0.000000 0.297802 0.000000
O O18 0.331073 0.896832 0.784368
O O19 0.221926 0.500000 0.931713
#
# Coordination Sequence:
#
# PCOD9201774 Si02
#       8
#     8   8   8   8   8   8   8   8
#     4  10  24  40  58  87 119 157 202 244 293 347
#     4  10  20  38  59  86 119 155 200 244 290 352
#     4  10  21  36  59  89 121 152 191 244 294 346
#     4  10  20  37  64  92 117 155 198 243 293 350
#     4   9  22  39  61  89 119 153 194 248 291 347
#     4  11  23  41  60  84 120 158 194 245 299 348
#     4  11  22  37  61  88 115 155 201 240 296 349
#     4  11  23  39  60  87 121 156 194 245 295 347
#
# _framework density 18.407841000000001
#
# number of rings (size 3 to 8) (size 9 to 14) (size 15 to 20)
#    0.000    1.750    2.500    1.125    5.250    4.000 
#    4.500    2.500    0.000    0.375    0.000    0.000 
#    0.000    0.000    0.000    0.000    0.000    0.000 
#
# Total GULP energy -178536.434397 kJ/mol
# GULP energy per Si atom -5579.263575 kJ/mol
# Density = 1.836594 g / cm^3
# Si number density = 18.407841 Si / 1000 Ang^3
#
#
#
# Elastic Constant Matrix: (Units=GPa)
#
#
# Indices 1 2 3 4 5 6 
#
# 1 73.9612 13.9204 32.0824 0.0000 1.6842 0.0000
# 2 13.9204 20.2012 23.8759 0.0000 -6.8546 0.0000
# 3 32.0824 23.8759 92.7688 0.0000 -6.9140 0.0000
# 4 0.0000 0.0000 0.0000 20.8722 0.0000 -4.8736
# 5 1.6842 -6.8546 -6.9140 0.0000 26.9941 0.0000
# 6 0.0000 0.0000 0.0000 -4.8736 0.0000 33.4472
#
#
#
# Elastic Compliance Matrix: (Units=1/GPa)
#
#
# Indices 1 2 3 4 5 6 
#
# 1 0.016931 -0.008339 -0.004022 0.000000 -0.004204 0.000000
# 2 -0.008339 0.080540 -0.016598 0.000000 0.016721 0.000000
# 3 -0.004022 -0.016598 0.016461 0.000000 0.000252 0.000000
# 4 0.000000 0.000000 0.000000 0.049598 0.000000 0.007227
# 5 -0.004204 0.016721 0.000252 0.000000 0.041618 0.000000
# 6 0.000000 0.000000 0.000000 0.007227 0.000000 0.030951
#
#
# Mechanical properties :
#
#
# Convention : Reuss Voigt Hill
#
# Bulk Modulus (GPa) = 17.85337 36.29874 27.07605
# Shear Modulus (GPa) = 15.99032 24.06619 20.02826
#
# Velocity S-wave (km/s) = 2.95052 3.61971 3.30211
# Velocity P-wave (km/s) = 4.61814 6.10178 5.41105
#
# Compressibility (1/GPa) = 0.05601184
#
# Stress axis : x y z
#
# Youngs Moduli (GPa) = 59.06461 12.41621 60.74891
#
# Poissons Ratio (x) = 0.10354 0.24434
# Poissons Ratio (y) = 0.49256 1.00833
# Poissons Ratio (z) = 0.23757 0.20609
#
# Static dielectric constant tensor:
#      x y z
#    x 1.621860 0.000000 -0.011240 
#    y 0.000000 1.624360 0.000000 
#    z -0.011240 0.000000 1.635740 
# 
# From -- ./inp_files/112833.got.cif
#   From: 2010.05.17/outbox.cif.g08.bks.cpg/sg12_57_cif.got.tgz:112833.got - 2010.06.03 13:09:07.
