data_PCOD9201097
_publ_section_title
;
Structure prediction by ZEFSAII (Michael W. Deem and Ramdas Pophale) SiO2 
 PCOD9201097
Probable space group: C 2/M
;
_chemical_formula_sum "Si O2"
_cell_formula_units_Z 56
_cell_length_a 23.068050
_cell_length_b 7.786747
_cell_length_c 15.227958
_cell_angle_alpha 90.000000
_cell_angle_beta 114.418331
_cell_angle_gamma 90.000000
_cell_volume 2490.652324
_symmetry_space_group_name_H-M "C 2/M"
_symmetry_group_IT_number 12
_symmetry_cell_setting 'monoclinic'
loop_
_space_group_symop_operation_xyz
x,y,z
-x,y,-z
-x,-y,-z
x,-y,z
1/2+x,1/2+y,z
1/2-x,1/2+y,-z
1/2-x,1/2-y,-z
1/2+x,1/2-y,z
loop_
_atom_site_type_symbol
_atom_site_label
_atom_site_fract_x
_atom_site_fract_y
_atom_site_fract_z
Si Si1 0.000377 0.196101 0.098536
Si Si2 0.178826 0.192283 0.487307
Si Si3 0.882645 0.300552 0.725341
Si Si4 0.157119 0.792872 0.769377
Si Si5 0.794279 0.708510 0.828280
Si Si6 0.073237 0.210515 0.560994
Si Si7 0.638002 0.201395 0.953422
O O1 0.928301 0.200806 0.083819
O O2 0.045333 0.287534 0.196343
O O3 0.023463 0.000000 0.105699
O O4 0.000000 0.273372 0.000000
O O5 0.250000 0.250000 0.500000
O O6 0.136300 0.199185 0.372763
O O7 0.129632 0.270830 0.529175
O O8 0.190401 0.000000 0.527647
O O9 0.866607 0.500000 0.698404
O O10 0.841849 0.235139 0.782547
O O11 0.222546 0.739697 0.763431
O O12 0.097330 0.740080 0.673375
O O13 0.162702 0.724582 0.871091
O O14 0.155738 0.000000 0.774254
O O15 0.795881 0.500000 0.829550
O O16 0.817257 0.763268 0.939277
O O17 0.000000 0.266886 0.500000
O O18 0.072367 0.000000 0.554601
O O19 0.625380 0.000000 0.961070
#
# Coordination Sequence:
#
# PCOD9201097 Si02
#       7
#     8   8   8   8   8   8   8
#     4  11  23  39  59  87 121 159 205 252 298 357
#     4  11  23  41  66  95 126 163 213 264 318 378
#     4  11  22  39  64  92 125 162 200 248 310 372
#     4  10  20  37  61  85 113 156 205 247 295 362
#     4   9  19  36  58  85 120 161 197 236 300 372
#     4   9  20  39  62  87 119 161 209 260 314 371
#     4  11  22  37  57  85 121 159 198 244 302 362
#
# _framework density 22.484069999999999
#
# number of rings (size 3 to 8) (size 9 to 14) (size 15 to 20)
#    0.000    1.714    1.429    3.000    2.000    2.857 
#    0.000    5.000    0.000    2.143    0.000    0.000 
#    0.000    0.000    0.000    0.000    0.000    0.000 
#
# Total GULP energy -156292.271171 kJ/mol
# GULP energy per Si atom -5581.866828 kJ/mol
# Density = 2.243290 g / cm^3
# Si number density = 22.484070 Si / 1000 Ang^3
#
#
#
# Elastic Constant Matrix: (Units=GPa)
#
#
# Indices 1 2 3 4 5 6 
#
# 1 84.5510 -2.2907 7.5084 0.0000 2.8922 0.0000
# 2 -2.2907 37.0822 -9.7045 0.0000 -0.7068 0.0000
# 3 7.5084 -9.7045 91.5617 0.0000 -3.3129 0.0000
# 4 0.0000 0.0000 0.0000 -199.7924 0.0000 -150.6458
# 5 2.8922 -0.7068 -3.3129 0.0000 32.2088 0.0000
# 6 0.0000 0.0000 0.0000 -150.6458 0.0000 -80.4680
#
#
#
# Elastic Compliance Matrix: (Units=1/GPa)
#
#
# Indices 1 2 3 4 5 6 
#
# 1 0.011966 0.000462 -0.000974 0.000000 -0.001165 0.000000
# 2 0.000462 0.027781 0.002938 0.000000 0.000870 0.000000
# 3 -0.000974 0.002938 0.011361 0.000000 0.001320 0.000000
# 4 0.000000 0.000000 0.000000 0.012160 0.000000 -0.022766
# 5 -0.001165 0.000870 0.001320 0.000000 0.031307 0.000000
# 6 0.000000 0.000000 0.000000 -0.022766 0.000000 0.030193
#
#
# Mechanical properties :
#
#
# Convention : Reuss Voigt Hill
#
# Bulk Modulus (GPa) = 17.87017 22.69125 20.28071
# Shear Modulus (GPa) = 36.08298 -35.09820 0.49239
#
# Velocity S-wave (km/s) = 4.01037 -3.95527 0.46848
# Velocity P-wave (km/s) = 5.42303 3.27793 3.05487
#
# Compressibility (1/GPa) = 0.05595918
#
# Stress axis : x y z
#
# Youngs Moduli (GPa) = 83.56965 35.99565 88.02287
#
# Poissons Ratio (x) = -0.01663 0.08577
# Poissons Ratio (y) = -0.03861 -0.25862
# Poissons Ratio (z) = 0.08143 -0.10576
#
# Static dielectric constant tensor:
#      x y z
#    x 1.881290 0.000000 -0.038650 
#    y 0.000000 1.879010 0.000000 
#    z -0.038650 0.000000 1.808930 
# 
# From -- ./inp_files/238984.got.cif
#   From: 2010.05.17/outbox.cif.g08.bks.cpg/sg12_120_cif.got.tgz:238984.got - 2010.06.03 13:09:07.
