data_PCOD9201841
_publ_section_title
;
Structure prediction by ZEFSAII (Michael W. Deem and Ramdas Pophale) SiO2 
 PCOD9201841
Probable space group: C 2/M
;
_chemical_formula_sum "Si O2"
_cell_formula_units_Z 52
_cell_length_a 13.550222
_cell_length_b 14.359681
_cell_length_c 16.131249
_cell_angle_alpha 90.000000
_cell_angle_beta 134.206860
_cell_angle_gamma 90.000000
_cell_volume 2249.953965
_symmetry_space_group_name_H-M "C 2/M"
_symmetry_group_IT_number 12
_symmetry_cell_setting 'monoclinic'
loop_
_space_group_symop_operation_xyz
x,y,z
-x,y,-z
-x,-y,-z
x,-y,z
1/2+x,1/2+y,z
1/2-x,1/2+y,-z
1/2-x,1/2-y,-z
1/2+x,1/2-y,z
loop_
_atom_site_type_symbol
_atom_site_label
_atom_site_fract_x
_atom_site_fract_y
_atom_site_fract_z
Si Si1 0.049407 0.170569 0.201975
Si Si2 0.280267 0.107089 0.451581
Si Si3 0.024471 0.303600 0.688926
Si Si4 0.082379 0.500000 0.810938
Si Si5 0.090203 0.000000 0.966806
Si Si6 0.352748 0.392141 0.453749
Si Si7 0.609999 0.000000 0.136571
Si Si8 0.781764 0.304987 0.768633
O O1 0.194596 0.126630 0.318625
O O2 0.082821 0.242877 0.148130
O O3 0.998374 0.232159 0.248707
O O4 0.952725 0.089997 0.112096
O O5 0.401081 0.177441 0.550278
O O6 0.168527 0.113689 0.461125
O O7 0.331361 0.000000 0.479823
O O8 0.050995 0.405973 0.741798
O O9 0.155268 0.256830 0.722778
O O10 0.981029 0.500000 0.831784
O O11 0.245854 0.500000 0.924204
O O12 0.000000 0.000000 0.000000
O O13 0.500000 0.370776 0.500000
O O14 0.325208 0.500000 0.415985
O O15 0.242842 0.329771 0.342673
O O16 0.700450 0.906333 0.181843
O O17 0.500000 0.000000 0.000000
#
# Coordination Sequence:
#
# PCOD9201841 Si02
#       8
#     8   8   8   4   4   8   4   8
#     4  12  26  47  74 109 154 199 250 313 381 460
#     4  11  22  45  74 107 155 201 242 301 386 466
#     4  12  26  45  80 113 151 196 252 313 386 459
#     4  12  26  55  79 103 151 209 254 321 382 446
#     4  12  30  53  74 107 156 204 261 320 379 439
#     4  10  20  37  65 102 145 188 229 291 365 441
#     4  12  28  52  76 107 146 194 263 325 377 447
#     4  12  26  44  73 110 148 192 250 304 379 449
#
# _framework density 23.111583
#
# number of rings (size 3 to 8) (size 9 to 14) (size 15 to 20)
#    0.000    0.462    5.385    2.308    4.308    2.462 
#    0.000    0.769    0.000    0.000    0.000    0.000 
#    0.000    0.000    0.000    0.000    0.000    0.000 
#
# Total GULP energy -145433.121328 kJ/mol
# GULP energy per Si atom -5593.581590 kJ/mol
# Density = 2.305898 g / cm^3
# Si number density = 23.111583 Si / 1000 Ang^3
#
#
#
# Elastic Constant Matrix: (Units=GPa)
#
#
# Indices 1 2 3 4 5 6 
#
# 1 77.8271 19.5263 8.8307 0.0000 8.6281 0.0000
# 2 19.5263 156.0636 38.8744 0.0000 -1.8903 0.0000
# 3 8.8307 38.8744 100.6454 0.0000 2.3950 0.0000
# 4 0.0000 0.0000 0.0000 25.7510 0.0000 12.6004
# 5 8.6281 -1.8903 2.3950 0.0000 24.8266 0.0000
# 6 0.0000 0.0000 0.0000 12.6004 0.0000 39.1305
#
#
#
# Elastic Compliance Matrix: (Units=1/GPa)
#
#
# Indices 1 2 3 4 5 6 
#
# 1 0.013866 -0.001682 -0.000450 0.000000 -0.004903 0.000000
# 2 -0.001682 0.007310 -0.002709 0.000000 0.001403 0.000000
# 3 -0.000450 -0.002709 0.011048 0.000000 -0.001116 0.000000
# 4 0.000000 0.000000 0.000000 0.046097 0.000000 -0.014843
# 5 -0.004903 0.001403 -0.001116 0.000000 0.042198 0.000000
# 6 0.000000 0.000000 0.000000 -0.014843 0.000000 0.030335
#
#
# Mechanical properties :
#
#
# Convention : Reuss Voigt Hill
#
# Bulk Modulus (GPa) = 44.36373 52.11100 48.23736
# Shear Modulus (GPa) = 29.75295 35.76192 32.75744
#
# Velocity S-wave (km/s) = 3.59187 3.93792 3.76887
# Velocity P-wave (km/s) = 6.03649 6.57820 6.31316
#
# Compressibility (1/GPa) = 0.02254094
#
# Stress axis : x y z
#
# Youngs Moduli (GPa) = 72.12032 136.79977 90.51103
#
# Poissons Ratio (x) = 0.23011 0.04075
# Poissons Ratio (y) = 0.12131 0.24522
# Poissons Ratio (z) = 0.03247 0.37063
#
# Static dielectric constant tensor:
#      x y z
#    x 1.894790 0.000000 0.009020 
#    y 0.000000 1.886960 0.000000 
#    z 0.009020 0.000000 1.852870 
# 
# From -- ./inp_files/270784.got.cif
#   From: 2010.05.17/outbox.cif.g08.bks.cpg/sg12_136_cif.got.tgz:270784.got - 2010.06.03 13:09:07.
