data_PCOD9201398
_publ_section_title
;
Structure prediction by ZEFSAII (Michael W. Deem and Ramdas Pophale) SiO2 
 PCOD9201398
Probable space group: C 2/M
;
_chemical_formula_sum "Si O2"
_cell_formula_units_Z 56
_cell_length_a 20.937995
_cell_length_b 15.330933
_cell_length_c 23.702203
_cell_angle_alpha 90.000000
_cell_angle_beta 19.676270
_cell_angle_gamma 90.000000
_cell_volume 2561.783053
_symmetry_space_group_name_H-M "C 2/M"
_symmetry_group_IT_number 12
_symmetry_cell_setting 'monoclinic'
loop_
_space_group_symop_operation_xyz
x,y,z
-x,y,-z
-x,-y,-z
x,-y,z
1/2+x,1/2+y,z
1/2-x,1/2+y,-z
1/2-x,1/2-y,-z
1/2+x,1/2-y,z
loop_
_atom_site_type_symbol
_atom_site_label
_atom_site_fract_x
_atom_site_fract_y
_atom_site_fract_z
Si Si1 0.946607 0.361416 0.484165
Si Si2 0.335950 0.394373 0.095428
Si Si3 0.744546 0.101744 0.467123
Si Si4 0.925808 0.105409 0.729742
Si Si5 0.639026 0.892999 0.152316
Si Si6 0.623830 0.341218 0.448734
Si Si7 0.059658 0.605564 0.091904
O O1 0.786826 0.394568 0.573793
O O2 0.887856 0.262817 0.544485
O O3 0.000000 0.402684 0.500000
O O4 0.139222 0.370243 0.288681
O O5 0.352086 0.500000 0.081034
O O6 0.310028 0.365841 0.051852
O O7 0.500000 0.360056 0.000000
O O8 0.559185 0.137265 0.653963
O O9 0.937990 0.137007 0.332526
O O10 0.745127 0.000000 0.481438
O O11 0.025580 0.132349 0.589046
O O12 0.917894 0.000000 0.736806
O O13 0.711673 0.136463 0.918993
O O14 0.635530 0.865863 0.090422
O O15 0.640065 0.000000 0.151829
O O16 0.500000 0.378008 0.500000
O O17 0.842881 0.367556 0.264178
O O18 0.060079 0.500000 0.091760
#
# Coordination Sequence:
#
# PCOD9201398 Si02
#       7
#     8   8   8   8   8   8   8
#     4  10  22  38  54  83 121 164 200 233 293 353
#     4   9  18  34  58  87 118 157 200 241 287 339
#     4   9  17  34  61  86 115 153 194 243 292 345
#     4  10  21  38  63  93 114 145 198 249 301 352
#     4   8  14  29  54  82 114 148 183 235 295 340
#     4  11  24  42  58  82 121 162 193 245 304 355
#     4  10  20  37  62  88 115 147 195 251 297 353
#
# _framework density 21.859774000000002
#
# number of rings (size 3 to 8) (size 9 to 14) (size 15 to 20)
#    0.000    2.429    1.429    1.714    0.000    4.571 
#    5.143    5.000    0.000    0.000    0.000    0.000 
#    0.000    0.000    0.000    0.000    0.000    0.000 
#
# Total GULP energy -156154.527413 kJ/mol
# GULP energy per Si atom -5576.947408 kJ/mol
# Density = 2.181002 g / cm^3
# Si number density = 21.859774 Si / 1000 Ang^3
#
#
#
# Elastic Constant Matrix: (Units=GPa)
#
#
# Indices 1 2 3 4 5 6 
#
# 1 160.4214 4.8342 84.2487 -0.0061 -29.3038 -0.0045
# 2 4.8342 32.9706 9.3010 0.0175 -6.5169 0.0041
# 3 84.2487 9.3010 135.4426 0.0248 -15.6086 0.0047
# 4 -0.0061 0.0175 0.0248 14.7553 -0.0037 7.4280
# 5 -29.3038 -6.5169 -15.6086 -0.0037 25.1713 -0.0038
# 6 -0.0045 0.0041 0.0047 7.4280 -0.0038 35.5761
#
#
#
# Elastic Compliance Matrix: (Units=1/GPa)
#
#
# Indices 1 2 3 4 5 6 
#
# 1 0.011036 0.001960 -0.005881 0.000015 0.009709 0.000000
# 2 0.001960 0.032540 -0.002391 -0.000034 0.009224 0.000005
# 3 -0.005881 -0.002391 0.011141 -0.000019 -0.000556 0.000002
# 4 0.000015 -0.000034 -0.000019 0.075732 0.000005 -0.015812
# 5 0.009709 0.009224 -0.000556 0.000005 0.053074 0.000005
# 6 0.000000 0.000005 0.000002 -0.015812 0.000005 0.031410
#
#
# Mechanical properties :
#
#
# Convention : Reuss Voigt Hill
#
# Bulk Modulus (GPa) = 23.75581 58.40026 41.07804
# Shear Modulus (GPa) = 20.69633 30.46394 25.58013
#
# Velocity S-wave (km/s) = 3.08031 3.73715 3.42452
# Velocity P-wave (km/s) = 4.85202 6.73763 5.87102
#
# Compressibility (1/GPa) = 0.04209497
#
# Stress axis : x y z
#
# Youngs Moduli (GPa) = 90.60919 30.73111 89.75744
#
# Poissons Ratio (x) = -0.06023 0.52783
# Poissons Ratio (y) = -0.17758 0.21458
# Poissons Ratio (z) = 0.53284 0.07347
#
# Static dielectric constant tensor:
#      x y z
#    x 1.849480 0.000000 -0.006590 
#    y 0.000000 1.702270 -0.000010 
#    z -0.006590 -0.000010 1.696020 
# 
# From -- ./inp_files/347782.got.cif
#   From: 2010.05.17/outbox.cif.g08.bks.cpg/sg12_174_cif.got.tgz:347782.got - 2010.06.03 13:09:07.
