data_PCOD9201543
_publ_section_title
;
Structure prediction by ZEFSAII (Michael W. Deem and Ramdas Pophale) SiO2 
 PCOD9201543
Probable space group: C 2/M
;
_chemical_formula_sum "Si O2"
_cell_formula_units_Z 40
_cell_length_a 31.208453
_cell_length_b 14.432056
_cell_length_c 10.106958
_cell_angle_alpha 90.000000
_cell_angle_beta 27.493442
_cell_angle_gamma 90.000000
_cell_volume 2101.507791
_symmetry_space_group_name_H-M "C 2/M"
_symmetry_group_IT_number 12
_symmetry_cell_setting 'monoclinic'
loop_
_space_group_symop_operation_xyz
x,y,z
-x,y,-z
-x,-y,-z
x,-y,z
1/2+x,1/2+y,z
1/2-x,1/2+y,-z
1/2-x,1/2-y,-z
1/2+x,1/2-y,z
loop_
_atom_site_type_symbol
_atom_site_label
_atom_site_fract_x
_atom_site_fract_y
_atom_site_fract_z
Si Si1 0.292576 0.611622 0.275874
Si Si2 0.602811 0.603946 0.271441
Si Si3 0.104490 0.608529 0.666866
Si Si4 0.838313 0.770695 0.666680
Si Si5 0.889686 0.888024 0.282836
O O1 0.303937 0.500000 0.243597
O O2 0.182783 0.630980 0.563607
O O3 0.348129 0.641621 0.254042
O O4 0.335993 0.643109 0.017166
O O5 0.500000 0.594513 0.500000
O O6 0.637617 0.500000 0.211910
O O7 0.598379 0.669529 0.409082
O O8 0.116238 0.500000 0.602279
O O9 0.123126 0.673989 0.491745
O O10 0.000000 0.623463 0.000000
O O11 0.831542 0.835142 0.555006
O O12 0.750000 0.750000 0.000000
O O13 0.881049 0.000000 0.318674
O O14 0.000000 0.866183 0.000000
#
# Coordination Sequence:
#
# PCOD9201543 Si02
#       5
#     8   8   8   8   8
#     4   9  18  36  60  85 114 155 200 242 296 360
#     4  10  20  37  62  91 125 157 192 248 317 375
#     4  10  22  41  61  80 114 166 215 247 284 350
#     4  12  23  37  58  92 122 157 193 250 307 359
#     4  10  21  38  62  91 121 151 196 254 310 364
#
# _framework density 19.033954000000001
#
# number of rings (size 3 to 8) (size 9 to 14) (size 15 to 20)
#    0.000    1.800    2.000    2.400    0.000    4.800 
#    3.600    0.000    0.000    0.600    0.000    0.000 
#    0.000    0.000    0.000    0.000    0.000    0.000 
#
# Total GULP energy -111521.255410 kJ/mol
# GULP energy per Si atom -5576.062771 kJ/mol
# Density = 1.899063 g / cm^3
# Si number density = 19.033954 Si / 1000 Ang^3
#
#
#
# Elastic Constant Matrix: (Units=GPa)
#
#
# Indices 1 2 3 4 5 6 
#
# 1 143.0718 48.4856 55.3476 0.0000 9.3634 0.0000
# 2 48.4856 94.5055 51.2622 0.0000 12.8091 0.0000
# 3 55.3476 51.2622 101.4336 0.0000 6.1808 0.0000
# 4 0.0000 0.0000 0.0000 18.5005 0.0000 29.6862
# 5 9.3634 12.8091 6.1808 0.0000 31.1606 0.0000
# 6 0.0000 0.0000 0.0000 29.6862 0.0000 -5.5657
#
#
#
# Elastic Compliance Matrix: (Units=1/GPa)
#
#
# Indices 1 2 3 4 5 6 
#
# 1 0.009398 -0.002671 -0.003718 0.000000 -0.000989 0.000000
# 2 -0.002671 0.016014 -0.006361 0.000000 -0.004519 0.000000
# 3 -0.003718 -0.006361 0.015056 0.000000 0.000745 0.000000
# 4 0.000000 0.000000 0.000000 0.005655 0.000000 0.030162
# 5 -0.000989 -0.004519 0.000745 0.000000 0.034099 0.000000
# 6 0.000000 0.000000 0.000000 0.030162 0.000000 -0.018797
#
#
# Mechanical properties :
#
#
# Convention : Reuss Voigt Hill
#
# Bulk Modulus (GPa) = 66.80089 72.13352 69.46721
# Shear Modulus (GPa) = 54.39933 21.08011 37.73972
#
# Velocity S-wave (km/s) = 5.35184 3.33152 4.45765
# Velocity P-wave (km/s) = 8.56513 7.26487 7.94165
#
# Compressibility (1/GPa) = 0.01496986
#
# Stress axis : x y z
#
# Youngs Moduli (GPa) = 106.41096 62.44455 66.41695
#
# Poissons Ratio (x) = 0.16677 0.24693
# Poissons Ratio (y) = 0.28419 0.42245
# Poissons Ratio (z) = 0.39562 0.39718
#
# Static dielectric constant tensor:
#      x y z
#    x 1.918130 0.000000 0.339610 
#    y 0.000000 1.712260 0.000000 
#    z 0.339610 0.000000 2.200220 
# 
# From -- ./inp_files/58927.got.cif
#   From: 2010.05.17/outbox.cif.g08.bks.cpg/sg12_30_cif.got.tgz:58927.got - 2010.06.03 13:09:07.
