data_PCOD9201751
_publ_section_title
;
Structure prediction by ZEFSAII (Michael W. Deem and Ramdas Pophale) SiO2 
 PCOD9201751
Probable space group: C 2/M
;
_chemical_formula_sum "Si O2"
_cell_formula_units_Z 64
_cell_length_a 31.092176
_cell_length_b 9.059851
_cell_length_c 19.561755
_cell_angle_alpha 90.000000
_cell_angle_beta 141.732501
_cell_angle_gamma 90.000000
_cell_volume 3412.752141
_symmetry_space_group_name_H-M "C 2/M"
_symmetry_group_IT_number 12
_symmetry_cell_setting 'monoclinic'
loop_
_space_group_symop_operation_xyz
x,y,z
-x,y,-z
-x,-y,-z
x,-y,z
1/2+x,1/2+y,z
1/2-x,1/2+y,-z
1/2-x,1/2-y,-z
1/2+x,1/2-y,z
loop_
_atom_site_type_symbol
_atom_site_label
_atom_site_fract_x
_atom_site_fract_y
_atom_site_fract_z
Si Si1 0.422077 0.676802 0.592186
Si Si2 0.291075 0.670582 0.756059
Si Si3 0.798777 0.170960 0.248461
Si Si4 0.716256 0.171582 0.522271
Si Si5 0.070559 0.671760 0.546058
Si Si6 0.052109 0.821544 0.006142
Si Si7 0.555917 0.321779 0.852978
Si Si8 0.701478 0.825360 0.996169
O O1 0.414333 0.500000 0.580574
O O2 0.353825 0.749147 0.540194
O O3 0.430622 0.738676 0.526210
O O4 0.489828 0.711756 0.722775
O O5 0.544291 0.500000 0.994867
O O6 0.239387 0.777810 0.730691
O O7 0.272232 0.677078 0.653373
O O8 0.369643 0.710107 0.872286
O O9 0.867184 0.268966 0.329285
O O10 0.744087 0.192768 0.119718
O O11 0.818588 0.000000 0.275573
O O12 0.750000 0.250000 0.500000
O O13 0.701236 0.000000 0.489382
O O14 0.082141 0.500000 0.543921
O O15 0.000000 0.687361 0.500000
O O16 0.220549 0.000000 0.235560
O O17 0.043024 0.773035 0.915918
O O18 0.000000 0.765401 0.000000
O O19 0.565336 0.500000 0.865205
O O20 0.626199 0.248692 0.911818
O O21 0.693806 0.000000 0.972689
O O22 0.750000 0.750000 0.000000
#
# Coordination Sequence:
#
# PCOD9201751 Si02
#       8
#     8   8   8   8   8   8   8   8
#     4  11  24  41  63  92 127 162 205 259 309 369
#     4  10  20  37  64  90 118 156 206 256 302 365
#     4  11  23  40  64  91 122 158 203 257 310 363
#     4  11  24  40  62  92 125 166 211 255 312 370
#     4  11  25  43  64  91 122 162 208 252 309 375
#     4   9  18  34  61  91 118 154 199 247 295 354
#     4  10  22  40  63  91 124 163 204 249 306 366
#     4  11  25  42  63  92 125 162 206 254 307 369
#
# _framework density 18.753191999999999
#
# number of rings (size 3 to 8) (size 9 to 14) (size 15 to 20)
#    0.000    1.500    2.500    1.875    3.500    4.000 
#    0.000    0.000    0.000    0.750    0.000    0.000 
#    0.000    0.000    0.000    0.000    0.000    0.000 
#
# Total GULP energy -178750.673452 kJ/mol
# GULP energy per Si atom -5585.958545 kJ/mol
# Density = 1.871051 g / cm^3
# Si number density = 18.753192 Si / 1000 Ang^3
#
#
#
# Elastic Constant Matrix: (Units=GPa)
#
#
# Indices 1 2 3 4 5 6 
#
# 1 67.5803 39.7505 24.0103 0.0000 -0.5956 0.0000
# 2 39.7505 76.0037 51.6583 0.0000 -0.6941 0.0000
# 3 24.0103 51.6583 90.6132 0.0000 9.3252 0.0000
# 4 0.0000 0.0000 0.0000 25.3912 0.0000 3.2812
# 5 -0.5956 -0.6941 9.3252 0.0000 24.1947 0.0000
# 6 0.0000 0.0000 0.0000 3.2812 0.0000 25.1893
#
#
#
# Elastic Compliance Matrix: (Units=1/GPa)
#
#
# Indices 1 2 3 4 5 6 
#
# 1 0.021448 -0.012044 0.001212 0.000000 -0.000285 0.000000
# 2 -0.012044 0.028986 -0.013942 0.000000 0.005908 0.000000
# 3 0.001212 -0.013942 0.019473 0.000000 -0.007876 0.000000
# 4 0.000000 0.000000 0.000000 0.040058 0.000000 -0.005218
# 5 -0.000285 0.005908 -0.007876 0.000000 0.044529 0.000000
# 6 0.000000 0.000000 0.000000 -0.005218 0.000000 0.040379
#
#
# Mechanical properties :
#
#
# Convention : Reuss Voigt Hill
#
# Bulk Modulus (GPa) = 49.11370 51.67060 50.39215
# Shear Modulus (GPa) = 19.90379 22.87358 21.38868
#
# Velocity S-wave (km/s) = 3.26138 3.49623 3.38085
# Velocity P-wave (km/s) = 6.35834 6.62654 6.49382
#
# Compressibility (1/GPa) = 0.02036092
#
# Stress axis : x y z
#
# Youngs Moduli (GPa) = 46.62351 34.49898 51.35258
#
# Poissons Ratio (x) = 0.41552 -0.06226
# Poissons Ratio (y) = 0.56155 0.71594
# Poissons Ratio (z) = -0.05653 0.48097
#
# Static dielectric constant tensor:
#      x y z
#    x 1.633960 0.000000 -0.011970 
#    y 0.000000 1.637200 0.000000 
#    z -0.011970 0.000000 1.654470 
# 
# From -- ./inp_files/295703.got.cif
#   From: 2010.05.17/outbox.cif.g08.bks.cpg/sg12_148_cif.got.tgz:295703.got - 2010.06.03 13:09:07.
