data_PCOD9201611
_publ_section_title
;
Structure prediction by ZEFSAII (Michael W. Deem and Ramdas Pophale) SiO2 
 PCOD9201611
Probable space group: C 2/M
;
_chemical_formula_sum "Si O2"
_cell_formula_units_Z 46
_cell_length_a 10.119685
_cell_length_b 15.781781
_cell_length_c 22.408408
_cell_angle_alpha 90.000000
_cell_angle_beta 141.018747
_cell_angle_gamma 90.000000
_cell_volume 2251.283957
_symmetry_space_group_name_H-M "C 2/M"
_symmetry_group_IT_number 12
_symmetry_cell_setting 'monoclinic'
loop_
_space_group_symop_operation_xyz
x,y,z
-x,y,-z
-x,-y,-z
x,-y,z
1/2+x,1/2+y,z
1/2-x,1/2+y,-z
1/2-x,1/2-y,-z
1/2+x,1/2-y,z
loop_
_atom_site_type_symbol
_atom_site_label
_atom_site_fract_x
_atom_site_fract_y
_atom_site_fract_z
Si Si1 0.500000 0.712809 0.000000
Si Si2 0.769845 0.735136 0.436531
Si Si3 0.500000 0.000000 0.000000
Si Si4 0.304547 0.365908 0.117921
Si Si5 0.652209 0.903921 0.322510
Si Si6 0.666933 0.655068 0.739495
Si Si7 0.186484 0.845911 0.181662
O O1 0.708939 0.772455 0.072638
O O2 0.532623 0.659716 0.070917
O O3 0.750000 0.750000 0.500000
O O4 0.740965 0.825871 0.393027
O O5 0.582708 0.671453 0.353145
O O6 0.000000 0.702773 0.500000
O O7 0.343428 0.073177 0.970417
O O8 0.279371 0.388831 0.178966
O O9 0.544543 0.379295 0.185220
O O10 0.734839 0.887532 0.284277
O O11 0.400295 0.892834 0.239844
O O12 0.709959 0.000000 0.360992
O O13 0.755705 0.750400 0.777995
#
# Coordination Sequence:
#
# PCOD9201611 Si02
#       7
#     4   8   2   8   8   8   8
#     4   9  18  35  59  88 113 160 214 274 299 370
#     4  11  22  42  70  97 121 164 214 257 305 385
#     4  10  24  36  52  86 124 170 200 254 318 356
#     4  10  21  36  59  84 123 162 215 259 310 367
#     4  11  25  41  61  96 131 163 197 261 332 373
#     4  10  21  40  64  91 123 166 210 256 312 382
#     4  10  20  37  63  88 118 165 221 259 307 374
#
# _framework density 20.432784000000002
#
# number of rings (size 3 to 8) (size 9 to 14) (size 15 to 20)
#    0.000    1.739    1.739    3.652    4.870    3.130 
#    0.000    0.435    0.000    1.043    0.000    0.000 
#    0.000    0.000    0.000    0.000    0.000    0.000 
#
# Total GULP energy -128054.894561 kJ/mol
# GULP energy per Si atom -5567.604111 kJ/mol
# Density = 2.038628 g / cm^3
# Si number density = 20.432784 Si / 1000 Ang^3
#
#
#
# Elastic Constant Matrix: (Units=GPa)
#
#
# Indices 1 2 3 4 5 6 
#
# 1 146.9688 14.4863 39.2168 0.0000 15.0984 0.0000
# 2 14.4863 44.7758 -8.1608 0.0000 0.8885 0.0000
# 3 39.2168 -8.1608 78.8134 -0.0001 2.6152 0.0000
# 4 0.0000 0.0000 -0.0001 52.0255 0.0000 -2.7319
# 5 15.0984 0.8885 2.6152 0.0000 42.7421 0.0000
# 6 0.0000 0.0000 0.0000 -2.7319 0.0000 -7.0608
#
#
#
# Elastic Compliance Matrix: (Units=1/GPa)
#
#
# Indices 1 2 3 4 5 6 
#
# 1 0.008660 -0.003585 -0.004591 0.000000 -0.002704 0.000000
# 2 -0.003585 0.024263 0.004280 0.000000 0.000500 0.000000
# 3 -0.004591 0.004280 0.015396 0.000000 0.000591 0.000000
# 4 0.000000 0.000000 0.000000 0.018839 0.000000 -0.007289
# 5 -0.002704 0.000500 0.000591 0.000000 0.024305 0.000000
# 6 0.000000 0.000000 0.000000 -0.007289 0.000000 -0.138806
#
#
# Mechanical properties :
#
#
# Convention : Reuss Voigt Hill
#
# Bulk Modulus (GPa) = 24.67455 40.18251 32.42853
# Shear Modulus (GPa) = -191.99668 32.54240 -79.72714
#
# Velocity S-wave (km/s) = -9.70407 3.99514 -6.25331
# Velocity P-wave (km/s) = 10.65160 6.40234 6.01941
#
# Compressibility (1/GPa) = 0.04052759
#
# Stress axis : x y z
#
# Youngs Moduli (GPa) = 115.46984 41.21432 64.95177
#
# Poissons Ratio (x) = 0.14775 0.29818
# Poissons Ratio (y) = 0.41395 -0.27797
# Poissons Ratio (z) = 0.53009 -0.17638
#
# Static dielectric constant tensor:
#      x y z
#    x 1.757900 0.000000 0.011970 
#    y 0.000000 1.709550 0.000000 
#    z 0.011970 0.000000 1.808610 
# 
# From -- ./inp_files/300959.got.cif
#   From: 2010.05.17/outbox.cif.g08.bks.cpg/sg12_151_cif.got.tgz:300959.got - 2010.06.03 13:09:07.
