data_PCOD9201103
_publ_section_title
;
Structure prediction by ZEFSAII (Michael W. Deem and Ramdas Pophale) SiO2 
 PCOD9201103
Probable space group: C 2/M
;
_chemical_formula_sum "Si O2"
_cell_formula_units_Z 42
_cell_length_a 5.023683
_cell_length_b 17.735353
_cell_length_c 22.094163
_cell_angle_alpha 90.000000
_cell_angle_beta 75.149321
_cell_angle_gamma 90.000000
_cell_volume 1902.764717
_symmetry_space_group_name_H-M "C 2/M"
_symmetry_group_IT_number 12
_symmetry_cell_setting 'monoclinic'
loop_
_space_group_symop_operation_xyz
x,y,z
-x,y,-z
-x,-y,-z
x,-y,z
1/2+x,1/2+y,z
1/2-x,1/2+y,-z
1/2-x,1/2-y,-z
1/2+x,1/2-y,z
loop_
_atom_site_type_symbol
_atom_site_label
_atom_site_fract_x
_atom_site_fract_y
_atom_site_fract_z
Si Si1 0.200516 0.916663 0.124051
Si Si2 0.823633 0.909221 0.316537
Si Si3 0.880133 0.199642 0.071825
Si Si4 0.000000 0.500000 0.000000
Si Si5 0.919208 0.409403 0.238910
Si Si6 0.046438 0.698496 0.428050
O O1 0.350149 0.885588 0.174609
O O2 0.955221 0.865750 0.113825
O O3 0.084073 0.000000 0.147088
O O4 0.405184 0.935647 0.056051
O O5 0.681141 0.883373 0.261743
O O6 0.672312 0.866200 0.379090
O O7 0.146059 0.891344 0.293551
O O8 0.793817 0.000000 0.323719
O O9 0.575511 0.230473 0.080063
O O10 0.000000 0.174229 0.000000
O O11 0.941291 0.500000 0.234040
O O12 0.263310 0.767503 0.419250
O O13 0.000000 0.672847 0.500000
#
# Coordination Sequence:
#
# PCOD9201103 Si02
#       6
#     8   8   8   2   8   8
#     4   9  20  39  61  88 112 148 200 245 295 353
#     4  10  20  37  61  85 115 159 200 235 291 342
#     4  10  23  39  57  78 110 143 176 227 296 351
#     4   8  20  36  66  92 110 144 202 260 286 360
#     4   9  19  37  58  85 118 152 191 249 294 346
#     4  10  21  38  60  90 126 160 195 241 293 340
#
# _framework density 22.073146000000001
#
# number of rings (size 3 to 8) (size 9 to 14) (size 15 to 20)
#    0.571    1.905    0.000    1.143    4.000    2.286 
#    0.000    8.571    0.000    7.429    0.000    0.000 
#    0.000    0.000    0.000    0.000    0.000    0.000 
#
# Total GULP energy -117081.268391 kJ/mol
# GULP energy per Si atom -5575.298495 kJ/mol
# Density = 2.202291 g / cm^3
# Si number density = 22.073146 Si / 1000 Ang^3
#
#
#
# Elastic Constant Matrix: (Units=GPa)
#
#
# Indices 1 2 3 4 5 6 
#
# 1 67.1283 -1.8602 10.1492 0.0000 2.3021 0.0000
# 2 -1.8602 35.8047 29.6510 0.0000 7.1534 0.0000
# 3 10.1492 29.6510 111.9896 0.0000 -5.9553 0.0000
# 4 0.0000 0.0000 0.0000 33.1262 0.0000 8.5149
# 5 2.3021 7.1534 -5.9553 0.0000 29.9325 0.0000
# 6 0.0000 0.0000 0.0000 8.5149 0.0000 14.1381
#
#
#
# Elastic Compliance Matrix: (Units=1/GPa)
#
#
# Indices 1 2 3 4 5 6 
#
# 1 0.015434 0.003275 -0.002396 0.000000 -0.002446 0.000000
# 2 0.003275 0.040095 -0.011558 0.000000 -0.012133 0.000000
# 3 -0.002396 -0.011558 0.012496 0.000000 0.005432 0.000000
# 4 0.000000 0.000000 0.000000 0.035717 0.000000 -0.021511
# 5 -0.002446 -0.012133 0.005432 0.000000 0.037577 0.000000
# 6 0.000000 0.000000 0.000000 -0.021511 0.000000 0.083686
#
#
# Mechanical properties :
#
#
# Convention : Reuss Voigt Hill
#
# Bulk Modulus (GPa) = 21.42874 32.31140 26.87007
# Shear Modulus (GPa) = 19.08994 27.23819 23.16406
#
# Velocity S-wave (km/s) = 2.94402 3.51664 3.24299
# Velocity P-wave (km/s) = 4.61362 5.58204 5.12077
#
# Compressibility (1/GPa) = 0.04666631
#
# Stress axis : x y z
#
# Youngs Moduli (GPa) = 64.79327 24.94076 80.02868
#
# Poissons Ratio (x) = -0.08167 0.19173
# Poissons Ratio (y) = -0.21217 0.92495
# Poissons Ratio (z) = 0.15523 0.28826
#
# Static dielectric constant tensor:
#      x y z
#    x 1.833350 0.000000 -0.021760 
#    y 0.000000 1.800640 0.000000 
#    z -0.021760 0.000000 1.820900 
# 
# From -- ./inp_files/297601.got.cif
#   From: 2010.05.17/outbox.cif.g08.bks.cpg/sg12_149_cif.got.tgz:297601.got - 2010.06.03 13:09:07.
