data_PCOD9201232
_publ_section_title
;
Structure prediction by ZEFSAII (Michael W. Deem and Ramdas Pophale) SiO2 
 PCOD9201232
Probable space group: C 2/M
;
_chemical_formula_sum "Si O2"
_cell_formula_units_Z 60
_cell_length_a 15.357739
_cell_length_b 10.470460
_cell_length_c 15.462935
_cell_angle_alpha 90.000000
_cell_angle_beta 90.495025
_cell_angle_gamma 90.000000
_cell_volume 2486.387223
_symmetry_space_group_name_H-M "C 2/M"
_symmetry_group_IT_number 12
_symmetry_cell_setting 'monoclinic'
loop_
_space_group_symop_operation_xyz
x,y,z
-x,y,-z
-x,-y,-z
x,-y,z
1/2+x,1/2+y,z
1/2-x,1/2+y,-z
1/2-x,1/2-y,-z
1/2+x,1/2-y,z
loop_
_atom_site_type_symbol
_atom_site_label
_atom_site_fract_x
_atom_site_fract_y
_atom_site_fract_z
Si Si1 0.330759 0.139576 0.259337
Si Si2 0.846356 0.500000 0.799198
Si Si3 0.530469 0.188385 0.312353
Si Si4 0.455945 0.640436 0.831974
Si Si5 0.880091 0.354283 0.510565
Si Si6 0.078363 0.358946 0.907763
Si Si7 0.197069 0.148016 0.611256
Si Si8 0.321328 0.782039 0.929437
O O1 0.432810 0.143562 0.289375
O O2 0.338385 0.146752 0.155994
O O3 0.289757 0.262202 0.304842
O O4 0.293892 0.000000 0.283946
O O5 0.899721 0.607996 0.742011
O O6 0.801503 0.388650 0.858934
O O7 0.542539 0.328177 0.270224
O O8 0.551044 0.171737 0.412931
O O9 0.488315 0.500000 0.849008
O O10 0.519246 0.744420 0.874876
O O11 0.364248 0.664525 0.878185
O O12 0.891989 0.500000 0.475742
O O13 0.869201 0.233924 0.446317
O O14 0.786830 0.358093 0.559271
O O15 0.038442 0.500000 0.892242
O O16 0.104500 0.343523 0.006688
O O17 0.172640 0.000000 0.630678
O O18 0.250000 0.750000 0.000000
#
# Coordination Sequence:
#
# PCOD9201232 Si02
#       8
#     8   4   8   8   8   8   8   8
#     4  10  20  37  61  89 121 150 211 262 303 358
#     4  10  20  40  61  89 121 156 212 252 314 366
#     4  10  20  39  67  89 113 163 214 256 301 375
#     4  10  24  40  59  88 126 159 203 258 319 375
#     4  10  20  40  66  88 119 162 220 245 305 378
#     4  10  22  41  65  88 116 170 217 252 308 380
#     4  10  23  39  58  91 130 166 196 257 318 375
#     4  11  24  38  61  89 124 159 205 266 313 370
#
# _framework density 24.131398999999998
#
# number of rings (size 3 to 8) (size 9 to 14) (size 15 to 20)
#    0.000    1.867    2.000    0.800    6.533    7.467 
#    0.000    3.333    0.000    0.000    0.000    0.000 
#    0.000    0.000    0.000    0.000    0.000    0.000 
#
# Total GULP energy -167178.325933 kJ/mol
# GULP energy per Si atom -5572.610864 kJ/mol
# Density = 2.407647 g / cm^3
# Si number density = 24.131399 Si / 1000 Ang^3
#
#
#
# Elastic Constant Matrix: (Units=GPa)
#
#
# Indices 1 2 3 4 5 6 
#
# 1 51.5397 27.8514 -2.6524 0.0000 -2.6381 0.0000
# 2 27.8514 215.0656 48.7708 0.0000 -13.4177 0.0000
# 3 -2.6524 48.7708 87.9454 0.0000 -5.0845 0.0000
# 4 0.0000 0.0000 0.0000 26.6823 0.0000 -10.1249
# 5 -2.6381 -13.4177 -5.0845 0.0000 39.9377 0.0000
# 6 0.0000 0.0000 0.0000 -10.1249 0.0000 20.9730
#
#
#
# Elastic Compliance Matrix: (Units=1/GPa)
#
#
# Indices 1 2 3 4 5 6 
#
# 1 0.021343 -0.003293 0.002506 0.000000 0.000622 0.000000
# 2 -0.003293 0.005908 -0.003298 0.000000 0.001348 0.000000
# 3 0.002506 -0.003298 0.013319 0.000000 0.000753 0.000000
# 4 0.000000 0.000000 0.000000 0.045883 0.000000 0.022151
# 5 0.000622 0.001348 0.000753 0.000000 0.025629 0.000000
# 6 0.000000 0.000000 0.000000 0.022151 0.000000 0.058374
#
#
# Mechanical properties :
#
#
# Convention : Reuss Voigt Hill
#
# Bulk Modulus (GPa) = 30.86467 55.83224 43.34846
# Shear Modulus (GPa) = 26.39555 36.22401 31.30978
#
# Velocity S-wave (km/s) = 3.31089 3.87863 3.60595
# Velocity P-wave (km/s) = 5.23775 6.57612 5.94472
#
# Compressibility (1/GPa) = 0.03239950
#
# Stress axis : x y z
#
# Youngs Moduli (GPa) = 46.85363 169.25683 75.08261
#
# Poissons Ratio (x) = 0.55744 -0.18816
# Poissons Ratio (y) = 0.15431 0.24761
# Poissons Ratio (z) = -0.11742 0.55818
#
# Static dielectric constant tensor:
#      x y z
#    x 2.047070 0.000000 0.036070 
#    y 0.000000 1.846760 0.000000 
#    z 0.036070 0.000000 1.985850 
# 
# From -- ./inp_files/275467.got.cif
#   From: 2010.05.17/outbox.cif.g08.bks.cpg/sg12_138_cif.got.tgz:275467.got - 2010.06.03 13:09:07.
