data_PCOD9201372
_publ_section_title
;
Structure prediction by ZEFSAII (Michael W. Deem and Ramdas Pophale) SiO2 
 PCOD9201372
Probable space group: C 2/M
;
_chemical_formula_sum "Si O2"
_cell_formula_units_Z 40
_cell_length_a 12.045923
_cell_length_b 18.445084
_cell_length_c 29.759415
_cell_angle_alpha 90.000000
_cell_angle_beta 161.003980
_cell_angle_gamma 90.000000
_cell_volume 2152.283141
_symmetry_space_group_name_H-M "C 2/M"
_symmetry_group_IT_number 12
_symmetry_cell_setting 'monoclinic'
loop_
_space_group_symop_operation_xyz
x,y,z
-x,y,-z
-x,-y,-z
x,-y,z
1/2+x,1/2+y,z
1/2-x,1/2+y,-z
1/2-x,1/2-y,-z
1/2+x,1/2-y,z
loop_
_atom_site_type_symbol
_atom_site_label
_atom_site_fract_x
_atom_site_fract_y
_atom_site_fract_z
Si Si1 0.472145 0.500000 0.935371
Si Si2 0.195281 0.214126 0.688981
Si Si3 0.829848 0.352381 0.057787
Si Si4 0.218990 0.342884 0.432264
Si Si5 0.902903 0.500000 0.645597
Si Si6 0.179337 0.725498 0.116335
O O1 0.106664 0.500000 0.770714
O O2 0.500000 0.500000 0.000000
O O3 0.669983 0.430030 0.994702
O O4 0.457316 0.163203 0.815683
O O5 0.427416 0.258310 0.742313
O O6 0.034239 0.273575 0.661374
O O7 0.921290 0.167242 0.556830
O O8 0.083036 0.336586 0.113960
O O9 0.513787 0.296223 0.938042
O O10 0.500000 0.335909 0.500000
O O11 0.040824 0.421798 0.357570
O O12 0.500000 0.500000 0.500000
O O13 0.000000 0.710385 0.000000
#
# Coordination Sequence:
#
# PCOD9201372 Si02
#       6
#     4   8   8   8   4   8
#     4  12  26  38  60  92 121 160 201 245 307 359
#     4  10  20  37  62  87 114 160 198 253 289 365
#     4  10  22  35  59  85 121 150 200 252 294 351
#     4  10  22  37  60  87 120 155 203 240 304 354
#     4  10  26  38  59  83 126 156 189 253 296 360
#     4   9  19  35  59  83 115 155 196 246 299 348
#
# _framework density 18.584914999999999
#
# number of rings (size 3 to 8) (size 9 to 14) (size 15 to 20)
#    0.000    2.000    0.000    3.000   19.600    0.000 
#    0.000    1.500    0.000    0.000    0.000    7.700 
#    0.000    0.000    0.000    0.000    0.000    0.000 
#
# Total GULP energy -111538.082538 kJ/mol
# GULP energy per Si atom -5576.904127 kJ/mol
# Density = 1.854262 g / cm^3
# Si number density = 18.584915 Si / 1000 Ang^3
#
#
#
# Elastic Constant Matrix: (Units=GPa)
#
#
# Indices 1 2 3 4 5 6 
#
# 1 79.2304 32.3350 14.0450 -0.0076 1.9597 0.0039
# 2 32.3350 91.3233 37.9364 -0.0144 -11.9315 0.0053
# 3 14.0450 37.9364 88.9460 0.0172 -13.0797 -0.0050
# 4 -0.0076 -0.0144 0.0172 18.2623 -0.0176 -5.2129
# 5 1.9597 -11.9315 -13.0797 -0.0176 28.9681 -0.0038
# 6 0.0039 0.0053 -0.0050 -5.2129 -0.0038 16.0258
#
#
#
# Elastic Compliance Matrix: (Units=1/GPa)
#
#
# Indices 1 2 3 4 5 6 
#
# 1 0.015083 -0.005589 -0.000521 -0.000002 -0.003558 -0.000004
# 2 -0.005589 0.015648 -0.005129 0.000020 0.004508 0.000002
# 3 -0.000521 -0.005129 0.014146 -0.000013 0.004310 0.000003
# 4 -0.000002 0.000020 -0.000013 0.060362 0.000042 0.019635
# 5 -0.003558 0.004508 0.004310 0.000042 0.038564 0.000024
# 6 -0.000004 0.000002 0.000003 0.019635 0.000024 0.068786
#
#
# Mechanical properties :
#
#
# Convention : Reuss Voigt Hill
#
# Bulk Modulus (GPa) = 44.64271 47.57029 46.10650
# Shear Modulus (GPa) = 20.61566 24.33012 22.47289
#
# Velocity S-wave (km/s) = 3.33418 3.62212 3.48113
# Velocity P-wave (km/s) = 6.23662 6.56847 6.40469
#
# Compressibility (1/GPa) = 0.02240007
#
# Stress axis : x y z
#
# Youngs Moduli (GPa) = 66.30163 63.90428 70.68932
#
# Poissons Ratio (x) = 0.35714 0.03684
# Poissons Ratio (y) = 0.37054 0.36256
# Poissons Ratio (z) = 0.03455 0.32776
#
# Static dielectric constant tensor:
#      x y z
#    x 1.663760 0.000000 -0.015770 
#    y 0.000000 1.648720 0.000000 
#    z -0.015770 0.000000 1.672490 
# 
# From -- ./inp_files/130885.got.cif
#   From: 2010.05.17/outbox.cif.g08.bks.cpg/sg12_66_cif.got.tgz:130885.got - 2010.06.03 13:09:07.
