data_PCOD9201350
_publ_section_title
;
Structure prediction by ZEFSAII (Michael W. Deem and Ramdas Pophale) SiO2 
 PCOD9201350
Probable space group: C 2/M
;
_chemical_formula_sum "Si O2"
_cell_formula_units_Z 56
_cell_length_a 11.302064
_cell_length_b 22.089771
_cell_length_c 13.287044
_cell_angle_alpha 90.000000
_cell_angle_beta 56.903716
_cell_angle_gamma 90.000000
_cell_volume 2779.034435
_symmetry_space_group_name_H-M "C 2/M"
_symmetry_group_IT_number 12
_symmetry_cell_setting 'monoclinic'
loop_
_space_group_symop_operation_xyz
x,y,z
-x,y,-z
-x,-y,-z
x,-y,z
1/2+x,1/2+y,z
1/2-x,1/2+y,-z
1/2-x,1/2-y,-z
1/2+x,1/2-y,z
loop_
_atom_site_type_symbol
_atom_site_label
_atom_site_fract_x
_atom_site_fract_y
_atom_site_fract_z
Si Si1 0.087733 0.363090 0.700331
Si Si2 0.445084 0.247020 0.139800
Si Si3 0.141461 0.569001 0.867711
Si Si4 0.770247 0.654657 0.844622
Si Si5 0.655536 0.929021 0.477879
Si Si6 0.657885 0.655536 0.108608
Si Si7 0.393815 0.569573 0.197506
O O1 0.113452 0.304833 0.759673
O O2 0.097427 0.418679 0.773566
O O3 0.173718 0.382788 0.562210
O O4 0.928634 0.352492 0.736611
O O5 0.320672 0.294391 0.169888
O O6 0.568692 0.281655 0.146020
O O7 0.500000 0.229709 0.000000
O O8 0.195672 0.500000 0.855828
O O9 0.252072 0.621451 0.848139
O O10 0.000000 0.574889 0.000000
O O11 0.687151 0.592568 0.863191
O O12 0.764547 0.664103 0.966265
O O13 0.500000 0.921332 0.500000
O O14 0.780525 0.919681 0.339481
O O15 0.661960 0.000000 0.507263
O O16 0.533007 0.608560 0.144576
O O17 0.428767 0.500000 0.177191
#
# Coordination Sequence:
#
# PCOD9201350 Si02
#       7
#     8   8   8   8   8   8   8
#     4  12  22  37  61  86 119 159 197 251 297 355
#     4   9  22  37  60  87 120 158 205 242 291 353
#     4  11  23  36  55  90 128 158 190 242 309 362
#     4  10  21  36  58  91 120 153 198 245 297 349
#     4  10  21  39  62  87 115 151 199 249 296 352
#     4  10  21  40  57  88 124 159 196 240 292 362
#     4  10  20  37  62  86 116 156 198 245 294 347
#
# _framework density 20.150883
#
# number of rings (size 3 to 8) (size 9 to 14) (size 15 to 20)
#    0.000    1.714    2.857    2.571    2.000    3.429 
#    0.000    3.571    0.000    2.571    0.000    0.000 
#    0.000    0.000    0.000    0.000    0.000    0.000 
#
# Total GULP energy -156105.402043 kJ/mol
# GULP energy per Si atom -5575.192930 kJ/mol
# Density = 2.010502 g / cm^3
# Si number density = 20.150883 Si / 1000 Ang^3
#
#
#
# Elastic Constant Matrix: (Units=GPa)
#
#
# Indices 1 2 3 4 5 6 
#
# 1 59.1283 31.8339 11.0747 0.0000 3.9544 0.0000
# 2 31.8339 110.9596 44.6676 0.0000 9.4946 0.0000
# 3 11.0747 44.6676 49.5662 0.0000 8.1041 0.0000
# 4 0.0000 0.0000 0.0000 31.7398 0.0000 1.3707
# 5 3.9544 9.4946 8.1041 0.0000 20.3226 0.0000
# 6 0.0000 0.0000 0.0000 1.3707 0.0000 24.6982
#
#
#
# Elastic Compliance Matrix: (Units=1/GPa)
#
#
# Indices 1 2 3 4 5 6 
#
# 1 0.020086 -0.006160 0.001318 0.000000 -0.001556 0.000000
# 2 -0.006160 0.016083 -0.012927 0.000000 -0.001160 0.000000
# 3 0.001318 -0.012927 0.032718 0.000000 -0.007264 0.000000
# 4 0.000000 0.000000 0.000000 0.031582 0.000000 -0.001753
# 5 -0.001556 -0.001160 -0.007264 0.000000 0.052948 0.000000
# 6 0.000000 0.000000 0.000000 -0.001753 0.000000 0.040586
#
#
# Mechanical properties :
#
#
# Convention : Reuss Voigt Hill
#
# Bulk Modulus (GPa) = 29.98712 43.86738 36.92725
# Shear Modulus (GPa) = 20.77640 24.15730 22.46685
#
# Velocity S-wave (km/s) = 3.21447 3.46616 3.34268
# Velocity P-wave (km/s) = 5.35637 6.15107 5.76742
#
# Compressibility (1/GPa) = 0.03334766
#
# Stress axis : x y z
#
# Youngs Moduli (GPa) = 49.78578 62.17808 30.56414
#
# Poissons Ratio (x) = 0.38301 -0.04027
# Poissons Ratio (y) = 0.30668 0.39511
# Poissons Ratio (z) = -0.06560 0.80380
#
# Static dielectric constant tensor:
#      x y z
#    x 1.733950 0.000000 0.027320 
#    y 0.000000 1.768460 0.000000 
#    z 0.027320 0.000000 1.673820 
# 
# From -- ./inp_files/135263.got.cif
#   From: 2010.05.17/outbox.cif.g08.bks.cpg/sg12_68_cif.got.tgz:135263.got - 2010.06.03 13:09:07.
