data_PCOD9201653
_publ_section_title
;
Structure prediction by ZEFSAII (Michael W. Deem and Ramdas Pophale) SiO2 
 PCOD9201653
Probable space group: C 2/M
;
_chemical_formula_sum "Si O2"
_cell_formula_units_Z 64
_cell_length_a 29.149967
_cell_length_b 14.553208
_cell_length_c 10.109869
_cell_angle_alpha 90.000000
_cell_angle_beta 128.757512
_cell_angle_gamma 90.000000
_cell_volume 3344.466933
_symmetry_space_group_name_H-M "C 2/M"
_symmetry_group_IT_number 12
_symmetry_cell_setting 'monoclinic'
loop_
_space_group_symop_operation_xyz
x,y,z
-x,y,-z
-x,-y,-z
x,-y,z
1/2+x,1/2+y,z
1/2-x,1/2+y,-z
1/2-x,1/2-y,-z
1/2+x,1/2-y,z
loop_
_atom_site_type_symbol
_atom_site_label
_atom_site_fract_x
_atom_site_fract_y
_atom_site_fract_z
Si Si1 0.591885 0.393438 0.477073
Si Si2 0.122117 0.252767 0.000622
Si Si3 0.026018 0.104397 0.900249
Si Si4 0.785069 0.892814 0.401784
Si Si5 0.749167 0.727975 0.151851
Si Si6 0.334831 0.109393 0.696795
Si Si7 0.357204 0.109357 0.439319
Si Si8 0.070299 0.271250 0.621629
O O1 0.595729 0.500000 0.526052
O O2 0.528751 0.378798 0.296499
O O3 0.644524 0.378542 0.464770
O O4 0.596129 0.323611 0.606750
O O5 0.184074 0.203807 0.082310
O O6 0.136029 0.331799 0.133381
O O7 0.075468 0.179777 0.969158
O O8 0.097357 0.288896 0.815224
O O9 0.047716 0.000000 0.916490
O O10 0.000000 0.108573 0.000000
O O11 0.765798 0.822828 0.254342
O O12 0.736649 0.875452 0.428885
O O13 0.777225 0.000000 0.352006
O O14 0.797167 0.652560 0.275222
O O15 0.750000 0.750000 0.000000
O O16 0.359807 0.135911 0.598827
O O17 0.344352 0.000000 0.733295
O O18 0.408896 0.152286 0.445185
O O19 0.356575 0.000000 0.430085
O O20 0.000000 0.265201 0.500000
#
# Coordination Sequence:
#
# PCOD9201653 Si02
#       8
#     8   8   8   8   8   8   8   8
#     4  10  20  37  63  91 126 165 202 252 309 376
#     4  11  23  38  66  94 126 168 208 261 310 373
#     4  10  23  39  58  92 132 168 206 252 312 374
#     4   9  18  35  62  91 120 156 199 246 306 377
#     4  11  21  38  60  93 130 158 205 253 312 374
#     4   9  22  42  65  95 125 162 208 259 320 376
#     4  11  25  44  65  91 128 166 209 265 316 369
#     4  12  24  42  65  92 125 164 218 262 311 375
#
# _framework density 19.136082999999999
#
# number of rings (size 3 to 8) (size 9 to 14) (size 15 to 20)
#    0.000    1.625    3.750    0.000    1.750    5.500 
#    0.000    2.500    0.000    1.875    0.000    0.000 
#    0.000    0.000    0.000    0.000    0.000    0.000 
#
# Total GULP energy -178581.974995 kJ/mol
# GULP energy per Si atom -5580.686719 kJ/mol
# Density = 1.909253 g / cm^3
# Si number density = 19.136083 Si / 1000 Ang^3
#
#
#
# Elastic Constant Matrix: (Units=GPa)
#
#
# Indices 1 2 3 4 5 6 
#
# 1 122.9418 52.2100 40.9650 0.0000 3.4195 0.0000
# 2 52.2100 80.4709 36.2418 0.0000 -6.9588 0.0000
# 3 40.9650 36.2418 71.9600 0.0000 -10.1910 0.0000
# 4 0.0000 0.0000 0.0000 7.0878 0.0000 12.9263
# 5 3.4195 -6.9588 -10.1910 0.0000 33.1858 0.0000
# 6 0.0000 0.0000 0.0000 12.9263 0.0000 30.2293
#
#
#
# Elastic Compliance Matrix: (Units=1/GPa)
#
#
# Indices 1 2 3 4 5 6 
#
# 1 0.012446 -0.006434 -0.004409 0.000000 -0.003986 0.000000
# 2 -0.006434 0.019426 -0.005698 0.000000 0.002987 0.000000
# 3 -0.004409 -0.005698 0.020043 0.000000 0.005415 0.000000
# 4 0.000000 0.000000 0.000000 0.640849 0.000000 -0.274032
# 5 -0.003986 0.002987 0.005415 0.000000 0.032833 0.000000
# 6 0.000000 0.000000 0.000000 -0.274032 0.000000 0.150259
#
#
# Mechanical properties :
#
#
# Convention : Reuss Voigt Hill
#
# Bulk Modulus (GPa) = 53.09905 59.35626 56.22765
# Shear Modulus (GPa) = 5.46319 23.83097 14.64708
#
# Velocity S-wave (km/s) = 1.69148 3.53277 2.76962
# Velocity P-wave (km/s) = 5.62345 6.90840 6.29877
#
# Compressibility (1/GPa) = 0.01883273
#
# Stress axis : x y z
#
# Youngs Moduli (GPa) = 80.34426 51.47815 49.89210
#
# Poissons Ratio (x) = 0.33122 0.22000
# Poissons Ratio (y) = 0.51694 0.28427
# Poissons Ratio (z) = 0.35427 0.29331
#
# Static dielectric constant tensor:
#      x y z
#    x 1.693950 0.000000 0.004400 
#    y 0.000000 1.661930 0.000000 
#    z 0.004400 0.000000 1.655990 
# 
# From -- ./inp_files/112031.got.cif
#   From: 2010.05.17/outbox.cif.g08.bks.cpg/sg12_57_cif.got.tgz:112031.got - 2010.06.03 13:09:07.
