data_PCOD9201473
_publ_section_title
;
Structure prediction by ZEFSAII (Michael W. Deem and Ramdas Pophale) SiO2 
 PCOD9201473
Probable space group: C 2/M
;
_chemical_formula_sum "Si O2"
_cell_formula_units_Z 48
_cell_length_a 14.490745
_cell_length_b 19.300875
_cell_length_c 9.167017
_cell_angle_alpha 90.000000
_cell_angle_beta 75.747502
_cell_angle_gamma 90.000000
_cell_volume 2484.953094
_symmetry_space_group_name_H-M "C 2/M"
_symmetry_group_IT_number 12
_symmetry_cell_setting 'monoclinic'
loop_
_space_group_symop_operation_xyz
x,y,z
-x,y,-z
-x,-y,-z
x,-y,z
1/2+x,1/2+y,z
1/2-x,1/2+y,-z
1/2-x,1/2-y,-z
1/2+x,1/2-y,z
loop_
_atom_site_type_symbol
_atom_site_label
_atom_site_fract_x
_atom_site_fract_y
_atom_site_fract_z
Si Si1 0.279064 0.842294 0.254224
Si Si2 0.108946 0.199375 0.127300
Si Si3 0.260893 0.580468 0.431119
Si Si4 0.616000 0.307730 0.785041
Si Si5 0.091762 0.344716 0.048271
Si Si6 0.438664 0.078743 0.651006
O O1 0.174856 0.834000 0.223779
O O2 0.272983 0.886764 0.402406
O O3 0.329027 0.766292 0.259179
O O4 0.341838 0.876683 0.100786
O O5 0.142210 0.279445 0.102640
O O6 0.996625 0.197757 0.206836
O O7 0.122873 0.173203 0.955312
O O8 0.291559 0.500000 0.435911
O O9 0.337078 0.632397 0.330368
O O10 0.169709 0.580365 0.359867
O O11 0.054847 0.390999 0.191915
O O12 0.000000 0.315477 0.000000
O O13 0.500000 0.114772 0.500000
O O14 0.473236 0.000000 0.648501
#
# Coordination Sequence:
#
# PCOD9201473 Si02
#       6
#     8   8   8   8   8   8
#     4  11  21  37  62  90 118 155 194 249 297 346
#     4  10  20  37  62  90 115 146 199 248 298 351
#     4  11  24  41  57  83 122 160 200 243 289 349
#     4  10  20  40  61  86 119 152 194 246 303 349
#     4  11  19  36  61  89 120 149 193 247 296 348
#     4  10  22  37  55  82 121 163 196 233 291 359
#
# _framework density 19.316258999999999
#
# number of rings (size 3 to 8) (size 9 to 14) (size 15 to 20)
#    0.000    1.500    3.333    5.500    0.000    1.667 
#    0.000    4.167    0.000    0.000    0.000    0.000 
#    0.000    0.000    0.000    0.000    0.000    0.000 
#
# Total GULP energy -133879.287237 kJ/mol
# GULP energy per Si atom -5578.303635 kJ/mol
# Density = 1.927229 g / cm^3
# Si number density = 19.316259 Si / 1000 Ang^3
#
#
#
# Elastic Constant Matrix: (Units=GPa)
#
#
# Indices 1 2 3 4 5 6 
#
# 1 78.8922 11.9326 11.8604 0.0000 -8.0614 0.0000
# 2 11.9326 73.5187 64.3399 0.0000 -8.6275 0.0000
# 3 11.8604 64.3399 106.8813 0.0000 -25.0747 0.0000
# 4 0.0000 0.0000 0.0000 -8.6809 0.0000 9.1486
# 5 -8.0614 -8.6275 -25.0747 0.0000 31.0012 0.0000
# 6 0.0000 0.0000 0.0000 9.1486 0.0000 7.4753
#
#
#
# Elastic Compliance Matrix: (Units=1/GPa)
#
#
# Indices 1 2 3 4 5 6 
#
# 1 0.013276 -0.002466 0.000815 0.000000 0.003425 0.000000
# 2 -0.002466 0.030649 -0.020149 0.000000 -0.008409 0.000000
# 3 0.000815 -0.020149 0.024843 0.000000 0.014698 0.000000
# 4 0.000000 0.000000 0.000000 -0.050308 0.000000 0.061570
# 5 0.003425 -0.008409 0.014698 0.000000 0.042696 0.000000
# 6 0.000000 0.000000 0.000000 0.061570 0.000000 0.058422
#
#
# Mechanical properties :
#
#
# Convention : Reuss Voigt Hill
#
# Bulk Modulus (GPa) = 39.73329 48.39533 44.06431
# Shear Modulus (GPa) = 29.14312 17.36974 23.25643
#
# Velocity S-wave (km/s) = 3.88846 3.00197 3.47361
# Velocity P-wave (km/s) = 6.38550 6.09297 6.24095
#
# Compressibility (1/GPa) = 0.02516781
#
# Stress axis : x y z
#
# Youngs Moduli (GPa) = 75.32399 32.62773 40.25243
#
# Poissons Ratio (x) = 0.08045 -0.03279
# Poissons Ratio (y) = 0.18573 0.81104
# Poissons Ratio (z) = -0.06136 0.65741
#
# Static dielectric constant tensor:
#      x y z
#    x 1.690020 0.000000 -0.024670 
#    y 0.000000 1.685550 0.000000 
#    z -0.024670 0.000000 1.707140 
# 
# From -- ./inp_files/63371.got.cif
#   From: 2010.05.17/outbox.cif.g08.bks.cpg/sg12_32_cif.got.tgz:63371.got - 2010.06.03 13:09:07.
