data_PCOD9201241
_publ_section_title
;
Structure prediction by ZEFSAII (Michael W. Deem and Ramdas Pophale) SiO2 
 PCOD9201241
Probable space group: C 2/M
;
_chemical_formula_sum "Si O2"
_cell_formula_units_Z 28
_cell_length_a 12.597992
_cell_length_b 21.414058
_cell_length_c 5.080235
_cell_angle_alpha 90.000000
_cell_angle_beta 85.996135
_cell_angle_gamma 90.000000
_cell_volume 1367.171024
_symmetry_space_group_name_H-M "C 2/M"
_symmetry_group_IT_number 12
_symmetry_cell_setting 'monoclinic'
loop_
_space_group_symop_operation_xyz
x,y,z
-x,y,-z
-x,-y,-z
x,-y,z
1/2+x,1/2+y,z
1/2-x,1/2+y,-z
1/2-x,1/2-y,-z
1/2+x,1/2-y,z
loop_
_atom_site_type_symbol
_atom_site_label
_atom_site_fract_x
_atom_site_fract_y
_atom_site_fract_z
Si Si1 0.151355 0.211511 0.649470
Si Si2 0.432997 0.156504 0.257527
Si Si3 0.310564 0.631964 0.822953
Si Si4 0.923010 0.000000 0.768386
O O1 0.250000 0.250000 0.500000
O O2 0.074514 0.267724 0.742466
O O3 0.120972 0.167733 0.411663
O O4 0.180273 0.169637 0.900793
O O5 0.500000 0.137889 0.500000
O O6 0.312211 0.133253 0.250840
O O7 0.500000 0.134549 0.000000
O O8 0.352228 0.561898 0.811627
O O9 0.000000 0.000000 0.500000
O O10 0.000000 0.000000 0.000000
#
# Coordination Sequence:
#
# PCOD9201241 Si02
#       4
#     8   8   8   4
#     4  10  20  37  61  89 124 161 197 249 311 362
#     4  11  21  35  60  94 124 156 195 247 317 382
#     4  11  23  42  61  89 128 162 207 261 303 362
#     4  12  28  46  66  88 118 170 224 262 304 362
#
# _framework density 20.480249000000001
#
# number of rings (size 3 to 8) (size 9 to 14) (size 15 to 20)
#    0.000    1.143    0.000   10.286    0.000    6.857 
#    0.000    1.429    0.000    0.000    0.000    0.000 
#    0.000    0.000    0.000    0.000    0.000    0.000 
#
# Total GULP energy -78166.951460 kJ/mol
# GULP energy per Si atom -5583.353676 kJ/mol
# Density = 2.043363 g / cm^3
# Si number density = 20.480249 Si / 1000 Ang^3
#
#
#
# Elastic Constant Matrix: (Units=GPa)
#
#
# Indices 1 2 3 4 5 6 
#
# 1 114.2411 58.3608 67.1459 0.0000 -7.9282 0.0000
# 2 58.3608 146.5167 57.3217 0.0000 14.5692 0.0000
# 3 67.1459 57.3217 197.5561 0.0000 8.1082 0.0000
# 4 0.0000 0.0000 0.0000 21.5218 0.0000 2.5267
# 5 -7.9282 14.5692 8.1082 0.0000 23.9094 0.0000
# 6 0.0000 0.0000 0.0000 2.5267 0.0000 34.1415
#
#
#
# Elastic Compliance Matrix: (Units=1/GPa)
#
#
# Indices 1 2 3 4 5 6 
#
# 1 0.014162 -0.005091 -0.003708 0.000000 0.009055 0.000000
# 2 -0.005091 0.009924 -0.000843 0.000000 -0.007449 0.000000
# 3 -0.003708 -0.000843 0.006689 0.000000 -0.002984 0.000000
# 4 0.000000 0.000000 0.000000 0.046872 0.000000 -0.003469
# 5 0.009055 -0.007449 -0.002984 0.000000 0.050378 0.000000
# 6 0.000000 0.000000 0.000000 -0.003469 0.000000 0.029547
#
#
# Mechanical properties :
#
#
# Convention : Reuss Voigt Hill
#
# Bulk Modulus (GPa) = 87.02771 91.55230 89.29000
# Shear Modulus (GPa) = 27.67237 34.28026 30.97632
#
# Velocity S-wave (km/s) = 3.67982 4.09567 3.89330
# Velocity P-wave (km/s) = 7.78720 8.19548 7.99395
#
# Compressibility (1/GPa) = 0.01149059
#
# Stress axis : x y z
#
# Youngs Moduli (GPa) = 70.61214 100.77005 149.49258
#
# Poissons Ratio (x) = 0.51300 0.55431
# Poissons Ratio (y) = 0.35947 0.12608
# Poissons Ratio (z) = 0.26182 0.08499
#
# Static dielectric constant tensor:
#      x y z
#    x 1.624700 0.000000 -0.021650 
#    y 0.000000 1.571790 0.000000 
#    z -0.021650 0.000000 1.730450 
# 
# From -- ./inp_files/5717.got.cif
#   From: 2010.05.17/outbox.cif.g08.bks.cpg/sg12_3_cif.got.tgz:5717.got - 2010.06.03 13:09:07.
