data_PCOD9201390
_publ_section_title
;
Structure prediction by ZEFSAII (Michael W. Deem and Ramdas Pophale) SiO2 
 PCOD9201390
Probable space group: C 2/M
;
_chemical_formula_sum "Si O2"
_cell_formula_units_Z 56
_cell_length_a 9.148563
_cell_length_b 17.842172
_cell_length_c 23.001410
_cell_angle_alpha 90.000000
_cell_angle_beta 50.746846
_cell_angle_gamma 90.000000
_cell_volume 2907.346198
_symmetry_space_group_name_H-M "C 2/M"
_symmetry_group_IT_number 12
_symmetry_cell_setting 'monoclinic'
loop_
_space_group_symop_operation_xyz
x,y,z
-x,y,-z
-x,-y,-z
x,-y,z
1/2+x,1/2+y,z
1/2-x,1/2+y,-z
1/2-x,1/2-y,-z
1/2+x,1/2-y,z
loop_
_atom_site_type_symbol
_atom_site_label
_atom_site_fract_x
_atom_site_fract_y
_atom_site_fract_z
Si Si1 0.946460 0.584294 0.885229
Si Si2 0.445686 0.913105 0.659375
Si Si3 0.329046 0.693035 0.319700
Si Si4 0.227650 0.864035 0.830852
Si Si5 0.639928 0.670541 0.021782
Si Si6 0.747510 0.211383 0.778858
Si Si7 0.787196 0.200645 0.548695
O O1 0.017731 0.500000 0.874461
O O2 0.809738 0.590214 0.863672
O O3 0.104775 0.646846 0.833221
O O4 0.807086 0.611087 0.970962
O O5 0.284051 0.883736 0.657065
O O6 0.345267 0.894882 0.746545
O O7 0.627495 0.861998 0.600169
O O8 0.489120 0.000000 0.644388
O O9 0.311444 0.741344 0.263942
O O10 0.544467 0.679792 0.282036
O O11 0.234352 0.742638 0.392541
O O12 0.269343 0.774962 0.822905
O O13 0.999642 0.859014 0.892014
O O14 0.500000 0.675228 0.000000
O O15 0.750000 0.750000 0.000000
O O16 0.750000 0.250000 0.500000
O O17 0.000000 0.169894 0.500000
#
# Coordination Sequence:
#
# PCOD9201390 Si02
#       7
#     8   8   8   8   8   8   8
#     4  11  22  35  57  92 125 153 204 268 304 337
#     4  11  24  40  63  94 128 155 200 261 305 349
#     4  11  21  39  64  92 117 159 210 235 297 370
#     4  10  20  37  62  87 119 164 209 242 301 370
#     4  10  21  35  59  88 117 164 210 249 299 363
#     4  11  19  36  63  87 116 164 202 249 286 370
#     4  12  22  40  67  93 119 161 198 242 300 375
#
# _framework density 19.261552999999999
#
# number of rings (size 3 to 8) (size 9 to 14) (size 15 to 20)
#    0.000    1.143    7.143    0.429    0.000    4.000 
#    0.000    1.429    0.000    3.857    0.000    0.000 
#    0.000    0.000    0.000    0.000    0.000    0.000 
#
# Total GULP energy -156033.633600 kJ/mol
# GULP energy per Si atom -5572.629771 kJ/mol
# Density = 1.921771 g / cm^3
# Si number density = 19.261553 Si / 1000 Ang^3
#
#
#
# Elastic Constant Matrix: (Units=GPa)
#
#
# Indices 1 2 3 4 5 6 
#
# 1 50.3329 7.9590 24.9002 0.0007 -17.5641 -0.0005
# 2 7.9590 105.6337 35.8395 0.0006 7.2950 -0.0007
# 3 24.9002 35.8395 116.1428 -0.0009 -18.6666 -0.0001
# 4 0.0007 0.0006 -0.0009 13.3271 -0.0005 -2.9930
# 5 -17.5641 7.2950 -18.6666 -0.0005 13.4428 0.0004
# 6 -0.0005 -0.0007 -0.0001 -2.9930 0.0004 16.6095
#
#
#
# Elastic Compliance Matrix: (Units=1/GPa)
#
#
# Indices 1 2 3 4 5 6 
#
# 1 0.042396 -0.009335 0.004516 0.000001 0.066731 -0.000001
# 2 -0.009335 0.014835 -0.007506 -0.000002 -0.030670 0.000001
# 3 0.004516 -0.007506 0.014882 0.000002 0.030640 -0.000001
# 4 0.000001 -0.000002 0.000002 0.078200 0.000007 0.014091
# 5 0.066731 -0.030670 0.030640 0.000007 0.220770 -0.000004
# 6 -0.000001 0.000001 -0.000001 0.014091 -0.000004 0.062745
#
#
# Mechanical properties :
#
#
# Convention : Reuss Voigt Hill
#
# Bulk Modulus (GPa) = 21.06848 45.50076 33.28462
# Shear Modulus (GPa) = 10.54191 22.23659 16.38925
#
# Velocity S-wave (km/s) = 2.34199 3.40141 2.92015
# Velocity P-wave (km/s) = 4.27493 6.25300 5.35607
#
# Compressibility (1/GPa) = 0.04746426
#
# Stress axis : x y z
#
# Youngs Moduli (GPa) = 23.58718 67.41008 67.19359
#
# Poissons Ratio (x) = 0.62928 -0.30347
# Poissons Ratio (y) = 0.22019 0.50433
# Poissons Ratio (z) = -0.10653 0.50595
#
# Static dielectric constant tensor:
#      x y z
#    x 1.716930 0.000000 0.017410 
#    y 0.000000 1.655870 0.000000 
#    z 0.017410 0.000000 1.759900 
# 
# From -- ./inp_files/333309.got.cif
#   From: 2010.05.17/outbox.cif.g08.bks.cpg/sg12_167_cif.got.tgz:333309.got - 2010.06.03 13:09:07.
