data_PCOD9201892
_publ_section_title
;
Structure prediction by ZEFSAII (Michael W. Deem and Ramdas Pophale) SiO2 
 PCOD9201892
Probable space group: C 2/M
;
_chemical_formula_sum "Si O2"
_cell_formula_units_Z 56
_cell_length_a 8.562051
_cell_length_b 12.885280
_cell_length_c 28.567367
_cell_angle_alpha 90.000000
_cell_angle_beta 125.392687
_cell_angle_gamma 90.000000
_cell_volume 2569.253610
_symmetry_space_group_name_H-M "C 2/M"
_symmetry_group_IT_number 12
_symmetry_cell_setting 'monoclinic'
loop_
_space_group_symop_operation_xyz
x,y,z
-x,y,-z
-x,-y,-z
x,-y,z
1/2+x,1/2+y,z
1/2-x,1/2+y,-z
1/2-x,1/2-y,-z
1/2+x,1/2-y,z
loop_
_atom_site_type_symbol
_atom_site_label
_atom_site_fract_x
_atom_site_fract_y
_atom_site_fract_z
Si Si1 0.440769 0.202962 0.871302
Si Si2 0.362593 0.373728 0.517711
Si Si3 0.476107 0.877467 0.404170
Si Si4 0.531911 0.705777 0.785692
Si Si5 0.879350 0.690467 0.291246
Si Si6 0.944874 0.877475 0.638370
Si Si7 0.151976 0.118287 0.068366
O O1 0.483595 0.249605 0.827922
O O2 0.234301 0.148291 0.827835
O O3 0.633884 0.139387 0.914702
O O4 0.403379 0.294916 0.902488
O O5 0.500000 0.339744 0.500000
O O6 0.355365 0.500000 0.514581
O O7 0.443393 0.353694 0.583111
O O8 0.146651 0.340102 0.467300
O O9 0.509035 0.860355 0.354262
O O10 0.263792 0.839422 0.380087
O O11 0.464940 0.000000 0.410424
O O12 0.335148 0.647091 0.739143
O O13 0.561039 0.798608 0.752471
O O14 0.891638 0.811894 0.308116
O O15 0.965016 0.000000 0.649345
O O16 0.145516 0.000000 0.086107
O O17 0.000000 0.126339 0.000000
#
# Coordination Sequence:
#
# PCOD9201892 Si02
#       7
#     8   8   8   8   8   8   8
#     4   9  19  40  61  85 132 177 203 250 312 354
#     4   9  19  34  53  78 106 134 176 236 299 375
#     4  10  21  37  56  77 105 142 183 233 304 374
#     4   9  20  37  58  81 117 162 201 244 294 349
#     4  11  20  37  55  81 111 144 191 254 292 342
#     4  10  21  37  56  77 105 142 183 233 304 374
#     4  10  20  37  66 103 134 167 215 259 303 363
#
# _framework density 21.796213999999999
#
# number of rings (size 3 to 8) (size 9 to 14) (size 15 to 20)
#    0.000    2.286    1.429    0.857    2.000    2.286 
#    0.000   17.143    0.000    7.714    0.000    0.000 
#    0.000    0.000    0.000    0.000    0.000    0.000 
#
# Total GULP energy -156092.493134 kJ/mol
# GULP energy per Si atom -5574.731898 kJ/mol
# Density = 2.174660 g / cm^3
# Si number density = 21.796214 Si / 1000 Ang^3
#
#
#
# Elastic Constant Matrix: (Units=GPa)
#
#
# Indices 1 2 3 4 5 6 
#
# 1 99.7591 18.7719 39.6465 0.0000 1.2411 0.0000
# 2 18.7719 58.5799 20.9135 0.0000 8.2156 0.0000
# 3 39.6465 20.9135 105.1112 0.0000 10.7986 0.0000
# 4 0.0000 0.0000 0.0000 -1.5595 0.0000 -6.7966
# 5 1.2411 8.2156 10.7986 0.0000 36.9809 0.0000
# 6 0.0000 0.0000 0.0000 -6.7966 0.0000 24.0465
#
#
#
# Elastic Compliance Matrix: (Units=1/GPa)
#
#
# Indices 1 2 3 4 5 6 
#
# 1 0.012171 -0.002590 -0.004219 0.000000 0.001399 0.000000
# 2 -0.002590 0.019280 -0.002503 0.000000 -0.003465 0.000000
# 3 -0.004219 -0.002503 0.011888 0.000000 -0.002774 0.000000
# 4 0.000000 0.000000 0.000000 -0.287310 0.000000 -0.081206
# 5 0.001399 -0.003465 -0.002774 0.000000 0.028574 0.000000
# 6 0.000000 0.000000 0.000000 -0.081206 0.000000 0.018634
#
#
# Mechanical properties :
#
#
# Convention : Reuss Voigt Hill
#
# Bulk Modulus (GPa) = 40.46175 46.90154 43.68164
# Shear Modulus (GPa) = -29.42903 24.16811 -2.63046
#
# Velocity S-wave (km/s) = -3.67848 3.33351 -1.09976
# Velocity P-wave (km/s) = 0.74989 6.03169 4.29789
#
# Compressibility (1/GPa) = 0.02471470
#
# Stress axis : x y z
#
# Youngs Moduli (GPa) = 82.16329 51.86624 84.11770
#
# Poissons Ratio (x) = 0.13434 0.35490
# Poissons Ratio (y) = 0.21281 0.21056
# Poissons Ratio (z) = 0.34665 0.12983
#
# Static dielectric constant tensor:
#      x y z
#    x 1.840360 0.000000 0.050100 
#    y 0.000000 1.828830 0.000000 
#    z 0.050100 0.000000 1.836050 
# 
# From -- ./inp_files/332677.got.cif
#   From: 2010.05.17/outbox.cif.g08.bks.cpg/sg12_167_cif.got.tgz:332677.got - 2010.06.03 13:09:07.
