data_PCOD9201605
_publ_section_title
;
Structure prediction by ZEFSAII (Michael W. Deem and Ramdas Pophale) SiO2 
 PCOD9201605
Probable space group: C 2/M
;
_chemical_formula_sum "Si O2"
_cell_formula_units_Z 48
_cell_length_a 8.022969
_cell_length_b 21.541905
_cell_length_c 21.234302
_cell_angle_alpha 90.000000
_cell_angle_beta 137.266242
_cell_angle_gamma 90.000000
_cell_volume 2490.383905
_symmetry_space_group_name_H-M "C 2/M"
_symmetry_group_IT_number 12
_symmetry_cell_setting 'monoclinic'
loop_
_space_group_symop_operation_xyz
x,y,z
-x,y,-z
-x,-y,-z
x,-y,z
1/2+x,1/2+y,z
1/2-x,1/2+y,-z
1/2-x,1/2-y,-z
1/2+x,1/2-y,z
loop_
_atom_site_type_symbol
_atom_site_label
_atom_site_fract_x
_atom_site_fract_y
_atom_site_fract_z
Si Si1 0.231167 0.305689 0.403194
Si Si2 0.227397 0.382864 0.210701
Si Si3 0.444260 0.618286 0.813110
Si Si4 0.280987 0.574233 0.989828
Si Si5 0.752583 0.750911 0.277612
Si Si6 0.898371 0.429212 0.685798
O O1 0.500000 0.288260 0.500000
O O2 0.142526 0.282294 0.309584
O O3 0.007470 0.275476 0.378083
O O4 0.216458 0.379696 0.393971
O O5 0.442881 0.403139 0.222620
O O6 0.265267 0.309650 0.234820
O O7 0.968744 0.396236 0.105306
O O8 0.206785 0.415684 0.273217
O O9 0.385810 0.691635 0.789107
O O10 0.190993 0.584833 0.763119
O O11 0.636861 0.603712 0.921449
O O12 0.247668 0.500000 0.987788
O O13 0.500000 0.583938 0.000000
O O14 0.852728 0.500000 0.656717
#
# Coordination Sequence:
#
# PCOD9201605 Si02
#       6
#     8   8   8   8   8   8
#     4  10  20  37  63  87 114 153 191 245 303 354
#     4  11  22  38  61  86 120 162 200 242 294 347
#     4  11  22  38  61  86 120 162 200 242 294 347
#     4  11  23  38  57  85 119 158 205 245 281 338
#     4  10  21  39  58  90 120 146 200 245 295 356
#     4  10  22  38  58  88 123 157 199 247 290 346
#
# _framework density 19.274135000000001
#
# number of rings (size 3 to 8) (size 9 to 14) (size 15 to 20)
#    0.000    1.500    3.333    2.000    0.000    4.333 
#    0.000    0.000    0.000    0.000    0.000    4.667 
#    0.000    0.000    0.000    0.000    0.000    0.000 
#
# Total GULP energy -133771.693717 kJ/mol
# GULP energy per Si atom -5573.820572 kJ/mol
# Density = 1.923027 g / cm^3
# Si number density = 19.274135 Si / 1000 Ang^3
#
#
#
# Elastic Constant Matrix: (Units=GPa)
#
#
# Indices 1 2 3 4 5 6 
#
# 1 89.9583 28.8703 3.3642 0.0000 -1.1354 0.0000
# 2 28.8703 127.9140 31.1045 0.0000 2.3580 0.0000
# 3 3.3642 31.1045 64.2413 0.0000 10.2778 0.0000
# 4 0.0000 0.0000 0.0000 -13.8089 0.0000 8.9993
# 5 -1.1354 2.3580 10.2778 0.0000 21.8178 0.0000
# 6 0.0000 0.0000 0.0000 8.9993 0.0000 20.4288
#
#
#
# Elastic Compliance Matrix: (Units=1/GPa)
#
#
# Indices 1 2 3 4 5 6 
#
# 1 0.012026 -0.002888 0.000669 0.000000 0.000623 0.000000
# 2 -0.002888 0.009582 -0.004649 0.000000 0.001004 0.000000
# 3 0.000669 -0.004649 0.019138 0.000000 -0.008478 0.000000
# 4 0.000000 0.000000 0.000000 -0.056264 0.000000 0.024786
# 5 0.000623 0.001004 -0.008478 0.000000 0.049752 0.000000
# 6 0.000000 0.000000 0.000000 0.024786 0.000000 0.038032
#
#
# Mechanical properties :
#
#
# Convention : Reuss Voigt Hill
#
# Bulk Modulus (GPa) = 37.02298 45.42129 41.22213
# Shear Modulus (GPa) = 52.62879 20.27252 36.45065
#
# Velocity S-wave (km/s) = 5.23113 3.24666 4.35348
# Velocity P-wave (km/s) = 7.46569 6.13771 6.83404
#
# Compressibility (1/GPa) = 0.02701025
#
# Stress axis : x y z
#
# Youngs Moduli (GPa) = 83.15245 104.36711 52.25082
#
# Poissons Ratio (x) = 0.30146 -0.03496
# Poissons Ratio (y) = 0.24019 0.24289
# Poissons Ratio (z) = -0.05564 0.48516
#
# Static dielectric constant tensor:
#      x y z
#    x 1.788070 0.000000 0.003580 
#    y 0.000000 1.684670 0.000000 
#    z 0.003580 0.000000 1.635380 
# 
# From -- ./inp_files/196492.got.cif
#   From: 2010.05.17/outbox.cif.g08.bks.cpg/sg12_99_cif.got.tgz:196492.got - 2010.06.03 13:09:07.
