data_PCOD9201456
_publ_section_title
;
Structure prediction by ZEFSAII (Michael W. Deem and Ramdas Pophale) SiO2 
 PCOD9201456
Probable space group: C 2/M
;
_chemical_formula_sum "Si O2"
_cell_formula_units_Z 64
_cell_length_a 11.859306
_cell_length_b 31.385618
_cell_length_c 18.245955
_cell_angle_alpha 90.000000
_cell_angle_beta 27.616641
_cell_angle_gamma 90.000000
_cell_volume 3148.156650
_symmetry_space_group_name_H-M "C 2/M"
_symmetry_group_IT_number 12
_symmetry_cell_setting 'monoclinic'
loop_
_space_group_symop_operation_xyz
x,y,z
-x,y,-z
-x,-y,-z
x,-y,z
1/2+x,1/2+y,z
1/2-x,1/2+y,-z
1/2-x,1/2-y,-z
1/2+x,1/2-y,z
loop_
_atom_site_type_symbol
_atom_site_label
_atom_site_fract_x
_atom_site_fract_y
_atom_site_fract_z
Si Si1 0.842216 0.627939 0.163119
Si Si2 0.346813 0.627896 0.365784
Si Si3 0.417156 0.047208 0.897354
Si Si4 0.659366 0.547456 0.732068
Si Si5 0.915756 0.341009 0.718697
Si Si6 0.728385 0.933826 0.173509
Si Si7 0.271252 0.704148 0.307719
Si Si8 0.708668 0.801245 0.684045
O O1 0.570793 0.620035 0.290501
O O2 0.843617 0.667280 0.218435
O O3 0.945056 0.585855 0.143659
O O4 0.000000 0.636639 0.000000
O O5 0.290414 0.586456 0.350346
O O6 0.404543 0.667512 0.277848
O O7 0.118272 0.641102 0.546055
O O8 0.438119 0.050350 0.796934
O O9 0.496280 0.000000 0.876028
O O10 0.129197 0.051325 0.081973
O O11 0.698624 0.500000 0.679308
O O12 0.810157 0.552401 0.720721
O O13 0.779405 0.382662 0.825725
O O14 0.750159 0.310951 0.763729
O O15 0.056372 0.317200 0.702064
O O16 0.000000 0.949362 0.000000
O O17 0.362239 0.752262 0.260371
O O18 0.000000 0.705383 0.500000
O O19 0.000000 0.803172 0.500000
#
# Coordination Sequence:
#
# PCOD9201456 Si02
#       8
#     8   8   8   8   8   8   8   8
#     4  12  24  39  61  90 126 161 199 255 309 359
#     4  11  22  38  61  90 126 155 202 251 304 361
#     4  10  21  38  61  88 115 161 213 245 291 367
#     4  10  20  37  62  89 120 159 201 249 301 359
#     4  11  21  39  66  89 120 159 202 249 304 359
#     4  10  20  37  62  89 120 156 203 251 301 357
#     4   9  22  38  64  91 116 158 206 252 292 361
#     4  11  23  41  66  90 118 161 211 249 297 364
#
# _framework density 20.329357000000002
#
# number of rings (size 3 to 8) (size 9 to 14) (size 15 to 20)
#    0.000    1.500    5.000    0.375    1.750    3.750 
#    0.000    3.125    0.000    1.125    0.000    0.000 
#    0.000    0.000    0.000    0.000    0.000    0.000 
#
# Total GULP energy -178775.540398 kJ/mol
# GULP energy per Si atom -5586.735637 kJ/mol
# Density = 2.028309 g / cm^3
# Si number density = 20.329357 Si / 1000 Ang^3
#
#
#
# Elastic Constant Matrix: (Units=GPa)
#
#
# Indices 1 2 3 4 5 6 
#
# 1 134.2111 84.0998 25.8516 -0.0002 12.2377 0.0000
# 2 84.0998 192.8688 38.1955 -0.0003 13.0140 0.0000
# 3 25.8516 38.1955 28.4413 0.0010 5.0387 -0.0012
# 4 -0.0002 -0.0003 0.0010 25.0470 -0.0002 4.6344
# 5 12.2377 13.0140 5.0387 -0.0002 24.1271 0.0002
# 6 0.0000 0.0000 -0.0012 4.6344 0.0002 31.3004
#
#
#
# Elastic Compliance Matrix: (Units=1/GPa)
#
#
# Indices 1 2 3 4 5 6 
#
# 1 0.010848 -0.003670 -0.004474 0.000000 -0.002589 0.000000
# 2 -0.003670 0.008390 -0.007746 0.000000 -0.001046 0.000000
# 3 -0.004474 -0.007746 0.050350 -0.000003 -0.004068 0.000002
# 4 0.000000 0.000000 -0.000003 0.041050 0.000001 -0.006078
# 5 -0.002589 -0.001046 -0.004068 0.000001 0.044174 -0.000001
# 6 0.000000 0.000000 0.000002 -0.006078 -0.000001 0.032848
#
#
# Mechanical properties :
#
#
# Convention : Reuss Voigt Hill
#
# Bulk Modulus (GPa) = 26.44875 72.42387 49.43631
# Shear Modulus (GPa) = 21.54792 29.91987 25.73390
#
# Velocity S-wave (km/s) = 3.25921 3.84051 3.56174
# Velocity P-wave (km/s) = 5.21552 7.44101 6.42535
#
# Compressibility (1/GPa) = 0.03780897
#
# Stress axis : x y z
#
# Youngs Moduli (GPa) = 92.18111 119.19445 19.86112
#
# Poissons Ratio (x) = 0.43741 0.08885
# Poissons Ratio (y) = 0.33828 0.15384
# Poissons Ratio (z) = 0.41237 0.92328
#
# Static dielectric constant tensor:
#      x y z
#    x 1.712220 0.000000 0.003770 
#    y 0.000000 1.714270 0.000000 
#    z 0.003770 0.000000 1.742250 
# 
# From -- ./inp_files/80773.got.cif
#   From: 2010.05.17/outbox.cif.g08.bks.cpg/sg12_41_cif.got.tgz:80773.got - 2010.06.03 13:09:07.
