data_PCOD9201067
_publ_section_title
;
Structure prediction by ZEFSAII (Michael W. Deem and Ramdas Pophale) SiO2 
 PCOD9201067
Probable space group: C 2/M
;
_chemical_formula_sum "Si O2"
_cell_formula_units_Z 64
_cell_length_a 25.648468
_cell_length_b 16.851301
_cell_length_c 21.753142
_cell_angle_alpha 90.000000
_cell_angle_beta 21.248624
_cell_angle_gamma 90.000000
_cell_volume 3407.405422
_symmetry_space_group_name_H-M "C 2/M"
_symmetry_group_IT_number 12
_symmetry_cell_setting 'monoclinic'
loop_
_space_group_symop_operation_xyz
x,y,z
-x,y,-z
-x,-y,-z
x,-y,z
1/2+x,1/2+y,z
1/2-x,1/2+y,-z
1/2-x,1/2-y,-z
1/2+x,1/2-y,z
loop_
_atom_site_type_symbol
_atom_site_label
_atom_site_fract_x
_atom_site_fract_y
_atom_site_fract_z
Si Si1 0.498693 0.848269 0.196952
Si Si2 0.443155 0.904177 0.997008
Si Si3 0.686828 0.593899 0.112987
Si Si4 0.200489 0.596344 0.225957
Si Si5 0.619533 0.403243 0.321081
Si Si6 0.874649 0.403834 0.554577
Si Si7 0.561095 0.337528 0.126354
Si Si8 0.751551 0.595262 0.559354
O O1 0.472526 0.875770 0.155715
O O2 0.533206 0.755718 0.157887
O O3 0.365489 0.868554 0.386585
O O4 0.643336 0.891737 0.062358
O O5 0.447125 0.000000 0.992605
O O6 0.500000 0.875802 0.000000
O O7 0.277750 0.879499 0.169526
O O8 0.663850 0.500000 0.130543
O O9 0.607854 0.620963 0.262695
O O10 0.628701 0.637086 0.117104
O O11 0.215236 0.500000 0.205804
O O12 0.195804 0.619697 0.303033
O O13 0.043523 0.617886 0.370942
O O14 0.326250 0.637022 0.049849
O O15 0.500000 0.374548 0.500000
O O16 0.615222 0.500000 0.325770
O O17 0.872410 0.500000 0.557295
O O18 0.794849 0.377433 0.580688
O O19 0.409483 0.380205 0.280722
O O20 0.764407 0.500000 0.543051
#
# Coordination Sequence:
#
# PCOD9201067 Si02
#       8
#     8   8   8   8   8   8   8   8
#     4  11  23  40  57  81 120 159 192 238 305 357
#     4   9  18  35  59  81 103 143 200 241 273 339
#     4  10  20  37  61  84 109 152 202 240 283 353
#     4   9  17  35  60  85 112 148 199 248 287 351
#     4   8  15  29  52  81 108 132 173 237 288 318
#     4   8  17  34  60  86 108 145 196 246 291 340
#     4  12  24  36  55  87 125 151 189 244 309 351
#     4  11  22  38  59  84 113 154 203 246 291 354
#
# _framework density 18.782619
#
# number of rings (size 3 to 8) (size 9 to 14) (size 15 to 20)
#    0.000    2.250    0.000    5.250    0.000    2.500 
#    2.250    4.375   13.750    0.000    0.000    0.000 
#    0.000    0.000    0.000    0.000    0.000    0.000 
#
# Total GULP energy -178638.976008 kJ/mol
# GULP energy per Si atom -5582.468000 kJ/mol
# Density = 1.873987 g / cm^3
# Si number density = 18.782619 Si / 1000 Ang^3
#
#
#
# Elastic Constant Matrix: (Units=GPa)
#
#
# Indices 1 2 3 4 5 6 
#
# 1 159.9380 15.1898 65.9317 -0.0029 11.6710 -0.0133
# 2 15.1898 32.7128 2.6056 -0.0033 4.3590 -0.0103
# 3 65.9317 2.6056 110.8238 -0.0017 26.9651 0.0004
# 4 -0.0029 -0.0033 -0.0017 33.2175 0.0065 32.0750
# 5 11.6710 4.3590 26.9651 0.0065 20.5274 0.0146
# 6 -0.0133 -0.0103 0.0004 32.0750 0.0146 75.3919
#
#
#
# Elastic Compliance Matrix: (Units=1/GPa)
#
#
# Indices 1 2 3 4 5 6 
#
# 1 0.008895 -0.004160 -0.006141 -0.000002 0.003894 0.000001
# 2 -0.004160 0.033533 0.004179 -0.000001 -0.010246 0.000006
# 3 -0.006141 0.004179 0.017557 0.000003 -0.020458 0.000002
# 4 -0.000002 -0.000001 0.000003 0.051095 -0.000003 -0.021738
# 5 0.003894 -0.010246 -0.020458 -0.000003 0.075552 -0.000014
# 6 0.000001 0.000006 0.000002 -0.021738 -0.000014 0.022512
#
#
# Mechanical properties :
#
#
# Convention : Reuss Voigt Hill
#
# Bulk Modulus (GPa) = 20.94646 52.32542 36.63594
# Shear Modulus (GPa) = 21.07027 40.47720 30.77374
#
# Velocity S-wave (km/s) = 3.35296 4.64727 4.05213
# Velocity P-wave (km/s) = 5.11527 7.53094 6.43743
#
# Compressibility (1/GPa) = 0.04774075
#
# Stress axis : x y z
#
# Youngs Moduli (GPa) = 112.42138 29.82130 56.95869
#
# Poissons Ratio (x) = 0.12406 0.34981
# Poissons Ratio (y) = 0.46767 -0.23806
# Poissons Ratio (z) = 0.69043 -0.12464
#
# Static dielectric constant tensor:
#      x y z
#    x 1.653050 0.000000 0.008080 
#    y 0.000000 1.640380 0.000000 
#    z 0.008080 0.000000 1.627400 
# 
# From -- ./inp_files/326097.got.cif
#   From: 2010.05.17/outbox.cif.g08.bks.cpg/sg12_164_cif.got.tgz:326097.got - 2010.06.03 13:09:07.
