data_PCOD9201256
_publ_section_title
;
Structure prediction by ZEFSAII (Michael W. Deem and Ramdas Pophale) SiO2 
 PCOD9201256
Probable space group: C 2/M
;
_chemical_formula_sum "Si O2"
_cell_formula_units_Z 56
_cell_length_a 29.535296
_cell_length_b 9.088495
_cell_length_c 21.665079
_cell_angle_alpha 90.000000
_cell_angle_beta 28.811245
_cell_angle_gamma 90.000000
_cell_volume 2802.680680
_symmetry_space_group_name_H-M "C 2/M"
_symmetry_group_IT_number 12
_symmetry_cell_setting 'monoclinic'
loop_
_space_group_symop_operation_xyz
x,y,z
-x,y,-z
-x,-y,-z
x,-y,z
1/2+x,1/2+y,z
1/2-x,1/2+y,-z
1/2-x,1/2-y,-z
1/2+x,1/2-y,z
loop_
_atom_site_type_symbol
_atom_site_label
_atom_site_fract_x
_atom_site_fract_y
_atom_site_fract_z
Si Si1 0.169217 0.674727 0.521737
Si Si2 0.979911 0.674928 0.689512
Si Si3 0.539540 0.171714 0.021832
Si Si4 0.122588 0.174941 0.706970
Si Si5 0.408379 0.330277 0.652010
Si Si6 0.278560 0.327498 0.150984
Si Si7 0.330598 0.673462 0.944587
O O1 0.163515 0.500000 0.543552
O O2 0.091082 0.703853 0.563261
O O3 0.140714 0.765955 0.616355
O O4 0.278036 0.705199 0.376917
O O5 0.964196 0.500000 0.707702
O O6 0.934142 0.746201 0.684034
O O7 0.926921 0.746919 0.810922
O O8 0.463928 0.244867 0.157772
O O9 0.551115 0.000000 0.023554
O O10 0.500000 0.183998 0.000000
O O11 0.638503 0.253554 0.909769
O O12 0.106159 0.000000 0.725765
O O13 0.500000 0.325980 0.500000
O O14 0.384739 0.500000 0.693973
O O15 0.320886 0.252390 0.723887
O O16 0.270395 0.500000 0.174798
O O17 0.306940 0.311516 0.044801
O O18 0.335588 0.500000 0.924234
O O19 0.250000 0.750000 0.000000
#
# Coordination Sequence:
#
# PCOD9201256 Si02
#       7
#     8   8   8   8   8   8   8
#     4   9  20  37  59  88 123 159 196 245 306 363
#     4  11  22  37  59  89 122 160 203 247 300 361
#     4  11  25  43  63  88 121 163 207 252 305 363
#     4  10  20  37  61  90 121 156 202 252 303 359
#     4  11  25  43  62  86 120 161 202 246 299 360
#     4  11  24  42  66  94 122 158 203 252 307 361
#     4  11  22  36  59  91 124 158 198 248 306 365
#
# _framework density 19.980869999999999
#
# number of rings (size 3 to 8) (size 9 to 14) (size 15 to 20)
#    0.000    1.429    1.429    3.429    0.000    9.143 
#    0.000    2.857    0.000    0.000    0.000    0.000 
#    0.000    0.000    0.000    0.000    0.000    0.000 
#
# Total GULP energy -156579.647158 kJ/mol
# GULP energy per Si atom -5592.130256 kJ/mol
# Density = 1.993539 g / cm^3
# Si number density = 19.980870 Si / 1000 Ang^3
#
#
#
# Elastic Constant Matrix: (Units=GPa)
#
#
# Indices 1 2 3 4 5 6 
#
# 1 71.8694 56.2458 27.4458 -0.0009 -39.7461 0.0004
# 2 56.2458 124.3693 47.5593 0.0002 -26.1216 0.0004
# 3 27.4458 47.5593 74.4662 -0.0022 -28.8859 0.0013
# 4 -0.0009 0.0002 -0.0022 29.8716 0.0012 -6.0578
# 5 -39.7461 -26.1216 -28.8859 0.0012 37.1876 -0.0003
# 6 0.0004 0.0004 0.0013 -6.0578 -0.0003 28.8724
#
#
#
# Elastic Compliance Matrix: (Units=1/GPa)
#
#
# Indices 1 2 3 4 5 6 
#
# 1 0.051893 -0.017041 0.012350 0.000000 0.053086 0.000000
# 2 -0.017041 0.016498 -0.009770 -0.000001 -0.014214 0.000000
# 3 0.012350 -0.009770 0.025154 0.000001 0.025876 -0.000001
# 4 0.000000 -0.000001 0.000001 0.034964 0.000000 0.007336
# 5 0.053086 -0.014214 0.025876 0.000000 0.093744 -0.000001
# 6 0.000000 0.000000 -0.000001 0.007336 -0.000001 0.036174
#
#
# Mechanical properties :
#
#
# Convention : Reuss Voigt Hill
#
# Bulk Modulus (GPa) = 15.47425 59.24518 37.35971
# Shear Modulus (GPa) = 16.18696 28.48326 22.33511
#
# Velocity S-wave (km/s) = 2.84935 3.77971 3.34702
# Velocity P-wave (km/s) = 4.31120 6.98309 5.80302
#
# Compressibility (1/GPa) = 0.06462349
#
# Stress axis : x y z
#
# Youngs Moduli (GPa) = 19.27050 60.61318 39.75496
#
# Poissons Ratio (x) = 1.03294 -0.49098
# Poissons Ratio (y) = 0.32840 0.38839
# Poissons Ratio (z) = -0.23799 0.59216
#
# Static dielectric constant tensor:
#      x y z
#    x 1.705170 0.000000 -0.019670 
#    y 0.000000 1.669290 0.000000 
#    z -0.019670 0.000000 1.701830 
# 
# From -- ./inp_files/329554.got.cif
#   From: 2010.05.17/outbox.cif.g08.bks.cpg/sg12_165_cif.got.tgz:329554.got - 2010.06.03 13:09:07.
