data_PCOD9201577
_publ_section_title
;
Structure prediction by ZEFSAII (Michael W. Deem and Ramdas Pophale) SiO2 
 PCOD9201577
Probable space group: C 2/M
;
_chemical_formula_sum "Si O2"
_cell_formula_units_Z 48
_cell_length_a 10.783360
_cell_length_b 15.771062
_cell_length_c 13.060730
_cell_angle_alpha 90.000000
_cell_angle_beta 68.107748
_cell_angle_gamma 90.000000
_cell_volume 2060.997367
_symmetry_space_group_name_H-M "C 2/M"
_symmetry_group_IT_number 12
_symmetry_cell_setting 'monoclinic'
loop_
_space_group_symop_operation_xyz
x,y,z
-x,y,-z
-x,-y,-z
x,-y,z
1/2+x,1/2+y,z
1/2-x,1/2+y,-z
1/2-x,1/2-y,-z
1/2+x,1/2-y,z
loop_
_atom_site_type_symbol
_atom_site_label
_atom_site_fract_x
_atom_site_fract_y
_atom_site_fract_z
Si Si1 0.998863 0.847815 0.886245
Si Si2 0.969465 0.344022 0.682174
Si Si3 0.840099 0.841735 0.743400
Si Si4 0.711706 0.402749 0.675983
Si Si5 0.975366 0.346004 0.116175
Si Si6 0.263183 0.399819 0.552314
O O1 0.143715 0.852483 0.789025
O O2 0.961202 0.748648 0.910349
O O3 0.906552 0.883809 0.823555
O O4 0.000000 0.885387 0.000000
O O5 0.913158 0.248590 0.706315
O O6 0.870273 0.392532 0.637812
O O7 0.965104 0.383778 0.798103
O O8 0.123884 0.349312 0.604141
O O9 0.682852 0.836076 0.817558
O O10 0.844724 0.886475 0.631388
O O11 0.673288 0.500000 0.700562
O O12 0.670026 0.373589 0.575515
O O13 0.000000 0.389319 0.000000
O O14 0.232599 0.500000 0.552284
#
# Coordination Sequence:
#
# PCOD9201577 Si02
#       6
#     8   8   8   8   8   8
#     4  10  22  37  59  88 123 156 199 251 304 360
#     4  10  20  37  62  94 119 154 205 258 298 349
#     4  10  21  39  62  94 123 157 203 257 300 361
#     4  11  23  40  60  85 121 164 204 245 307 367
#     4   9  19  35  61  89 120 159 199 247 308 361
#     4  10  23  43  63  86 125 169 203 246 308 371
#
# _framework density 23.289693
#
# number of rings (size 3 to 8) (size 9 to 14) (size 15 to 20)
#    0.000    2.000    1.667    1.000    2.333    5.667 
#    6.000    1.667    0.000    2.500    0.000    0.000 
#    0.000    0.000    0.000    0.000    0.000    0.000 
#
# Total GULP energy -133979.491166 kJ/mol
# GULP energy per Si atom -5582.478799 kJ/mol
# Density = 2.323668 g / cm^3
# Si number density = 23.289693 Si / 1000 Ang^3
#
#
#
# Elastic Constant Matrix: (Units=GPa)
#
#
# Indices 1 2 3 4 5 6 
#
# 1 106.2313 13.0453 36.8834 0.0000 24.8928 0.0000
# 2 13.0453 42.7890 24.7265 0.0000 4.2067 0.0000
# 3 36.8834 24.7265 179.0074 0.0000 35.8986 0.0000
# 4 0.0000 0.0000 0.0000 28.0417 0.0000 13.7385
# 5 24.8928 4.2067 35.8986 0.0000 37.7931 0.0000
# 6 0.0000 0.0000 0.0000 13.7385 0.0000 22.3321
#
#
#
# Elastic Compliance Matrix: (Units=1/GPa)
#
#
# Indices 1 2 3 4 5 6 
#
# 1 0.011515 -0.002452 -0.000701 0.000000 -0.006646 0.000000
# 2 -0.002452 0.025932 -0.003486 0.000000 0.002040 0.000000
# 3 -0.000701 -0.003486 0.007464 0.000000 -0.006240 0.000000
# 4 0.000000 0.000000 0.000000 0.051047 0.000000 -0.031404
# 5 -0.006646 0.002040 -0.006240 0.000000 0.036537 0.000000
# 6 0.000000 0.000000 0.000000 -0.031404 0.000000 0.064098
#
#
# Mechanical properties :
#
#
# Convention : Reuss Voigt Hill
#
# Bulk Modulus (GPa) = 31.61309 53.03758 42.32534
# Shear Modulus (GPa) = 22.68452 34.52489 28.60470
#
# Velocity S-wave (km/s) = 3.12431 3.85439 3.50839
# Velocity P-wave (km/s) = 5.15930 6.52923 5.88427
#
# Compressibility (1/GPa) = 0.03163246
#
# Stress axis : x y z
#
# Youngs Moduli (GPa) = 86.84136 38.56258 133.98273
#
# Poissons Ratio (x) = 0.09456 0.09395
# Poissons Ratio (y) = 0.21295 0.46704
# Poissons Ratio (z) = 0.06089 0.13442
#
# Static dielectric constant tensor:
#      x y z
#    x 1.899440 0.000000 0.023450 
#    y 0.000000 1.865000 0.000000 
#    z 0.023450 0.000000 1.920220 
# 
# From -- ./inp_files/131641.got.cif
#   From: 2010.05.17/outbox.cif.g08.bks.cpg/sg12_66_cif.got.tgz:131641.got - 2010.06.03 13:09:07.
