data_PCOD9201824
_publ_section_title
;
Structure prediction by ZEFSAII (Michael W. Deem and Ramdas Pophale) SiO2 
 PCOD9201824
Probable space group: C 2/M
;
_chemical_formula_sum "Si O2"
_cell_formula_units_Z 52
_cell_length_a 23.135677
_cell_length_b 16.978634
_cell_length_c 12.539731
_cell_angle_alpha 90.000000
_cell_angle_beta 23.945574
_cell_angle_gamma 90.000000
_cell_volume 1999.211350
_symmetry_space_group_name_H-M "C 2/M"
_symmetry_group_IT_number 12
_symmetry_cell_setting 'monoclinic'
loop_
_space_group_symop_operation_xyz
x,y,z
-x,y,-z
-x,-y,-z
x,-y,z
1/2+x,1/2+y,z
1/2-x,1/2+y,-z
1/2-x,1/2-y,-z
1/2+x,1/2-y,z
loop_
_atom_site_type_symbol
_atom_site_label
_atom_site_fract_x
_atom_site_fract_y
_atom_site_fract_z
Si Si1 0.489531 0.610070 0.192978
Si Si2 0.122189 0.407752 0.211251
Si Si3 0.233701 0.784955 0.354010
Si Si4 0.719913 0.615994 0.645037
Si Si5 0.589855 0.500000 0.477948
Si Si6 0.949071 0.411537 0.919364
Si Si7 0.844383 0.168662 0.740398
O O1 0.423883 0.695735 0.333279
O O2 0.379547 0.588478 0.283490
O O3 0.463042 0.566004 0.346211
O O4 0.643932 0.592953 0.884303
O O5 0.158542 0.500000 0.169801
O O6 0.000000 0.389327 0.500000
O O7 0.070075 0.398608 0.175726
O O8 0.246138 0.342966 0.008714
O O9 0.287046 0.710072 0.327445
O O10 0.214539 0.781331 0.258990
O O11 0.353259 0.854212 0.153432
O O12 0.881756 0.592435 0.351637
O O13 0.641180 0.573441 0.314233
O O14 0.892215 0.500000 0.036754
O O15 0.000000 0.197738 0.500000
#
# Coordination Sequence:
#
# PCOD9201824 Si02
#       7
#     8   8   8   8   4   8   8
#     4  10  24  38  67  90 129 168 227 269 331 390
#     4   9  18  34  56  88 129 165 204 259 329 396
#     4  10  22  42  66  90 132 175 223 268 329 412
#     4  11  23  42  62  92 129 176 220 276 336 398
#     4  10  21  37  59  95 131 163 212 277 321 389
#     4  10  23  40  64  95 135 172 218 281 342 399
#     4  10  20  37  64  97 127 170 217 270 328 398
#
# _framework density 26.010256999999999
#
# number of rings (size 3 to 8) (size 9 to 14) (size 15 to 20)
#    0.000    2.000    0.769    1.615    8.615    4.923 
#    2.769    1.538    0.000    7.385    0.000    1.077 
#    0.000    0.000    0.000    0.000    0.000    0.000 
#
# Total GULP energy -144815.713350 kJ/mol
# GULP energy per Si atom -5569.835129 kJ/mol
# Density = 2.595106 g / cm^3
# Si number density = 26.010257 Si / 1000 Ang^3
#
#
#
# Elastic Constant Matrix: (Units=GPa)
#
#
# Indices 1 2 3 4 5 6 
#
# 1 45.2197 12.0521 31.0782 -0.0001 -0.7670 -0.0001
# 2 12.0521 106.6681 -5.0503 -0.0003 9.9944 0.0000
# 3 31.0782 -5.0503 121.9483 -0.0005 9.1117 -0.0005
# 4 -0.0001 -0.0003 -0.0005 25.6830 0.0000 16.1176
# 5 -0.7670 9.9944 9.1117 0.0000 37.5216 0.0001
# 6 -0.0001 0.0000 -0.0005 16.1176 0.0001 27.5914
#
#
#
# Elastic Compliance Matrix: (Units=1/GPa)
#
#
# Indices 1 2 3 4 5 6 
#
# 1 0.028498 -0.003911 -0.007685 0.000000 0.003491 0.000000
# 2 -0.003911 0.010195 0.001658 0.000000 -0.003198 0.000000
# 3 -0.007685 0.001658 0.010462 0.000000 -0.003139 0.000000
# 4 0.000000 0.000000 0.000000 0.061471 0.000000 -0.035909
# 5 0.003491 -0.003198 -0.003139 0.000000 0.028337 0.000000
# 6 0.000000 0.000000 0.000000 -0.035909 0.000000 0.057219
#
#
# Mechanical properties :
#
#
# Convention : Reuss Voigt Hill
#
# Bulk Modulus (GPa) = 34.15539 38.88846 36.52192
# Shear Modulus (GPa) = 22.14174 33.87627 28.00900
#
# Velocity S-wave (km/s) = 2.92082 3.61282 3.28509
# Velocity P-wave (km/s) = 4.95327 5.69095 5.33488
#
# Compressibility (1/GPa) = 0.02927795
#
# Stress axis : x y z
#
# Youngs Moduli (GPa) = 35.09055 98.08845 95.58395
#
# Poissons Ratio (x) = 0.38360 0.73460
# Poissons Ratio (y) = 0.13723 -0.15846
# Poissons Ratio (z) = 0.26968 -0.16261
#
# Static dielectric constant tensor:
#      x y z
#    x 2.116210 0.000000 -0.112510 
#    y 0.000000 2.234270 0.000000 
#    z -0.112510 0.000000 2.172910 
# 
# From -- ./inp_files/251694.got.cif
#   From: 2010.05.17/outbox.cif.g08.bks.cpg/sg12_126_cif.got.tgz:251694.got - 2010.06.03 13:09:07.
