data_PCOD9201829
_publ_section_title
;
Structure prediction by ZEFSAII (Michael W. Deem and Ramdas Pophale) SiO2 
 PCOD9201829
Probable space group: C 2/M
;
_chemical_formula_sum "Si O2"
_cell_formula_units_Z 64
_cell_length_a 12.458386
_cell_length_b 20.151065
_cell_length_c 20.568628
_cell_angle_alpha 90.000000
_cell_angle_beta 142.075447
_cell_angle_gamma 90.000000
_cell_volume 3173.760301
_symmetry_space_group_name_H-M "C 2/M"
_symmetry_group_IT_number 12
_symmetry_cell_setting 'monoclinic'
loop_
_space_group_symop_operation_xyz
x,y,z
-x,y,-z
-x,-y,-z
x,-y,z
1/2+x,1/2+y,z
1/2-x,1/2+y,-z
1/2-x,1/2-y,-z
1/2+x,1/2-y,z
loop_
_atom_site_type_symbol
_atom_site_label
_atom_site_fract_x
_atom_site_fract_y
_atom_site_fract_z
Si Si1 0.236391 0.675889 0.797335
Si Si2 0.320866 0.428195 0.376322
Si Si3 0.201436 0.578814 0.578722
Si Si4 0.867886 0.281261 0.113413
Si Si5 0.425567 0.076277 0.618682
Si Si6 0.776967 0.674987 0.770828
Si Si7 0.511203 0.358545 0.188489
Si Si8 0.709202 0.924453 0.106198
O O1 0.228668 0.684464 0.871878
O O2 0.223670 0.750030 0.761287
O O3 0.408972 0.646014 0.845821
O O4 0.080443 0.628819 0.698547
O O5 0.500000 0.431247 0.500000
O O6 0.297871 0.500000 0.330179
O O7 0.171445 0.423447 0.359101
O O8 0.319545 0.363153 0.332398
O O9 0.223450 0.500000 0.598701
O O10 0.206555 0.592433 0.503740
O O11 0.343286 0.613478 0.692261
O O12 0.000000 0.595998 0.500000
O O13 0.018170 0.324836 0.151625
O O14 0.967529 0.216578 0.188680
O O15 0.750000 0.250000 0.000000
O O16 0.487808 0.000000 0.635708
O O17 0.747455 0.628700 0.818321
O O18 0.333575 0.401155 0.106802
O O19 0.755504 0.000000 0.144652
O O20 0.500000 0.921481 0.000000
#
# Coordination Sequence:
#
# PCOD9201829 Si02
#       8
#     8   8   8   8   8   8   8   8
#     4  11  23  42  67 100 133 173 226 279 338 409
#     4  10  22  40  61  90 127 173 223 271 331 400
#     4  10  20  37  64  97 133 174 218 268 334 415
#     4  11  24  44  67  92 130 175 229 285 344 407
#     4  10  21  40  65  93 133 177 218 272 336 404
#     4  11  23  40  65  93 127 173 222 275 337 395
#     4  11  23  40  67  98 132 176 225 280 334 408
#     4  11  24  42  66  97 134 172 222 285 340 401
#
# _framework density 20.165354000000001
#
# number of rings (size 3 to 8) (size 9 to 14) (size 15 to 20)
#    0.000    1.375    3.750    1.500    1.750    2.000 
#    4.500    1.250    0.000    0.750    0.000    8.750 
#    0.000    0.000    0.000    0.000    0.000    0.000 
#
# Total GULP energy -178553.293453 kJ/mol
# GULP energy per Si atom -5579.790420 kJ/mol
# Density = 2.011946 g / cm^3
# Si number density = 20.165354 Si / 1000 Ang^3
#
#
#
# Elastic Constant Matrix: (Units=GPa)
#
#
# Indices 1 2 3 4 5 6 
#
# 1 122.1019 50.5159 31.7690 0.0001 4.0357 -0.0001
# 2 50.5159 100.6929 33.5179 -0.0001 2.0187 0.0000
# 3 31.7690 33.5179 69.4347 0.0002 -0.4629 -0.0004
# 4 0.0001 -0.0001 0.0002 33.9162 0.0001 8.2309
# 5 4.0357 2.0187 -0.4629 0.0001 31.0451 -0.0002
# 6 -0.0001 0.0000 -0.0004 8.2309 -0.0002 18.4650
#
#
#
# Elastic Compliance Matrix: (Units=1/GPa)
#
#
# Indices 1 2 3 4 5 6 
#
# 1 0.010803 -0.004466 -0.002794 0.000000 -0.001156 0.000000
# 2 -0.004466 0.013702 -0.004573 0.000000 -0.000379 0.000000
# 3 -0.002794 -0.004573 0.017894 0.000000 0.000927 0.000000
# 4 0.000000 0.000000 0.000000 0.033061 0.000000 -0.014737
# 5 -0.001156 -0.000379 0.000927 0.000000 0.032400 0.000000
# 6 0.000000 0.000000 0.000000 -0.014737 0.000000 0.060726
#
#
# Mechanical properties :
#
#
# Convention : Reuss Voigt Hill
#
# Bulk Modulus (GPa) = 53.38704 58.20389 55.79546
# Shear Modulus (GPa) = 25.18928 28.44705 26.81816
#
# Velocity S-wave (km/s) = 3.53815 3.75999 3.65075
# Velocity P-wave (km/s) = 6.57445 6.91202 6.74535
#
# Compressibility (1/GPa) = 0.01873114
#
# Stress axis : x y z
#
# Youngs Moduli (GPa) = 92.56741 72.98347 55.88348
#
# Poissons Ratio (x) = 0.32596 0.15616
# Poissons Ratio (y) = 0.41343 0.25557
# Poissons Ratio (z) = 0.25868 0.33377
#
# Static dielectric constant tensor:
#      x y z
#    x 1.819550 0.000000 0.014420 
#    y 0.000000 1.707200 0.000000 
#    z 0.014420 0.000000 1.709030 
# 
# From -- ./inp_files/306801.got.cif
#   From: 2010.05.17/outbox.cif.g08.bks.cpg/sg12_154_cif.got.tgz:306801.got - 2010.06.03 13:09:07.
