data_PCOD9201059
_publ_section_title
;
Structure prediction by ZEFSAII (Michael W. Deem and Ramdas Pophale) SiO2 
 PCOD9201059
Probable space group: C 2/M
;
_chemical_formula_sum "Si O2"
_cell_formula_units_Z 56
_cell_length_a 16.588587
_cell_length_b 22.013770
_cell_length_c 13.736149
_cell_angle_alpha 90.000000
_cell_angle_beta 146.862921
_cell_angle_gamma 90.000000
_cell_volume 2742.037436
_symmetry_space_group_name_H-M "C 2/M"
_symmetry_group_IT_number 12
_symmetry_cell_setting 'monoclinic'
loop_
_space_group_symop_operation_xyz
x,y,z
-x,y,-z
-x,-y,-z
x,-y,z
1/2+x,1/2+y,z
1/2-x,1/2+y,-z
1/2-x,1/2-y,-z
1/2+x,1/2-y,z
loop_
_atom_site_type_symbol
_atom_site_label
_atom_site_fract_x
_atom_site_fract_y
_atom_site_fract_z
Si Si1 0.666878 0.500000 0.530635
Si Si2 0.815445 0.000000 0.218994
Si Si3 0.339071 0.310127 0.374751
Si Si4 0.856143 0.318017 0.305445
Si Si5 0.792140 0.629821 0.936455
Si Si6 0.981062 0.700405 0.727701
Si Si7 0.200094 0.127561 0.461042
Si Si8 0.583090 0.670240 0.900751
O O1 0.487633 0.500000 0.360985
O O2 0.707646 0.500000 0.686942
O O3 0.720531 0.560339 0.527449
O O4 0.742030 0.059604 0.102052
O O5 0.500000 0.329307 0.500000
O O6 0.322112 0.238988 0.339684
O O7 0.227223 0.343598 0.190539
O O8 0.331805 0.330480 0.477098
O O9 0.000000 0.351477 0.500000
O O10 0.924600 0.291418 0.274580
O O11 0.698418 0.341987 0.105611
O O12 0.676889 0.660068 0.896067
O O13 0.949181 0.647305 0.136358
O O14 0.827946 0.668767 0.543270
O O15 0.010884 0.761971 0.819729
O O16 0.057363 0.126366 0.247651
#
# Coordination Sequence:
#
# PCOD9201059 Si02
#       8
#     4   4   8   8   8   8   8   8
#     4  11  22  37  57  87 124 160 204 234 276 363
#     4  11  20  35  61  87 114 165 214 226 262 368
#     4  11  17  33  56  82 115 158 199 223 278 344
#     4  10  20  37  61  83 112 155 201 253 293 345
#     4  11  19  35  58  83 117 164 202 234 273 345
#     4  11  23  38  54  86 125 154 200 250 304 342
#     4  12  24  36  59  89 127 165 189 240 301 354
#     4  11  19  37  58  83 115 158 208 241 291 355
#
# _framework density 20.42277
#
# number of rings (size 3 to 8) (size 9 to 14) (size 15 to 20)
#    0.000    1.000    7.143    2.143    0.000    1.143 
#    0.000    2.857    0.000    0.000    0.000   19.000 
#    0.000    0.000    0.000    0.000    0.000    0.000 
#
# Total GULP energy -156043.182982 kJ/mol
# GULP energy per Si atom -5572.970821 kJ/mol
# Density = 2.037629 g / cm^3
# Si number density = 20.422770 Si / 1000 Ang^3
#
#
#
# Elastic Constant Matrix: (Units=GPa)
#
#
# Indices 1 2 3 4 5 6 
#
# 1 27.0685 33.2138 6.8912 0.0000 -0.4988 0.0000
# 2 33.2138 97.1840 30.1114 0.0000 -5.7363 0.0000
# 3 6.8912 30.1114 131.7290 0.0000 -16.9284 0.0000
# 4 0.0000 0.0000 0.0000 27.1269 0.0000 -4.2208
# 5 -0.4988 -5.7363 -16.9284 0.0000 22.2043 0.0000
# 6 0.0000 0.0000 0.0000 -4.2208 0.0000 10.3168
#
#
#
# Elastic Compliance Matrix: (Units=1/GPa)
#
#
# Indices 1 2 3 4 5 6 
#
# 1 0.064232 -0.022574 0.001370 0.000000 -0.003344 0.000000
# 2 -0.022574 0.019029 -0.002885 0.000000 0.002209 0.000000
# 3 0.001370 -0.002885 0.008966 0.000000 0.006121 0.000000
# 4 0.000000 0.000000 0.000000 0.039370 0.000000 0.016107
# 5 -0.003344 0.002209 0.006121 0.000000 0.050198 0.000000
# 6 0.000000 0.000000 0.000000 0.016107 0.000000 0.103519
#
#
# Mechanical properties :
#
#
# Convention : Reuss Voigt Hill
#
# Bulk Modulus (GPa) = 22.70195 44.04603 33.37399
# Shear Modulus (GPa) = 14.36063 24.31394 19.33728
#
# Velocity S-wave (km/s) = 2.65461 3.45415 3.08043
# Velocity P-wave (km/s) = 4.53167 6.12553 5.38787
#
# Compressibility (1/GPa) = 0.04404908
#
# Stress axis : x y z
#
# Youngs Moduli (GPa) = 15.56860 52.55152 111.53609
#
# Poissons Ratio (x) = 1.18629 -0.15282
# Poissons Ratio (y) = 0.35144 0.32177
# Poissons Ratio (z) = -0.02133 0.15161
#
# Static dielectric constant tensor:
#      x y z
#    x 1.777170 0.000000 0.061770 
#    y 0.000000 1.708100 0.000000 
#    z 0.061770 0.000000 1.861580 
# 
# From -- ./inp_files/227668.got.cif
#   From: 2010.05.17/outbox.cif.g08.bks.cpg/sg12_114_cif.got.tgz:227668.got - 2010.06.03 13:09:07.
