data_PCOD9201717
_publ_section_title
;
Structure prediction by ZEFSAII (Michael W. Deem and Ramdas Pophale) SiO2 
 PCOD9201717
Probable space group: C 2/M
;
_chemical_formula_sum "Si O2"
_cell_formula_units_Z 56
_cell_length_a 11.443528
_cell_length_b 30.184064
_cell_length_c 9.715093
_cell_angle_alpha 90.000000
_cell_angle_beta 131.186928
_cell_angle_gamma 90.000000
_cell_volume 2525.391567
_symmetry_space_group_name_H-M "C 2/M"
_symmetry_group_IT_number 12
_symmetry_cell_setting 'monoclinic'
loop_
_space_group_symop_operation_xyz
x,y,z
-x,y,-z
-x,-y,-z
x,-y,z
1/2+x,1/2+y,z
1/2-x,1/2+y,-z
1/2-x,1/2-y,-z
1/2+x,1/2-y,z
loop_
_atom_site_type_symbol
_atom_site_label
_atom_site_fract_x
_atom_site_fract_y
_atom_site_fract_z
Si Si1 0.702241 0.635782 0.266338
Si Si2 0.354413 0.449533 0.318045
Si Si3 0.671239 0.683320 0.705735
Si Si4 0.641479 0.215673 0.718255
Si Si5 0.854892 0.113289 0.078585
Si Si6 0.533940 0.951175 0.187999
Si Si7 0.569156 0.854299 0.305169
O O1 0.715002 0.687496 0.231702
O O2 0.540563 0.619869 0.202616
O O3 0.840641 0.632675 0.483406
O O4 0.713106 0.611613 0.127653
O O5 0.500000 0.425510 0.500000
O O6 0.394064 0.500000 0.317993
O O7 0.315376 0.428504 0.142075
O O8 0.221498 0.449225 0.329272
O O9 0.500000 0.680094 0.500000
O O10 0.691284 0.733811 0.773642
O O11 0.685122 0.653459 0.851296
O O12 0.801788 0.665503 0.699828
O O13 0.500000 0.218712 0.500000
O O14 0.557086 0.184427 0.765826
O O15 0.494684 0.900962 0.200599
O O16 0.486794 0.000000 0.211920
O O17 0.500000 0.954409 0.000000
#
# Coordination Sequence:
#
# PCOD9201717 Si02
#       7
#     8   8   8   8   8   8   8
#     4  10  23  39  55  84 131 162 199 248 319 374
#     4  10  20  37  63  95 124 157 213 269 313 373
#     4  11  21  36  65  89 117 161 218 259 312 364
#     4   9  23  37  58  88 123 162 207 256 308 377
#     4  11  21  37  60  87 122 164 196 259 318 368
#     4  10  22  39  64  98 127 160 210 269 317 364
#     4  11  21  40  66  90 124 166 210 258 313 377
#
# _framework density 22.174779999999998
#
# number of rings (size 3 to 8) (size 9 to 14) (size 15 to 20)
#    0.000    1.714    2.857    1.286    4.000    2.286 
#    0.000    2.143    0.000    4.714    0.000    0.000 
#    0.000    0.000    0.000    0.000    0.000    0.000 
#
# Total GULP energy -156072.439648 kJ/mol
# GULP energy per Si atom -5574.015702 kJ/mol
# Density = 2.212431 g / cm^3
# Si number density = 22.174780 Si / 1000 Ang^3
#
#
#
# Elastic Constant Matrix: (Units=GPa)
#
#
# Indices 1 2 3 4 5 6 
#
# 1 87.7142 41.0790 15.6838 0.0000 -5.7497 0.0000
# 2 41.0790 184.9637 25.3865 0.0000 -22.0033 0.0000
# 3 15.6838 25.3865 88.3924 0.0000 -16.1472 0.0000
# 4 0.0000 0.0000 0.0000 -3.8414 0.0000 1.7968
# 5 -5.7497 -22.0033 -16.1472 0.0000 29.9530 0.0000
# 6 0.0000 0.0000 0.0000 1.7968 0.0000 9.8399
#
#
#
# Elastic Compliance Matrix: (Units=1/GPa)
#
#
# Indices 1 2 3 4 5 6 
#
# 1 0.012923 -0.002695 -0.001583 0.000000 -0.000352 0.000000
# 2 -0.002695 0.006568 -0.000689 0.000000 0.003936 0.000000
# 3 -0.001583 -0.000689 0.012916 0.000000 0.006153 0.000000
# 4 0.000000 0.000000 0.000000 -0.239840 0.000000 0.043795
# 5 -0.000352 0.003936 0.006153 0.000000 0.039526 0.000000
# 6 0.000000 0.000000 0.000000 0.043795 0.000000 0.093631
#
#
# Mechanical properties :
#
#
# Convention : Reuss Voigt Hill
#
# Bulk Modulus (GPa) = 44.49981 58.37432 51.43707
# Shear Modulus (GPa) = -87.94800 25.78502 -31.08149
#
# Velocity S-wave (km/s) = -6.30455 3.41370 -3.74794
# Velocity P-wave (km/s) = 5.73456 6.47453 2.12537
#
# Compressibility (1/GPa) = 0.02247201
#
# Stress axis : x y z
#
# Youngs Moduli (GPa) = 77.38349 152.25989 77.42324
#
# Poissons Ratio (x) = 0.41028 0.12259
# Poissons Ratio (y) = 0.20852 0.05336
# Poissons Ratio (z) = 0.12253 0.10493
#
# Static dielectric constant tensor:
#      x y z
#    x 1.890720 0.000000 0.072970 
#    y 0.000000 1.870820 0.000000 
#    z 0.072970 0.000000 1.910390 
# 
# From -- ./inp_files/54818.got.cif
#   From: 2010.05.17/outbox.cif.g08.bks.cpg/sg12_28_cif.got.tgz:54818.got - 2010.06.03 13:09:07.
