data_PCOD9201576
_publ_section_title
;
Structure prediction by ZEFSAII (Michael W. Deem and Ramdas Pophale) SiO2 
 PCOD9201576
Probable space group: C 2/M
;
_chemical_formula_sum "Si O2"
_cell_formula_units_Z 40
_cell_length_a 13.325694
_cell_length_b 8.260854
_cell_length_c 19.923018
_cell_angle_alpha 90.000000
_cell_angle_beta 133.639233
_cell_angle_gamma 90.000000
_cell_volume 1587.187263
_symmetry_space_group_name_H-M "C 2/M"
_symmetry_group_IT_number 12
_symmetry_cell_setting 'monoclinic'
loop_
_space_group_symop_operation_xyz
x,y,z
-x,y,-z
-x,-y,-z
x,-y,z
1/2+x,1/2+y,z
1/2-x,1/2+y,-z
1/2-x,1/2-y,-z
1/2+x,1/2-y,z
loop_
_atom_site_type_symbol
_atom_site_label
_atom_site_fract_x
_atom_site_fract_y
_atom_site_fract_z
Si Si1 0.323454 0.250530 0.345770
Si Si2 0.617820 0.318549 0.477318
Si Si3 0.116680 0.306782 0.981422
Si Si4 0.486138 0.677382 0.796301
Si Si5 0.724529 0.810299 0.819493
O O1 0.484969 0.199624 0.409411
O O2 0.346462 0.336326 0.427598
O O3 0.175777 0.169351 0.294726
O O4 0.290477 0.299855 0.253722
O O5 0.580019 0.500000 0.434746
O O6 0.750000 0.250000 0.500000
O O7 0.101736 0.500000 0.975913
O O8 0.344001 0.257016 0.926847
O O9 0.000355 0.228919 0.880448
O O10 0.250000 0.250000 0.000000
O O11 0.550169 0.500000 0.817841
O O12 0.579021 0.793562 0.793310
O O13 0.741224 0.000000 0.807657
#
# Coordination Sequence:
#
# PCOD9201576 Si02
#       5
#     8   8   8   8   8
#     4  11  25  43  69 100 130 171 220 271 328 392
#     4  11  27  49  74 100 133 171 215 273 336 400
#     4  10  20  37  62  93 132 180 224 271 326 389
#     4  11  23  41  65  97 135 178 224 276 330 390
#     4  11  23  41  65  97 135 178 224 276 330 390
#
# _framework density 25.201813000000001
#
# number of rings (size 3 to 8) (size 9 to 14) (size 15 to 20)
#    0.000    1.200    0.000    8.400    0.000   13.600 
#    0.000    8.000    0.000    0.000    0.000    0.000 
#    0.000    0.000    0.000    0.000    0.000    0.000 
#
# Total GULP energy -111422.571277 kJ/mol
# GULP energy per Si atom -5571.128564 kJ/mol
# Density = 2.514445 g / cm^3
# Si number density = 25.201813 Si / 1000 Ang^3
#
#
#
# Elastic Constant Matrix: (Units=GPa)
#
#
# Indices 1 2 3 4 5 6 
#
# 1 110.8225 4.4577 39.6816 0.0000 3.5364 0.0000
# 2 4.4577 116.3872 35.3105 0.0000 12.8554 0.0000
# 3 39.6816 35.3105 170.5305 0.0000 6.1238 0.0000
# 4 0.0000 0.0000 0.0000 11.8729 0.0000 -8.6098
# 5 3.5364 12.8554 6.1238 0.0000 67.6708 0.0000
# 6 0.0000 0.0000 0.0000 -8.6098 0.0000 -29.4648
#
#
#
# Elastic Compliance Matrix: (Units=1/GPa)
#
#
# Indices 1 2 3 4 5 6 
#
# 1 0.009865 0.000380 -0.002361 0.000000 -0.000374 0.000000
# 2 0.000380 0.009353 -0.001967 0.000000 -0.001619 0.000000
# 3 -0.002361 -0.001967 0.006825 0.000000 -0.000121 0.000000
# 4 0.000000 0.000000 0.000000 0.069499 0.000000 -0.020308
# 5 -0.000374 -0.001619 -0.000121 0.000000 0.015115 0.000000
# 6 0.000000 0.000000 0.000000 -0.020308 0.000000 -0.028005
#
#
# Mechanical properties :
#
#
# Convention : Reuss Voigt Hill
#
# Bulk Modulus (GPa) = 55.10427 61.84887 58.47657
# Shear Modulus (GPa) = 51.76094 31.23515 41.49805
#
# Velocity S-wave (km/s) = 4.53687 3.52433 4.06227
# Velocity P-wave (km/s) = 7.02545 6.41529 6.72729
#
# Compressibility (1/GPa) = 0.01814741
#
# Stress axis : x y z
#
# Youngs Moduli (GPa) = 101.36404 106.91780 146.52007
#
# Poissons Ratio (x) = -0.04060 0.34591
# Poissons Ratio (y) = -0.03849 0.28819
# Poissons Ratio (z) = 0.23930 0.21029
#
# Static dielectric constant tensor:
#      x y z
#    x 1.769690 0.000000 -0.066970 
#    y 0.000000 1.896880 0.000000 
#    z -0.066970 0.000000 1.949200 
# 
# From -- ./inp_files/308692.got.cif
#   From: 2010.05.17/outbox.cif.g08.bks.cpg/sg12_155_cif.got.tgz:308692.got - 2010.06.03 13:09:07.
