data_PCOD9201430
_publ_section_title
;
Structure prediction by ZEFSAII (Michael W. Deem and Ramdas Pophale) SiO2 
 PCOD9201430
Probable space group: C 2/M
;
_chemical_formula_sum "Si O2"
_cell_formula_units_Z 48
_cell_length_a 25.420148
_cell_length_b 8.079341
_cell_length_c 11.476493
_cell_angle_alpha 90.000000
_cell_angle_beta 78.017761
_cell_angle_gamma 90.000000
_cell_volume 2305.664948
_symmetry_space_group_name_H-M "C 2/M"
_symmetry_group_IT_number 12
_symmetry_cell_setting 'monoclinic'
loop_
_space_group_symop_operation_xyz
x,y,z
-x,y,-z
-x,-y,-z
x,-y,z
1/2+x,1/2+y,z
1/2-x,1/2+y,-z
1/2-x,1/2-y,-z
1/2+x,1/2-y,z
loop_
_atom_site_type_symbol
_atom_site_label
_atom_site_fract_x
_atom_site_fract_y
_atom_site_fract_z
Si Si1 0.494010 0.298119 0.634619
Si Si2 0.720993 0.807555 0.632455
Si Si3 0.890073 0.200526 0.822402
Si Si4 0.102660 0.809277 0.704205
Si Si5 0.437580 0.193983 0.041997
Si Si6 0.733019 0.300741 0.140234
O O1 0.500000 0.246293 0.500000
O O2 0.494368 0.500000 0.639953
O O3 0.437210 0.246029 0.713370
O O4 0.546959 0.240429 0.678023
O O5 0.750000 0.750000 0.500000
O O6 0.657348 0.780779 0.646986
O O7 0.737242 0.737403 0.754628
O O8 0.733832 0.000000 0.634627
O O9 0.829714 0.245067 0.816095
O O10 0.892012 0.000000 0.831917
O O11 0.906556 0.278794 0.936935
O O12 0.092680 0.796495 0.846070
O O13 0.108386 0.000000 0.664353
O O14 0.437223 0.000000 0.074266
O O15 0.500000 0.246500 0.000000
O O16 0.738343 0.500000 0.137424
O O17 0.750000 0.250000 0.000000
#
# Coordination Sequence:
#
# PCOD9201430 Si02
#       6
#     8   8   8   8   8   8
#     4   9  19  34  58  88 116 149 194 247 301 356
#     4  11  25  44  65  93 127 165 208 255 307 367
#     4  10  20  37  62  89 115 150 200 252 299 356
#     4  11  22  38  64  91 119 156 200 249 302 362
#     4  11  22  36  56  86 126 160 192 239 299 362
#     4  10  23  41  64  90 122 161 208 258 306 361
#
# _framework density 20.818289
#
# number of rings (size 3 to 8) (size 9 to 14) (size 15 to 20)
#    0.000    1.667    1.667    2.500    2.333    5.333 
#    0.000    0.000    0.000    2.500    0.000    0.000 
#    0.000    0.000    0.000    0.000    0.000    0.000 
#
# Total GULP energy -133948.108580 kJ/mol
# GULP energy per Si atom -5581.171191 kJ/mol
# Density = 2.077091 g / cm^3
# Si number density = 20.818289 Si / 1000 Ang^3
#
#
#
# Elastic Constant Matrix: (Units=GPa)
#
#
# Indices 1 2 3 4 5 6 
#
# 1 121.4497 16.0636 66.3693 0.0000 -18.3552 0.0000
# 2 16.0636 20.8792 15.8022 0.0000 -0.5638 0.0000
# 3 66.3693 15.8022 149.8422 0.0000 -15.6876 0.0000
# 4 0.0000 0.0000 0.0000 10.8376 0.0000 1.1674
# 5 -18.3552 -0.5638 -15.6876 0.0000 24.6699 0.0000
# 6 0.0000 0.0000 0.0000 1.1674 0.0000 21.9919
#
#
#
# Elastic Compliance Matrix: (Units=1/GPa)
#
#
# Indices 1 2 3 4 5 6 
#
# 1 0.012257 -0.006144 -0.004115 0.000000 0.006362 0.000000
# 2 -0.006144 0.055269 -0.003700 0.000000 -0.005661 0.000000
# 3 -0.004115 -0.003700 0.009167 0.000000 0.002683 0.000000
# 4 0.000000 0.000000 0.000000 0.092802 0.000000 -0.004926
# 5 0.006362 -0.005661 0.002683 0.000000 0.046846 0.000000
# 6 0.000000 0.000000 0.000000 -0.004926 0.000000 0.045733
#
#
# Mechanical properties :
#
#
# Convention : Reuss Voigt Hill
#
# Bulk Modulus (GPa) = 20.50199 54.29347 37.39773
# Shear Modulus (GPa) = 16.32656 24.42895 20.37776
#
# Velocity S-wave (km/s) = 2.80347 3.42926 3.13203
# Velocity P-wave (km/s) = 4.51095 6.46654 5.57516
#
# Compressibility (1/GPa) = 0.04877575
#
# Stress axis : x y z
#
# Youngs Moduli (GPa) = 81.58819 18.09338 109.08230
#
# Poissons Ratio (x) = 0.11116 0.44885
# Poissons Ratio (y) = 0.50126 0.40361
# Poissons Ratio (z) = 0.33572 0.06695
#
# Static dielectric constant tensor:
#      x y z
#    x 1.771850 0.000000 0.021390 
#    y 0.000000 1.745400 0.000000 
#    z 0.021390 0.000000 1.719150 
# 
# From -- ./inp_files/172195.got.cif
#   From: 2010.05.17/outbox.cif.g08.bks.cpg/sg12_87_cif.got.tgz:172195.got - 2010.06.03 13:09:07.
