data_PCOD9201811
_publ_section_title
;
Structure prediction by ZEFSAII (Michael W. Deem and Ramdas Pophale) SiO2 
 PCOD9201811
Probable space group: C 2/M
;
_chemical_formula_sum "Si O2"
_cell_formula_units_Z 24
_cell_length_a 12.223466
_cell_length_b 12.980342
_cell_length_c 11.914575
_cell_angle_alpha 90.000000
_cell_angle_beta 31.282915
_cell_angle_gamma 90.000000
_cell_volume 981.629324
_symmetry_space_group_name_H-M "C 2/M"
_symmetry_group_IT_number 12
_symmetry_cell_setting 'monoclinic'
loop_
_space_group_symop_operation_xyz
x,y,z
-x,y,-z
-x,-y,-z
x,-y,z
1/2+x,1/2+y,z
1/2-x,1/2+y,-z
1/2-x,1/2-y,-z
1/2+x,1/2-y,z
loop_
_atom_site_type_symbol
_atom_site_label
_atom_site_fract_x
_atom_site_fract_y
_atom_site_fract_z
Si Si1 0.199317 0.382884 0.753093
Si Si2 0.827019 0.118937 0.053016
Si Si3 0.502159 0.298685 0.329718
O O1 0.160746 0.500000 0.749612
O O2 0.268384 0.313511 0.586249
O O3 0.374618 0.377555 0.695866
O O4 0.000000 0.346013 0.000000
O O5 0.942308 0.161212 0.841201
O O6 0.763766 0.000000 0.093691
O O7 0.620408 0.190626 0.250208
O O8 0.000000 0.122579 0.000000
#
# Coordination Sequence:
#
# PCOD9201811 Si02
#       3
#     8   8   8
#     4  10  20  37  64  95 125 164 215 266 314 369
#     4  10  21  39  65  97 132 169 208 255 318 384
#     4  10  20  39  66  92 124 164 213 264 311 370
#
# _framework density 24.449148999999998
#
# number of rings (size 3 to 8) (size 9 to 14) (size 15 to 20)
#    0.000    2.000    0.000    5.000    0.000    0.000 
#    0.000   30.000    0.000   26.000    0.000    0.000 
#    0.000    0.000    0.000    0.000    0.000    0.000 
#
# Total GULP energy -67102.164031 kJ/mol
# GULP energy per Si atom -5591.847003 kJ/mol
# Density = 2.439350 g / cm^3
# Si number density = 24.449149 Si / 1000 Ang^3
#
#
#
# Elastic Constant Matrix: (Units=GPa)
#
#
# Indices 1 2 3 4 5 6 
#
# 1 86.7102 26.5867 33.3814 -0.0031 27.8837 0.0014
# 2 26.5867 226.3399 88.9755 -0.0341 8.5781 0.0022
# 3 33.3814 88.9755 197.6029 -0.0295 36.2455 0.0038
# 4 -0.0031 -0.0341 -0.0295 180.8613 0.0148 5.3524
# 5 27.8837 8.5781 36.2455 0.0148 37.4113 -0.0018
# 6 0.0014 0.0022 0.0038 5.3524 -0.0018 26.6720
#
#
#
# Elastic Compliance Matrix: (Units=1/GPa)
#
#
# Indices 1 2 3 4 5 6 
#
# 1 0.015600 -0.001441 0.000104 0.000001 -0.011397 -0.000002
# 2 -0.001441 0.005558 -0.002703 0.000000 0.002419 0.000000
# 3 0.000104 -0.002703 0.007492 0.000001 -0.006717 -0.000002
# 4 0.000001 0.000000 0.000001 0.005562 -0.000004 -0.001116
# 5 -0.011397 0.002419 -0.006717 -0.000004 0.041177 0.000005
# 6 -0.000002 0.000000 -0.000002 -0.001116 0.000005 0.037716
#
#
# Mechanical properties :
#
#
# Convention : Reuss Voigt Hill
#
# Bulk Modulus (GPa) = 48.61451 89.83781 69.22616
# Shear Modulus (GPa) = 39.04952 73.10289 56.07620
#
# Velocity S-wave (km/s) = 4.00080 5.47402 4.79433
# Velocity P-wave (km/s) = 6.42409 8.76229 7.68266
#
# Compressibility (1/GPa) = 0.02056999
#
# Stress axis : x y z
#
# Youngs Moduli (GPa) = 64.10441 179.91085 133.47458
#
# Poissons Ratio (x) = 0.25933 -0.01393
# Poissons Ratio (y) = 0.09240 0.36077
# Poissons Ratio (z) = -0.00669 0.48628
#
# Static dielectric constant tensor:
#      x y z
#    x 2.055540 0.000000 -0.259710 
#    y 0.000000 1.912080 0.000010 
#    z -0.259710 0.000010 2.356590 
# 
# From -- ./inp_files/212263.got.cif
#   From: 2010.05.17/outbox.cif.g08.bks.cpg/sg12_107_cif.got.tgz:212263.got - 2010.06.03 13:09:07.
