data_PCOD9201731
_publ_section_title
;
Structure prediction by ZEFSAII (Michael W. Deem and Ramdas Pophale) SiO2 
 PCOD9201731
Probable space group: C 2/M
;
_chemical_formula_sum "Si O2"
_cell_formula_units_Z 56
_cell_length_a 19.369277
_cell_length_b 14.739039
_cell_length_c 20.026818
_cell_angle_alpha 90.000000
_cell_angle_beta 156.825573
_cell_angle_gamma 90.000000
_cell_volume 2249.956768
_symmetry_space_group_name_H-M "C 2/M"
_symmetry_group_IT_number 12
_symmetry_cell_setting 'monoclinic'
loop_
_space_group_symop_operation_xyz
x,y,z
-x,y,-z
-x,-y,-z
x,-y,z
1/2+x,1/2+y,z
1/2-x,1/2+y,-z
1/2-x,1/2-y,-z
1/2+x,1/2-y,z
loop_
_atom_site_type_symbol
_atom_site_label
_atom_site_fract_x
_atom_site_fract_y
_atom_site_fract_z
Si Si1 0.236328 0.598756 0.303544
Si Si2 0.770538 0.332070 0.198569
Si Si3 0.347893 0.098413 0.015240
Si Si4 0.626579 0.300847 0.197969
Si Si5 0.954841 0.602843 0.242146
Si Si6 0.840845 0.888388 0.626867
Si Si7 0.537691 0.340701 0.667151
O O1 0.249803 0.500000 0.279168
O O2 0.212251 0.702081 0.256352
O O3 0.405348 0.606303 0.501865
O O4 0.051771 0.593499 0.178137
O O5 0.732324 0.363639 0.239574
O O6 0.833927 0.400795 0.199014
O O7 0.928334 0.259007 0.331621
O O8 0.579004 0.298258 0.003255
O O9 0.353915 0.150400 0.091132
O O10 0.267744 0.000000 0.958307
O O11 0.237433 0.127427 0.853410
O O12 0.637146 0.337539 0.282707
O O13 0.990837 0.500000 0.252585
O O14 0.147187 0.638372 0.428720
O O15 0.967555 0.852935 0.680504
O O16 0.852930 0.000000 0.644278
#
# Coordination Sequence:
#
# PCOD9201731 Si02
#       7
#     8   8   8   8   8   8   8
#     4  11  23  42  68  99 134 176 224 282 338 401
#     4  11  26  44  67  96 136 187 230 283 344 408
#     4  10  20  37  63  98 134 166 213 277 334 394
#     4  11  26  48  66  96 140 181 236 285 337 412
#     4  10  22  41  66 100 139 176 223 282 347 409
#     4  11  24  42  70 105 139 177 227 287 345 410
#     4  12  23  40  70 101 136 175 225 275 347 403
#
# _framework density 24.889368999999999
#
# number of rings (size 3 to 8) (size 9 to 14) (size 15 to 20)
#    0.000    1.143    2.857    3.000    2.000    6.857 
#    0.000    7.143    0.000    0.000    0.000    0.000 
#    0.000    0.000    0.000    0.000    0.000    0.000 
#
# Total GULP energy -156085.305076 kJ/mol
# GULP energy per Si atom -5574.475181 kJ/mol
# Density = 2.483272 g / cm^3
# Si number density = 24.889369 Si / 1000 Ang^3
#
#
#
# Elastic Constant Matrix: (Units=GPa)
#
#
# Indices 1 2 3 4 5 6 
#
# 1 78.4075 10.9720 24.2128 -0.0146 9.3187 0.0193
# 2 10.9720 66.3975 17.6563 0.0292 7.1504 -0.0466
# 3 24.2128 17.6563 92.5694 0.0600 19.4137 -0.0658
# 4 -0.0146 0.0292 0.0600 43.1101 0.0206 -7.3647
# 5 9.3187 7.1504 19.4137 0.0206 21.9437 -0.0112
# 6 0.0193 -0.0466 -0.0658 -7.3647 -0.0112 28.7238
#
#
#
# Elastic Compliance Matrix: (Units=1/GPa)
#
#
# Indices 1 2 3 4 5 6 
#
# 1 0.014169 -0.001258 -0.002812 0.000008 -0.003119 -0.000017
# 2 -0.001258 0.016146 -0.002160 -0.000004 -0.002816 0.000020
# 3 -0.002812 -0.002160 0.014184 -0.000010 -0.010651 0.000024
# 4 0.000008 -0.000004 -0.000010 0.024259 -0.000013 0.006220
# 5 -0.003119 -0.002816 -0.010651 -0.000013 0.057236 -0.000008
# 6 -0.000017 0.000020 0.000024 0.006220 -0.000008 0.036409
#
#
# Mechanical properties :
#
#
# Convention : Reuss Voigt Hill
#
# Bulk Modulus (GPa) = 31.21135 38.11740 34.66438
# Shear Modulus (GPa) = 26.94791 31.05774 29.00282
#
# Velocity S-wave (km/s) = 3.29402 3.53630 3.41731
# Velocity P-wave (km/s) = 5.19949 5.65879 5.43399
#
# Compressibility (1/GPa) = 0.03203962
#
# Stress axis : x y z
#
# Youngs Moduli (GPa) = 70.57664 61.93351 70.50243
#
# Poissons Ratio (x) = 0.07789 0.19825
# Poissons Ratio (y) = 0.08876 0.15229
# Poissons Ratio (z) = 0.19846 0.13378
#
# Static dielectric constant tensor:
#      x y z
#    x 2.004810 0.000000 -0.054020 
#    y 0.000000 2.211300 -0.000020 
#    z -0.054020 -0.000020 2.013650 
# 
# From -- ./inp_files/322740.got.cif
#   From: 2010.05.17/outbox.cif.g08.bks.cpg/sg12_162_cif.got.tgz:322740.got - 2010.06.03 13:09:07.
