data_PCOD9201136
_publ_section_title
;
Structure prediction by ZEFSAII (Michael W. Deem and Ramdas Pophale) SiO2 
 PCOD9201136
Probable space group: C 2/M
;
_chemical_formula_sum "Si O2"
_cell_formula_units_Z 48
_cell_length_a 28.430359
_cell_length_b 13.003209
_cell_length_c 12.524586
_cell_angle_alpha 90.000000
_cell_angle_beta 25.506391
_cell_angle_gamma 90.000000
_cell_volume 1993.802629
_symmetry_space_group_name_H-M "C 2/M"
_symmetry_group_IT_number 12
_symmetry_cell_setting 'monoclinic'
loop_
_space_group_symop_operation_xyz
x,y,z
-x,y,-z
-x,-y,-z
x,-y,z
1/2+x,1/2+y,z
1/2-x,1/2+y,-z
1/2-x,1/2-y,-z
1/2+x,1/2-y,z
loop_
_atom_site_type_symbol
_atom_site_label
_atom_site_fract_x
_atom_site_fract_y
_atom_site_fract_z
Si Si1 0.858991 0.669561 0.191631
Si Si2 0.106853 0.166544 0.214711
Si Si3 0.822064 0.112628 0.160364
Si Si4 0.198899 0.386136 0.027239
Si Si5 0.586574 0.167779 0.670267
Si Si6 0.154817 0.889135 0.485745
O O1 0.844720 0.789672 0.189391
O O2 0.884386 0.658105 0.263750
O O3 0.747548 0.616539 0.386672
O O4 0.963699 0.627624 0.911602
O O5 0.117008 0.290643 0.191906
O O6 0.000000 0.135619 0.500000
O O7 0.111173 0.125930 0.085718
O O8 0.216136 0.128213 0.049920
O O9 0.692245 0.121620 0.396604
O O10 0.839836 0.000000 0.171680
O O11 0.149666 0.500000 0.131030
O O12 0.275977 0.378511 0.764702
O O13 0.583676 0.288205 0.646669
O O14 0.099513 0.000000 0.601173
#
# Coordination Sequence:
#
# PCOD9201136 Si02
#       6
#     8   8   8   8   8   8
#     4  10  22  39  61  89 119 156 199 247 299 354
#     4  11  24  41  63  89 124 159 199 249 295 352
#     4  11  23  40  61  88 122 159 199 245 299 356
#     4  10  22  40  62  90 119 156 199 245 297 350
#     4  10  22  40  60  87 122 155 198 248 300 353
#     4  10  20  37  61  86 118 155 196 242 295 353
#
# _framework density 24.0746
#
# number of rings (size 3 to 8) (size 9 to 14) (size 15 to 20)
#    0.000    1.667    3.333    2.500    2.333    5.667 
#    0.000    3.333    0.000    0.000    0.000    0.000 
#    0.000    0.000    0.000    0.000    0.000    0.000 
#
# Total GULP energy -134285.211625 kJ/mol
# GULP energy per Si atom -5595.217151 kJ/mol
# Density = 2.401981 g / cm^3
# Si number density = 24.074600 Si / 1000 Ang^3
#
#
#
# Elastic Constant Matrix: (Units=GPa)
#
#
# Indices 1 2 3 4 5 6 
#
# 1 47.7931 -0.1133 -0.5206 0.0000 10.2939 0.0000
# 2 -0.1133 127.8215 3.9651 0.0000 0.6036 0.0000
# 3 -0.5206 3.9651 113.4421 0.0000 -11.3596 0.0000
# 4 0.0000 0.0000 0.0000 -45.2427 0.0000 -19.7838
# 5 10.2939 0.6036 -11.3596 0.0000 32.2919 0.0000
# 6 0.0000 0.0000 0.0000 -19.7838 0.0000 -14.8499
#
#
#
# Elastic Compliance Matrix: (Units=1/GPa)
#
#
# Indices 1 2 3 4 5 6 
#
# 1 0.022511 0.000075 -0.000641 0.000000 -0.007403 0.000000
# 2 0.000075 0.007834 -0.000301 0.000000 -0.000276 0.000000
# 3 -0.000641 -0.000301 0.009167 0.000000 0.003434 0.000000
# 4 0.000000 0.000000 0.000000 -0.052950 0.000000 0.070543
# 5 -0.007403 -0.000276 0.003434 0.000000 0.034541 0.000000
# 6 0.000000 0.000000 0.000000 0.070543 0.000000 -0.161321
#
#
# Mechanical properties :
#
#
# Convention : Reuss Voigt Hill
#
# Bulk Modulus (GPa) = 26.47044 32.85766 29.66405
# Shear Modulus (GPa) = -39.71674 13.48823 -13.11426
#
# Velocity S-wave (km/s) = -4.06610 2.36957 -2.33649
# Velocity P-wave (km/s) = 3.32042 4.60047 2.25157
#
# Compressibility (1/GPa) = 0.03777798
#
# Stress axis : x y z
#
# Youngs Moduli (GPa) = 44.42239 127.64667 109.09207
#
# Poissons Ratio (x) = -0.00955 0.06988
# Poissons Ratio (y) = -0.00332 0.03285
# Poissons Ratio (z) = 0.02846 0.03844
#
# Static dielectric constant tensor:
#      x y z
#    x 1.936140 0.000000 -0.018760 
#    y 0.000000 1.920910 0.000000 
#    z -0.018760 0.000000 1.925820 
# 
# From -- ./inp_files/189372.got.cif
#   From: 2010.05.17/outbox.cif.g08.bks.cpg/sg12_95_cif.got.tgz:189372.got - 2010.06.03 13:09:07.
