data_PCOD9201170
_publ_section_title
;
Structure prediction by ZEFSAII (Michael W. Deem and Ramdas Pophale) SiO2 
 PCOD9201170
Probable space group: C 2/M
;
_chemical_formula_sum "Si O2"
_cell_formula_units_Z 48
_cell_length_a 17.726783
_cell_length_b 13.784847
_cell_length_c 20.199917
_cell_angle_alpha 90.000000
_cell_angle_beta 30.406841
_cell_angle_gamma 90.000000
_cell_volume 2498.327276
_symmetry_space_group_name_H-M "C 2/M"
_symmetry_group_IT_number 12
_symmetry_cell_setting 'monoclinic'
loop_
_space_group_symop_operation_xyz
x,y,z
-x,y,-z
-x,-y,-z
x,-y,z
1/2+x,1/2+y,z
1/2-x,1/2+y,-z
1/2-x,1/2-y,-z
1/2+x,1/2-y,z
loop_
_atom_site_type_symbol
_atom_site_label
_atom_site_fract_x
_atom_site_fract_y
_atom_site_fract_z
Si Si1 0.164311 0.711483 0.501344
Si Si2 0.626970 0.113847 0.851404
Si Si3 0.970628 0.107960 0.600811
Si Si4 0.554014 0.749384 0.786519
Si Si5 0.062761 0.611733 0.242641
Si Si6 0.405845 0.614327 0.004832
O O1 0.250000 0.750000 0.500000
O O2 0.297648 0.692694 0.349496
O O3 0.065755 0.802540 0.553509
O O4 0.056192 0.627504 0.608492
O O5 0.796450 0.126276 0.747498
O O6 0.607383 0.170843 0.798656
O O7 0.607745 0.000000 0.852882
O O8 0.500000 0.142177 0.000000
O O9 0.000000 0.103740 0.500000
O O10 0.010681 0.000000 0.596988
O O11 0.475887 0.808898 0.785423
O O12 0.453028 0.676767 0.905374
O O13 0.054141 0.500000 0.224359
O O14 0.228264 0.628006 0.146052
O O15 0.432721 0.500000 0.972349
O O16 0.500000 0.639422 0.000000
#
# Coordination Sequence:
#
# PCOD9201170 Si02
#       6
#     8   8   8   8   8   8
#     4  10  23  37  57  88 119 157 198 237 297 355
#     4  10  21  35  57  93 125 154 191 240 301 355
#     4  10  20  37  61  87 120 156 195 245 298 350
#     4  11  21  38  63  90 117 157 196 248 293 349
#     4  10  23  42  62  85 119 158 199 244 297 352
#     4  10  23  42  62  87 119 160 200 241 294 348
#
# _framework density 19.212855000000001
#
# number of rings (size 3 to 8) (size 9 to 14) (size 15 to 20)
#    0.000    1.833    1.667    1.500    4.667    3.333 
#    0.000    2.500    0.000    3.500    0.000    0.000 
#    0.000    0.000    0.000    0.000    0.000    0.000 
#
# Total GULP energy -133840.427151 kJ/mol
# GULP energy per Si atom -5576.684465 kJ/mol
# Density = 1.916913 g / cm^3
# Si number density = 19.212855 Si / 1000 Ang^3
#
#
#
# Elastic Constant Matrix: (Units=GPa)
#
#
# Indices 1 2 3 4 5 6 
#
# 1 62.6533 29.1983 27.6924 0.0000 -0.4389 0.0000
# 2 29.1983 74.9119 27.2816 0.0005 -7.9202 -0.0001
# 3 27.6924 27.2816 143.0745 0.0009 -3.8543 -0.0003
# 4 0.0000 0.0005 0.0009 28.8589 0.0000 5.0766
# 5 -0.4389 -7.9202 -3.8543 0.0000 21.8704 -0.0001
# 6 0.0000 -0.0001 -0.0003 5.0766 -0.0001 31.0438
#
#
#
# Elastic Compliance Matrix: (Units=1/GPa)
#
#
# Indices 1 2 3 4 5 6 
#
# 1 0.020525 -0.007321 -0.002650 0.000000 -0.002706 0.000000
# 2 -0.007321 0.017462 -0.001755 0.000000 0.005868 0.000000
# 3 -0.002650 -0.001755 0.007855 0.000000 0.000696 0.000000
# 4 0.000000 0.000000 0.000000 0.035678 0.000000 -0.005834
# 5 -0.002706 0.005868 0.000696 0.000000 0.047917 0.000000
# 6 0.000000 0.000000 0.000000 -0.005834 0.000000 0.033167
#
#
# Mechanical properties :
#
#
# Convention : Reuss Voigt Hill
#
# Bulk Modulus (GPa) = 44.65929 49.88714 47.27322
# Shear Modulus (GPa) = 25.83737 29.45245 27.64491
#
# Velocity S-wave (km/s) = 3.67112 3.91954 3.79737
# Velocity P-wave (km/s) = 6.42374 6.81950 6.62458
#
# Compressibility (1/GPa) = 0.02239176
#
# Stress axis : x y z
#
# Youngs Moduli (GPa) = 48.72145 57.26751 127.29941
#
# Poissons Ratio (x) = 0.41926 0.33728
# Poissons Ratio (y) = 0.35670 0.22335
# Poissons Ratio (z) = 0.12909 0.10048
#
# Static dielectric constant tensor:
#      x y z
#    x 1.644370 0.000000 -0.002890 
#    y 0.000000 1.692890 0.000000 
#    z -0.002890 0.000000 1.715150 
# 
# From -- ./inp_files/316266.got.cif
#   From: 2010.05.17/outbox.cif.g08.bks.cpg/sg12_159_cif.got.tgz:316266.got - 2010.06.03 13:09:07.
