data_PCOD9201400
_publ_section_title
;
Structure prediction by ZEFSAII (Michael W. Deem and Ramdas Pophale) SiO2 
 PCOD9201400
Probable space group: C 2/M
;
_chemical_formula_sum "Si O2"
_cell_formula_units_Z 48
_cell_length_a 13.133782
_cell_length_b 23.533006
_cell_length_c 11.404208
_cell_angle_alpha 90.000000
_cell_angle_beta 130.523265
_cell_angle_gamma 90.000000
_cell_volume 2679.335996
_symmetry_space_group_name_H-M "C 2/M"
_symmetry_group_IT_number 12
_symmetry_cell_setting 'monoclinic'
loop_
_space_group_symop_operation_xyz
x,y,z
-x,y,-z
-x,-y,-z
x,-y,z
1/2+x,1/2+y,z
1/2-x,1/2+y,-z
1/2-x,1/2-y,-z
1/2+x,1/2-y,z
loop_
_atom_site_type_symbol
_atom_site_label
_atom_site_fract_x
_atom_site_fract_y
_atom_site_fract_z
Si Si1 0.286010 0.183783 0.440373
Si Si2 0.161141 0.562560 0.616722
Si Si3 0.689497 0.328515 0.915518
Si Si4 0.450679 0.718217 0.590108
Si Si5 0.369243 0.434269 0.980682
Si Si6 0.660335 0.255563 0.117231
O O1 0.293917 0.118034 0.418580
O O2 0.427784 0.213906 0.571415
O O3 0.191506 0.192825 0.480752
O O4 0.222981 0.219993 0.284319
O O5 0.198761 0.500000 0.596527
O O6 0.239110 0.566905 0.798870
O O7 0.000000 0.564365 0.500000
O O8 0.552831 0.302225 0.763499
O O9 0.794610 0.306979 0.895447
O O10 0.660624 0.393099 0.932308
O O11 0.717841 0.297175 0.059565
O O12 0.500000 0.700159 0.500000
O O13 0.394325 0.500000 0.033053
O O14 0.500000 0.415680 0.000000
O O15 0.500000 0.259314 0.000000
#
# Coordination Sequence:
#
# PCOD9201400 Si02
#       6
#     8   8   8   8   8   8
#     4  11  21  36  57  80 119 152 185 235 291 351
#     4  10  21  36  59  89 119 149 189 239 293 344
#     4  11  21  34  58  82 117 145 188 242 279 347
#     4  11  22  35  53  84 111 153 190 234 288 342
#     4  10  20  37  62  88 115 152 194 242 290 333
#     4  11  21  34  54  85 113 151 187 236 290 338
#
# _framework density 17.914887
#
# number of rings (size 3 to 8) (size 9 to 14) (size 15 to 20)
#    0.000    1.333    5.000    2.000    0.000    0.000 
#    0.000    0.000    0.000    2.500    0.000    0.000 
#    0.000    0.000    0.000    0.000    0.000    0.000 
#
# Total GULP energy -133747.462176 kJ/mol
# GULP energy per Si atom -5572.810924 kJ/mol
# Density = 1.787411 g / cm^3
# Si number density = 17.914887 Si / 1000 Ang^3
#
#
#
# Elastic Constant Matrix: (Units=GPa)
#
#
# Indices 1 2 3 4 5 6 
#
# 1 84.5201 44.1296 24.7805 0.0000 -9.2210 0.0000
# 2 44.1296 143.4768 33.8476 0.0000 -14.8646 0.0000
# 3 24.7805 33.8476 78.2048 0.0000 5.1051 0.0000
# 4 0.0000 0.0000 0.0000 16.2092 0.0000 3.4537
# 5 -9.2210 -14.8646 5.1051 0.0000 30.4237 0.0000
# 6 0.0000 0.0000 0.0000 3.4537 0.0000 17.5501
#
#
#
# Elastic Compliance Matrix: (Units=1/GPa)
#
#
# Indices 1 2 3 4 5 6 
#
# 1 0.015031 -0.003438 -0.003501 0.000000 0.003463 0.000000
# 2 -0.003438 0.009180 -0.003143 0.000000 0.003971 0.000000
# 3 -0.003501 -0.003143 0.015597 0.000000 -0.005214 0.000000
# 4 0.000000 0.000000 0.000000 0.064393 0.000000 -0.012672
# 5 0.003463 0.003971 -0.005214 0.000000 0.036734 0.000000
# 6 0.000000 0.000000 0.000000 -0.012672 0.000000 0.059473
#
#
# Mechanical properties :
#
#
# Convention : Reuss Voigt Hill
#
# Bulk Modulus (GPa) = 50.90661 56.85747 53.88204
# Shear Modulus (GPa) = 22.01475 26.39953 24.20714
#
# Velocity S-wave (km/s) = 3.50930 3.84293 3.67990
# Velocity P-wave (km/s) = 6.70058 7.17616 6.94244
#
# Compressibility (1/GPa) = 0.01964381
#
# Stress axis : x y z
#
# Youngs Moduli (GPa) = 66.52921 108.93073 64.11567
#
# Poissons Ratio (x) = 0.37456 0.22445
# Poissons Ratio (y) = 0.22876 0.20151
# Poissons Ratio (z) = 0.23290 0.34236
#
# Static dielectric constant tensor:
#      x y z
#    x 1.648060 0.000000 0.031750 
#    y 0.000000 1.659770 0.000000 
#    z 0.031750 0.000000 1.668940 
# 
# From -- ./inp_files/134945.got.cif
#   From: 2010.05.17/outbox.cif.g08.bks.cpg/sg12_68_cif.got.tgz:134945.got - 2010.06.03 13:09:07.
