data_PCOD9201363
_publ_section_title
;
Structure prediction by ZEFSAII (Michael W. Deem and Ramdas Pophale) SiO2 
 PCOD9201363
Probable space group: C 2/M
;
_chemical_formula_sum "Si O2"
_cell_formula_units_Z 56
_cell_length_a 23.964817
_cell_length_b 14.118159
_cell_length_c 8.204742
_cell_angle_alpha 90.000000
_cell_angle_beta 108.319397
_cell_angle_gamma 90.000000
_cell_volume 2635.295646
_symmetry_space_group_name_H-M "C 2/M"
_symmetry_group_IT_number 12
_symmetry_cell_setting 'monoclinic'
loop_
_space_group_symop_operation_xyz
x,y,z
-x,y,-z
-x,-y,-z
x,-y,z
1/2+x,1/2+y,z
1/2-x,1/2+y,-z
1/2-x,1/2-y,-z
1/2+x,1/2-y,z
loop_
_atom_site_type_symbol
_atom_site_label
_atom_site_fract_x
_atom_site_fract_y
_atom_site_fract_z
Si Si1 0.010316 0.886760 0.318157
Si Si2 0.851703 0.888256 0.595258
Si Si3 0.198538 0.205177 0.775762
Si Si4 0.564783 0.897611 0.625871
Si Si5 0.906494 0.233230 0.099194
Si Si6 0.819700 0.283208 0.773820
Si Si7 0.179934 0.607798 0.558063
O O1 0.078253 0.865750 0.337807
O O2 0.000000 0.859745 0.500000
O O3 0.961445 0.837675 0.158917
O O4 0.002666 0.000000 0.301115
O O5 0.827222 0.857124 0.396840
O O6 0.818122 0.822516 0.694147
O O7 0.844533 0.000000 0.615071
O O8 0.153689 0.187639 0.882116
O O9 0.268263 0.189262 0.853761
O O10 0.196985 0.313954 0.708569
O O11 0.500000 0.891679 0.500000
O O12 0.576755 0.814466 0.759733
O O13 0.609594 0.893026 0.517281
O O14 0.574635 0.000000 0.715282
O O15 0.883737 0.282792 0.914519
O O16 0.808950 0.351672 0.610735
O O17 0.201531 0.500000 0.600258
#
# Coordination Sequence:
#
# PCOD9201363 Si02
#       7
#     8   8   8   8   8   8   8
#     4  10  20  37  62  87 111 146 195 236 275 339
#     4  10  21  39  62  86 112 149 194 238 281 331
#     4  10  21  38  59  81 109 152 198 228 268 333
#     4   9  19  36  59  81 102 140 190 226 264 328
#     4  11  22  36  58  82 118 151 178 231 290 332
#     4  11  24  36  52  87 120 147 184 228 285 343
#     4   9  19  37  58  79 106 143 187 230 269 316
#
# _framework density 21.249988999999999
#
# number of rings (size 3 to 8) (size 9 to 14) (size 15 to 20)
#    0.000    2.000    1.429    2.571    4.000    4.000 
#    0.000    1.429    0.000    7.714    0.000    0.000 
#    0.000    0.000    0.000    0.000    0.000    0.000 
#
# Total GULP energy -156194.900789 kJ/mol
# GULP energy per Si atom -5578.389314 kJ/mol
# Density = 2.120162 g / cm^3
# Si number density = 21.249989 Si / 1000 Ang^3
#
#
#
# Elastic Constant Matrix: (Units=GPa)
#
#
# Indices 1 2 3 4 5 6 
#
# 1 85.4856 11.8100 0.3896 0.0000 19.8560 0.0000
# 2 11.8100 75.8947 1.2936 0.0000 1.8405 0.0000
# 3 0.3896 1.2936 45.5576 0.0000 17.1045 0.0000
# 4 0.0000 0.0000 0.0000 -0.9835 0.0000 1.1386
# 5 19.8560 1.8405 17.1045 0.0000 31.6616 0.0000
# 6 0.0000 0.0000 0.0000 1.1386 0.0000 18.1221
#
#
#
# Elastic Compliance Matrix: (Units=1/GPa)
#
#
# Indices 1 2 3 4 5 6 
#
# 1 0.014584 -0.002067 0.004168 0.000000 -0.011278 0.000000
# 2 -0.002067 0.013488 -0.000700 0.000000 0.000890 0.000000
# 3 0.004168 -0.000700 0.028727 0.000000 -0.018093 0.000000
# 4 0.000000 0.000000 0.000000 -0.947813 0.000000 0.059552
# 5 -0.011278 0.000890 -0.018093 0.000000 0.048379 0.000000
# 6 0.000000 0.000000 0.000000 0.059552 0.000000 0.051439
#
#
# Mechanical properties :
#
#
# Convention : Reuss Voigt Hill
#
# Bulk Modulus (GPa) = 16.77780 25.99161 21.38470
# Shear Modulus (GPa) = -6.45886 22.65635 8.09875
#
# Velocity S-wave (km/s) = -1.74530 3.26879 1.95434
# Velocity P-wave (km/s) = 1.96244 5.14825 3.89587
#
# Compressibility (1/GPa) = 0.05960259
#
# Stress axis : x y z
#
# Youngs Moduli (GPa) = 68.56862 74.13931 34.81016
#
# Poissons Ratio (x) = 0.15324 -0.14509
# Poissons Ratio (y) = 0.14173 0.02435
# Poissons Ratio (z) = -0.28580 0.05186
#
# Static dielectric constant tensor:
#      x y z
#    x 1.820940 0.000000 0.000690 
#    y 0.000000 1.773400 0.000000 
#    z 0.000690 0.000000 1.780410 
# 
# From -- ./inp_files/96490.got.cif
#   From: 2010.05.17/outbox.cif.g08.bks.cpg/sg12_49_cif.got.tgz:96490.got - 2010.06.03 13:09:07.
