data_PCOD9201422
_publ_section_title
;
Structure prediction by ZEFSAII (Michael W. Deem and Ramdas Pophale) SiO2 
 PCOD9201422
Probable space group: C 2/M
;
_chemical_formula_sum "Si O2"
_cell_formula_units_Z 64
_cell_length_a 23.841950
_cell_length_b 14.807563
_cell_length_c 9.531339
_cell_angle_alpha 90.000000
_cell_angle_beta 100.152013
_cell_angle_gamma 90.000000
_cell_volume 3312.271974
_symmetry_space_group_name_H-M "C 2/M"
_symmetry_group_IT_number 12
_symmetry_cell_setting 'monoclinic'
loop_
_space_group_symop_operation_xyz
x,y,z
-x,y,-z
-x,-y,-z
x,-y,z
1/2+x,1/2+y,z
1/2-x,1/2+y,-z
1/2-x,1/2-y,-z
1/2+x,1/2-y,z
loop_
_atom_site_type_symbol
_atom_site_label
_atom_site_fract_x
_atom_site_fract_y
_atom_site_fract_z
Si Si1 0.937896 0.898821 0.035785
Si Si2 0.728757 0.601732 0.824042
Si Si3 0.853185 0.608045 0.319115
Si Si4 0.256751 0.278999 0.661443
Si Si5 0.655662 0.894776 0.000497
Si Si6 0.600630 0.396458 0.693017
Si Si7 0.618378 0.258472 0.197096
Si Si8 0.065826 0.261363 0.477256
O O1 0.905563 0.826402 0.929001
O O2 0.912050 0.000000 0.017349
O O3 0.943202 0.875036 0.202266
O O4 0.000000 0.903864 0.000000
O O5 0.739157 0.500000 0.769918
O O6 0.743739 0.686934 0.737727
O O7 0.774587 0.610028 0.969674
O O8 0.660828 0.609431 0.803484
O O9 0.854446 0.500000 0.330895
O O10 0.790324 0.646405 0.324233
O O11 0.898144 0.655631 0.441587
O O12 0.865845 0.633775 0.162238
O O13 0.250000 0.250000 0.500000
O O14 0.322103 0.300533 0.722449
O O15 0.632579 0.833359 0.116684
O O16 0.641037 0.000000 0.016168
O O17 0.594031 0.500000 0.642082
O O18 0.593482 0.327142 0.563938
O O19 0.578170 0.243128 0.315453
O O20 0.000000 0.266221 0.500000
#
# Coordination Sequence:
#
# PCOD9201422 Si02
#       8
#     8   8   8   8   8   8   8   8
#     4  10  22  39  58  86 123 161 203 249 300 360
#     4   9  18  33  58  87 118 152 187 233 299 371
#     4  11  24  42  63  89 126 166 208 259 313 370
#     4  11  21  38  58  91 127 155 200 249 311 371
#     4   9  21  39  62  93 124 158 198 248 312 373
#     4  10  20  37  62  88 122 162 201 247 302 368
#     4  11  23  37  65  93 123 162 205 259 309 368
#     4  12  25  43  63  88 124 167 217 260 307 369
#
# _framework density 19.322084
#
# number of rings (size 3 to 8) (size 9 to 14) (size 15 to 20)
#    0.000    1.625    2.500    1.500    1.750    3.500 
#    0.000    0.000    0.000    1.875    0.000    0.000 
#    0.000    0.000    0.000    0.000    0.000    0.000 
#
# Total GULP energy -178392.167147 kJ/mol
# GULP energy per Si atom -5574.755223 kJ/mol
# Density = 1.927811 g / cm^3
# Si number density = 19.322084 Si / 1000 Ang^3
#
#
#
# Elastic Constant Matrix: (Units=GPa)
#
#
# Indices 1 2 3 4 5 6 
#
# 1 64.4634 22.5391 0.3597 0.0000 -9.3537 0.0000
# 2 22.5391 85.3612 41.4330 0.0000 0.1512 0.0000
# 3 0.3597 41.4330 79.8228 0.0000 -13.6882 0.0000
# 4 0.0000 0.0000 0.0000 13.4951 0.0000 3.2175
# 5 -9.3537 0.1512 -13.6882 0.0000 27.6352 0.0000
# 6 0.0000 0.0000 0.0000 3.2175 0.0000 19.2901
#
#
#
# Elastic Compliance Matrix: (Units=1/GPa)
#
#
# Indices 1 2 3 4 5 6 
#
# 1 0.019641 -0.007955 0.005669 0.000000 0.009500 0.000000
# 2 -0.007955 0.019410 -0.011496 0.000000 -0.008493 0.000000
# 3 0.005669 -0.011496 0.020555 0.000000 0.012163 0.000000
# 4 0.000000 0.000000 0.000000 0.077170 0.000000 -0.012872
# 5 0.009500 -0.008493 0.012163 0.000000 0.045472 0.000000
# 6 0.000000 0.000000 0.000000 -0.012872 0.000000 0.053987
#
#
# Mechanical properties :
#
#
# Convention : Reuss Voigt Hill
#
# Bulk Modulus (GPa) = 31.20695 39.81232 35.50963
# Shear Modulus (GPa) = 18.21642 23.10511 20.66077
#
# Velocity S-wave (km/s) = 3.07380 3.46177 3.27354
# Velocity P-wave (km/s) = 5.36504 6.05209 5.71889
#
# Compressibility (1/GPa) = 0.03204415
#
# Stress axis : x y z
#
# Youngs Moduli (GPa) = 50.91457 51.51955 48.65039
#
# Poissons Ratio (x) = 0.40982 -0.27582
# Poissons Ratio (y) = 0.40501 0.55926
# Poissons Ratio (z) = -0.28866 0.59224
#
# Static dielectric constant tensor:
#      x y z
#    x 1.742090 0.000000 0.021400 
#    y 0.000000 1.666540 0.000000 
#    z 0.021400 0.000000 1.689300 
# 
# From -- ./inp_files/96917.got.cif
#   From: 2010.05.17/outbox.cif.g08.bks.cpg/sg12_49_cif.got.tgz:96917.got - 2010.06.03 13:09:07.
