data_PCOD9201940
_publ_section_title
;
Structure prediction by ZEFSAII (Michael W. Deem and Ramdas Pophale) SiO2 
 PCOD9201940
Probable space group: C 2/M
;
_chemical_formula_sum "Si O2"
_cell_formula_units_Z 64
_cell_length_a 25.323320
_cell_length_b 13.366751
_cell_length_c 9.968651
_cell_angle_alpha 90.000000
_cell_angle_beta 45.846570
_cell_angle_gamma 90.000000
_cell_volume 2420.978275
_symmetry_space_group_name_H-M "C 2/M"
_symmetry_group_IT_number 12
_symmetry_cell_setting 'monoclinic'
loop_
_space_group_symop_operation_xyz
x,y,z
-x,y,-z
-x,-y,-z
x,-y,z
1/2+x,1/2+y,z
1/2-x,1/2+y,-z
1/2-x,1/2-y,-z
1/2+x,1/2-y,z
loop_
_atom_site_type_symbol
_atom_site_label
_atom_site_fract_x
_atom_site_fract_y
_atom_site_fract_z
Si Si1 0.390537 0.381566 0.201769
Si Si2 0.235626 0.378824 0.136306
Si Si3 0.264635 0.120028 0.432431
Si Si4 0.884901 0.619724 0.430227
Si Si5 0.943464 0.120315 0.414930
Si Si6 0.181585 0.379566 0.936880
Si Si7 0.106399 0.120879 0.212407
Si Si8 0.468621 0.200866 0.915994
O O1 0.399971 0.500000 0.148022
O O2 0.304957 0.350734 0.355153
O O3 0.413634 0.369168 0.316892
O O4 0.437426 0.306879 0.028182
O O5 0.238202 0.500000 0.140384
O O6 0.174312 0.351758 0.352459
O O7 0.207900 0.350990 0.037425
O O8 0.320968 0.346484 0.996387
O O9 0.341303 0.140470 0.369423
O O10 0.265591 0.154670 0.277952
O O11 0.257265 0.000000 0.441762
O O12 0.899814 0.500000 0.412481
O O13 0.959597 0.682055 0.303965
O O14 0.893900 0.151457 0.630250
O O15 0.027663 0.153875 0.294376
O O16 0.947365 0.000000 0.422927
O O17 0.184297 0.500000 0.931875
O O18 0.099720 0.349738 0.037428
O O19 0.107645 0.000000 0.205294
O O20 0.500000 0.151391 0.000000
#
# Coordination Sequence:
#
# PCOD9201940 Si02
#       8
#     8   8   8   8   8   8   8   8
#     4  10  22  41  66 101 138 179 238 299 347 406
#     4   9  18  33  60 103 146 177 220 284 351 422
#     4   9  18  37  67 102 138 178 225 284 348 416
#     4  10  21  40  68 105 143 183 232 285 351 424
#     4   8  14  28  56  95 138 179 227 283 342 418
#     4  10  20  37  68 108 143 180 227 282 353 430
#     4   8  13  26  55  96 139 183 222 273 353 430
#     4  12  25  42  64  96 135 193 231 286 351 410
#
# _framework density 26.435592
#
# number of rings (size 3 to 8) (size 9 to 14) (size 15 to 20)
#    0.000    2.500    1.250    1.875    0.000    4.750 
#    2.250    1.875    0.000    3.750    3.250    1.750 
#    0.000    0.000    0.000    2.500    0.000    0.250 
#
# Total GULP energy -179254.493758 kJ/mol
# GULP energy per Si atom -5601.702930 kJ/mol
# Density = 2.637542 g / cm^3
# Si number density = 26.435592 Si / 1000 Ang^3
#
#
#
# Elastic Constant Matrix: (Units=GPa)
#
#
# Indices 1 2 3 4 5 6 
#
# 1 138.1251 24.8966 71.8998 0.0000 -19.1580 0.0000
# 2 24.8966 120.5047 24.9838 0.0000 -13.8694 0.0000
# 3 71.8998 24.9838 208.0269 0.0000 -17.0235 0.0000
# 4 0.0000 0.0000 0.0000 11.1565 0.0000 -0.3425
# 5 -19.1580 -13.8694 -17.0235 0.0000 49.8984 0.0000
# 6 0.0000 0.0000 0.0000 -0.3425 0.0000 44.0600
#
#
#
# Elastic Compliance Matrix: (Units=1/GPa)
#
#
# Indices 1 2 3 4 5 6 
#
# 1 0.009245 -0.001051 -0.002883 0.000000 0.002274 0.000000
# 2 -0.001051 0.008844 -0.000546 0.000000 0.001868 0.000000
# 3 -0.002883 -0.000546 0.005932 0.000000 0.000765 0.000000
# 4 0.000000 0.000000 0.000000 0.089655 0.000000 0.000697
# 5 0.002274 0.001868 0.000765 0.000000 0.021694 0.000000
# 6 0.000000 0.000000 0.000000 0.000697 0.000000 0.022702
#
#
# Mechanical properties :
#
#
# Convention : Reuss Voigt Hill
#
# Bulk Modulus (GPa) = 66.39631 78.91302 72.65466
# Shear Modulus (GPa) = 29.06097 44.01476 36.53786
#
# Velocity S-wave (km/s) = 3.31918 4.08484 3.72176
# Velocity P-wave (km/s) = 6.31349 7.22245 6.78321
#
# Compressibility (1/GPa) = 0.01506108
#
# Stress axis : x y z
#
# Youngs Moduli (GPa) = 108.16176 113.07401 168.58391
#
# Poissons Ratio (x) = 0.11880 0.48606
# Poissons Ratio (y) = 0.11364 0.09206
# Poissons Ratio (z) = 0.31185 0.06175
#
# Static dielectric constant tensor:
#      x y z
#    x 2.009770 0.000000 0.007480 
#    y 0.000000 2.175740 0.000000 
#    z 0.007480 0.000000 2.102750 
# 
# From -- ./inp_files/111937.got.cif
#   From: 2010.05.17/outbox.cif.g08.bks.cpg/sg12_56_cif.got.tgz:111937.got - 2010.06.03 13:09:07.
