data_PCOD9201404
_publ_section_title
;
Structure prediction by ZEFSAII (Michael W. Deem and Ramdas Pophale) SiO2 
 PCOD9201404
Probable space group: C 2/M
;
_chemical_formula_sum "Si O2"
_cell_formula_units_Z 48
_cell_length_a 18.847307
_cell_length_b 11.227046
_cell_length_c 13.631340
_cell_angle_alpha 90.000000
_cell_angle_beta 62.619610
_cell_angle_gamma 90.000000
_cell_volume 2561.256301
_symmetry_space_group_name_H-M "C 2/M"
_symmetry_group_IT_number 12
_symmetry_cell_setting 'monoclinic'
loop_
_space_group_symop_operation_xyz
x,y,z
-x,y,-z
-x,-y,-z
x,-y,z
1/2+x,1/2+y,z
1/2-x,1/2+y,-z
1/2-x,1/2-y,-z
1/2+x,1/2-y,z
loop_
_atom_site_type_symbol
_atom_site_label
_atom_site_fract_x
_atom_site_fract_y
_atom_site_fract_z
Si Si1 0.139861 0.309822 0.655093
Si Si2 0.819840 0.869599 0.533971
Si Si3 0.891600 0.860296 0.694393
Si Si4 0.508389 0.870444 0.376646
Si Si5 0.916238 0.641098 0.101552
Si Si6 0.760634 0.636915 0.064749
O O1 0.163596 0.195216 0.577436
O O2 0.225318 0.372214 0.614715
O O3 0.102015 0.292512 0.785554
O O4 0.076430 0.372699 0.624563
O O5 0.862470 0.822126 0.604077
O O6 0.852881 0.000000 0.502155
O O7 0.950439 0.752391 0.685652
O O8 0.814253 0.860564 0.813190
O O9 0.920801 0.000000 0.674035
O O10 0.500000 0.864270 0.500000
O O11 0.548425 0.000000 0.329267
O O12 0.921985 0.500000 0.123454
O O13 0.842660 0.653303 0.073458
O O14 0.000000 0.676795 0.000000
O O15 0.762681 0.500000 0.021319
O O16 0.750000 0.750000 0.000000
#
# Coordination Sequence:
#
# PCOD9201404 Si02
#       6
#     8   8   8   8   8   8
#     4  11  21  37  60  87 120 154 195 250 295 351
#     4  10  20  37  62  88 115 156 200 242 298 358
#     4  10  21  40  61  84 118 160 201 241 292 365
#     4  11  23  36  54  90 126 152 189 246 303 348
#     4  10  21  38  62  87 113 154 202 247 292 349
#     4  10  22  41  64  88 117 154 202 250 297 354
#
# _framework density 18.740801999999999
#
# number of rings (size 3 to 8) (size 9 to 14) (size 15 to 20)
#    0.000    1.667    3.333    1.500    2.333    1.667 
#    0.000    0.833    0.000    1.000    0.000    0.000 
#    0.000    0.000    0.000    0.000    0.000    0.000 
#
# Total GULP energy -133678.027971 kJ/mol
# GULP energy per Si atom -5569.917832 kJ/mol
# Density = 1.869815 g / cm^3
# Si number density = 18.740802 Si / 1000 Ang^3
#
#
#
# Elastic Constant Matrix: (Units=GPa)
#
#
# Indices 1 2 3 4 5 6 
#
# 1 80.2791 38.8242 17.7081 0.0000 -2.8879 0.0000
# 2 38.8242 90.7195 39.4752 0.0000 -6.4902 0.0000
# 3 17.7081 39.4752 99.4639 0.0000 -5.7519 0.0000
# 4 0.0000 0.0000 0.0000 -15.1665 0.0000 -2.8643
# 5 -2.8879 -6.4902 -5.7519 0.0000 28.2796 0.0000
# 6 0.0000 0.0000 0.0000 -2.8643 0.0000 15.3095
#
#
#
# Elastic Compliance Matrix: (Units=1/GPa)
#
#
# Indices 1 2 3 4 5 6 
#
# 1 0.015710 -0.006653 -0.000154 0.000000 0.000046 0.000000
# 2 -0.006653 0.016255 -0.005151 0.000000 0.002003 0.000000
# 3 -0.000154 -0.005151 0.012200 0.000000 0.001284 0.000000
# 4 0.000000 0.000000 0.000000 -0.063685 0.000000 -0.011915
# 5 0.000046 0.002003 0.001284 0.000000 0.036087 0.000000
# 6 0.000000 0.000000 0.000000 -0.011915 0.000000 0.063090
#
#
# Mechanical properties :
#
#
# Convention : Reuss Voigt Hill
#
# Bulk Modulus (GPa) = 49.38500 51.38640 50.38570
# Shear Modulus (GPa) = 45.32242 17.31486 31.31864
#
# Velocity S-wave (km/s) = 4.92304 3.04289 4.09240
# Velocity P-wave (km/s) = 7.66315 6.31068 7.01956
#
# Compressibility (1/GPa) = 0.02024906
#
# Stress axis : x y z
#
# Youngs Moduli (GPa) = 63.65562 61.52039 81.96860
#
# Poissons Ratio (x) = 0.40928 0.01261
# Poissons Ratio (y) = 0.42349 0.42221
# Poissons Ratio (z) = 0.00979 0.31689
#
# Static dielectric constant tensor:
#      x y z
#    x 1.660900 0.000000 -0.011820 
#    y 0.000000 1.705050 0.000000 
#    z -0.011820 0.000000 1.630700 
# 
# From -- ./inp_files/154190.got.cif
#   From: 2010.05.17/outbox.cif.g08.bks.cpg/sg12_78_cif.got.tgz:154190.got - 2010.06.03 13:09:07.
