data_PCOD9201171
_publ_section_title
;
Structure prediction by ZEFSAII (Michael W. Deem and Ramdas Pophale) SiO2 
 PCOD9201171
Probable space group: C 2/M
;
_chemical_formula_sum "Si O2"
_cell_formula_units_Z 40
_cell_length_a 19.413425
_cell_length_b 7.922876
_cell_length_c 25.312328
_cell_angle_alpha 90.000000
_cell_angle_beta 27.779965
_cell_angle_gamma 90.000000
_cell_volume 1814.575559
_symmetry_space_group_name_H-M "C 2/M"
_symmetry_group_IT_number 12
_symmetry_cell_setting 'monoclinic'
loop_
_space_group_symop_operation_xyz
x,y,z
-x,y,-z
-x,-y,-z
x,-y,z
1/2+x,1/2+y,z
1/2-x,1/2+y,-z
1/2-x,1/2-y,-z
1/2+x,1/2-y,z
loop_
_atom_site_type_symbol
_atom_site_label
_atom_site_fract_x
_atom_site_fract_y
_atom_site_fract_z
Si Si1 0.902846 0.802498 0.729584
Si Si2 0.920146 0.806310 0.888853
Si Si3 0.042036 0.792548 0.530284
Si Si4 0.365270 0.194337 0.345730
Si Si5 0.601013 0.202222 0.982348
O O1 0.764794 0.732106 0.856234
O O2 0.931037 0.734827 0.651766
O O3 0.051146 0.784833 0.663156
O O4 0.867933 0.000000 0.746835
O O5 0.026738 0.704580 0.778033
O O6 0.930613 0.000000 0.864751
O O7 0.750000 0.750000 0.000000
O O8 0.959368 0.784862 0.923590
O O9 0.206070 0.738343 0.436322
O O10 0.000000 0.737624 0.500000
O O11 0.041951 0.000000 0.530034
O O12 0.346860 0.000000 0.374236
O O13 0.606940 0.000000 0.988765
O O14 0.500000 0.229879 0.000000
#
# Coordination Sequence:
#
# PCOD9201171 Si02
#       5
#     8   8   8   8   8
#     4  10  20  37  61  87 120 157 198 247 292 350
#     4  12  24  40  62  89 122 157 200 249 301 359
#     4   9  20  37  60  89 117 154 202 248 294 350
#     4  11  22  37  62  89 119 158 200 248 298 356
#     4  10  22  38  61  92 124 160 197 241 299 361
#
# _framework density 22.043723
#
# number of rings (size 3 to 8) (size 9 to 14) (size 15 to 20)
#    0.000    1.600    2.000    3.000    2.800    0.400 
#    0.000    1.000    0.000    3.000    0.000    0.000 
#    0.000    0.000    0.000    0.000    0.000    0.000 
#
# Total GULP energy -111816.437743 kJ/mol
# GULP energy per Si atom -5590.821887 kJ/mol
# Density = 2.199355 g / cm^3
# Si number density = 22.043723 Si / 1000 Ang^3
#
#
#
# Elastic Constant Matrix: (Units=GPa)
#
#
# Indices 1 2 3 4 5 6 
#
# 1 87.9253 -7.9797 16.8742 0.0007 23.7407 0.0002
# 2 -7.9797 31.2090 -7.7931 0.0000 -3.9541 0.0004
# 3 16.8742 -7.7931 64.1006 -0.0002 17.2212 0.0000
# 4 0.0007 0.0000 -0.0002 6.7923 0.0000 -7.3928
# 5 23.7407 -3.9541 17.2212 0.0000 41.7105 -0.0001
# 6 0.0002 0.0004 0.0000 -7.3928 -0.0001 21.6147
#
#
#
# Elastic Compliance Matrix: (Units=1/GPa)
#
#
# Indices 1 2 3 4 5 6 
#
# 1 0.013752 0.002263 -0.001462 -0.000003 -0.007009 -0.000001
# 2 0.002263 0.033520 0.003343 -0.000001 0.000509 -0.000001
# 3 -0.001462 0.003343 0.018090 0.000001 -0.006320 0.000000
# 4 -0.000003 -0.000001 0.000001 0.234536 0.000001 0.080218
# 5 -0.007009 0.000509 -0.006320 0.000001 0.030622 0.000001
# 6 -0.000001 -0.000001 0.000000 0.080218 0.000001 0.073701
#
#
# Mechanical properties :
#
#
# Convention : Reuss Voigt Hill
#
# Bulk Modulus (GPa) = 13.57799 20.60420 17.09109
# Shear Modulus (GPa) = 11.89109 26.16571 19.02840
#
# Velocity S-wave (km/s) = 2.32509 3.44901 2.94123
# Velocity P-wave (km/s) = 3.65800 5.02277 4.39370
#
# Compressibility (1/GPa) = 0.07364862
#
# Stress axis : x y z
#
# Youngs Moduli (GPa) = 72.71800 29.83306 55.28045
#
# Poissons Ratio (x) = -0.06751 0.08082
# Poissons Ratio (y) = -0.16456 -0.18478
# Poissons Ratio (z) = 0.10631 -0.09972
#
# Static dielectric constant tensor:
#      x y z
#    x 1.791900 0.000000 0.006390 
#    y 0.000000 1.821230 0.000000 
#    z 0.006390 0.000000 1.809560 
# 
# From -- ./inp_files/151705.got.cif
#   From: 2010.05.17/outbox.cif.g08.bks.cpg/sg12_76_cif.got.tgz:151705.got - 2010.06.03 13:09:07.
