data_PCOD9201434
_publ_section_title
;
Structure prediction by ZEFSAII (Michael W. Deem and Ramdas Pophale) SiO2 
 PCOD9201434
Probable space group: C 2/M
;
_chemical_formula_sum "Si O2"
_cell_formula_units_Z 64
_cell_length_a 32.148490
_cell_length_b 9.005917
_cell_length_c 18.317076
_cell_angle_alpha 90.000000
_cell_angle_beta 138.668236
_cell_angle_gamma 90.000000
_cell_volume 3502.382755
_symmetry_space_group_name_H-M "C 2/M"
_symmetry_group_IT_number 12
_symmetry_cell_setting 'monoclinic'
loop_
_space_group_symop_operation_xyz
x,y,z
-x,y,-z
-x,-y,-z
x,-y,z
1/2+x,1/2+y,z
1/2-x,1/2+y,-z
1/2-x,1/2-y,-z
1/2+x,1/2-y,z
loop_
_atom_site_type_symbol
_atom_site_label
_atom_site_fract_x
_atom_site_fract_y
_atom_site_fract_z
Si Si1 0.028432 0.821979 0.311234
Si Si2 0.343582 0.176480 0.575028
Si Si3 0.815921 0.175661 0.109330
Si Si4 0.281058 0.176233 0.645508
Si Si5 0.539544 0.177758 0.479937
Si Si6 0.601228 0.324470 0.926247
Si Si7 0.197544 0.676477 0.161277
Si Si8 0.827071 0.322489 0.276970
O O1 0.093761 0.757297 0.368173
O O2 0.017879 0.760176 0.378779
O O3 0.970463 0.777844 0.182594
O O4 0.030363 0.000000 0.316488
O O5 0.326347 0.209285 0.636854
O O6 0.283269 0.233683 0.450483
O O7 0.350497 0.000000 0.574941
O O8 0.862857 0.194400 0.103513
O O9 0.839598 0.253971 0.213833
O O10 0.807115 0.000000 0.110673
O O11 0.750000 0.250000 0.000000
O O12 0.309946 0.207185 0.762543
O O13 0.266231 0.000000 0.622279
O O14 0.500000 0.218763 0.500000
O O15 0.613143 0.209888 0.592886
O O16 0.532863 0.000000 0.461051
O O17 0.602933 0.500000 0.946119
O O18 0.639844 0.236832 0.037866
O O19 0.203824 0.500000 0.159208
O O20 0.262086 0.753716 0.220045
O O21 0.820696 0.500000 0.262530
#
# Coordination Sequence:
#
# PCOD9201434 Si02
#       8
#     8   8   8   8   8   8   8   8
#     4  11  23  39  59  83 114 153 193 233 280 339
#     4  10  20  37  62  89 116 149 185 228 283 340
#     4  11  21  35  55  79 108 146 191 236 282 329
#     4   9  20  38  60  89 119 144 182 233 284 341
#     4  10  22  39  58  83 114 150 191 236 283 334
#     4  10  23  40  56  78 112 150 190 235 281 334
#     4  11  22  36  57  83 110 144 185 232 283 334
#     4  11  22  35  54  81 114 147 184 232 283 337
#
# _framework density 18.273275000000002
#
# number of rings (size 3 to 8) (size 9 to 14) (size 15 to 20)
#    0.000    1.625    1.250    3.375    0.000    6.250 
#    0.000    0.625    0.000    3.750    0.000    0.000 
#    0.000    0.000    0.000    0.000    0.000    0.000 
#
# Total GULP energy -178843.515142 kJ/mol
# GULP energy per Si atom -5588.859848 kJ/mol
# Density = 1.823168 g / cm^3
# Si number density = 18.273275 Si / 1000 Ang^3
#
#
#
# Elastic Constant Matrix: (Units=GPa)
#
#
# Indices 1 2 3 4 5 6 
#
# 1 80.0387 43.0958 60.9741 0.0000 1.0890 0.0000
# 2 43.0958 60.1869 62.4612 0.0000 -4.7599 0.0000
# 3 60.9741 62.4612 129.5173 0.0000 -8.5419 0.0000
# 4 0.0000 0.0000 0.0000 26.1581 0.0000 -7.0093
# 5 1.0890 -4.7599 -8.5419 0.0000 31.4952 0.0000
# 6 0.0000 0.0000 0.0000 -7.0093 0.0000 18.9959
#
#
#
# Elastic Compliance Matrix: (Units=1/GPa)
#
#
# Indices 1 2 3 4 5 6 
#
# 1 0.022647 -0.010397 -0.005909 0.000000 -0.003957 0.000000
# 2 -0.010397 0.038050 -0.013290 0.000000 0.002506 0.000000
# 3 -0.005909 -0.013290 0.017099 0.000000 0.002833 0.000000
# 4 0.000000 0.000000 0.000000 0.042424 0.000000 0.015654
# 5 -0.003957 0.002506 0.002833 0.000000 0.033035 0.000000
# 6 0.000000 0.000000 0.000000 0.015654 0.000000 0.058419
#
#
# Mechanical properties :
#
#
# Convention : Reuss Voigt Hill
#
# Bulk Modulus (GPa) = 53.75098 66.97834 60.36466
# Shear Modulus (GPa) = 18.04617 22.21063 20.12840
#
# Velocity S-wave (km/s) = 3.14597 3.49014 3.32252
# Velocity P-wave (km/s) = 6.53262 7.27838 6.91556
#
# Compressibility (1/GPa) = 0.01860431
#
# Stress axis : x y z
#
# Youngs Moduli (GPa) = 44.15541 26.28118 58.48368
#
# Poissons Ratio (x) = 0.27325 0.34556
# Poissons Ratio (y) = 0.45909 0.77725
# Poissons Ratio (z) = 0.26090 0.34928
#
# Static dielectric constant tensor:
#      x y z
#    x 1.620110 0.000000 -0.006940 
#    y 0.000000 1.608070 0.000000 
#    z -0.006940 0.000000 1.611430 
# 
# From -- ./inp_files/295681.got.cif
#   From: 2010.05.17/outbox.cif.g08.bks.cpg/sg12_148_cif.got.tgz:295681.got - 2010.06.03 13:09:07.
