data_PCOD9201147
_publ_section_title
;
Structure prediction by ZEFSAII (Michael W. Deem and Ramdas Pophale) SiO2 
 PCOD9201147
Probable space group: C 2/M
;
_chemical_formula_sum "Si O2"
_cell_formula_units_Z 48
_cell_length_a 18.789206
_cell_length_b 9.550201
_cell_length_c 24.204342
_cell_angle_alpha 90.000000
_cell_angle_beta 30.562973
_cell_angle_gamma 90.000000
_cell_volume 2208.474652
_symmetry_space_group_name_H-M "C 2/M"
_symmetry_group_IT_number 12
_symmetry_cell_setting 'monoclinic'
loop_
_space_group_symop_operation_xyz
x,y,z
-x,y,-z
-x,-y,-z
x,-y,z
1/2+x,1/2+y,z
1/2-x,1/2+y,-z
1/2-x,1/2-y,-z
1/2+x,1/2-y,z
loop_
_atom_site_type_symbol
_atom_site_label
_atom_site_fract_x
_atom_site_fract_y
_atom_site_fract_z
Si Si1 0.095245 0.160176 0.264771
Si Si2 0.684756 0.338851 0.820462
Si Si3 0.086920 0.338561 0.166858
Si Si4 0.307978 0.338002 0.512870
Si Si5 0.833989 0.338972 0.601258
Si Si6 0.921576 0.839483 0.933711
O O1 0.233767 0.233360 0.195095
O O2 0.038681 0.248700 0.250991
O O3 0.976111 0.162971 0.391106
O O4 0.120147 0.000000 0.231385
O O5 0.704495 0.500000 0.826520
O O6 0.755032 0.327124 0.712466
O O7 0.521194 0.312396 0.919087
O O8 0.045778 0.500000 0.197161
O O9 0.045019 0.266587 0.137733
O O10 0.256969 0.331218 0.055252
O O11 0.262219 0.500000 0.541273
O O12 0.250000 0.250000 0.500000
O O13 0.279832 0.265116 0.590258
O O14 0.816763 0.500000 0.593160
O O15 0.000000 0.316531 0.500000
O O16 0.951723 0.000000 0.895855
#
# Coordination Sequence:
#
# PCOD9201147 Si02
#       6
#     8   8   8   8   8   8
#     4  11  24  40  58  84 118 153 191 239 289 338
#     4  10  21  38  61  86 116 153 191 234 286 345
#     4  10  21  38  61  86 116 153 193 238 286 342
#     4  11  25  41  59  84 117 154 193 238 286 340
#     4  10  20  37  61  87 116 151 189 231 283 344
#     4   9  20  39  61  87 117 151 191 236 290 345
#
# _framework density 21.734459999999999
#
# number of rings (size 3 to 8) (size 9 to 14) (size 15 to 20)
#    0.000    1.833    1.667    1.500    2.333    5.000 
#    0.000    3.333    0.000    0.000    0.000    0.000 
#    0.000    0.000    0.000    0.000    0.000    0.000 
#
# Total GULP energy -134259.511321 kJ/mol
# GULP energy per Si atom -5594.146305 kJ/mol
# Density = 2.168499 g / cm^3
# Si number density = 21.734460 Si / 1000 Ang^3
#
#
#
# Elastic Constant Matrix: (Units=GPa)
#
#
# Indices 1 2 3 4 5 6 
#
# 1 78.9832 71.8239 3.9545 -0.0004 0.9525 0.0001
# 2 71.8239 154.0832 14.9065 -0.0008 13.5840 0.0002
# 3 3.9545 14.9065 48.7976 -0.0012 -6.4790 0.0002
# 4 -0.0004 -0.0008 -0.0012 22.2196 0.0001 2.3915
# 5 0.9525 13.5840 -6.4790 0.0001 38.0195 0.0000
# 6 0.0001 0.0002 0.0002 2.3915 0.0000 43.5415
#
#
#
# Elastic Compliance Matrix: (Units=1/GPa)
#
#
# Indices 1 2 3 4 5 6 
#
# 1 0.022551 -0.011038 0.002039 0.000000 0.003726 0.000000
# 2 -0.011038 0.012395 -0.003523 0.000000 -0.004752 0.000000
# 3 0.002039 -0.003523 0.022063 0.000001 0.004967 0.000000
# 4 0.000000 0.000000 0.000001 0.045273 0.000000 -0.002487
# 5 0.003726 -0.004752 0.004967 0.000000 0.028753 0.000000
# 6 0.000000 0.000000 0.000000 -0.002487 0.000000 0.023103
#
#
# Mechanical properties :
#
#
# Convention : Reuss Voigt Hill
#
# Bulk Modulus (GPa) = 31.28315 51.47042 41.37678
# Shear Modulus (GPa) = 26.33838 33.50138 29.91988
#
# Velocity S-wave (km/s) = 3.48491 3.93032 3.71429
# Velocity P-wave (km/s) = 5.53329 6.65804 6.12155
#
# Compressibility (1/GPa) = 0.03196609
#
# Stress axis : x y z
#
# Youngs Moduli (GPa) = 44.34387 80.67883 45.32426
#
# Poissons Ratio (x) = 0.89050 -0.09241
# Poissons Ratio (y) = 0.48945 0.15967
# Poissons Ratio (z) = -0.09041 0.28422
#
# Static dielectric constant tensor:
#      x y z
#    x 1.749450 0.000000 -0.022240 
#    y 0.000000 1.740070 0.000000 
#    z -0.022240 0.000000 1.854990 
# 
# From -- ./inp_files/365346.got.cif
#   From: 2010.05.17/outbox.cif.g08.bks.cpg/sg12_183_cif.got.tgz:365346.got - 2010.06.03 13:09:07.
