data_PCOD9201457
_publ_section_title
;
Structure prediction by ZEFSAII (Michael W. Deem and Ramdas Pophale) SiO2 
 PCOD9201457
Probable space group: C 2/M
;
_chemical_formula_sum "Si O2"
_cell_formula_units_Z 56
_cell_length_a 21.262842
_cell_length_b 13.962062
_cell_length_c 8.736890
_cell_angle_alpha 90.000000
_cell_angle_beta 113.784136
_cell_angle_gamma 90.000000
_cell_volume 2373.464323
_symmetry_space_group_name_H-M "C 2/M"
_symmetry_group_IT_number 12
_symmetry_cell_setting 'monoclinic'
loop_
_space_group_symop_operation_xyz
x,y,z
-x,y,-z
-x,-y,-z
x,-y,z
1/2+x,1/2+y,z
1/2-x,1/2+y,-z
1/2-x,1/2-y,-z
1/2+x,1/2-y,z
loop_
_atom_site_type_symbol
_atom_site_label
_atom_site_fract_x
_atom_site_fract_y
_atom_site_fract_z
Si Si1 0.923993 0.682619 0.233616
Si Si2 0.697607 0.776834 0.084096
Si Si3 0.691984 0.388468 0.290045
Si Si4 0.056089 0.894914 0.690455
Si Si5 0.856756 0.614221 0.477318
Si Si6 0.307346 0.391049 0.374912
Si Si7 0.957221 0.391140 0.818288
O O1 0.949595 0.792033 0.235186
O O2 0.892276 0.668581 0.370797
O O3 0.987418 0.613840 0.264412
O O4 0.863345 0.663589 0.052465
O O5 0.668640 0.681014 0.133197
O O6 0.743894 0.831257 0.252002
O O7 0.750000 0.750000 0.000000
O O8 0.677100 0.500000 0.243881
O O9 0.774873 0.376018 0.384414
O O10 0.665106 0.361165 0.431879
O O11 0.131507 0.891354 0.686988
O O12 0.000000 0.894524 0.500000
O O13 0.049339 0.000000 0.762233
O O14 0.871200 0.500000 0.477609
O O15 0.888625 0.647224 0.670819
O O16 0.283108 0.500000 0.373125
O O17 0.941723 0.500000 0.850918
O O18 0.000000 0.344786 0.000000
#
# Coordination Sequence:
#
# PCOD9201457 Si02
#       7
#     8   8   8   8   8   8   8
#     4  12  23  38  59  89 120 161 197 240 299 355
#     4  12  23  38  58  91 125 155 198 247 300 358
#     4  10  22  40  63  88 119 160 200 247 304 357
#     4  10  21  39  62  84 109 150 205 251 290 342
#     4  10  20  37  62  89 120 157 197 239 293 363
#     4  10  22  40  62  86 116 156 199 249 303 355
#     4  10  23  41  61  90 125 158 196 243 294 356
#
# _framework density 23.594204000000001
#
# number of rings (size 3 to 8) (size 9 to 14) (size 15 to 20)
#    0.000    1.429    2.857    2.143    2.000    3.429 
#    2.571    0.000    0.000    0.429    0.000    0.000 
#    0.000    0.000    0.000    0.000    0.000    0.000 
#
# Total GULP energy -156551.582911 kJ/mol
# GULP energy per Si atom -5591.127961 kJ/mol
# Density = 2.354050 g / cm^3
# Si number density = 23.594204 Si / 1000 Ang^3
#
#
#
# Elastic Constant Matrix: (Units=GPa)
#
#
# Indices 1 2 3 4 5 6 
#
# 1 32.6855 -3.9134 -12.4679 0.0000 7.0703 0.0000
# 2 -3.9134 109.1005 27.0160 0.0000 1.6023 0.0000
# 3 -12.4679 27.0160 90.0126 0.0000 5.0187 0.0000
# 4 0.0000 0.0000 0.0000 28.3493 0.0000 -6.2772
# 5 7.0703 1.6023 5.0187 0.0000 35.1651 0.0000
# 6 0.0000 0.0000 0.0000 -6.2772 0.0000 17.3664
#
#
#
# Elastic Compliance Matrix: (Units=1/GPa)
#
#
# Indices 1 2 3 4 5 6 
#
# 1 0.034212 0.000065 0.005144 0.000000 -0.007616 0.000000
# 2 0.000065 0.009902 -0.002961 0.000000 -0.000042 0.000000
# 3 0.005144 -0.002961 0.012863 0.000000 -0.002735 0.000000
# 4 0.000000 0.000000 0.000000 0.038343 0.000000 0.013859
# 5 -0.007616 -0.000042 -0.002735 0.000000 0.030361 0.000000
# 6 0.000000 0.000000 0.000000 0.013859 0.000000 0.062592
#
#
# Mechanical properties :
#
#
# Convention : Reuss Voigt Hill
#
# Bulk Modulus (GPa) = 16.26703 28.11866 22.19284
# Shear Modulus (GPa) = 24.47774 30.92040 27.69907
#
# Velocity S-wave (km/s) = 3.22444 3.62402 3.43005
# Velocity P-wave (km/s) = 4.55764 5.42723 5.01134
#
# Compressibility (1/GPa) = 0.06147405
#
# Stress axis : x y z
#
# Youngs Moduli (GPa) = 29.22959 100.99044 77.74166
#
# Poissons Ratio (x) = -0.00659 -0.39989
# Poissons Ratio (y) = -0.00191 0.23016
# Poissons Ratio (z) = -0.15035 0.29899
#
# Static dielectric constant tensor:
#      x y z
#    x 1.893310 0.000000 -0.024490 
#    y 0.000000 1.930620 0.000000 
#    z -0.024490 0.000000 1.881490 
# 
# From -- ./inp_files/96962.got.cif
#   From: 2010.05.17/outbox.cif.g08.bks.cpg/sg12_49_cif.got.tgz:96962.got - 2010.06.03 13:09:07.
