data_PCOD9201532
_publ_section_title
;
Structure prediction by ZEFSAII (Michael W. Deem and Ramdas Pophale) SiO2 
 PCOD9201532
Probable space group: C 2/M
;
_chemical_formula_sum "Si O2"
_cell_formula_units_Z 44
_cell_length_a 15.591398
_cell_length_b 7.457228
_cell_length_c 26.120783
_cell_angle_alpha 90.000000
_cell_angle_beta 34.235081
_cell_angle_gamma 90.000000
_cell_volume 1708.600107
_symmetry_space_group_name_H-M "C 2/M"
_symmetry_group_IT_number 12
_symmetry_cell_setting 'monoclinic'
loop_
_space_group_symop_operation_xyz
x,y,z
-x,y,-z
-x,-y,-z
x,-y,z
1/2+x,1/2+y,z
1/2-x,1/2+y,-z
1/2-x,1/2-y,-z
1/2+x,1/2-y,z
loop_
_atom_site_type_symbol
_atom_site_label
_atom_site_fract_x
_atom_site_fract_y
_atom_site_fract_z
Si Si1 0.308799 0.705726 0.732583
Si Si2 0.835125 0.708451 0.058407
Si Si3 0.636985 0.714979 0.603453
Si Si4 0.830146 0.715931 0.603780
Si Si5 0.522616 0.702300 0.117434
Si Si6 0.898206 0.500000 0.838424
O O1 0.297934 0.500000 0.755235
O O2 0.468498 0.783866 0.673891
O O3 0.319713 0.708761 0.665446
O O4 0.146948 0.794170 0.822822
O O5 0.803919 0.500000 0.083120
O O6 0.862003 0.743356 0.984556
O O7 0.703100 0.841610 0.140067
O O8 0.000000 0.751953 0.000000
O O9 0.627571 0.500000 0.612426
O O10 0.750000 0.750000 0.500000
O O11 0.709739 0.783155 0.620694
O O12 0.812350 0.500000 0.616566
O O13 0.000000 0.752726 0.500000
O O14 0.554955 0.500000 0.118714
O O15 0.527353 0.843101 0.160916
#
# Coordination Sequence:
#
# PCOD9201532 Si02
#       6
#     8   8   8   8   8   4
#     4  11  23  42  60  89 134 169 217 279 334 397
#     4  11  24  43  70 103 138 175 223 275 329 398
#     4  10  21  37  62  88 121 165 212 266 327 394
#     4  10  20  37  62  91 122 164 217 267 323 396
#     4  12  25  42  69  96 133 178 220 279 342 391
#     4  12  23  44  71 100 129 174 228 266 327 412
#
# _framework density 25.752077
#
# number of rings (size 3 to 8) (size 9 to 14) (size 15 to 20)
#    0.000    1.091    4.545    1.909    0.000    1.818 
#    3.273    0.000    0.000    0.000    0.000    0.000 
#    0.000    0.000    0.000    0.000    0.000    0.000 
#
# Total GULP energy -122840.558945 kJ/mol
# GULP energy per Si atom -5583.661770 kJ/mol
# Density = 2.569346 g / cm^3
# Si number density = 25.752077 Si / 1000 Ang^3
#
#
#
# Elastic Constant Matrix: (Units=GPa)
#
#
# Indices 1 2 3 4 5 6 
#
# 1 208.3420 26.7507 42.4007 0.0000 -28.4381 0.0007
# 2 26.7507 144.4254 18.1791 0.0001 -10.1934 0.0013
# 3 42.4007 18.1791 106.3689 0.0000 5.9336 0.0000
# 4 0.0000 0.0001 0.0000 13.4632 0.0000 -12.4802
# 5 -28.4381 -10.1934 5.9336 0.0000 38.8842 0.0000
# 6 0.0007 0.0013 0.0000 -12.4802 0.0000 20.9947
#
#
#
# Elastic Compliance Matrix: (Units=1/GPa)
#
#
# Indices 1 2 3 4 5 6 
#
# 1 0.006023 -0.000460 -0.002583 0.000000 0.004679 0.000000
# 2 -0.000460 0.007278 -0.001158 -0.000001 0.001748 -0.000001
# 3 -0.002583 -0.001158 0.010844 0.000000 -0.003848 0.000000
# 4 0.000000 -0.000001 0.000000 0.165443 -0.000001 0.098347
# 5 0.004679 0.001748 -0.003848 -0.000001 0.030185 -0.000001
# 6 0.000000 -0.000001 0.000000 0.098347 -0.000001 0.106093
#
#
# Mechanical properties :
#
#
# Convention : Reuss Voigt Hill
#
# Bulk Modulus (GPa) = 63.52395 70.42192 66.97294
# Shear Modulus (GPa) = 14.72681 39.45547 27.09114
#
# Velocity S-wave (km/s) = 2.39397 3.91849 3.24697
# Velocity P-wave (km/s) = 5.68881 6.91941 6.33406
#
# Compressibility (1/GPa) = 0.01574209
#
# Stress axis : x y z
#
# Youngs Moduli (GPa) = 166.02274 137.39332 92.22083
#
# Poissons Ratio (x) = 0.06324 0.23824
# Poissons Ratio (y) = 0.07641 0.10679
# Poissons Ratio (z) = 0.42889 0.15910
#
# Static dielectric constant tensor:
#      x y z
#    x 2.061930 0.000000 -0.005970 
#    y 0.000000 1.973820 0.000000 
#    z -0.005970 0.000000 2.041420 
# 
# From -- ./inp_files/359563.got.cif
#   From: 2010.05.17/outbox.cif.g08.bks.cpg/sg12_180_cif.got.tgz:359563.got - 2010.06.03 13:09:07.
