data_PCOD9201072
_publ_section_title
;
Structure prediction by ZEFSAII (Michael W. Deem and Ramdas Pophale) SiO2 
 PCOD9201072
Probable space group: C 2/M
;
_chemical_formula_sum "Si O2"
_cell_formula_units_Z 48
_cell_length_a 16.403664
_cell_length_b 8.571043
_cell_length_c 17.304591
_cell_angle_alpha 90.000000
_cell_angle_beta 88.847055
_cell_angle_gamma 90.000000
_cell_volume 2432.472528
_symmetry_space_group_name_H-M "C 2/M"
_symmetry_group_IT_number 12
_symmetry_cell_setting 'monoclinic'
loop_
_space_group_symop_operation_xyz
x,y,z
-x,y,-z
-x,-y,-z
x,-y,z
1/2+x,1/2+y,z
1/2-x,1/2+y,-z
1/2-x,1/2-y,-z
1/2+x,1/2-y,z
loop_
_atom_site_type_symbol
_atom_site_label
_atom_site_fract_x
_atom_site_fract_y
_atom_site_fract_z
Si Si1 0.996058 0.811710 0.411009
Si Si2 0.157850 0.809316 0.316493
Si Si3 0.916309 0.312771 0.164695
Si Si4 0.840846 0.685818 0.003465
Si Si5 0.162623 0.686515 0.672618
Si Si6 0.592417 0.315320 0.155848
O O1 0.077500 0.757198 0.364361
O O2 0.000000 0.761039 0.500000
O O3 0.912253 0.757664 0.373221
O O4 0.997148 0.000000 0.409048
O O5 0.245557 0.757830 0.347200
O O6 0.147654 0.762866 0.226928
O O7 0.157819 0.000000 0.317608
O O8 0.931627 0.500000 0.161375
O O9 0.882562 0.260678 0.082329
O O10 0.854757 0.284603 0.236206
O O11 0.000110 0.225044 0.179899
O O12 0.838001 0.500000 0.006990
O O13 0.750000 0.750000 0.000000
O O14 0.887933 0.736264 0.925759
O O15 0.160191 0.500000 0.661074
O O16 0.603233 0.500000 0.146325
#
# Coordination Sequence:
#
# PCOD9201072 Si02
#       6
#     8   8   8   8   8   8
#     4  10  21  39  61  86 118 152 189 239 297 352
#     4   9  19  37  59  84 117 157 192 234 294 353
#     4  10  21  37  56  80 113 152 193 242 295 345
#     4  11  23  38  55  80 116 154 198 246 293 343
#     4  10  20  37  61  84 113 153 196 235 286 352
#     4  11  21  36  59  83 113 154 199 239 291 352
#
# _framework density 19.733007000000001
#
# number of rings (size 3 to 8) (size 9 to 14) (size 15 to 20)
#    0.000    1.833    1.667    2.500    0.000    7.000 
#    0.000    4.167    0.000    0.000    0.000    0.000 
#    0.000    0.000    0.000    0.000    0.000    0.000 
#
# Total GULP energy -134025.832330 kJ/mol
# GULP energy per Si atom -5584.409680 kJ/mol
# Density = 1.968809 g / cm^3
# Si number density = 19.733007 Si / 1000 Ang^3
#
#
#
# Elastic Constant Matrix: (Units=GPa)
#
#
# Indices 1 2 3 4 5 6 
#
# 1 143.5154 14.5587 53.3630 0.0000 19.0034 0.0000
# 2 14.5587 9.0614 17.9606 0.0000 1.5605 0.0000
# 3 53.3630 17.9606 119.5889 0.0000 14.8360 0.0000
# 4 0.0000 0.0000 0.0000 20.3231 0.0000 1.9416
# 5 19.0034 1.5605 14.8360 0.0000 14.7325 0.0000
# 6 0.0000 0.0000 0.0000 1.9416 0.0000 31.4740
#
#
#
# Elastic Compliance Matrix: (Units=1/GPa)
#
#
# Indices 1 2 3 4 5 6 
#
# 1 0.010035 -0.011392 -0.001498 0.000000 -0.010229 0.000000
# 2 -0.011392 0.170925 -0.023043 0.000000 0.019794 0.000000
# 3 -0.001498 -0.023043 0.013654 0.000000 -0.009377 0.000000
# 4 0.000000 0.000000 0.000000 0.049497 0.000000 -0.003053
# 5 -0.010229 0.019794 -0.009377 0.000000 0.088418 0.000000
# 6 0.000000 0.000000 0.000000 -0.003053 0.000000 0.031961
#
#
# Mechanical properties :
#
#
# Convention : Reuss Voigt Hill
#
# Bulk Modulus (GPa) = 8.14673 49.32560 28.73616
# Shear Modulus (GPa) = 10.47621 25.72483 18.10052
#
# Velocity S-wave (km/s) = 2.30662 3.61452 3.03193
# Velocity P-wave (km/s) = 3.35133 6.51693 5.18179
#
# Compressibility (1/GPa) = 0.12274865
#
# Stress axis : x y z
#
# Youngs Moduli (GPa) = 99.65164 5.85051 73.23636
#
# Poissons Ratio (x) = 0.06665 0.10970
# Poissons Ratio (y) = 1.13526 1.68757
# Poissons Ratio (z) = 0.14926 0.13481
#
# Static dielectric constant tensor:
#      x y z
#    x 1.697640 0.000000 -0.027570 
#    y 0.000000 1.675950 0.000000 
#    z -0.027570 0.000000 1.751160 
# 
# From -- ./inp_files/267711.got.cif
#   From: 2010.05.17/outbox.cif.g08.bks.cpg/sg12_134_cif.got.tgz:267711.got - 2010.06.03 13:09:07.
