data_PCOD9201307
_publ_section_title
;
Structure prediction by ZEFSAII (Michael W. Deem and Ramdas Pophale) SiO2 
 PCOD9201307
Probable space group: C 2/M
;
_chemical_formula_sum "Si O2"
_cell_formula_units_Z 56
_cell_length_a 16.239639
_cell_length_b 18.206775
_cell_length_c 19.956326
_cell_angle_alpha 90.000000
_cell_angle_beta 152.219515
_cell_angle_gamma 90.000000
_cell_volume 2750.143871
_symmetry_space_group_name_H-M "C 2/M"
_symmetry_group_IT_number 12
_symmetry_cell_setting 'monoclinic'
loop_
_space_group_symop_operation_xyz
x,y,z
-x,y,-z
-x,-y,-z
x,-y,z
1/2+x,1/2+y,z
1/2-x,1/2+y,-z
1/2-x,1/2-y,-z
1/2+x,1/2-y,z
loop_
_atom_site_type_symbol
_atom_site_label
_atom_site_fract_x
_atom_site_fract_y
_atom_site_fract_z
Si Si1 0.257874 0.680310 0.553492
Si Si2 0.147218 0.156542 0.662295
Si Si3 0.572325 0.421481 0.126458
Si Si4 0.212718 0.152539 0.991930
Si Si5 0.915223 0.674010 0.367505
Si Si6 0.543274 0.218652 0.199739
Si Si7 0.903678 0.912587 0.231851
O O1 0.250000 0.750000 0.500000
O O2 0.332209 0.721950 0.673482
O O3 0.398204 0.619974 0.632069
O O4 0.063839 0.647258 0.423119
O O5 0.093405 0.238269 0.647764
O O6 0.334024 0.170665 0.759877
O O7 0.157271 0.107713 0.736384
O O8 0.000000 0.133820 0.500000
O O9 0.652518 0.500000 0.204567
O O10 0.405487 0.405704 0.053706
O O11 0.723687 0.360753 0.231066
O O12 0.500000 0.425677 0.000000
O O13 0.195921 0.129735 0.901057
O O14 0.109376 0.227689 0.938778
O O15 0.419383 0.165507 0.155523
O O16 0.000000 0.658371 0.500000
O O17 0.894946 0.000000 0.215508
#
# Coordination Sequence:
#
# PCOD9201307 Si02
#       7
#     8   8   8   8   8   8   8
#     4  11  20  35  64  95 124 158 216 273 313 381
#     4  11  20  40  63  93 126 156 214 273 319 384
#     4  11  25  42  61  91 133 173 212 269 333 392
#     4  10  22  39  61  89 126 164 217 254 318 389
#     4  11  20  38  64  93 123 161 212 269 323 381
#     4  10  20  37  61  93 117 162 212 261 309 369
#     4  11  24  40  62  93 133 175 207 267 336 388
#
# _framework density 20.362570999999999
#
# number of rings (size 3 to 8) (size 9 to 14) (size 15 to 20)
#    0.000    1.286    5.714    1.286    2.000    2.857 
#    0.000    2.143    0.000    0.000    0.000    0.000 
#    0.000    0.000    0.000    0.000    0.000    0.000 
#
# Total GULP energy -156009.690473 kJ/mol
# GULP energy per Si atom -5571.774660 kJ/mol
# Density = 2.031623 g / cm^3
# Si number density = 20.362571 Si / 1000 Ang^3
#
#
#
# Elastic Constant Matrix: (Units=GPa)
#
#
# Indices 1 2 3 4 5 6 
#
# 1 115.6372 36.2437 50.2960 -0.0007 20.7304 -0.0005
# 2 36.2437 76.3538 21.8370 0.0008 -5.0990 0.0000
# 3 50.2960 21.8370 71.0396 -0.0010 22.1555 0.0005
# 4 -0.0007 0.0008 -0.0010 11.0948 0.0009 -0.0817
# 5 20.7304 -5.0990 22.1555 0.0009 38.2308 -0.0001
# 6 -0.0005 0.0000 0.0005 -0.0817 -0.0001 28.4898
#
#
#
# Elastic Compliance Matrix: (Units=1/GPa)
#
#
# Indices 1 2 3 4 5 6 
#
# 1 0.014025 -0.004890 -0.007142 0.000001 -0.004118 0.000000
# 2 -0.004890 0.017063 -0.004052 -0.000002 0.007275 0.000000
# 3 -0.007142 -0.004052 0.023606 0.000003 -0.010348 -0.000001
# 4 0.000001 -0.000002 0.000003 0.090134 -0.000005 0.000259
# 5 -0.004118 0.007275 -0.010348 -0.000005 0.035357 0.000000
# 6 0.000000 0.000000 -0.000001 0.000259 0.000000 0.035101
#
#
# Mechanical properties :
#
#
# Convention : Reuss Voigt Hill
#
# Bulk Modulus (GPa) = 44.39357 53.30932 48.85144
# Shear Modulus (GPa) = 19.61067 25.87335 22.74201
#
# Velocity S-wave (km/s) = 3.10671 3.56846 3.34556
# Velocity P-wave (km/s) = 5.89218 6.57385 6.24232
#
# Compressibility (1/GPa) = 0.02252579
#
# Stress axis : x y z
#
# Youngs Moduli (GPa) = 71.30073 58.60732 42.36168
#
# Poissons Ratio (x) = 0.28658 0.30256
# Poissons Ratio (y) = 0.34864 0.17165
# Poissons Ratio (z) = 0.50926 0.23748
#
# Static dielectric constant tensor:
#      x y z
#    x 1.809830 0.000000 -0.010200 
#    y 0.000000 1.770400 0.000000 
#    z -0.010200 0.000000 1.790100 
# 
# From -- ./inp_files/311759.got.cif
#   From: 2010.05.17/outbox.cif.g08.bks.cpg/sg12_156_cif.got.tgz:311759.got - 2010.06.03 13:09:07.
