data_PCOD9201078
_publ_section_title
;
Structure prediction by ZEFSAII (Michael W. Deem and Ramdas Pophale) SiO2 
 PCOD9201078
Probable space group: C 2/M
;
_chemical_formula_sum "Si O2"
_cell_formula_units_Z 64
_cell_length_a 19.027285
_cell_length_b 19.469839
_cell_length_c 21.389618
_cell_angle_alpha 90.000000
_cell_angle_beta 22.085911
_cell_angle_gamma 90.000000
_cell_volume 2979.380155
_symmetry_space_group_name_H-M "C 2/M"
_symmetry_group_IT_number 12
_symmetry_cell_setting 'monoclinic'
loop_
_space_group_symop_operation_xyz
x,y,z
-x,y,-z
-x,-y,-z
x,-y,z
1/2+x,1/2+y,z
1/2-x,1/2+y,-z
1/2-x,1/2-y,-z
1/2+x,1/2-y,z
loop_
_atom_site_type_symbol
_atom_site_label
_atom_site_fract_x
_atom_site_fract_y
_atom_site_fract_z
Si Si1 0.936529 0.080229 0.979738
Si Si2 0.374116 0.180133 0.315218
Si Si3 0.412159 0.696729 0.845678
Si Si4 0.818506 0.577128 0.982449
Si Si5 0.465902 0.152110 0.678627
Si Si6 0.215313 0.573998 0.840956
Si Si7 0.825422 0.417542 0.600141
Si Si8 0.951971 0.803071 0.662560
O O1 0.121623 0.107375 0.790867
O O2 0.904665 0.000000 0.989378
O O3 0.738197 0.119668 0.140186
O O4 0.000000 0.081830 0.000000
O O5 0.412100 0.261614 0.272972
O O6 0.503019 0.126895 0.171660
O O7 0.433970 0.168426 0.338007
O O8 0.158784 0.169043 0.481171
O O9 0.420988 0.695061 0.763304
O O10 0.250000 0.750000 0.000000
O O11 0.347624 0.619687 0.914390
O O12 0.847097 0.500000 0.934522
O O13 0.774780 0.571488 0.091816
O O14 0.606284 0.103971 0.524583
O O15 0.436748 0.222174 0.663139
O O16 0.291012 0.500000 0.755059
O O17 0.315027 0.644667 0.740880
O O18 0.000000 0.577228 0.000000
O O19 0.814594 0.500000 0.613270
O O20 0.000000 0.395902 0.500000
#
# Coordination Sequence:
#
# PCOD9201078 Si02
#       8
#     8   8   8   8   8   8   8   8
#     4  10  20  37  61  84 117 168 208 243 298 343
#     4  10  21  38  56  80 123 156 184 233 304 354
#     4   8  15  32  55  78 108 153 184 216 275 344
#     4   9  18  34  58  86 113 147 192 237 280 342
#     4  11  21  37  58  87 123 161 204 248 288 355
#     4   9  19  40  65  85 110 145 189 240 300 366
#     4  10  20  38  60  84 121 166 206 247 296 340
#     4  10  21  38  58  86 114 149 188 242 303 351
#
# _framework density 21.480979000000001
#
# number of rings (size 3 to 8) (size 9 to 14) (size 15 to 20)
#    0.000    2.375    1.250    1.875    0.000    2.000 
#   22.500    0.625    0.000    4.500    0.000    0.000 
#    0.000    0.000    0.000    0.000    0.000    0.000 
#
# Total GULP energy -178433.265357 kJ/mol
# GULP energy per Si atom -5576.039542 kJ/mol
# Density = 2.143209 g / cm^3
# Si number density = 21.480979 Si / 1000 Ang^3
#
#
#
# Elastic Constant Matrix: (Units=GPa)
#
#
# Indices 1 2 3 4 5 6 
#
# 1 22.3947 10.0549 15.2527 -0.0360 -11.0209 -0.0008
# 2 10.0549 100.5875 26.6629 -0.0966 -19.1329 0.0229
# 3 15.2527 26.6629 115.7878 -0.1909 -11.6477 -0.0153
# 4 -0.0360 -0.0966 -0.1909 33.6719 0.0144 -7.8932
# 5 -11.0209 -19.1329 -11.6477 0.0144 28.6105 0.0063
# 6 -0.0008 0.0229 -0.0153 -7.8932 0.0063 28.6664
#
#
#
# Elastic Compliance Matrix: (Units=1/GPa)
#
#
# Indices 1 2 3 4 5 6 
#
# 1 0.058490 -0.000591 -0.005570 0.000021 0.019867 0.000000
# 2 -0.000591 0.011828 -0.001953 0.000018 0.006887 -0.000007
# 3 -0.005570 -0.001953 0.009877 0.000049 0.000569 0.000020
# 4 0.000021 0.000018 0.000049 0.031748 0.000022 0.008742
# 5 0.019867 0.006887 0.000569 0.000022 0.047443 -0.000009
# 6 0.000000 -0.000007 0.000020 0.008742 -0.000009 0.037291
#
#
# Mechanical properties :
#
#
# Convention : Reuss Voigt Hill
#
# Bulk Modulus (GPa) = 15.63312 38.07900 26.85606
# Shear Modulus (GPa) = 21.34670 30.64306 25.99488
#
# Velocity S-wave (km/s) = 3.15580 3.78103 3.48247
# Velocity P-wave (km/s) = 4.53566 6.06852 5.35720
#
# Compressibility (1/GPa) = 0.06396676
#
# Stress axis : x y z
#
# Youngs Moduli (GPa) = 17.09702 84.54198 101.24181
#
# Poissons Ratio (x) = 0.04998 0.56393
# Poissons Ratio (y) = 0.01011 0.19773
# Poissons Ratio (z) = 0.09523 0.16511
#
# Static dielectric constant tensor:
#      x y z
#    x 1.810720 0.000000 0.017190 
#    y 0.000000 1.852610 0.000060 
#    z 0.017190 0.000060 1.807390 
# 
# From -- ./inp_files/347853.got.cif
#   From: 2010.05.17/outbox.cif.g08.bks.cpg/sg12_174_cif.got.tgz:347853.got - 2010.06.03 13:09:07.
