data_PCOD9201744
_publ_section_title
;
Structure prediction by ZEFSAII (Michael W. Deem and Ramdas Pophale) SiO2 
 PCOD9201744
Probable space group: C 2/M
;
_chemical_formula_sum "Si O2"
_cell_formula_units_Z 40
_cell_length_a 18.288675
_cell_length_b 14.883575
_cell_length_c 11.831341
_cell_angle_alpha 90.000000
_cell_angle_beta 149.796881
_cell_angle_gamma 90.000000
_cell_volume 1620.127892
_symmetry_space_group_name_H-M "C 2/M"
_symmetry_group_IT_number 12
_symmetry_cell_setting 'monoclinic'
loop_
_space_group_symop_operation_xyz
x,y,z
-x,y,-z
-x,-y,-z
x,-y,z
1/2+x,1/2+y,z
1/2-x,1/2+y,-z
1/2-x,1/2-y,-z
1/2+x,1/2-y,z
loop_
_atom_site_type_symbol
_atom_site_label
_atom_site_fract_x
_atom_site_fract_y
_atom_site_fract_z
Si Si1 0.189938 0.325359 0.334538
Si Si2 0.327865 0.500000 0.632247
Si Si3 0.069687 0.243279 0.470962
Si Si4 0.821806 0.000000 0.892501
Si Si5 0.457038 0.896352 0.162286
Si Si6 0.802271 0.852514 0.049763
O O1 0.250000 0.250000 0.500000
O O2 0.265774 0.415349 0.481393
O O3 0.263991 0.287786 0.319144
O O4 0.021512 0.344462 0.139962
O O5 0.286933 0.500000 0.712401
O O6 0.502996 0.500000 0.865845
O O7 0.000000 0.248969 0.500000
O O8 0.034672 0.338451 0.364940
O O9 0.974097 0.163458 0.286055
O O10 0.769666 0.088337 0.894296
O O11 0.499584 0.000000 0.212083
O O12 0.287058 0.897605 0.967591
O O13 0.750000 0.750000 0.000000
#
# Coordination Sequence:
#
# PCOD9201744 Si02
#       6
#     8   4   8   4   8   8
#     4  10  21  39  60  90 129 160 196 252 311 363
#     4  11  22  39  67  95 118 158 215 258 299 361
#     4  10  22  40  62  86 121 168 209 241 298 378
#     4  11  22  39  67  95 118 158 215 258 299 361
#     4  10  20  37  64  88 123 154 197 263 317 349
#     4  10  21  39  60  90 129 160 196 252 311 363
#
# _framework density 24.689406999999999
#
# number of rings (size 3 to 8) (size 9 to 14) (size 15 to 20)
#    0.000    1.800    4.000    0.000    0.000    6.800 
#    0.000    3.000    0.000    1.200    0.000    0.000 
#    0.000    0.000    0.000    0.000    0.000    0.000 
#
# Total GULP energy -111466.740117 kJ/mol
# GULP energy per Si atom -5573.337006 kJ/mol
# Density = 2.463321 g / cm^3
# Si number density = 24.689407 Si / 1000 Ang^3
#
#
#
# Elastic Constant Matrix: (Units=GPa)
#
#
# Indices 1 2 3 4 5 6 
#
# 1 178.6768 52.1450 4.0519 0.0000 7.5926 0.0000
# 2 52.1450 159.1895 1.2051 0.0000 0.3660 0.0000
# 3 4.0519 1.2051 26.7636 0.0000 21.7796 0.0000
# 4 0.0000 0.0000 0.0000 6.3340 0.0000 15.9461
# 5 7.5926 0.3660 21.7796 0.0000 60.5610 0.0000
# 6 0.0000 0.0000 0.0000 15.9461 0.0000 46.9190
#
#
#
# Elastic Compliance Matrix: (Units=1/GPa)
#
#
# Indices 1 2 3 4 5 6 
#
# 1 0.006226 -0.002035 -0.000319 0.000000 -0.000653 0.000000
# 2 -0.002035 0.006950 -0.000252 0.000000 0.000304 0.000000
# 3 -0.000319 -0.000252 0.052860 0.000000 -0.018969 0.000000
# 4 0.000000 0.000000 0.000000 1.093498 0.000000 -0.371642
# 5 -0.000653 0.000304 -0.018969 0.000000 0.023414 0.000000
# 6 0.000000 0.000000 0.000000 -0.371642 0.000000 0.147622
#
#
# Mechanical properties :
#
#
# Convention : Reuss Voigt Hill
#
# Bulk Modulus (GPa) = 16.44132 53.27045 34.85589
# Shear Modulus (GPa) = 3.68716 43.24465 23.46591
#
# Velocity S-wave (km/s) = 1.22338 4.18969 3.08627
# Velocity P-wave (km/s) = 2.94436 6.71027 5.18155
#
# Compressibility (1/GPa) = 0.06082237
#
# Stress axis : x y z
#
# Youngs Moduli (GPa) = 160.62407 143.88984 18.91788
#
# Poissons Ratio (x) = 0.29288 0.00604
# Poissons Ratio (y) = 0.32694 0.00477
# Poissons Ratio (z) = 0.05126 0.03626
#
# Static dielectric constant tensor:
#      x y z
#    x 2.054010 0.000000 0.037640 
#    y 0.000000 1.891710 0.000000 
#    z 0.037640 0.000000 2.126590 
# 
# From -- ./inp_files/156357.got.cif
#   From: 2010.05.17/outbox.cif.g08.bks.cpg/sg12_79_cif.got.tgz:156357.got - 2010.06.03 13:09:07.
