data_PCOD9201538
_publ_section_title
;
Structure prediction by ZEFSAII (Michael W. Deem and Ramdas Pophale) SiO2 
 PCOD9201538
Probable space group: C 2/M
;
_chemical_formula_sum "Si O2"
_cell_formula_units_Z 64
_cell_length_a 17.062816
_cell_length_b 25.790944
_cell_length_c 14.393607
_cell_angle_alpha 90.000000
_cell_angle_beta 148.821582
_cell_angle_gamma 90.000000
_cell_volume 3279.213994
_symmetry_space_group_name_H-M "C 2/M"
_symmetry_group_IT_number 12
_symmetry_cell_setting 'monoclinic'
loop_
_space_group_symop_operation_xyz
x,y,z
-x,y,-z
-x,-y,-z
x,-y,z
1/2+x,1/2+y,z
1/2-x,1/2+y,-z
1/2-x,1/2-y,-z
1/2+x,1/2-y,z
loop_
_atom_site_type_symbol
_atom_site_label
_atom_site_fract_x
_atom_site_fract_y
_atom_site_fract_z
Si Si1 0.081833 0.412011 0.171584
Si Si2 0.515409 0.362728 0.752493
Si Si3 0.858907 0.154906 0.406472
Si Si4 0.261282 0.440420 0.538498
Si Si5 0.051841 0.237596 0.912563
Si Si6 0.246861 0.236660 0.287974
Si Si7 0.641752 0.153575 0.924525
Si Si8 0.059561 0.362829 0.457641
O O1 0.203657 0.375281 0.244492
O O2 0.177489 0.439326 0.351774
O O3 0.963724 0.377613 0.110705
O O4 0.000000 0.439097 0.000000
O O5 0.408505 0.341993 0.562669
O O6 0.426152 0.413326 0.696988
O O7 0.525093 0.315201 0.831993
O O8 0.688814 0.368825 0.896603
O O9 0.838369 0.212853 0.350059
O O10 0.000000 0.127837 0.500000
O O11 0.270806 0.500000 0.577788
O O12 0.165536 0.405266 0.513877
O O13 0.129501 0.285614 0.938670
O O14 0.884574 0.255462 0.775078
O O15 0.154350 0.220943 0.103346
O O16 0.346669 0.190618 0.431069
O O17 0.574946 0.147061 0.752809
O O18 0.000000 0.378124 0.500000
#
# Coordination Sequence:
#
# PCOD9201538 Si02
#       8
#     8   8   8   8   8   8   8   8
#     4  10  20  37  62  91 124 154 193 246 301 367
#     4  11  22  38  58  84 120 160 201 250 300 357
#     4  11  21  33  56  87 127 165 196 228 286 364
#     4  10  24  44  65  87 114 156 207 264 317 356
#     4  11  21  34  57  87 126 163 198 239 290 362
#     4  11  21  34  56  88 127 164 201 237 289 362
#     4  11  22  37  61  91 126 161 199 239 293 369
#     4  11  23  41  63  88 121 161 208 257 302 354
#
# _framework density 19.516871999999999
#
# number of rings (size 3 to 8) (size 9 to 14) (size 15 to 20)
#    0.000    1.250    2.500    4.500    0.000    1.500 
#    0.000    2.500    0.000   18.000    0.000    0.000 
#    0.000    0.000    0.000    0.000    0.000    0.000 
#
# Total GULP energy -178524.932559 kJ/mol
# GULP energy per Si atom -5578.904142 kJ/mol
# Density = 1.947245 g / cm^3
# Si number density = 19.516872 Si / 1000 Ang^3
#
#
#
# Elastic Constant Matrix: (Units=GPa)
#
#
# Indices 1 2 3 4 5 6 
#
# 1 84.4133 20.7566 36.2367 0.0000 6.0398 0.0000
# 2 20.7566 78.1359 40.6476 0.0000 -3.3041 0.0000
# 3 36.2367 40.6476 100.2815 0.0000 11.2537 0.0000
# 4 0.0000 0.0000 0.0000 5.1771 0.0000 5.9424
# 5 6.0398 -3.3041 11.2537 0.0000 36.6581 0.0000
# 6 0.0000 0.0000 0.0000 5.9424 0.0000 7.2453
#
#
#
# Elastic Compliance Matrix: (Units=1/GPa)
#
#
# Indices 1 2 3 4 5 6 
#
# 1 0.014184 -0.001541 -0.004374 0.000000 -0.001133 0.000000
# 2 -0.001541 0.016858 -0.006707 0.000000 0.003832 0.000000
# 3 -0.004374 -0.006707 0.014767 0.000000 -0.004417 0.000000
# 4 0.000000 0.000000 0.000000 3.297996 0.000000 -2.704958
# 5 -0.001133 0.003832 -0.004417 0.000000 0.029167 0.000000
# 6 0.000000 0.000000 0.000000 -2.704958 0.000000 2.356579
#
#
# Mechanical properties :
#
#
# Convention : Reuss Voigt Hill
#
# Bulk Modulus (GPa) = 48.62185 50.90141 49.76163
# Shear Modulus (GPa) = 0.86781 20.82875 10.84828
#
# Velocity S-wave (km/s) = 0.66754 3.27037 2.36019
# Velocity P-wave (km/s) = 5.05578 6.35593 5.74277
#
# Compressibility (1/GPa) = 0.02056688
#
# Stress axis : x y z
#
# Youngs Moduli (GPa) = 70.50242 59.31750 67.72068
#
# Poissons Ratio (x) = 0.09138 0.29619
# Poissons Ratio (y) = 0.10861 0.45418
# Poissons Ratio (z) = 0.30836 0.39782
#
# Static dielectric constant tensor:
#      x y z
#    x 1.749970 0.000000 0.005550 
#    y 0.000000 1.645110 0.000000 
#    z 0.005550 0.000000 1.728380 
# 
# From -- ./inp_files/228175.got.cif
#   From: 2010.05.17/outbox.cif.g08.bks.cpg/sg12_115_cif.got.tgz:228175.got - 2010.06.03 13:09:07.
