data_PCOD9201043
_publ_section_title
;
Structure prediction by ZEFSAII (Michael W. Deem and Ramdas Pophale) SiO2 
 PCOD9201043
Probable space group: C 2/M
;
_chemical_formula_sum "Si O2"
_cell_formula_units_Z 60
_cell_length_a 11.673219
_cell_length_b 15.561226
_cell_length_c 15.697577
_cell_angle_alpha 90.000000
_cell_angle_beta 114.961813
_cell_angle_gamma 90.000000
_cell_volume 2585.101701
_symmetry_space_group_name_H-M "C 2/M"
_symmetry_group_IT_number 12
_symmetry_cell_setting 'monoclinic'
loop_
_space_group_symop_operation_xyz
x,y,z
-x,y,-z
-x,-y,-z
x,-y,z
1/2+x,1/2+y,z
1/2-x,1/2+y,-z
1/2-x,1/2-y,-z
1/2+x,1/2-y,z
loop_
_atom_site_type_symbol
_atom_site_label
_atom_site_fract_x
_atom_site_fract_y
_atom_site_fract_z
Si Si1 0.709965 0.658613 0.693491
Si Si2 0.877124 0.100434 0.153587
Si Si3 0.139511 0.822953 0.226305
Si Si4 0.098809 0.401131 0.383801
Si Si5 0.799690 0.099871 0.572778
Si Si6 0.369431 0.897843 0.207798
Si Si7 0.883319 0.395003 0.020048
Si Si8 0.000000 0.843546 0.500000
O O1 0.647052 0.610343 0.752794
O O2 0.803310 0.728715 0.762630
O O3 0.800449 0.601621 0.661938
O O4 0.602216 0.697578 0.597020
O O5 0.749964 0.125805 0.064727
O O6 0.994330 0.158764 0.163367
O O7 0.905597 0.000000 0.145130
O O8 0.162738 0.849565 0.331822
O O9 0.229402 0.880455 0.195691
O O10 0.072970 0.500000 0.399032
O O11 0.173400 0.362995 0.487590
O O12 0.971057 0.360831 0.307030
O O13 0.910084 0.104713 0.536949
O O14 0.779425 0.000000 0.589220
O O15 0.392190 0.000000 0.212546
O O16 0.390408 0.864545 0.119399
O O17 0.889416 0.500000 0.023423
O O18 0.000000 0.364232 0.000000
#
# Coordination Sequence:
#
# PCOD9201043 Si02
#       8
#     8   8   8   8   8   8   8   4
#     4  11  24  39  62  92 132 169 219 265 321 378
#     4  11  23  44  71  95 125 171 222 266 316 382
#     4  12  26  38  61  94 137 172 203 264 329 390
#     4   9  20  37  64  91 122 168 220 269 312 368
#     4  10  20  37  60  93 127 167 219 267 316 375
#     4  10  21  39  63  94 129 166 212 264 320 384
#     4   9  19  39  71 102 122 158 219 274 312 370
#     4  10  21  38  62  88 119 174 222 272 309 368
#
# _framework density 23.209918999999999
#
# number of rings (size 3 to 8) (size 9 to 14) (size 15 to 20)
#    0.000    1.733    1.333    2.600    1.867    7.467 
#    0.000    4.667    2.933    0.000    0.000    0.000 
#    0.000    0.000    0.000    0.000    0.000    0.000 
#
# Total GULP energy -167715.279459 kJ/mol
# GULP energy per Si atom -5590.509315 kJ/mol
# Density = 2.315709 g / cm^3
# Si number density = 23.209919 Si / 1000 Ang^3
#
#
#
# Elastic Constant Matrix: (Units=GPa)
#
#
# Indices 1 2 3 4 5 6 
#
# 1 117.0846 20.7835 42.0735 0.0000 26.5984 0.0000
# 2 20.7835 37.5811 23.8015 0.0000 12.9744 0.0000
# 3 42.0735 23.8015 85.0221 0.0000 21.1096 0.0000
# 4 0.0000 0.0000 0.0000 17.0766 0.0000 0.3673
# 5 26.5984 12.9744 21.1096 0.0000 44.0302 0.0000
# 6 0.0000 0.0000 0.0000 0.3673 0.0000 23.1423
#
#
#
# Elastic Compliance Matrix: (Units=1/GPa)
#
#
# Indices 1 2 3 4 5 6 
#
# 1 0.011325 -0.002317 -0.003890 0.000000 -0.004294 0.000000
# 2 -0.002317 0.034222 -0.007126 0.000000 -0.005268 0.000000
# 3 -0.003890 -0.007126 0.016546 0.000000 -0.003483 0.000000
# 4 0.000000 0.000000 0.000000 0.058580 0.000000 -0.000930
# 5 -0.004294 -0.005268 -0.003483 0.000000 0.028528 0.000000
# 6 0.000000 0.000000 0.000000 -0.000930 0.000000 0.043226
#
#
# Mechanical properties :
#
#
# Convention : Reuss Voigt Hill
#
# Bulk Modulus (GPa) = 28.22572 45.88940 37.05756
# Shear Modulus (GPa) = 21.65424 27.05178 24.35301
#
# Velocity S-wave (km/s) = 3.05777 3.41768 3.24273
# Velocity P-wave (km/s) = 4.96529 5.94882 5.47917
#
# Compressibility (1/GPa) = 0.03542868
#
# Stress axis : x y z
#
# Youngs Moduli (GPa) = 88.29766 29.22059 60.43755
#
# Poissons Ratio (x) = 0.06772 0.23507
# Poissons Ratio (y) = 0.20463 0.43065
# Poissons Ratio (z) = 0.34343 0.20821
#
# Static dielectric constant tensor:
#      x y z
#    x 1.844050 0.000000 0.033380 
#    y 0.000000 1.871360 0.000000 
#    z 0.033380 0.000000 1.862640 
# 
# From -- ./inp_files/206721.got.cif
#   From: 2010.05.17/outbox.cif.g08.bks.cpg/sg12_104_cif.got.tgz:206721.got - 2010.06.03 13:09:07.
