data_PCOD9201346
_publ_section_title
;
Structure prediction by ZEFSAII (Michael W. Deem and Ramdas Pophale) SiO2 
 PCOD9201346
Probable space group: C 2/M
;
_chemical_formula_sum "Si O2"
_cell_formula_units_Z 58
_cell_length_a 24.962308
_cell_length_b 10.467159
_cell_length_c 12.168466
_cell_angle_alpha 90.000000
_cell_angle_beta 92.369878
_cell_angle_gamma 90.000000
_cell_volume 3176.711563
_symmetry_space_group_name_H-M "C 2/M"
_symmetry_group_IT_number 12
_symmetry_cell_setting 'monoclinic'
loop_
_space_group_symop_operation_xyz
x,y,z
-x,y,-z
-x,-y,-z
x,-y,z
1/2+x,1/2+y,z
1/2-x,1/2+y,-z
1/2-x,1/2-y,-z
1/2+x,1/2-y,z
loop_
_atom_site_type_symbol
_atom_site_label
_atom_site_fract_x
_atom_site_fract_y
_atom_site_fract_z
Si Si1 0.788703 0.349419 0.258733
Si Si2 0.802911 0.648973 0.800348
Si Si3 0.353820 0.146201 0.036438
Si Si4 0.115019 0.652784 0.579820
Si Si5 0.500000 0.500000 0.500000
Si Si6 0.020003 0.790620 0.693277
Si Si7 0.409675 0.151973 0.669419
Si Si8 0.554817 0.355788 0.938568
O O1 0.773425 0.500000 0.270895
O O2 0.739767 0.251744 0.244861
O O3 0.822876 0.340954 0.148937
O O4 0.828801 0.309405 0.360224
O O5 0.787510 0.500000 0.777194
O O6 0.859800 0.672269 0.745764
O O7 0.813289 0.662742 0.931244
O O8 0.400688 0.249767 0.032757
O O9 0.374900 0.000000 0.031251
O O10 0.115276 0.500000 0.577691
O O11 0.106274 0.698281 0.454462
O O12 0.066026 0.697687 0.650837
O O13 0.509515 0.390440 0.595819
O O14 0.964082 0.719090 0.710416
O O15 0.041026 0.848942 0.808398
O O16 0.419383 0.000000 0.664392
O O17 0.573330 0.500000 0.967733
O O18 0.500000 0.331450 0.000000
#
# Coordination Sequence:
#
# PCOD9201346 Si02
#       8
#     8   8   8   8   2   8   8   8
#     4  10  21  38  59  86 113 150 198 243 288 344
#     4  10  22  40  58  86 117 151 195 244 292 343
#     4  10  21  39  61  83 114 151 198 244 282 343
#     4  10  20  37  62  86 113 148 197 241 286 345
#     4  12  24  36  56  88 124 156 188 240 276 354
#     4  12  21  39  59  84 120 153 192 235 291 343
#     4  10  21  37  60  85 114 150 195 241 287 345
#     4  11  24  38  56  87 123 155 188 234 292 350
#
# _framework density 18.257873
#
# number of rings (size 3 to 8) (size 9 to 14) (size 15 to 20)
#    0.000    1.517    3.448    1.655    0.000    3.586 
#    2.483    0.000    0.000    0.000    0.000    0.000 
#    0.000    0.000    0.000    0.000    0.000    0.000 
#
# Total GULP energy -161620.847408 kJ/mol
# GULP energy per Si atom -5573.132669 kJ/mol
# Density = 1.821632 g / cm^3
# Si number density = 18.257873 Si / 1000 Ang^3
#
#
#
# Elastic Constant Matrix: (Units=GPa)
#
#
# Indices 1 2 3 4 5 6 
#
# 1 75.5792 61.8563 -11.0416 0.0000 17.8296 0.0000
# 2 61.8563 77.5246 -7.3778 0.0000 16.8018 0.0000
# 3 -11.0416 -7.3778 28.3698 0.0000 6.1577 0.0000
# 4 0.0000 0.0000 0.0000 45.5829 0.0000 71.2890
# 5 17.8296 16.8018 6.1577 0.0000 19.5182 0.0000
# 6 0.0000 0.0000 0.0000 71.2890 0.0000 215.9867
#
#
#
# Elastic Compliance Matrix: (Units=1/GPa)
#
#
# Indices 1 2 3 4 5 6 
#
# 1 0.043955 -0.029710 0.013467 0.000000 -0.018826 0.000000
# 2 -0.029710 0.037631 -0.000683 0.000000 -0.005040 0.000000
# 3 0.013467 -0.000683 0.046006 0.000000 -0.026229 0.000000
# 4 0.000000 0.000000 0.000000 0.045345 0.000000 -0.014967
# 5 -0.018826 -0.005040 -0.026229 0.000000 0.081045 0.000000
# 6 0.000000 0.000000 0.000000 -0.014967 0.000000 0.009570
#
#
# Mechanical properties :
#
#
# Convention : Reuss Voigt Hill
#
# Bulk Modulus (GPa) = 10.66751 29.81638 20.24195
# Shear Modulus (GPa) = 15.21376 65.41999 40.31688
#
# Velocity S-wave (km/s) = 2.88978 5.99240 4.70424
# Velocity P-wave (km/s) = 4.12187 8.01528 6.37317
#
# Compressibility (1/GPa) = 0.09374257
#
# Stress axis : x y z
#
# Youngs Moduli (GPa) = 22.75048 26.57350 21.73638
#
# Poissons Ratio (x) = 0.78949 -0.29273
# Poissons Ratio (y) = 0.67591 0.01484
# Poissons Ratio (z) = -0.30639 0.01814
#
# Static dielectric constant tensor:
#      x y z
#    x 1.592160 0.000000 0.008300 
#    y 0.000000 1.618060 0.000000 
#    z 0.008300 0.000000 1.634560 
# 
# From -- ./inp_files/180913.got.cif
#   From: 2010.05.17/outbox.cif.g08.bks.cpg/sg12_91_cif.got.tgz:180913.got - 2010.06.03 13:09:07.
