data_PCOD9201145
_publ_section_title
;
Structure prediction by ZEFSAII (Michael W. Deem and Ramdas Pophale) SiO2 
 PCOD9201145
Probable space group: C 2/M
;
_chemical_formula_sum "Si O2"
_cell_formula_units_Z 56
_cell_length_a 14.046113
_cell_length_b 10.881470
_cell_length_c 17.470776
_cell_angle_alpha 90.000000
_cell_angle_beta 90.533923
_cell_angle_gamma 90.000000
_cell_volume 2670.158646
_symmetry_space_group_name_H-M "C 2/M"
_symmetry_group_IT_number 12
_symmetry_cell_setting 'monoclinic'
loop_
_space_group_symop_operation_xyz
x,y,z
-x,y,-z
-x,-y,-z
x,-y,z
1/2+x,1/2+y,z
1/2-x,1/2+y,-z
1/2-x,1/2-y,-z
1/2+x,1/2-y,z
loop_
_atom_site_type_symbol
_atom_site_label
_atom_site_fract_x
_atom_site_fract_y
_atom_site_fract_z
Si Si1 0.404404 0.858875 0.321277
Si Si2 0.566575 0.640166 0.790002
Si Si3 0.349392 0.354364 0.786784
Si Si4 0.077268 0.640601 0.433391
Si Si5 0.397278 0.670814 0.035539
Si Si6 0.789537 0.141564 0.609240
Si Si7 0.226977 0.631856 0.919249
O O1 0.389176 0.746328 0.262757
O O2 0.509900 0.849719 0.357516
O O3 0.324752 0.847196 0.387545
O O4 0.391822 0.000000 0.291245
O O5 0.568657 0.500000 0.756732
O O6 0.457473 0.685727 0.798207
O O7 0.604585 0.630029 0.876494
O O8 0.353925 0.500000 0.804313
O O9 0.318370 0.343849 0.699063
O O10 0.277231 0.299150 0.848381
O O11 0.116183 0.500000 0.436973
O O12 0.000000 0.654421 0.500000
O O13 0.154902 0.749176 0.432716
O O14 0.365747 0.811387 0.043570
O O15 0.500000 0.647481 0.000000
O O16 0.311617 0.623768 0.982000
O O17 0.813668 0.000000 0.586224
O O18 0.197610 0.500000 0.889928
#
# Coordination Sequence:
#
# PCOD9201145 Si02
#       7
#     8   8   8   8   8   8   8
#     4  10  22  40  62  87 117 153 191 235 290 343
#     4  11  21  35  60  87 112 148 197 243 286 342
#     4   9  17  32  56  80 106 144 190 238 282 331
#     4  10  22  40  60  87 124 157 186 230 287 341
#     4  11  22  35  55  81 111 146 192 244 291 341
#     4  10  20  37  61  87 115 152 197 237 278 337
#     4  10  21  37  55  77 111 152 192 237 292 346
#
# _framework density 20.972536000000002
#
# number of rings (size 3 to 8) (size 9 to 14) (size 15 to 20)
#    0.000    1.857    2.857    1.286    0.000    4.000 
#    0.000    0.000    0.000    0.857    0.000    0.000 
#    0.000    0.000    0.000    0.000    0.000    0.000 
#
# Total GULP energy -155979.881037 kJ/mol
# GULP energy per Si atom -5570.710037 kJ/mol
# Density = 2.092480 g / cm^3
# Si number density = 20.972536 Si / 1000 Ang^3
#
#
#
# Elastic Constant Matrix: (Units=GPa)
#
#
# Indices 1 2 3 4 5 6 
#
# 1 70.2275 42.4090 0.9234 0.0000 -6.4934 0.0000
# 2 42.4090 146.8775 51.3586 0.0000 -32.9528 0.0000
# 3 0.9234 51.3586 68.7701 0.0000 -3.7427 0.0000
# 4 0.0000 0.0000 0.0000 7.2233 0.0000 -33.6508
# 5 -6.4934 -32.9528 -3.7427 0.0000 31.5460 0.0000
# 6 0.0000 0.0000 0.0000 -33.6508 0.0000 -43.9271
#
#
#
# Elastic Compliance Matrix: (Units=1/GPa)
#
#
# Indices 1 2 3 4 5 6 
#
# 1 0.018860 -0.008426 0.005809 0.000000 -0.004230 0.000000
# 2 -0.008426 0.016342 -0.011330 0.000000 0.013993 0.000000
# 3 0.005809 -0.011330 0.022491 0.000000 -0.007971 0.000000
# 4 0.000000 0.000000 0.000000 0.030301 0.000000 -0.023213
# 5 -0.004230 0.013993 -0.007971 0.000000 0.044500 0.000000
# 6 0.000000 0.000000 0.000000 -0.023213 0.000000 -0.004983
#
#
# Mechanical properties :
#
#
# Convention : Reuss Voigt Hill
#
# Bulk Modulus (GPa) = 33.55745 52.80637 43.18191
# Shear Modulus (GPa) = 30.24083 11.71403 20.97743
#
# Velocity S-wave (km/s) = 3.80139 2.36591 3.16608
# Velocity P-wave (km/s) = 5.94162 5.71812 5.83094
#
# Compressibility (1/GPa) = 0.02979964
#
# Stress axis : x y z
#
# Youngs Moduli (GPa) = 53.02151 61.19033 44.46242
#
# Poissons Ratio (x) = 0.51560 -0.25829
# Poissons Ratio (y) = 0.44677 0.50377
# Poissons Ratio (z) = -0.30802 0.69330
#
# Static dielectric constant tensor:
#      x y z
#    x 1.787790 0.000000 0.031520 
#    y 0.000000 1.800000 0.000000 
#    z 0.031520 0.000000 1.789550 
# 
# From -- ./inp_files/268636.got.cif
#   From: 2010.05.17/outbox.cif.g08.bks.cpg/sg12_135_cif.got.tgz:268636.got - 2010.06.03 13:09:07.
