data_PCOD9201221
_publ_section_title
;
Structure prediction by ZEFSAII (Michael W. Deem and Ramdas Pophale) SiO2 
 PCOD9201221
Probable space group: C 2/M
;
_chemical_formula_sum "Si O2"
_cell_formula_units_Z 48
_cell_length_a 29.169989
_cell_length_b 11.085058
_cell_length_c 9.996236
_cell_angle_alpha 90.000000
_cell_angle_beta 128.062562
_cell_angle_gamma 90.000000
_cell_volume 2544.907304
_symmetry_space_group_name_H-M "C 2/M"
_symmetry_group_IT_number 12
_symmetry_cell_setting 'monoclinic'
loop_
_space_group_symop_operation_xyz
x,y,z
-x,y,-z
-x,-y,-z
x,-y,z
1/2+x,1/2+y,z
1/2-x,1/2+y,-z
1/2-x,1/2-y,-z
1/2+x,1/2-y,z
loop_
_atom_site_type_symbol
_atom_site_label
_atom_site_fract_x
_atom_site_fract_y
_atom_site_fract_z
Si Si1 0.598239 0.633162 0.882704
Si Si2 0.765378 0.130719 0.361496
Si Si3 0.791032 0.137234 0.109949
Si Si4 0.339386 0.703780 0.740718
Si Si5 0.484693 0.861252 0.315770
Si Si6 0.056276 0.358522 0.187604
O O1 0.570077 0.500000 0.813002
O O2 0.649835 0.644807 0.867220
O O3 0.558379 0.751413 0.796078
O O4 0.627372 0.635599 0.081702
O O5 0.799457 0.146652 0.284421
O O6 0.714310 0.226638 0.286576
O O7 0.808576 0.134843 0.564236
O O8 0.736205 0.000000 0.304485
O O9 0.767025 0.000000 0.040763
O O10 0.750000 0.250000 0.000000
O O11 0.386641 0.790325 0.756772
O O12 0.500000 0.854466 0.500000
O O13 0.539098 0.845420 0.312503
O O14 0.462734 0.000000 0.250494
O O15 0.064025 0.500000 0.173842
O O16 0.000000 0.317461 0.000000
#
# Coordination Sequence:
#
# PCOD9201221 Si02
#       6
#     8   8   8   8   8   8
#     4  11  23  39  61  88 123 157 196 248 302 358
#     4  10  22  38  58  85 120 161 203 246 296 355
#     4  10  21  39  59  85 117 154 197 242 290 349
#     4  11  21  37  61  86 122 157 201 245 304 355
#     4  10  23  42  63  87 118 154 201 250 298 358
#     4  10  20  37  61  89 115 150 200 254 300 352
#
# _framework density 18.861198999999999
#
# number of rings (size 3 to 8) (size 9 to 14) (size 15 to 20)
#    0.000    1.667    3.333    1.000    2.333    1.667 
#    0.000    3.333    0.000    0.000    0.000    0.000 
#    0.000    0.000    0.000    0.000    0.000    0.000 
#
# Total GULP energy -133775.312556 kJ/mol
# GULP energy per Si atom -5573.971357 kJ/mol
# Density = 1.881827 g / cm^3
# Si number density = 18.861199 Si / 1000 Ang^3
#
#
#
# Elastic Constant Matrix: (Units=GPa)
#
#
# Indices 1 2 3 4 5 6 
#
# 1 95.4390 47.0409 24.7220 0.0000 -18.2194 0.0000
# 2 47.0409 128.0341 35.3437 0.0000 2.7951 0.0000
# 3 24.7220 35.3437 67.5191 0.0000 -20.3749 0.0000
# 4 0.0000 0.0000 0.0000 124.3612 0.0000 122.3574
# 5 -18.2194 2.7951 -20.3749 0.0000 34.3298 0.0000
# 6 0.0000 0.0000 0.0000 122.3574 0.0000 165.2839
#
#
#
# Elastic Compliance Matrix: (Units=1/GPa)
#
#
# Indices 1 2 3 4 5 6 
#
# 1 0.014849 -0.005651 0.000047 0.000000 0.008368 0.000000
# 2 -0.005651 0.011850 -0.006493 0.000000 -0.007817 0.000000
# 3 0.000047 -0.006493 0.022365 0.000000 0.013827 0.000000
# 4 0.000000 0.000000 0.000000 0.029602 0.000000 -0.021914
# 5 0.008368 -0.007817 0.013827 0.000000 0.042413 0.000000
# 6 0.000000 0.000000 0.000000 -0.021914 0.000000 0.022273
#
#
# Mechanical properties :
#
#
# Convention : Reuss Voigt Hill
#
# Bulk Modulus (GPa) = 40.21141 56.13395 48.17268
# Shear Modulus (GPa) = 28.43577 77.05404 52.74491
#
# Velocity S-wave (km/s) = 3.88704 6.39859 5.29391
# Velocity P-wave (km/s) = 6.44293 9.18779 7.93495
#
# Compressibility (1/GPa) = 0.02486856
#
# Stress axis : x y z
#
# Youngs Moduli (GPa) = 67.34597 84.39074 44.71316
#
# Poissons Ratio (x) = 0.47690 -0.00208
# Poissons Ratio (y) = 0.38058 0.29031
# Poissons Ratio (z) = -0.00313 0.54793
#
# Static dielectric constant tensor:
#      x y z
#    x 1.617250 0.000000 -0.019000 
#    y 0.000000 1.681240 0.000000 
#    z -0.019000 0.000000 1.653760 
# 
# From -- ./inp_files/102812.got.cif
#   From: 2010.05.17/outbox.cif.g08.bks.cpg/sg12_52_cif.got.tgz:102812.got - 2010.06.03 13:09:07.
