data_PCOD9201827
_publ_section_title
;
Structure prediction by ZEFSAII (Michael W. Deem and Ramdas Pophale) SiO2 
 PCOD9201827
Probable space group: C 2/M
;
_chemical_formula_sum "Si O2"
_cell_formula_units_Z 56
_cell_length_a 21.148953
_cell_length_b 17.865233
_cell_length_c 9.217981
_cell_angle_alpha 90.000000
_cell_angle_beta 48.464788
_cell_angle_gamma 90.000000
_cell_volume 2607.073206
_symmetry_space_group_name_H-M "C 2/M"
_symmetry_group_IT_number 12
_symmetry_cell_setting 'monoclinic'
loop_
_space_group_symop_operation_xyz
x,y,z
-x,y,-z
-x,-y,-z
x,-y,z
1/2+x,1/2+y,z
1/2-x,1/2+y,-z
1/2-x,1/2-y,-z
1/2+x,1/2-y,z
loop_
_atom_site_type_symbol
_atom_site_label
_atom_site_fract_x
_atom_site_fract_y
_atom_site_fract_z
Si Si1 0.029813 0.269274 0.122081
Si Si2 0.597635 0.914124 0.162589
Si Si3 0.897557 0.203262 0.500624
Si Si4 0.163206 0.793378 0.095722
Si Si5 0.234332 0.587761 0.181602
Si Si6 0.295816 0.822170 0.497642
Si Si7 0.756451 0.585903 0.298852
O O1 0.035169 0.350522 0.195600
O O2 0.126197 0.242565 0.005628
O O3 0.982276 0.199816 0.277183
O O4 0.000000 0.274533 0.000000
O O5 0.641998 0.896468 0.249832
O O6 0.564158 0.000000 0.214871
O O7 0.680641 0.913880 0.932895
O O8 0.897644 0.213867 0.673078
O O9 0.869406 0.281697 0.471800
O O10 0.826686 0.138799 0.585222
O O11 0.250000 0.750000 0.000000
O O12 0.192113 0.878049 0.029644
O O13 0.240660 0.500000 0.185713
O O14 0.247936 0.628837 0.312908
O O15 0.250000 0.750000 0.500000
O O16 0.312526 0.878580 0.342251
O O17 0.732281 0.500000 0.364292
#
# Coordination Sequence:
#
# PCOD9201827 Si02
#       7
#     8   8   8   8   8   8   8
#     4  12  26  40  62  98 140 180 222 278 351 417
#     4  10  21  41  67  96 132 179 228 281 338 407
#     4  11  22  38  63  94 132 173 223 279 345 407
#     4  12  22  42  69  91 125 178 235 285 325 406
#     4  11  22  39  68  99 126 166 230 290 333 385
#     4  10  21  35  60  95 133 174 218 276 335 404
#     4  10  20  37  64  97 131 172 226 284 337 401
#
# _framework density 21.480025999999999
#
# number of rings (size 3 to 8) (size 9 to 14) (size 15 to 20)
#    0.000    1.143    4.286    1.714    6.000    0.286 
#    0.000    2.143    0.000    5.143    0.000    0.000 
#    0.000    0.000    0.000    0.000    0.000    0.000 
#
# Total GULP energy -155981.981222 kJ/mol
# GULP energy per Si atom -5570.785044 kJ/mol
# Density = 2.143114 g / cm^3
# Si number density = 21.480026 Si / 1000 Ang^3
#
#
#
# Elastic Constant Matrix: (Units=GPa)
#
#
# Indices 1 2 3 4 5 6 
#
# 1 107.1132 54.3157 29.1233 0.0000 25.8846 0.0000
# 2 54.3157 125.2675 17.6738 0.0000 7.7685 0.0000
# 3 29.1233 17.6738 52.8495 0.0000 18.3992 0.0000
# 4 0.0000 0.0000 0.0000 31.7183 0.0000 -1.2702
# 5 25.8846 7.7685 18.3992 0.0000 34.7986 0.0000
# 6 0.0000 0.0000 0.0000 -1.2702 0.0000 21.1160
#
#
#
# Elastic Compliance Matrix: (Units=1/GPa)
#
#
# Indices 1 2 3 4 5 6 
#
# 1 0.015075 -0.005521 -0.003660 0.000000 -0.008046 0.000000
# 2 -0.005521 0.010407 -0.001298 0.000000 0.002470 0.000000
# 3 -0.003660 -0.001298 0.024909 0.000000 -0.010158 0.000000
# 4 0.000000 0.000000 0.000000 0.031604 0.000000 0.001901
# 5 -0.008046 0.002470 -0.010158 0.000000 0.039541 0.000000
# 6 0.000000 0.000000 0.000000 0.001901 0.000000 0.047472
#
#
# Mechanical properties :
#
#
# Convention : Reuss Voigt Hill
#
# Bulk Modulus (GPa) = 33.97468 54.16175 44.06821
# Shear Modulus (GPa) = 25.02809 29.80107 27.41458
#
# Velocity S-wave (km/s) = 3.41718 3.72880 3.57639
# Velocity P-wave (km/s) = 5.60541 6.61878 6.13306
#
# Compressibility (1/GPa) = 0.02943369
#
# Stress axis : x y z
#
# Youngs Moduli (GPa) = 66.33490 96.09106 40.14640
#
# Poissons Ratio (x) = 0.53054 0.14693
# Poissons Ratio (y) = 0.36625 0.05209
# Poissons Ratio (z) = 0.24277 0.12468
#
# Static dielectric constant tensor:
#      x y z
#    x 2.043820 0.000000 -0.279220 
#    y 0.000000 1.773330 0.000000 
#    z -0.279220 0.000000 2.314720 
# 
# From -- ./inp_files/87834.got.cif
#   From: 2010.05.17/outbox.cif.g08.bks.cpg/sg12_44_cif.got.tgz:87834.got - 2010.06.03 13:09:07.
