data_PCOD9201014
_publ_section_title
;
Structure prediction by ZEFSAII (Michael W. Deem and Ramdas Pophale) SiO2 
 PCOD9201014
Probable space group: C 2/M
;
_chemical_formula_sum "Si O2"
_cell_formula_units_Z 34
_cell_length_a 19.130825
_cell_length_b 7.796030
_cell_length_c 12.020876
_cell_angle_alpha 90.000000
_cell_angle_beta 110.174223
_cell_angle_gamma 90.000000
_cell_volume 1682.853089
_symmetry_space_group_name_H-M "C 2/M"
_symmetry_group_IT_number 12
_symmetry_cell_setting 'monoclinic'
loop_
_space_group_symop_operation_xyz
x,y,z
-x,y,-z
-x,-y,-z
x,-y,z
1/2+x,1/2+y,z
1/2-x,1/2+y,-z
1/2-x,1/2-y,-z
1/2+x,1/2-y,z
loop_
_atom_site_type_symbol
_atom_site_label
_atom_site_fract_x
_atom_site_fract_y
_atom_site_fract_z
Si Si1 0.039066 0.807565 0.174382
Si Si2 0.672759 0.201763 0.841702
Si Si3 0.975216 0.203773 0.367294
Si Si4 0.165746 0.697877 0.091575
Si Si5 0.500000 0.000000 0.000000
O O1 0.118721 0.797117 0.157330
O O2 0.037169 0.775206 0.305072
O O3 0.008100 0.000000 0.139897
O O4 0.994924 0.654007 0.092588
O O5 0.601062 0.225012 0.726083
O O6 0.746404 0.295312 0.837362
O O7 0.690859 0.000000 0.861286
O O8 0.659304 0.263543 0.961323
O O9 0.000000 0.274505 0.500000
O O10 0.962887 0.000000 0.373835
O O11 0.134931 0.500000 0.079591
#
# Coordination Sequence:
#
# PCOD9201014 Si02
#       5
#     8   8   8   8   2
#     4  11  23  38  61  90 124 162 204 253 305 366
#     4  10  21  35  58  89 121 160 199 250 308 365
#     4  10  23  42  61  85 120 165 213 255 301 360
#     4  10  20  37  60  89 126 156 197 252 312 370
#     4  12  22  36  58  94 124 156 196 244 316 368
#
# _framework density 20.203783000000001
#
# number of rings (size 3 to 8) (size 9 to 14) (size 15 to 20)
#    0.000    1.647    1.176    3.176    4.941    5.176 
#    0.000    1.176    0.000    0.000    0.000    0.000 
#    0.000    0.000    0.000    0.000    0.000    0.000 
#
# Total GULP energy -94740.822627 kJ/mol
# GULP energy per Si atom -5572.989566 kJ/mol
# Density = 2.015780 g / cm^3
# Si number density = 20.203783 Si / 1000 Ang^3
#
#
#
# Elastic Constant Matrix: (Units=GPa)
#
#
# Indices 1 2 3 4 5 6 
#
# 1 117.6151 24.7536 56.8231 0.0000 -5.3418 0.0000
# 2 24.7536 108.1196 34.7117 0.0000 -16.1575 0.0000
# 3 56.8231 34.7117 150.9900 0.0000 -9.3603 0.0000
# 4 0.0000 0.0000 0.0000 27.2986 0.0000 -7.5315
# 5 -5.3418 -16.1575 -9.3603 0.0000 25.6986 0.0000
# 6 0.0000 0.0000 0.0000 -7.5315 0.0000 49.1958
#
#
#
# Elastic Compliance Matrix: (Units=1/GPa)
#
#
# Indices 1 2 3 4 5 6 
#
# 1 0.010541 -0.001219 -0.003682 0.000000 0.000084 0.000000
# 2 -0.001219 0.010972 -0.001690 0.000000 0.006029 0.000000
# 3 -0.003682 -0.001690 0.008475 0.000000 0.001259 0.000000
# 4 0.000000 0.000000 0.000000 0.038247 0.000000 0.005855
# 5 0.000084 0.006029 0.001259 0.000000 0.043180 0.000000
# 6 0.000000 0.000000 0.000000 0.005855 0.000000 0.021223
#
#
# Mechanical properties :
#
#
# Convention : Reuss Voigt Hill
#
# Bulk Modulus (GPa) = 59.49817 67.70017 63.59917
# Shear Modulus (GPa) = 33.02041 37.80103 35.41072
#
# Velocity S-wave (km/s) = 4.04712 4.33018 4.19104
# Velocity P-wave (km/s) = 7.16602 7.65389 7.41397
#
# Compressibility (1/GPa) = 0.01680724
#
# Stress axis : x y z
#
# Youngs Moduli (GPa) = 94.86433 91.14425 117.99341
#
# Poissons Ratio (x) = 0.11109 0.43442
# Poissons Ratio (y) = 0.11563 0.19939
# Poissons Ratio (z) = 0.34926 0.15402
#
# Static dielectric constant tensor:
#      x y z
#    x 1.569510 0.000000 -0.089750 
#    y 0.000000 1.746030 0.000000 
#    z -0.089750 0.000000 1.662760 
# 
# From -- ./inp_files/162049.got.cif
#   From: 2010.05.17/outbox.cif.g08.bks.cpg/sg12_82_cif.got.tgz:162049.got - 2010.06.03 13:09:07.
