data_PCOD9201914
_publ_section_title
;
Structure prediction by ZEFSAII (Michael W. Deem and Ramdas Pophale) SiO2 
 PCOD9201914
Probable space group: C 2/M
;
_chemical_formula_sum "Si O2"
_cell_formula_units_Z 56
_cell_length_a 9.109250
_cell_length_b 13.504157
_cell_length_c 21.105042
_cell_angle_alpha 90.000000
_cell_angle_beta 86.424840
_cell_angle_gamma 90.000000
_cell_volume 2591.136534
_symmetry_space_group_name_H-M "C 2/M"
_symmetry_group_IT_number 12
_symmetry_cell_setting 'monoclinic'
loop_
_space_group_symop_operation_xyz
x,y,z
-x,y,-z
-x,-y,-z
x,-y,z
1/2+x,1/2+y,z
1/2-x,1/2+y,-z
1/2-x,1/2-y,-z
1/2+x,1/2-y,z
loop_
_atom_site_type_symbol
_atom_site_label
_atom_site_fract_x
_atom_site_fract_y
_atom_site_fract_z
Si Si1 0.751717 0.299091 0.225499
Si Si2 0.340635 0.120811 0.981246
Si Si3 0.171243 0.889995 0.476305
Si Si4 0.138937 0.118317 0.100784
Si Si5 0.691411 0.618153 0.855302
Si Si6 0.276174 0.808324 0.600359
Si Si7 0.987025 0.257904 0.312329
O O1 0.735601 0.354840 0.159620
O O2 0.766428 0.183344 0.205874
O O3 0.604279 0.307718 0.270520
O O4 0.891868 0.321228 0.265030
O O5 0.214869 0.153410 0.034075
O O6 0.341692 0.000000 0.984199
O O7 0.500000 0.155112 0.000000
O O8 0.301445 0.142816 0.909865
O O9 0.261758 0.875451 0.538943
O O10 0.213386 0.803732 0.427170
O O11 0.000000 0.876759 0.500000
O O12 0.191365 0.000000 0.450037
O O13 0.971800 0.150699 0.117911
O O14 0.130490 0.000000 0.096068
O O15 0.691969 0.500000 0.844322
O O16 0.417705 0.821391 0.640641
O O17 0.129214 0.809100 0.646357
#
# Coordination Sequence:
#
# PCOD9201914 Si02
#       7
#     8   8   8   8   8   8   8
#     4  11  22  40  58  86 114 157 198 248 274 351
#     4   9  19  34  57  86 114 142 186 248 309 355
#     4  10  20  37  66  97 120 153 195 234 284 344
#     4  10  21  39  60  82 111 151 194 242 300 358
#     4  10  21  39  60  82 111 151 194 242 300 358
#     4  10  20  41  62  89 122 162 182 244 284 338
#     4  10  22  39  60  81 124 162 196 226 294 334
#
# _framework density 21.612137000000001
#
# number of rings (size 3 to 8) (size 9 to 14) (size 15 to 20)
#    0.000    2.000    2.857    0.429    2.000    2.286 
#    0.000   10.000    0.000    0.000    0.000    0.000 
#    0.000    0.000    0.000    0.000    0.000    0.000 
#
# Total GULP energy -156480.425457 kJ/mol
# GULP energy per Si atom -5588.586623 kJ/mol
# Density = 2.156295 g / cm^3
# Si number density = 21.612137 Si / 1000 Ang^3
#
#
#
# Elastic Constant Matrix: (Units=GPa)
#
#
# Indices 1 2 3 4 5 6 
#
# 1 107.4915 7.1094 40.6178 0.0000 21.8986 0.0000
# 2 7.1094 57.3696 10.2549 0.0000 -13.7617 0.0000
# 3 40.6178 10.2549 97.9563 0.0000 16.1165 0.0000
# 4 0.0000 0.0000 0.0000 4.2401 0.0000 0.4937
# 5 21.8986 -13.7617 16.1165 0.0000 43.5830 0.0000
# 6 0.0000 0.0000 0.0000 0.4937 0.0000 12.7618
#
#
#
# Elastic Compliance Matrix: (Units=1/GPa)
#
#
# Indices 1 2 3 4 5 6 
#
# 1 0.011972 -0.002040 -0.003892 0.000000 -0.005221 0.000000
# 2 -0.002040 0.020163 -0.002642 0.000000 0.008369 0.000000
# 3 -0.003892 -0.002642 0.012686 0.000000 -0.003570 0.000000
# 4 0.000000 0.000000 0.000000 0.236908 0.000000 -0.009164
# 5 -0.005221 0.008369 -0.003570 0.000000 0.029531 0.000000
# 6 0.000000 0.000000 0.000000 -0.009164 0.000000 0.078714
#
#
# Mechanical properties :
#
#
# Convention : Reuss Voigt Hill
#
# Bulk Modulus (GPa) = 36.13470 42.08683 39.11076
# Shear Modulus (GPa) = 12.00923 25.77266 18.89095
#
# Velocity S-wave (km/s) = 2.35982 3.45702 2.95971
# Velocity P-wave (km/s) = 4.91741 5.95404 5.46038
#
# Compressibility (1/GPa) = 0.02767423
#
# Stress axis : x y z
#
# Youngs Moduli (GPa) = 83.52730 49.59479 78.82532
#
# Poissons Ratio (x) = 0.10119 0.30677
# Poissons Ratio (y) = 0.17042 0.20824
# Poissons Ratio (z) = 0.32507 0.13102
#
# Static dielectric constant tensor:
#      x y z
#    x 1.792080 0.000000 0.009470 
#    y 0.000000 1.769600 0.000000 
#    z 0.009470 0.000000 1.770600 
# 
# From -- ./inp_files/300168.got.cif
#   From: 2010.05.17/outbox.cif.g08.bks.cpg/sg12_151_cif.got.tgz:300168.got - 2010.06.03 13:09:07.
