data_PCOD9201705
_publ_section_title
;
Structure prediction by ZEFSAII (Michael W. Deem and Ramdas Pophale) SiO2 
 PCOD9201705
Probable space group: C 2/M
;
_chemical_formula_sum "Si O2"
_cell_formula_units_Z 52
_cell_length_a 14.707965
_cell_length_b 7.328777
_cell_length_c 18.474313
_cell_angle_alpha 90.000000
_cell_angle_beta 99.731201
_cell_angle_gamma 90.000000
_cell_volume 1962.719265
_symmetry_space_group_name_H-M "C 2/M"
_symmetry_group_IT_number 12
_symmetry_cell_setting 'monoclinic'
loop_
_space_group_symop_operation_xyz
x,y,z
-x,y,-z
-x,-y,-z
x,-y,z
1/2+x,1/2+y,z
1/2-x,1/2+y,-z
1/2-x,1/2-y,-z
1/2+x,1/2-y,z
loop_
_atom_site_type_symbol
_atom_site_label
_atom_site_fract_x
_atom_site_fract_y
_atom_site_fract_z
Si Si1 0.932722 0.000000 0.247222
Si Si2 0.799587 0.279657 0.899972
Si Si3 0.050405 0.279371 0.187649
Si Si4 0.195967 0.784615 0.416520
Si Si5 0.493651 0.794142 0.421108
Si Si6 0.827822 0.718924 0.302690
Si Si7 0.605719 0.792179 0.943742
O O1 0.013749 0.839839 0.248259
O O2 0.848905 0.841197 0.236842
O O3 0.797694 0.500000 0.904561
O O4 0.700266 0.210191 0.910777
O O5 0.848837 0.233055 0.830794
O O6 0.867455 0.214671 0.974610
O O7 0.044481 0.500000 0.198690
O O8 0.976352 0.217313 0.116038
O O9 0.250000 0.750000 0.500000
O O10 0.096201 0.696838 0.406369
O O11 0.248319 0.734696 0.349553
O O12 0.182933 0.000000 0.412098
O O13 0.500000 0.704253 0.500000
O O14 0.418002 0.708420 0.360288
O O15 0.456248 0.000000 0.427624
O O16 0.829772 0.500000 0.289900
O O17 0.577429 0.000000 0.952568
#
# Coordination Sequence:
#
# PCOD9201705 Si02
#       7
#     4   8   8   8   8   8   8
#     4  12  26  42  68  82 117 176 224 251 296 350
#     4   9  18  34  60  93 127 156 193 257 323 369
#     4  10  22  41  63  87 122 164 213 254 302 365
#     4  11  22  36  63  96 126 155 194 245 317 382
#     4  10  20  37  63  94 125 154 189 244 318 378
#     4  10  24  44  63  89 129 160 201 263 305 364
#     4   9  18  34  60  93 127 157 195 256 321 371
#
# _framework density 26.493853000000001
#
# number of rings (size 3 to 8) (size 9 to 14) (size 15 to 20)
#    0.000    2.000    1.538    1.385    5.385    2.154 
#    0.000    2.308    0.000    0.000    0.000    0.000 
#    0.000    0.000    0.000    0.000    0.000    0.000 
#
# Total GULP energy -144937.945356 kJ/mol
# GULP energy per Si atom -5574.536360 kJ/mol
# Density = 2.643355 g / cm^3
# Si number density = 26.493853 Si / 1000 Ang^3
#
#
#
# Elastic Constant Matrix: (Units=GPa)
#
#
# Indices 1 2 3 4 5 6 
#
# 1 128.3125 15.5448 16.3198 0.0000 -45.7094 0.0000
# 2 15.5448 150.1177 12.6431 0.0000 -29.0053 0.0000
# 3 16.3198 12.6431 82.8898 0.0000 -24.6794 0.0000
# 4 0.0000 0.0000 0.0000 -15.2784 0.0000 -12.0745
# 5 -45.7094 -29.0053 -24.6794 0.0000 62.6896 0.0000
# 6 0.0000 0.0000 0.0000 -12.0745 0.0000 27.3462
#
#
#
# Elastic Compliance Matrix: (Units=1/GPa)
#
#
# Indices 1 2 3 4 5 6 
#
# 1 0.010558 0.000431 0.000234 0.000000 0.007990 0.000000
# 2 0.000431 0.007334 -0.000113 0.000000 0.003663 0.000000
# 3 0.000234 -0.000113 0.013673 0.000000 0.005502 0.000000
# 4 0.000000 0.000000 0.000000 -0.048521 0.000000 -0.021424
# 5 0.007990 0.003663 0.005502 0.000000 0.025638 0.000000
# 6 0.000000 0.000000 0.000000 -0.021424 0.000000 0.027109
#
#
# Mechanical properties :
#
#
# Convention : Reuss Voigt Hill
#
# Bulk Modulus (GPa) = 30.60947 50.03725 40.32336
# Shear Modulus (GPa) = 109.70668 36.07230 72.88949
#
# Velocity S-wave (km/s) = 6.44191 3.69390 5.25086
# Velocity P-wave (km/s) = 8.17982 6.09267 7.21214
#
# Compressibility (1/GPa) = 0.03266963
#
# Stress axis : x y z
#
# Youngs Moduli (GPa) = 94.71820 136.34955 73.13532
#
# Poissons Ratio (x) = -0.05873 -0.01715
# Poissons Ratio (y) = -0.04080 0.00825
# Poissons Ratio (z) = -0.02221 0.01539
#
# Static dielectric constant tensor:
#      x y z
#    x 2.063890 0.000000 0.010440 
#    y 0.000000 2.078540 0.000000 
#    z 0.010440 0.000000 2.518740 
# 
# From -- ./inp_files/308476.got.cif
#   From: 2010.05.17/outbox.cif.g08.bks.cpg/sg12_155_cif.got.tgz:308476.got - 2010.06.03 13:09:07.
