data_PCOD9201120
_publ_section_title
;
Structure prediction by ZEFSAII (Michael W. Deem and Ramdas Pophale) SiO2 
 PCOD9201120
Probable space group: C 2/M
;
_chemical_formula_sum "Si O2"
_cell_formula_units_Z 36
_cell_length_a 11.383571
_cell_length_b 9.154557
_cell_length_c 16.508092
_cell_angle_alpha 90.000000
_cell_angle_beta 83.257774
_cell_angle_gamma 90.000000
_cell_volume 1708.436699
_symmetry_space_group_name_H-M "C 2/M"
_symmetry_group_IT_number 12
_symmetry_cell_setting 'monoclinic'
loop_
_space_group_symop_operation_xyz
x,y,z
-x,y,-z
-x,-y,-z
x,-y,z
1/2+x,1/2+y,z
1/2-x,1/2+y,-z
1/2-x,1/2-y,-z
1/2+x,1/2-y,z
loop_
_atom_site_type_symbol
_atom_site_label
_atom_site_fract_x
_atom_site_fract_y
_atom_site_fract_z
Si Si1 0.158000 0.000000 0.236726
Si Si2 0.917026 0.500000 0.385185
Si Si3 0.334126 0.500000 0.011608
Si Si4 0.716699 0.749109 0.685315
Si Si5 0.318513 0.000000 0.568520
Si Si6 0.390060 0.500000 0.196462
Si Si7 0.368014 0.000000 0.087761
Si Si8 0.000000 0.254422 0.000000
O O1 0.180450 0.144285 0.289442
O O2 0.029597 0.000000 0.206223
O O3 0.267020 0.000000 0.163412
O O4 0.885447 0.358193 0.335762
O O5 0.832367 0.500000 0.471055
O O6 0.050231 0.500000 0.404519
O O7 0.358633 0.500000 0.104799
O O8 0.398557 0.353604 0.975822
O O9 0.201530 0.500000 0.992533
O O10 0.755771 0.644024 0.608830
O O11 0.669716 0.641356 0.758109
O O12 0.448387 0.143448 0.075004
#
# Coordination Sequence:
#
# PCOD9201120 Si02
#       8
#     4   4   4   8   4   4   4   4
#     4  11  22  38  58  80 114 151 184 231 283 330
#     4  10  20  37  61  86 115 148 184 226 272 327
#     4  11  22  38  59  81 109 147 191 237 281 327
#     4  10  22  38  57  85 116 148 185 226 277 333
#     4  10  20  37  61  87 114 147 185 226 271 328
#     4  11  23  38  57  82 114 150 188 232 280 331
#     4  11  23  39  58  82 110 146 192 236 281 331
#     4  10  22  38  56  80 108 138 186 238 282 332
#
# _framework density 21.071897
#
# number of rings (size 3 to 8) (size 9 to 14) (size 15 to 20)
#    0.000    1.556    0.000    5.333    0.000    1.778 
#    0.000    8.889    0.000   10.667    0.000    0.000 
#    0.000    0.000    0.000    0.000    0.000    0.000 
#
# Total GULP energy -100644.941692 kJ/mol
# GULP energy per Si atom -5591.385650 kJ/mol
# Density = 2.102394 g / cm^3
# Si number density = 21.071897 Si / 1000 Ang^3
#
#
#
# Elastic Constant Matrix: (Units=GPa)
#
#
# Indices 1 2 3 4 5 6 
#
# 1 46.1878 21.1423 -2.1003 0.0000 8.2204 0.0000
# 2 21.1423 153.4009 25.3466 0.0000 -2.7052 0.0000
# 3 -2.1003 25.3466 34.4543 0.0000 6.3289 0.0000
# 4 0.0000 0.0000 0.0000 10.2784 0.0000 3.1836
# 5 8.2204 -2.7052 6.3289 0.0000 32.7617 0.0000
# 6 0.0000 0.0000 0.0000 3.1836 0.0000 -4.1280
#
#
#
# Elastic Compliance Matrix: (Units=1/GPa)
#
#
# Indices 1 2 3 4 5 6 
#
# 1 0.025554 -0.004743 0.006528 0.000000 -0.008065 0.000000
# 2 -0.004743 0.008397 -0.007063 0.000000 0.003248 0.000000
# 3 0.006528 -0.007063 0.036314 0.000000 -0.009236 0.000000
# 4 0.000000 0.000000 0.000000 0.078533 0.000000 0.060565
# 5 -0.008065 0.003248 -0.009236 0.000000 0.034599 0.000000
# 6 0.000000 0.000000 0.000000 0.060565 0.000000 -0.195538
#
#
# Mechanical properties :
#
#
# Convention : Reuss Voigt Hill
#
# Bulk Modulus (GPa) = 16.74755 35.86891 26.30823
# Shear Modulus (GPa) = 272.95909 20.42604 146.69256
#
# Velocity S-wave (km/s) = 11.39378 3.11682 8.35263
# Velocity P-wave (km/s) = 13.45571 5.47831 10.27297
#
# Compressibility (1/GPa) = 0.05971022
#
# Stress axis : x y z
#
# Youngs Moduli (GPa) = 39.13290 119.09265 27.53729
#
# Poissons Ratio (x) = 0.56484 -0.17977
# Poissons Ratio (y) = 0.18560 0.19449
# Poissons Ratio (z) = -0.25547 0.84114
#
# Static dielectric constant tensor:
#      x y z
#    x 1.708430 0.000000 -0.025170 
#    y 0.000000 1.753780 0.000000 
#    z -0.025170 0.000000 1.763090 
# 
# From -- ./inp_files/260940.got.cif
#   From: 2010.05.17/outbox.cif.g08.bks.cpg/sg12_131_cif.got.tgz:260940.got - 2010.06.03 13:09:07.
