data_PCOD9201169
_publ_section_title
;
Structure prediction by ZEFSAII (Michael W. Deem and Ramdas Pophale) SiO2 
 PCOD9201169
Probable space group: C 2/M
;
_chemical_formula_sum "Si O2"
_cell_formula_units_Z 40
_cell_length_a 19.731007
_cell_length_b 18.324552
_cell_length_c 11.978798
_cell_angle_alpha 90.000000
_cell_angle_beta 153.274022
_cell_angle_gamma 90.000000
_cell_volume 1947.789098
_symmetry_space_group_name_H-M "C 2/M"
_symmetry_group_IT_number 12
_symmetry_cell_setting 'monoclinic'
loop_
_space_group_symop_operation_xyz
x,y,z
-x,y,-z
-x,-y,-z
x,-y,z
1/2+x,1/2+y,z
1/2-x,1/2+y,-z
1/2-x,1/2-y,-z
1/2+x,1/2-y,z
loop_
_atom_site_type_symbol
_atom_site_label
_atom_site_fract_x
_atom_site_fract_y
_atom_site_fract_z
Si Si1 0.674934 0.619113 0.969176
Si Si2 0.000000 0.796551 0.000000
Si Si3 0.810965 0.277351 0.914475
Si Si4 0.054815 0.418085 0.771696
Si Si5 0.699569 0.581247 0.251842
Si Si6 0.000000 0.153299 0.500000
O O1 0.570960 0.607331 0.707258
O O2 0.679557 0.706751 0.991520
O O3 0.840122 0.588700 0.182619
O O4 0.631320 0.588751 0.026115
O O5 0.091113 0.747628 0.047254
O O6 0.129769 0.855182 0.225211
O O7 0.634161 0.297338 0.645037
O O8 0.885241 0.351217 0.067603
O O9 0.078084 0.500000 0.852002
O O10 0.877284 0.407905 0.496578
O O11 0.673753 0.500000 0.257558
#
# Coordination Sequence:
#
# PCOD9201169 Si02
#       6
#     8   4   8   8   8   4
#     4  10  21  34  61  89 118 152 192 244 286 353
#     4  10  23  38  61  84 122 154 196 248 285 350
#     4  10  23  38  59  91 117 158 195 242 287 351
#     4  10  20  37  61  87 120 154 195 243 292 347
#     4  10  21  38  59  88 119 154 194 243 296 346
#     4  10  20  38  57  86 119 150 194 236 292 340
#
# _framework density 20.536104999999999
#
# number of rings (size 3 to 8) (size 9 to 14) (size 15 to 20)
#    0.000    2.000    0.000    3.900   11.200    2.400 
#    3.600   13.000    0.000    0.000    0.000    0.000 
#    0.000    0.000    0.000    0.000    0.000    0.000 
#
# Total GULP energy -111418.502193 kJ/mol
# GULP energy per Si atom -5570.925110 kJ/mol
# Density = 2.048936 g / cm^3
# Si number density = 20.536105 Si / 1000 Ang^3
#
#
#
# Elastic Constant Matrix: (Units=GPa)
#
#
# Indices 1 2 3 4 5 6 
#
# 1 62.9353 24.8572 42.3899 0.0000 34.7792 0.0000
# 2 24.8572 130.3362 32.7043 0.0000 10.8982 0.0000
# 3 42.3899 32.7043 115.6956 0.0000 18.2420 0.0000
# 4 0.0000 0.0000 0.0000 23.6382 0.0000 5.5721
# 5 34.7792 10.8982 18.2420 0.0000 32.2301 0.0000
# 6 0.0000 0.0000 0.0000 5.5721 0.0000 2.6603
#
#
#
# Elastic Compliance Matrix: (Units=1/GPa)
#
#
# Indices 1 2 3 4 5 6 
#
# 1 0.049853 -0.003066 -0.009970 0.000000 -0.047116 0.000000
# 2 -0.003066 0.008524 -0.001486 0.000000 0.001268 0.000000
# 3 -0.009970 -0.001486 0.012013 0.000000 0.004462 0.000000
# 4 0.000000 0.000000 0.000000 0.083563 0.000000 -0.175028
# 5 -0.047116 0.001268 0.004462 0.000000 0.078916 0.000000
# 6 0.000000 0.000000 0.000000 -0.175028 0.000000 0.742508
#
#
# Mechanical properties :
#
#
# Convention : Reuss Voigt Hill
#
# Bulk Modulus (GPa) = 24.18653 56.54110 40.36381
# Shear Modulus (GPa) = 4.91061 25.64009 15.27535
#
# Velocity S-wave (km/s) = 1.54803 3.53730 2.73028
# Velocity P-wave (km/s) = 3.87277 6.65399 5.44398
#
# Compressibility (1/GPa) = 0.04134533
#
# Stress axis : x y z
#
# Youngs Moduli (GPa) = 20.05893 117.31392 83.24431
#
# Poissons Ratio (x) = 0.35973 0.82995
# Poissons Ratio (y) = 0.06151 0.12370
# Poissons Ratio (z) = 0.19999 0.17432
#
# Static dielectric constant tensor:
#      x y z
#    x 1.781690 0.000000 0.004840 
#    y 0.000000 1.746930 0.000000 
#    z 0.004840 0.000000 1.757290 
# 
# From -- ./inp_files/235250.got.cif
#   From: 2010.05.17/outbox.cif.g08.bks.cpg/sg12_118_cif.got.tgz:235250.got - 2010.06.03 13:09:07.
