data_PCOD9201994
_publ_section_title
;
Structure prediction by ZEFSAII (Michael W. Deem and Ramdas Pophale) SiO2 
 PCOD9201994
Probable space group: C 2/M
;
_chemical_formula_sum "Si O2"
_cell_formula_units_Z 40
_cell_length_a 14.807980
_cell_length_b 7.416120
_cell_length_c 22.297235
_cell_angle_alpha 90.000000
_cell_angle_beta 56.514033
_cell_angle_gamma 90.000000
_cell_volume 2042.210730
_symmetry_space_group_name_H-M "C 2/M"
_symmetry_group_IT_number 12
_symmetry_cell_setting 'monoclinic'
loop_
_space_group_symop_operation_xyz
x,y,z
-x,y,-z
-x,-y,-z
x,-y,z
1/2+x,1/2+y,z
1/2-x,1/2+y,-z
1/2-x,1/2-y,-z
1/2+x,1/2-y,z
loop_
_atom_site_type_symbol
_atom_site_label
_atom_site_fract_x
_atom_site_fract_y
_atom_site_fract_z
Si Si1 0.678512 0.000000 0.416840
Si Si2 0.971281 0.500000 0.410580
Si Si3 0.701787 0.213755 0.083277
Si Si4 0.606607 0.294373 0.655258
Si Si5 0.407439 0.720639 0.080882
Si Si6 0.540977 0.703790 0.807953
O O1 0.763321 0.168533 0.389261
O O2 0.595334 0.000000 0.390744
O O3 0.604687 0.000000 0.502922
O O4 0.938206 0.670952 0.381455
O O5 0.792499 0.272079 0.096617
O O6 0.587648 0.303046 0.136732
O O7 0.685495 0.000000 0.095016
O O8 0.750000 0.250000 0.000000
O O9 0.561813 0.500000 0.665457
O O10 0.570883 0.216707 0.732824
O O11 0.414520 0.500000 0.079814
O O12 0.420756 0.787167 0.143547
O O13 0.500000 0.778993 0.000000
O O14 0.586719 0.500000 0.788695
#
# Coordination Sequence:
#
# PCOD9201994 Si02
#       6
#     4   4   8   8   8   8
#     4   9  22  42  65 105 125 166 213 257 309 383
#     4  11  20  42  73  93 133 165 211 256 312 388
#     4  11  21  33  54  78 103 145 199 243 297 357
#     4   9  22  40  61  94 133 165 205 261 318 372
#     4   9  17  32  53  72 100 146 188 233 292 346
#     4  10  20  38  56  76 114 148 190 250 296 354
#
# _framework density 19.586615999999999
#
# number of rings (size 3 to 8) (size 9 to 14) (size 15 to 20)
#    0.600    1.600    2.000    1.200    1.400    1.600 
#    1.800    4.000    0.000    0.000    0.000    0.000 
#    0.000    0.000    0.000    0.000    0.000    0.000 
#
# Total GULP energy -111462.904629 kJ/mol
# GULP energy per Si atom -5573.145231 kJ/mol
# Density = 1.954204 g / cm^3
# Si number density = 19.586616 Si / 1000 Ang^3
#
#
#
# Elastic Constant Matrix: (Units=GPa)
#
#
# Indices 1 2 3 4 5 6 
#
# 1 164.1064 30.7961 63.1719 -0.0001 33.3342 0.0000
# 2 30.7961 85.3589 18.5820 -0.0003 15.8443 -0.0001
# 3 63.1719 18.5820 125.8894 0.0000 30.4734 0.0000
# 4 -0.0001 -0.0003 0.0000 -13.8673 -0.0001 -15.5129
# 5 33.3342 15.8443 30.4734 -0.0001 30.9072 -0.0001
# 6 0.0000 -0.0001 0.0000 -15.5129 -0.0001 13.0980
#
#
#
# Elastic Compliance Matrix: (Units=1/GPa)
#
#
# Indices 1 2 3 4 5 6 
#
# 1 0.008587 -0.001422 -0.002671 0.000000 -0.005899 0.000000
# 2 -0.001422 0.013198 0.000042 0.000000 -0.005274 0.000000
# 3 -0.002671 0.000042 0.011277 0.000000 -0.008259 0.000000
# 4 0.000000 0.000000 0.000000 -0.031017 0.000000 -0.036736
# 5 -0.005899 -0.005274 -0.008259 0.000000 0.049564 0.000000
# 6 0.000000 0.000000 0.000000 -0.036736 0.000000 0.032839
#
#
# Mechanical properties :
#
#
# Convention : Reuss Voigt Hill
#
# Bulk Modulus (GPa) = 40.06428 66.71717 53.39073
# Shear Modulus (GPa) = 49.56926 23.54789 36.55858
#
# Velocity S-wave (km/s) = 5.03614 3.47110 4.32500
# Velocity P-wave (km/s) = 7.36995 7.08529 7.22902
#
# Compressibility (1/GPa) = 0.02495989
#
# Stress axis : x y z
#
# Youngs Moduli (GPa) = 116.45773 75.76940 88.67617
#
# Poissons Ratio (x) = 0.10771 0.23687
# Poissons Ratio (y) = 0.16555 -0.00371
# Poissons Ratio (z) = 0.31108 -0.00317
#
# Static dielectric constant tensor:
#      x y z
#    x 1.680870 0.000000 0.005490 
#    y 0.000000 1.743670 0.000000 
#    z 0.005490 0.000000 1.678250 
# 
# From -- ./inp_files/307939.got.cif
#   From: 2010.05.17/outbox.cif.g08.bks.cpg/sg12_154_cif.got.tgz:307939.got - 2010.06.03 13:09:07.
