data_PCOD9201004
_publ_section_title
;
Structure prediction by ZEFSAII (Michael W. Deem and Ramdas Pophale) SiO2 
 PCOD9201004
Probable space group: C 2/M
;
_chemical_formula_sum "Si O2"
_cell_formula_units_Z 56
_cell_length_a 28.627009
_cell_length_b 11.078715
_cell_length_c 11.371505
_cell_angle_alpha 90.000000
_cell_angle_beta 51.354450
_cell_angle_gamma 90.000000
_cell_volume 2816.746906
_symmetry_space_group_name_H-M "C 2/M"
_symmetry_group_IT_number 12
_symmetry_cell_setting 'monoclinic'
loop_
_space_group_symop_operation_xyz
x,y,z
-x,y,-z
-x,-y,-z
x,-y,z
1/2+x,1/2+y,z
1/2-x,1/2+y,-z
1/2-x,1/2-y,-z
1/2+x,1/2-y,z
loop_
_atom_site_type_symbol
_atom_site_label
_atom_site_fract_x
_atom_site_fract_y
_atom_site_fract_z
Si Si1 0.387445 0.640323 0.269469
Si Si2 0.749359 0.876532 0.067343
Si Si3 0.170874 0.776494 0.873043
Si Si4 0.129223 0.706698 0.353605
Si Si5 0.915642 0.358968 0.819705
Si Si6 0.450267 0.860669 0.298884
Si Si7 0.790420 0.137575 0.621365
O O1 0.408445 0.500000 0.252309
O O2 0.369106 0.664747 0.164539
O O3 0.429749 0.750280 0.247072
O O4 0.327272 0.653272 0.442860
O O5 0.803533 0.870035 0.072694
O O6 0.686924 0.874096 0.234374
O O7 0.752266 0.000000 0.990367
O O8 0.750000 0.750000 0.000000
O O9 0.230958 0.717108 0.724847
O O10 0.133049 0.680726 0.008039
O O11 0.094082 0.714635 0.286073
O O12 0.088727 0.653510 0.520731
O O13 0.161040 0.826174 0.355114
O O14 0.908632 0.500000 0.800236
O O15 0.981032 0.343659 0.772022
O O16 0.442490 0.000000 0.266394
O O17 0.772350 0.000000 0.660700
#
# Coordination Sequence:
#
# PCOD9201004 Si02
#       7
#     8   8   8   8   8   8   8
#     4  10  22  43  63  84 119 157 202 246 296 353
#     4  11  22  36  57  87 120 151 188 232 290 353
#     4  11  22  37  58  89 118 158 194 238 295 355
#     4  10  20  37  60  89 120 157 194 241 296 353
#     4  11  22  37  58  89 122 155 198 250 297 348
#     4  10  22  40  64  88 114 154 207 252 293 342
#     4   9  20  37  60  90 122 157 193 243 297 354
#
# _framework density 19.88109
#
# number of rings (size 3 to 8) (size 9 to 14) (size 15 to 20)
#    0.000    1.714    1.429    3.000    0.000    5.143 
#    0.000    7.857    0.000    3.429    0.000    0.000 
#    0.000    0.000    0.000    0.000    0.000    0.000 
#
# Total GULP energy -156164.286664 kJ/mol
# GULP energy per Si atom -5577.295952 kJ/mol
# Density = 1.983584 g / cm^3
# Si number density = 19.881090 Si / 1000 Ang^3
#
#
#
# Elastic Constant Matrix: (Units=GPa)
#
#
# Indices 1 2 3 4 5 6 
#
# 1 113.7994 51.7800 33.3134 0.0000 6.2257 0.0000
# 2 51.7800 115.6966 12.5131 0.0000 5.4683 0.0000
# 3 33.3134 12.5131 20.9073 0.0000 -0.9594 0.0000
# 4 0.0000 0.0000 0.0000-1069.0146 0.0000 1130.4559
# 5 6.2257 5.4683 -0.9594 0.0000 35.3449 0.0000
# 6 0.0000 0.0000 0.0000 1130.4559 0.0000-1158.8894
#
#
#
# Elastic Compliance Matrix: (Units=1/GPa)
#
#
# Indices 1 2 3 4 5 6 
#
# 1 0.019870 -0.005657 -0.028431 0.000000 -0.003396 0.000000
# 2 -0.005657 0.010941 0.002437 0.000000 -0.000630 0.000000
# 3 -0.028431 0.002437 0.092000 0.000000 0.007128 0.000000
# 4 0.000000 0.000000 0.000000 0.029669 0.000000 0.028941
# 5 -0.003396 -0.000630 0.007128 0.000000 0.029182 0.000000
# 6 0.000000 0.000000 0.000000 0.028941 0.000000 0.027368
#
#
# Mechanical properties :
#
#
# Convention : Reuss Voigt Hill
#
# Bulk Modulus (GPa) = 16.80410 49.51292 33.15851
# Shear Modulus (GPa) = 17.11341 -428.32538 -205.60598
#
# Velocity S-wave (km/s) = 2.93710 -14.69392 -10.18049
# Velocity P-wave (km/s) = 4.46909 16.21491 11.02158
#
# Compressibility (1/GPa) = 0.05950929
#
# Stress axis : x y z
#
# Youngs Moduli (GPa) = 50.32675 91.39527 10.86960
#
# Poissons Ratio (x) = 0.51707 0.30903
# Poissons Ratio (y) = 0.28472 -0.02649
# Poissons Ratio (z) = 1.43082 -0.22274
#
# Static dielectric constant tensor:
#      x y z
#    x 1.701610 0.000000 0.026950 
#    y 0.000000 1.748530 0.000000 
#    z 0.026950 0.000000 1.713400 
# 
# From -- ./inp_files/174796.got.cif
#   From: 2010.05.17/outbox.cif.g08.bks.cpg/sg12_88_cif.got.tgz:174796.got - 2010.06.03 13:09:07.
