data_PCOD9201625
_publ_section_title
;
Structure prediction by ZEFSAII (Michael W. Deem and Ramdas Pophale) SiO2 
 PCOD9201625
Probable space group: C 2/M
;
_chemical_formula_sum "Si O2"
_cell_formula_units_Z 32
_cell_length_a 17.549168
_cell_length_b 15.465349
_cell_length_c 10.969856
_cell_angle_alpha 90.000000
_cell_angle_beta 31.439868
_cell_angle_gamma 90.000000
_cell_volume 1552.950532
_symmetry_space_group_name_H-M "C 2/M"
_symmetry_group_IT_number 12
_symmetry_cell_setting 'monoclinic'
loop_
_space_group_symop_operation_xyz
x,y,z
-x,y,-z
-x,-y,-z
x,-y,z
1/2+x,1/2+y,z
1/2-x,1/2+y,-z
1/2-x,1/2-y,-z
1/2+x,1/2-y,z
loop_
_atom_site_type_symbol
_atom_site_label
_atom_site_fract_x
_atom_site_fract_y
_atom_site_fract_z
Si Si1 0.162972 0.857410 0.749092
Si Si2 0.639074 0.000000 0.894895
Si Si3 0.662192 0.000000 0.344064
Si Si4 0.719577 0.676264 0.386788
Si Si5 0.797613 0.000000 0.900237
Si Si6 0.000000 0.143328 0.500000
O O1 0.175752 0.757785 0.774170
O O2 0.186540 0.846214 0.571960
O O3 0.286921 0.917458 0.642729
O O4 0.000000 0.890730 0.000000
O O5 0.720947 0.087054 0.746913
O O6 0.643820 0.000000 0.035179
O O7 0.500000 0.000000 0.000000
O O8 0.500000 0.000000 0.500000
O O9 0.769726 0.000000 0.080267
O O10 0.580627 0.697748 0.492997
O O11 0.891831 0.081459 0.725137
#
# Coordination Sequence:
#
# PCOD9201625 Si02
#       6
#     8   4   4   8   4   4
#     4  11  24  43  63  93 129 173 215 257 326 381
#     4  10  20  37  63  89 122 163 207 260 308 368
#     4  12  27  42  63  95 132 173 211 264 325 378
#     4  10  22  39  66  93 126 165 212 266 313 380
#     4   9  20  37  61  91 119 159 217 251 321 373
#     4   9  18  40  64  93 120 162 214 269 312 371
#
# _framework density 20.605936
#
# number of rings (size 3 to 8) (size 9 to 14) (size 15 to 20)
#    0.000    1.750    0.000    4.125    5.250    0.000 
#    4.500    6.250    0.000    0.000    0.000    0.000 
#    0.000    0.000    0.000    0.000    0.000    0.000 
#
# Total GULP energy -89130.606816 kJ/mol
# GULP energy per Si atom -5570.662926 kJ/mol
# Density = 2.055904 g / cm^3
# Si number density = 20.605936 Si / 1000 Ang^3
#
#
#
# Elastic Constant Matrix: (Units=GPa)
#
#
# Indices 1 2 3 4 5 6 
#
# 1 158.8974 33.7667 34.4831 0.0000 -12.5243 0.0000
# 2 33.7667 104.9836 13.1965 0.0000 -3.7993 0.0000
# 3 34.4831 13.1965 47.6989 0.0000 -11.1498 0.0000
# 4 0.0000 0.0000 0.0000 11.5169 0.0000 -10.2905
# 5 -12.5243 -3.7993 -11.1498 0.0000 37.5774 0.0000
# 6 0.0000 0.0000 0.0000 -10.2905 0.0000 63.5526
#
#
#
# Elastic Compliance Matrix: (Units=1/GPa)
#
#
# Indices 1 2 3 4 5 6 
#
# 1 0.007834 -0.001866 -0.004922 0.000000 0.000962 0.000000
# 2 -0.001866 0.010314 -0.001511 0.000000 -0.000027 0.000000
# 3 -0.004922 -0.001511 0.026350 0.000000 0.006025 0.000000
# 4 0.000000 0.000000 0.000000 0.101516 0.000000 0.016438
# 5 0.000962 -0.000027 0.006025 0.000000 0.028717 0.000000
# 6 0.000000 0.000000 0.000000 0.016438 0.000000 0.018397
#
#
# Mechanical properties :
#
#
# Convention : Reuss Voigt Hill
#
# Bulk Modulus (GPa) = 35.84312 52.71917 44.28115
# Shear Modulus (GPa) = 22.82823 37.87160 30.34991
#
# Velocity S-wave (km/s) = 3.33204 4.29172 3.84197
# Velocity P-wave (km/s) = 5.67765 7.08509 6.42005
#
# Compressibility (1/GPa) = 0.02789936
#
# Stress axis : x y z
#
# Youngs Moduli (GPa) = 127.64927 96.95130 37.95105
#
# Poissons Ratio (x) = 0.18093 0.18681
# Poissons Ratio (y) = 0.23821 0.05734
# Poissons Ratio (z) = 0.62833 0.14649
#
# Static dielectric constant tensor:
#      x y z
#    x 1.876900 0.000000 -0.126450 
#    y 0.000000 1.655300 0.000000 
#    z -0.126450 0.000000 1.800200 
# 
# From -- ./inp_files/156415.got.cif
#   From: 2010.05.17/outbox.cif.g08.bks.cpg/sg12_79_cif.got.tgz:156415.got - 2010.06.03 13:09:07.
