data_PCOD9201840
_publ_section_title
;
Structure prediction by ZEFSAII (Michael W. Deem and Ramdas Pophale) SiO2 
 PCOD9201840
Probable space group: C 2/M
;
_chemical_formula_sum "Si O2"
_cell_formula_units_Z 50
_cell_length_a 10.694382
_cell_length_b 14.489366
_cell_length_c 17.591971
_cell_angle_alpha 90.000000
_cell_angle_beta 54.459868
_cell_angle_gamma 90.000000
_cell_volume 2218.137521
_symmetry_space_group_name_H-M "C 2/M"
_symmetry_group_IT_number 12
_symmetry_cell_setting 'monoclinic'
loop_
_space_group_symop_operation_xyz
x,y,z
-x,y,-z
-x,-y,-z
x,-y,z
1/2+x,1/2+y,z
1/2-x,1/2+y,-z
1/2-x,1/2-y,-z
1/2+x,1/2-y,z
loop_
_atom_site_type_symbol
_atom_site_label
_atom_site_fract_x
_atom_site_fract_y
_atom_site_fract_z
Si Si1 0.903128 0.611059 0.960362
Si Si2 0.500000 0.000000 0.500000
Si Si3 0.404045 0.394762 0.857120
Si Si4 0.943217 0.290352 0.236266
Si Si5 0.399283 0.362553 0.465780
Si Si6 0.447116 0.846186 0.406213
Si Si7 0.676049 0.400974 0.281939
O O1 0.915964 0.500000 0.954145
O O2 0.969670 0.651847 0.859319
O O3 0.721783 0.632044 0.035266
O O4 0.000000 0.644345 0.000000
O O5 0.543568 0.917508 0.421726
O O6 0.459614 0.500000 0.849800
O O7 0.526937 0.315356 0.797233
O O8 0.303333 0.396542 0.815063
O O9 0.993849 0.320202 0.303258
O O10 0.764707 0.319464 0.292407
O O11 0.500000 0.396948 0.500000
O O12 0.415997 0.252154 0.456682
O O13 0.224189 0.391051 0.533365
O O14 0.493975 0.396891 0.359946
O O15 0.735721 0.500000 0.288567
#
# Coordination Sequence:
#
# PCOD9201840 Si02
#       7
#     8   2   8   8   8   8   8
#     4  10  20  37  65 101 137 170 222 292 343 396
#     4  12  28  48  62 100 148 182 224 276 364 414
#     4  10  22  42  64  96 136 177 222 281 344 411
#     4  12  22  39  69 101 131 181 229 280 343 411
#     4  11  22  44  66  94 132 179 229 287 338 398
#     4  11  26  41  67  96 142 181 224 285 344 413
#     4  11  23  39  66 101 131 163 231 283 334 401
#
# _framework density 22.541432
#
# number of rings (size 3 to 8) (size 9 to 14) (size 15 to 20)
#    0.000    1.120    5.600    0.960    3.360    0.320 
#    0.000    0.000    0.000    2.400    0.000    0.000 
#    0.000    0.000    0.000    0.000    0.000    0.000 
#
# Total GULP energy -139328.047426 kJ/mol
# GULP energy per Si atom -5573.121897 kJ/mol
# Density = 2.249013 g / cm^3
# Si number density = 22.541432 Si / 1000 Ang^3
#
#
#
# Elastic Constant Matrix: (Units=GPa)
#
#
# Indices 1 2 3 4 5 6 
#
# 1 26.9651 16.5877 11.3978 0.0000 -4.9836 0.0000
# 2 16.5877 135.8417 13.7807 0.0000 -12.5325 0.0000
# 3 11.3978 13.7807 123.8102 0.0000 0.7171 0.0000
# 4 0.0000 0.0000 0.0000 21.5018 0.0000 -1.7763
# 5 -4.9836 -12.5325 0.7171 0.0000 29.8654 0.0000
# 6 0.0000 0.0000 0.0000 -1.7763 0.0000 5.1764
#
#
#
# Elastic Compliance Matrix: (Units=1/GPa)
#
#
# Indices 1 2 3 4 5 6 
#
# 1 0.042169 -0.004311 -0.003433 0.000000 0.005310 0.000000
# 2 -0.004311 0.008194 -0.000531 0.000000 0.002732 0.000000
# 3 -0.003433 -0.000531 0.008458 0.000000 -0.000999 0.000000
# 4 0.000000 0.000000 0.000000 0.047865 0.000000 0.016425
# 5 0.005310 0.002732 -0.000999 0.000000 0.035540 0.000000
# 6 0.000000 0.000000 0.000000 0.016425 0.000000 0.198821
#
#
# Mechanical properties :
#
#
# Convention : Reuss Voigt Hill
#
# Bulk Modulus (GPa) = 23.65695 41.12772 32.39233
# Shear Modulus (GPa) = 13.45216 27.63212 20.54214
#
# Velocity S-wave (km/s) = 2.44555 3.50499 3.02206
# Velocity P-wave (km/s) = 4.30022 5.88770 5.15543
#
# Compressibility (1/GPa) = 0.04227087
#
# Stress axis : x y z
#
# Youngs Moduli (GPa) = 23.71387 122.04293 118.23409
#
# Poissons Ratio (x) = 0.52615 0.40589
# Poissons Ratio (y) = 0.10223 0.06278
# Poissons Ratio (z) = 0.08141 0.06480
#
# Static dielectric constant tensor:
#      x y z
#    x 1.906790 0.000000 -0.024730 
#    y 0.000000 1.896660 0.000000 
#    z -0.024730 0.000000 1.870310 
# 
# From -- ./inp_files/262776.got.cif
#   From: 2010.05.17/outbox.cif.g08.bks.cpg/sg12_132_cif.got.tgz:262776.got - 2010.06.03 13:09:07.
