data_PCOD9201582
_publ_section_title
;
Structure prediction by ZEFSAII (Michael W. Deem and Ramdas Pophale) SiO2 
 PCOD9201582
Probable space group: C 2/M
;
_chemical_formula_sum "Si O2"
_cell_formula_units_Z 60
_cell_length_a 17.782201
_cell_length_b 7.591768
_cell_length_c 19.535325
_cell_angle_alpha 90.000000
_cell_angle_beta 71.139770
_cell_angle_gamma 90.000000
_cell_volume 2495.643220
_symmetry_space_group_name_H-M "C 2/M"
_symmetry_group_IT_number 12
_symmetry_cell_setting 'monoclinic'
loop_
_space_group_symop_operation_xyz
x,y,z
-x,y,-z
-x,-y,-z
x,-y,z
1/2+x,1/2+y,z
1/2-x,1/2+y,-z
1/2-x,1/2-y,-z
1/2+x,1/2-y,z
loop_
_atom_site_type_symbol
_atom_site_label
_atom_site_fract_x
_atom_site_fract_y
_atom_site_fract_z
Si Si1 0.045478 0.789860 0.330365
Si Si2 0.651220 0.713912 0.175416
Si Si3 0.158747 0.208476 0.022048
Si Si4 0.799090 0.500000 0.329411
Si Si5 0.308043 0.303967 0.210280
Si Si6 0.361807 0.295259 0.409438
Si Si7 0.909462 0.291426 0.538114
Si Si8 0.063251 0.695941 0.929331
O O1 0.086129 0.725043 0.249507
O O2 0.101953 0.745893 0.378529
O O3 0.954050 0.733417 0.367054
O O4 0.042310 0.000000 0.328510
O O5 0.656365 0.500000 0.175522
O O6 0.625273 0.760811 0.106193
O O7 0.736463 0.783703 0.176033
O O8 0.145729 0.000000 0.015002
O O9 0.250000 0.250000 0.000000
O O10 0.131760 0.315745 0.965076
O O11 0.797865 0.653611 0.269291
O O12 0.808950 0.656563 0.385056
O O13 0.303022 0.500000 0.241014
O O14 0.394140 0.283891 0.147539
O O15 0.352087 0.500000 0.392038
O O16 0.356543 0.286816 0.493665
O O17 0.908958 0.500000 0.528457
O O18 0.000000 0.223610 0.500000
O O19 0.034396 0.500000 0.918991
O O20 0.000000 0.785497 0.000000
#
# Coordination Sequence:
#
# PCOD9201582 Si02
#       8
#     8   8   8   4   8   8   8   8
#     4   9  19  34  59  96 130 163 207 261 319 381
#     4  10  21  41  63  91 129 164 208 268 316 369
#     4  11  22  37  65  93 124 164 212 261 313 376
#     4  12  24  42  62  90 130 170 210 262 309 384
#     4  12  25  43  67  90 120 169 218 259 318 377
#     4  10  20  37  62  94 130 170 211 254 321 382
#     4   9  16  30  55  89 128 167 204 256 317 377
#     4  11  24  44  66  94 129 167 210 263 320 380
#
# _framework density 24.041898
#
# number of rings (size 3 to 8) (size 9 to 14) (size 15 to 20)
#    0.000    1.600    3.333    1.600    0.933    4.800 
#    0.000    1.333    0.000    0.800    0.000    0.000 
#    0.000    0.000    0.000    0.000    0.000    0.000 
#
# Total GULP energy -167078.638257 kJ/mol
# GULP energy per Si atom -5569.287942 kJ/mol
# Density = 2.398718 g / cm^3
# Si number density = 24.041898 Si / 1000 Ang^3
#
#
#
# Elastic Constant Matrix: (Units=GPa)
#
#
# Indices 1 2 3 4 5 6 
#
# 1 29.3254 12.1358 -0.8435 0.0000 -15.8825 0.0000
# 2 12.1358 147.5478 35.9452 0.0000 7.3336 -0.0001
# 3 -0.8435 35.9452 104.5244 0.0000 4.4849 0.0000
# 4 0.0000 0.0000 0.0000 -0.0626 0.0000 2.7256
# 5 -15.8825 7.3336 4.4849 0.0000 29.6917 0.0000
# 6 0.0000 -0.0001 0.0000 2.7256 0.0000 8.8676
#
#
#
# Elastic Compliance Matrix: (Units=1/GPa)
#
#
# Indices 1 2 3 4 5 6 
#
# 1 0.052616 -0.006098 0.001258 0.000000 0.029461 0.000000
# 2 -0.006098 0.008167 -0.002648 0.000000 -0.004879 0.000000
# 3 0.001258 -0.002648 0.010499 0.000000 -0.000259 0.000000
# 4 0.000000 0.000000 0.000000 -1.110603 0.000000 0.341367
# 5 0.029461 -0.004879 -0.000259 0.000000 0.050683 0.000000
# 6 0.000000 0.000000 0.000000 0.341367 0.000000 0.007844
#
#
# Mechanical properties :
#
#
# Convention : Reuss Voigt Hill
#
# Bulk Modulus (GPa) = 17.76081 41.76364 29.76222
# Shear Modulus (GPa) = -5.27956 23.31002 9.01523
#
# Velocity S-wave (km/s) = -1.48349 3.11715 1.93854
# Velocity P-wave (km/s) = 2.11404 5.51039 4.17334
#
# Compressibility (1/GPa) = 0.05630375
#
# Stress axis : x y z
#
# Youngs Moduli (GPa) = 19.00565 122.44783 95.24580
#
# Poissons Ratio (x) = 0.74673 -0.11979
# Poissons Ratio (y) = 0.11590 0.25224
# Poissons Ratio (z) = -0.02390 0.32428
#
# Static dielectric constant tensor:
#      x y z
#    x 2.097820 0.000000 -0.088830 
#    y 0.000000 1.914960 0.000000 
#    z -0.088830 0.000000 1.946200 
# 
# From -- ./inp_files/281168.got.cif
#   From: 2010.05.17/outbox.cif.g08.bks.cpg/sg12_141_cif.got.tgz:281168.got - 2010.06.03 13:09:07.
