data_PCOD9201174
_publ_section_title
;
Structure prediction by ZEFSAII (Michael W. Deem and Ramdas Pophale) SiO2 
 PCOD9201174
Probable space group: C 2/M
;
_chemical_formula_sum "Si O2"
_cell_formula_units_Z 36
_cell_length_a 8.762404
_cell_length_b 31.946400
_cell_length_c 7.988320
_cell_angle_alpha 90.000000
_cell_angle_beta 52.763604
_cell_angle_gamma 90.000000
_cell_volume 1780.300052
_symmetry_space_group_name_H-M "C 2/M"
_symmetry_group_IT_number 12
_symmetry_cell_setting 'monoclinic'
loop_
_space_group_symop_operation_xyz
x,y,z
-x,y,-z
-x,-y,-z
x,-y,z
1/2+x,1/2+y,z
1/2-x,1/2+y,-z
1/2-x,1/2-y,-z
1/2+x,1/2-y,z
loop_
_atom_site_type_symbol
_atom_site_label
_atom_site_fract_x
_atom_site_fract_y
_atom_site_fract_z
Si Si1 0.451548 0.047944 0.334163
Si Si2 0.500000 0.254665 0.500000
Si Si3 0.122526 0.113837 0.567724
Si Si4 0.126740 0.802382 0.747569
Si Si5 0.626198 0.545981 0.085255
O O1 0.500000 0.049957 0.500000
O O2 0.301055 0.084582 0.397040
O O3 0.652165 0.053376 0.105091
O O4 0.382471 0.000000 0.347796
O O5 0.684060 0.225161 0.353445
O O6 0.524538 0.281400 0.653797
O O7 0.177693 0.150050 0.660771
O O8 0.000000 0.133870 0.500000
O O9 0.970223 0.081867 0.746302
O O10 0.000000 0.802311 0.000000
O O11 0.609637 0.500000 0.175878
O O12 0.500000 0.544554 0.000000
#
# Coordination Sequence:
#
# PCOD9201174 Si02
#       5
#     8   4   8   8   8
#     4  10  21  38  61  88 122 171 221 260 310 373
#     4  10  24  48  70  98 128 162 210 258 324 398
#     4  12  25  39  59  95 132 163 212 268 316 373
#     4  11  24  44  71  98 129 166 207 262 322 387
#     4  10  20  37  61  87 120 167 217 260 310 370
#
# _framework density 20.221309999999999
#
# number of rings (size 3 to 8) (size 9 to 14) (size 15 to 20)
#    0.000    1.333    3.333    2.000    1.556    2.667 
#    0.000    2.222    0.000    0.000    0.000    0.000 
#    0.000    0.000    0.000    0.000    0.000    0.000 
#
# Total GULP energy -100552.113592 kJ/mol
# GULP energy per Si atom -5586.228533 kJ/mol
# Density = 2.017529 g / cm^3
# Si number density = 20.221310 Si / 1000 Ang^3
#
#
#
# Elastic Constant Matrix: (Units=GPa)
#
#
# Indices 1 2 3 4 5 6 
#
# 1 94.6260 47.8537 31.4213 0.0000 -11.6912 0.0000
# 2 47.8537 140.9992 64.0946 0.0000 -23.2529 0.0000
# 3 31.4213 64.0946 87.2243 0.0000 -22.7092 0.0000
# 4 0.0000 0.0000 0.0000 19.6472 0.0000 16.5639
# 5 -11.6912 -23.2529 -22.7092 0.0000 23.3780 0.0000
# 6 0.0000 0.0000 0.0000 16.5639 0.0000 18.8462
#
#
#
# Elastic Compliance Matrix: (Units=1/GPa)
#
#
# Indices 1 2 3 4 5 6 
#
# 1 0.013057 -0.003348 -0.001888 0.000000 0.001366 0.000000
# 2 -0.003348 0.011795 -0.006482 0.000000 0.003761 0.000000
# 3 -0.001888 -0.006482 0.020056 0.000000 0.012091 0.000000
# 4 0.000000 0.000000 0.000000 0.196493 0.000000 -0.172698
# 5 0.001366 0.003761 0.012091 0.000000 0.058944 0.000000
# 6 0.000000 0.000000 0.000000 -0.172698 0.000000 0.204845
#
#
# Mechanical properties :
#
#
# Convention : Reuss Voigt Hill
#
# Bulk Modulus (GPa) = 46.57223 67.73208 57.15216
# Shear Modulus (GPa) = 9.33214 24.33961 16.83587
#
# Velocity S-wave (km/s) = 2.15059 3.47315 2.88858
# Velocity P-wave (km/s) = 5.40814 7.04640 6.28091
#
# Compressibility (1/GPa) = 0.02147202
#
# Stress axis : x y z
#
# Youngs Moduli (GPa) = 76.58967 84.77837 49.86060
#
# Poissons Ratio (x) = 0.28383 0.09412
# Poissons Ratio (y) = 0.25642 0.32321
# Poissons Ratio (z) = 0.14458 0.54956
#
# Static dielectric constant tensor:
#      x y z
#    x 1.838210 0.000000 0.059560 
#    y 0.000000 1.706070 0.000000 
#    z 0.059560 0.000000 1.697560 
# 
# From -- ./inp_files/41333.got.cif
#   From: 2010.05.17/outbox.cif.g08.bks.cpg/sg12_21_cif.got.tgz:41333.got - 2010.06.03 13:09:07.
