data_PCOD9201858
_publ_section_title
;
Structure prediction by ZEFSAII (Michael W. Deem and Ramdas Pophale) SiO2 
 PCOD9201858
Probable space group: C 2/M
;
_chemical_formula_sum "Si O2"
_cell_formula_units_Z 48
_cell_length_a 20.735768
_cell_length_b 8.931197
_cell_length_c 21.494661
_cell_angle_alpha 90.000000
_cell_angle_beta 138.219018
_cell_angle_gamma 90.000000
_cell_volume 2652.286434
_symmetry_space_group_name_H-M "C 2/M"
_symmetry_group_IT_number 12
_symmetry_cell_setting 'monoclinic'
loop_
_space_group_symop_operation_xyz
x,y,z
-x,y,-z
-x,-y,-z
x,-y,z
1/2+x,1/2+y,z
1/2-x,1/2+y,-z
1/2-x,1/2-y,-z
1/2+x,1/2-y,z
loop_
_atom_site_type_symbol
_atom_site_label
_atom_site_fract_x
_atom_site_fract_y
_atom_site_fract_z
Si Si1 0.967315 0.820680 0.284934
Si Si2 0.221864 0.321750 0.789887
Si Si3 0.986566 0.678875 0.813690
Si Si4 0.087785 0.679257 0.016059
Si Si5 0.763202 0.679727 0.686856
Si Si6 0.672348 0.319923 0.491090
O O1 0.873686 0.745975 0.247614
O O2 0.981986 0.766149 0.224917
O O3 0.064631 0.777680 0.392579
O O4 0.957785 0.000000 0.280069
O O5 0.218187 0.500000 0.788072
O O6 0.316146 0.263969 0.894641
O O7 0.232266 0.261845 0.727069
O O8 0.991941 0.500000 0.805752
O O9 0.875196 0.712890 0.751110
O O10 0.052430 0.712852 0.920933
O O11 0.104352 0.500000 0.033000
O O12 0.000000 0.715641 0.000000
O O13 0.756038 0.500000 0.691444
O O14 0.699392 0.721939 0.581034
O O15 0.680526 0.500000 0.492871
O O16 0.750000 0.250000 0.500000
#
# Coordination Sequence:
#
# PCOD9201858 Si02
#       6
#     8   8   8   8   8   8
#     4  11  24  41  61  89 126 163 200 247 303 359
#     4  12  26  41  60  89 124 161 203 254 304 352
#     4  10  20  37  65  93 120 157 200 246 298 360
#     4  10  20  39  65  91 119 158 201 244 302 364
#     4  10  20  39  64  90 122 160 200 245 300 362
#     4  10  21  37  63  93 121 158 201 246 297 357
#
# _framework density 18.097593
#
# number of rings (size 3 to 8) (size 9 to 14) (size 15 to 20)
#    0.000    1.500    3.333    2.000    0.000    4.333 
#    0.000    3.333    0.000    0.000    0.000    0.000 
#    0.000    0.000    0.000    0.000    0.000    0.000 
#
# Total GULP energy -134142.719468 kJ/mol
# GULP energy per Si atom -5589.279978 kJ/mol
# Density = 1.805640 g / cm^3
# Si number density = 18.097593 Si / 1000 Ang^3
#
#
#
# Elastic Constant Matrix: (Units=GPa)
#
#
# Indices 1 2 3 4 5 6 
#
# 1 167.3821 85.8509 114.2490 0.0000 6.1785 0.0000
# 2 85.8509 70.4404 83.5543 0.0000 2.4209 0.0000
# 3 114.2490 83.5543 183.5149 0.0000 -2.4788 0.0000
# 4 0.0000 0.0000 0.0000 18.5818 0.0000 -8.7298
# 5 6.1785 2.4209 -2.4788 0.0000 30.7420 0.0000
# 6 0.0000 0.0000 0.0000 -8.7298 0.0000 33.7848
#
#
#
# Elastic Compliance Matrix: (Units=1/GPa)
#
#
# Indices 1 2 3 4 5 6 
#
# 1 0.016559 -0.017052 -0.002575 0.000000 -0.002193 0.000000
# 2 -0.017052 0.048822 -0.011631 0.000000 -0.001355 0.000000
# 3 -0.002575 -0.011631 0.012380 0.000000 0.002432 0.000000
# 4 0.000000 0.000000 0.000000 0.061252 0.000000 0.015827
# 5 -0.002193 -0.001355 0.002432 0.000000 0.033272 0.000000
# 6 0.000000 0.000000 0.000000 0.015827 0.000000 0.033689
#
#
# Mechanical properties :
#
#
# Convention : Reuss Voigt Hill
#
# Bulk Modulus (GPa) = 65.59200 109.84953 87.72077
# Shear Modulus (GPa) = 18.27680 25.80058 22.03869
#
# Velocity S-wave (km/s) = 3.18134 3.77986 3.49344
# Velocity P-wave (km/s) = 7.05810 8.93756 8.05285
#
# Compressibility (1/GPa) = 0.01524576
#
# Stress axis : x y z
#
# Youngs Moduli (GPa) = 60.39141 20.48261 80.77240
#
# Poissons Ratio (x) = 0.34927 0.20796
# Poissons Ratio (y) = 1.02979 0.93947
# Poissons Ratio (z) = 0.15548 0.23823
#
# Static dielectric constant tensor:
#      x y z
#    x 1.575720 0.000000 -0.003020 
#    y 0.000000 1.605380 0.000000 
#    z -0.003020 0.000000 1.614290 
# 
# From -- ./inp_files/230402.got.cif
#   From: 2010.05.17/outbox.cif.g08.bks.cpg/sg12_116_cif.got.tgz:230402.got - 2010.06.03 13:09:07.
