data_PCOD9201604
_publ_section_title
;
Structure prediction by ZEFSAII (Michael W. Deem and Ramdas Pophale) SiO2 
 PCOD9201604
Probable space group: C 2/M
;
_chemical_formula_sum "Si O2"
_cell_formula_units_Z 48
_cell_length_a 20.585308
_cell_length_b 19.756780
_cell_length_c 16.638389
_cell_angle_alpha 90.000000
_cell_angle_beta 19.462471
_cell_angle_gamma 90.000000
_cell_volume 2254.633327
_symmetry_space_group_name_H-M "C 2/M"
_symmetry_group_IT_number 12
_symmetry_cell_setting 'monoclinic'
loop_
_space_group_symop_operation_xyz
x,y,z
-x,y,-z
-x,-y,-z
x,-y,z
1/2+x,1/2+y,z
1/2-x,1/2+y,-z
1/2-x,1/2-y,-z
1/2+x,1/2-y,z
loop_
_atom_site_type_symbol
_atom_site_label
_atom_site_fract_x
_atom_site_fract_y
_atom_site_fract_z
Si Si1 0.305030 0.167242 0.282537
Si Si2 0.129838 0.819274 0.239403
Si Si3 0.370668 0.683844 0.229763
Si Si4 0.038465 0.423825 0.118697
Si Si5 0.037361 0.575804 0.601838
Si Si6 0.705510 0.672138 0.959371
O O1 0.292022 0.241022 0.339488
O O2 0.352236 0.109278 0.292142
O O3 0.096190 0.162683 0.482497
O O4 0.500000 0.165310 0.000000
O O5 0.193498 0.742604 0.187313
O O6 0.279747 0.872813 0.102376
O O7 0.161750 0.822442 0.105350
O O8 0.208808 0.629779 0.396505
O O9 0.500000 0.691472 0.000000
O O10 0.507303 0.661897 0.142904
O O11 0.075503 0.500000 0.045429
O O12 0.004249 0.427449 0.253991
O O13 0.080215 0.500000 0.523349
O O14 0.851269 0.609801 0.777133
#
# Coordination Sequence:
#
# PCOD9201604 Si02
#       6
#     8   8   8   8   8   8
#     4  11  23  38  58  90 124 161 197 241 292 357
#     4  10  20  37  63  87 113 155 205 248 289 343
#     4  11  23  38  58  90 124 161 197 241 292 357
#     4  10  22  40  62  90 120 152 199 254 299 346
#     4  10  22  40  62  90 120 152 199 254 299 346
#     4  10  20  37  63  87 113 155 205 248 289 343
#
# _framework density 21.289494000000001
#
# number of rings (size 3 to 8) (size 9 to 14) (size 15 to 20)
#    0.000    1.667    3.333    1.000    0.000    4.667 
#    0.000    5.000    0.000    0.000    0.000    0.000 
#    0.000    0.000    0.000    0.000    0.000    0.000 
#
# Total GULP energy -134105.955308 kJ/mol
# GULP energy per Si atom -5587.748138 kJ/mol
# Density = 2.124104 g / cm^3
# Si number density = 21.289494 Si / 1000 Ang^3
#
#
#
# Elastic Constant Matrix: (Units=GPa)
#
#
# Indices 1 2 3 4 5 6 
#
# 1 19.1151 8.6448 -2.8703 -0.0303 -4.0828 0.0274
# 2 8.6448 130.7530 16.5218 -0.0053 0.3725 0.0330
# 3 -2.8703 16.5218 72.8965 -0.0276 -9.3444 0.0802
# 4 -0.0303 -0.0053 -0.0276 21.6914 0.0363 -11.3046
# 5 -4.0828 0.3725 -9.3444 0.0363 20.6001 -0.0444
# 6 0.0274 0.0330 0.0802 -11.3046 -0.0444 35.1168
#
#
#
# Elastic Compliance Matrix: (Units=1/GPa)
#
#
# Indices 1 2 3 4 5 6 
#
# 1 0.058097 -0.004525 0.005096 0.000054 0.013908 -0.000018
# 2 -0.004525 0.008246 -0.002316 -0.000005 -0.002096 -0.000003
# 3 0.005096 -0.002316 0.015478 -0.000002 0.008073 -0.000027
# 4 0.000054 -0.000005 -0.000002 0.055395 -0.000049 0.017832
# 5 0.013908 -0.002096 0.008073 -0.000049 0.055000 0.000026
# 6 -0.000018 -0.000003 -0.000027 0.017832 0.000026 0.034217
#
#
# Mechanical properties :
#
#
# Convention : Reuss Voigt Hill
#
# Bulk Modulus (GPa) = 12.76615 29.70635 21.23625
# Shear Modulus (GPa) = 19.52877 28.84620 24.18748
#
# Velocity S-wave (km/s) = 3.03198 3.68496 3.37430
# Velocity P-wave (km/s) = 4.27395 5.66472 5.01775
#
# Compressibility (1/GPa) = 0.07833218
#
# Stress axis : x y z
#
# Youngs Moduli (GPa) = 17.21262 121.27461 64.60581
#
# Poissons Ratio (x) = 0.54872 -0.32923
# Poissons Ratio (y) = 0.07788 0.14961
# Poissons Ratio (z) = -0.08771 0.28084
#
# Static dielectric constant tensor:
#      x y z
#    x 1.792370 -0.000010 0.036930 
#    y -0.000010 1.768020 0.000020 
#    z 0.036930 0.000020 1.779790 
# 
# From -- ./inp_files/25731.got.cif
#   From: 2010.05.17/outbox.cif.g08.bks.cpg/sg12_13_cif.got.tgz:25731.got - 2010.06.03 13:09:07.
