data_PCOD9201146
_publ_section_title
;
Structure prediction by ZEFSAII (Michael W. Deem and Ramdas Pophale) SiO2 
 PCOD9201146
Probable space group: C 2/M
;
_chemical_formula_sum "Si O2"
_cell_formula_units_Z 48
_cell_length_a 20.197506
_cell_length_b 11.275502
_cell_length_c 11.000606
_cell_angle_alpha 90.000000
_cell_angle_beta 72.029246
_cell_angle_gamma 90.000000
_cell_volume 2383.024645
_symmetry_space_group_name_H-M "C 2/M"
_symmetry_group_IT_number 12
_symmetry_cell_setting 'monoclinic'
loop_
_space_group_symop_operation_xyz
x,y,z
-x,y,-z
-x,-y,-z
x,-y,z
1/2+x,1/2+y,z
1/2-x,1/2+y,-z
1/2-x,1/2-y,-z
1/2+x,1/2-y,z
loop_
_atom_site_type_symbol
_atom_site_label
_atom_site_fract_x
_atom_site_fract_y
_atom_site_fract_z
Si Si1 0.644892 0.639237 0.839962
Si Si2 0.897371 0.367415 0.483003
Si Si3 0.262367 0.123234 0.434002
Si Si4 0.297890 0.751859 0.735466
Si Si5 0.394330 0.640053 0.873751
Si Si6 0.955191 0.138285 0.334926
O O1 0.656125 0.500000 0.844282
O O2 0.721085 0.695839 0.795336
O O3 0.599916 0.654404 0.743756
O O4 0.604228 0.676073 0.985482
O O5 0.928504 0.500000 0.480168
O O6 0.845667 0.379565 0.395286
O O7 0.847246 0.337512 0.626310
O O8 0.941106 0.247608 0.434665
O O9 0.250000 0.250000 0.500000
O O10 0.219487 0.135231 0.335100
O O11 0.239362 0.000000 0.509477
O O12 0.337356 0.715971 0.834336
O O13 0.376696 0.500000 0.877087
O O14 0.468418 0.652453 0.765721
O O15 0.948683 0.000000 0.383819
#
# Coordination Sequence:
#
# PCOD9201146 Si02
#       6
#     8   8   8   8   8   8
#     4  10  20  37  61  87 115 154 201 248 292 347
#     4  10  21  37  58  87 120 155 195 241 295 355
#     4   9  18  31  51  79 110 143 185 232 281 335
#     4  11  20  35  57  88 117 153 191 241 300 350
#     4  10  22  38  58  86 119 154 199 249 295 344
#     4  10  21  39  63  88 116 157 202 243 289 351
#
# _framework density 20.142468999999998
#
# number of rings (size 3 to 8) (size 9 to 14) (size 15 to 20)
#    0.000    2.000    1.667    2.000    0.000    6.667 
#    0.000    4.167    0.000    5.000    0.000    0.000 
#    0.000    0.000    0.000    0.000    0.000    0.000 
#
# Total GULP energy -133621.002511 kJ/mol
# GULP energy per Si atom -5567.541771 kJ/mol
# Density = 2.009662 g / cm^3
# Si number density = 20.142469 Si / 1000 Ang^3
#
#
#
# Elastic Constant Matrix: (Units=GPa)
#
#
# Indices 1 2 3 4 5 6 
#
# 1 82.2257 18.6744 -0.5299 0.0000 3.5274 0.0000
# 2 18.6744 106.3732 11.9665 0.0000 6.7711 0.0000
# 3 -0.5299 11.9665 25.9146 0.0000 -3.8206 0.0000
# 4 0.0000 0.0000 0.0000 17.2292 0.0000 -1.7706
# 5 3.5274 6.7711 -3.8206 0.0000 20.5172 0.0000
# 6 0.0000 0.0000 0.0000 -1.7706 0.0000 17.2854
#
#
#
# Elastic Compliance Matrix: (Units=1/GPa)
#
#
# Indices 1 2 3 4 5 6 
#
# 1 0.012741 -0.002287 0.001136 0.000000 -0.001224 0.000000
# 2 -0.002287 0.010699 -0.005604 0.000000 -0.004181 0.000000
# 3 0.001136 -0.005604 0.042613 0.000000 0.009589 0.000000
# 4 0.000000 0.000000 0.000000 0.058658 0.000000 0.006009
# 5 -0.001224 -0.004181 0.009589 0.000000 0.052115 0.000000
# 6 0.000000 0.000000 0.000000 0.006009 0.000000 0.058468
#
#
# Mechanical properties :
#
#
# Convention : Reuss Voigt Hill
#
# Bulk Modulus (GPa) = 19.03171 30.52617 24.77894
# Shear Modulus (GPa) = 18.77463 23.29989 21.03726
#
# Velocity S-wave (km/s) = 3.05633 3.40480 3.23526
# Velocity P-wave (km/s) = 4.68230 5.53578 5.12683
#
# Compressibility (1/GPa) = 0.05254387
#
# Stress axis : x y z
#
# Youngs Moduli (GPa) = 78.48805 93.46849 23.46718
#
# Poissons Ratio (x) = 0.21372 -0.02666
# Poissons Ratio (y) = 0.17947 0.13150
# Poissons Ratio (z) = -0.08915 0.52375
#
# Static dielectric constant tensor:
#      x y z
#    x 1.726680 0.000000 0.007630 
#    y 0.000000 1.763610 0.000000 
#    z 0.007630 0.000000 1.787520 
# 
# From -- ./inp_files/164047.got.cif
#   From: 2010.05.17/outbox.cif.g08.bks.cpg/sg12_83_cif.got.tgz:164047.got - 2010.06.03 13:09:07.
