data_PCOD9201596
_publ_section_title
;
Structure prediction by ZEFSAII (Michael W. Deem and Ramdas Pophale) SiO2 
 PCOD9201596
Probable space group: C 2/M
;
_chemical_formula_sum "Si O2"
_cell_formula_units_Z 44
_cell_length_a 10.023923
_cell_length_b 15.275711
_cell_length_c 19.157271
_cell_angle_alpha 90.000000
_cell_angle_beta 40.591298
_cell_angle_gamma 90.000000
_cell_volume 1908.649434
_symmetry_space_group_name_H-M "C 2/M"
_symmetry_group_IT_number 12
_symmetry_cell_setting 'monoclinic'
loop_
_space_group_symop_operation_xyz
x,y,z
-x,y,-z
-x,-y,-z
x,-y,z
1/2+x,1/2+y,z
1/2-x,1/2+y,-z
1/2-x,1/2-y,-z
1/2+x,1/2-y,z
loop_
_atom_site_type_symbol
_atom_site_label
_atom_site_fract_x
_atom_site_fract_y
_atom_site_fract_z
Si Si1 0.044705 0.821724 0.171283
Si Si2 0.069856 0.500000 0.811985
Si Si3 0.767894 0.312948 0.225280
Si Si4 0.245606 0.000000 0.412632
Si Si5 0.711358 0.000000 0.962138
Si Si6 0.367123 0.341295 0.452239
Si Si7 0.695707 0.098915 0.384857
O O1 0.149581 0.786727 0.201184
O O2 0.981928 0.740140 0.147862
O O3 0.810837 0.854717 0.277726
O O4 0.166710 0.909326 0.101297
O O5 0.171805 0.413949 0.802813
O O6 0.117143 0.500000 0.710750
O O7 0.843886 0.500000 0.933605
O O8 0.608817 0.315414 0.355501
O O9 0.257296 0.092504 0.448190
O O10 0.000000 0.000000 0.500000
O O11 0.500000 0.000000 0.000000
O O12 0.250000 0.250000 0.500000
O O13 0.356266 0.395887 0.384334
O O14 0.500000 0.140421 0.500000
O O15 0.642876 0.000000 0.386427
#
# Coordination Sequence:
#
# PCOD9201596 Si02
#       7
#     8   4   8   4   4   8   8
#     4  11  24  45  74 108 142 186 244 295 360 427
#     4  12  26  46  69  99 136 192 247 284 358 424
#     4  11  24  43  72 108 141 188 240 299 354 437
#     4  12  24  40  66  95 138 181 234 283 344 433
#     4  12  24  50  79  98 133 202 243 297 352 440
#     4  11  23  39  64 101 146 188 224 282 367 428
#     4  10  20  37  63 100 137 182 231 282 346 434
#
# _framework density 23.052951
#
# number of rings (size 3 to 8) (size 9 to 14) (size 15 to 20)
#    0.000    0.909    5.455    1.091    7.636    1.455 
#    0.000    0.909    0.000    1.091    0.000    0.000 
#    0.000    0.000    0.000    0.000    0.000    0.000 
#
# Total GULP energy -122511.820246 kJ/mol
# GULP energy per Si atom -5568.719102 kJ/mol
# Density = 2.300048 g / cm^3
# Si number density = 23.052951 Si / 1000 Ang^3
#
#
#
# Elastic Constant Matrix: (Units=GPa)
#
#
# Indices 1 2 3 4 5 6 
#
# 1 57.8930 49.3608 14.0120 -0.0001 -7.5901 0.0004
# 2 49.3608 156.5801 40.9284 0.0001 -12.9436 0.0002
# 3 14.0120 40.9284 103.0211 0.0002 -3.5529 0.0002
# 4 -0.0001 0.0001 0.0002 29.0518 0.0000 -12.4042
# 5 -7.5901 -12.9436 -3.5529 0.0000 33.0720 -0.0003
# 6 0.0004 0.0002 0.0002 -12.4042 -0.0003 18.5100
#
#
#
# Elastic Compliance Matrix: (Units=1/GPa)
#
#
# Indices 1 2 3 4 5 6 
#
# 1 0.023847 -0.007228 -0.000282 0.000000 0.002614 0.000000
# 2 -0.007228 0.009528 -0.002741 0.000000 0.001776 0.000000
# 3 -0.000282 -0.002741 0.010835 0.000000 0.000026 0.000000
# 4 0.000000 0.000000 0.000000 0.048218 0.000000 0.032312
# 5 0.002614 0.001776 0.000026 0.000000 0.031535 0.000000
# 6 0.000000 0.000000 0.000000 0.032312 0.000000 0.075678
#
#
# Mechanical properties :
#
#
# Convention : Reuss Voigt Hill
#
# Bulk Modulus (GPa) = 42.17879 58.45518 50.31698
# Shear Modulus (GPa) = 21.92552 30.33964 26.13258
#
# Velocity S-wave (km/s) = 3.08733 3.63172 3.37053
# Velocity P-wave (km/s) = 5.57180 6.55727 6.08452
#
# Compressibility (1/GPa) = 0.02370860
#
# Stress axis : x y z
#
# Youngs Moduli (GPa) = 41.93452 104.95032 92.29362
#
# Poissons Ratio (x) = 0.75856 0.02601
# Poissons Ratio (y) = 0.30309 0.25299
# Poissons Ratio (z) = 0.01182 0.28768
#
# Static dielectric constant tensor:
#      x y z
#    x 1.953220 0.000000 0.016620 
#    y 0.000000 1.922420 0.000000 
#    z 0.016620 0.000000 1.975870 
# 
# From -- ./inp_files/305329.got.cif
#   From: 2010.05.17/outbox.cif.g08.bks.cpg/sg12_153_cif.got.tgz:305329.got - 2010.06.03 13:09:07.
