data_PCOD9201087
_publ_section_title
;
Structure prediction by ZEFSAII (Michael W. Deem and Ramdas Pophale) SiO2 
 PCOD9201087
Probable space group: C 2/M
;
_chemical_formula_sum "Si O2"
_cell_formula_units_Z 48
_cell_length_a 15.531225
_cell_length_b 8.484580
_cell_length_c 27.814974
_cell_angle_alpha 90.000000
_cell_angle_beta 135.824779
_cell_angle_gamma 90.000000
_cell_volume 2554.213135
_symmetry_space_group_name_H-M "C 2/M"
_symmetry_group_IT_number 12
_symmetry_cell_setting 'monoclinic'
loop_
_space_group_symop_operation_xyz
x,y,z
-x,y,-z
-x,-y,-z
x,-y,z
1/2+x,1/2+y,z
1/2-x,1/2+y,-z
1/2-x,1/2-y,-z
1/2+x,1/2-y,z
loop_
_atom_site_type_symbol
_atom_site_label
_atom_site_fract_x
_atom_site_fract_y
_atom_site_fract_z
Si Si1 0.978357 0.811640 0.671811
Si Si2 0.472637 0.190221 0.411826
Si Si3 0.650741 0.188361 0.825169
Si Si4 0.874199 0.690536 0.075301
Si Si5 0.197131 0.691924 0.568319
Si Si6 0.574130 0.190332 0.078113
O O1 0.037269 0.755338 0.645429
O O2 0.056324 0.754641 0.748390
O O3 0.836567 0.752076 0.617599
O O4 0.975183 0.000000 0.670769
O O5 0.602319 0.241169 0.488385
O O6 0.365124 0.238793 0.405957
O O7 0.472396 0.000000 0.409876
O O8 0.622237 0.244489 0.868088
O O9 0.789911 0.238922 0.868311
O O10 0.642821 0.000000 0.821645
O O11 0.870910 0.500000 0.073600
O O12 0.991732 0.739982 0.090638
O O13 0.750000 0.750000 0.000000
O O14 0.198026 0.500000 0.568102
O O15 0.584497 0.000000 0.082568
O O16 0.500000 0.234950 0.000000
#
# Coordination Sequence:
#
# PCOD9201087 Si02
#       6
#     8   8   8   8   8   8
#     4  11  22  36  54  80 115 150 186 229 281 332
#     4   9  17  35  60  84 111 146 189 231 273 328
#     4  11  24  39  55  81 113 148 189 230 274 330
#     4  10  21  37  59  84 110 140 179 225 275 330
#     4   8  17  34  58  84 112 148 187 227 276 333
#     4  10  20  37  61  85 111 141 175 224 283 333
#
# _framework density 18.792480000000001
#
# number of rings (size 3 to 8) (size 9 to 14) (size 15 to 20)
#    0.000    2.167    1.667    2.500    0.000    3.000 
#    0.000    7.500    0.000    0.000    0.000    0.000 
#    0.000    0.000    0.000    0.000    0.000    0.000 
#
# Total GULP energy -134005.705530 kJ/mol
# GULP energy per Si atom -5583.571064 kJ/mol
# Density = 1.874971 g / cm^3
# Si number density = 18.792480 Si / 1000 Ang^3
#
#
#
# Elastic Constant Matrix: (Units=GPa)
#
#
# Indices 1 2 3 4 5 6 
#
# 1 127.9056 17.8666 43.0764 0.0000 -27.7860 0.0000
# 2 17.8666 15.2828 12.2084 0.0000 -5.7642 0.0000
# 3 43.0764 12.2084 64.4511 0.0000 -30.8526 0.0000
# 4 0.0000 0.0000 0.0000 12.4770 0.0000 -1.9354
# 5 -27.7860 -5.7642 -30.8526 0.0000 32.5634 0.0000
# 6 0.0000 0.0000 0.0000 -1.9354 0.0000 22.1865
#
#
#
# Elastic Compliance Matrix: (Units=1/GPa)
#
#
# Indices 1 2 3 4 5 6 
#
# 1 0.011247 -0.008445 -0.003731 0.000000 0.004567 0.000000
# 2 -0.008445 0.083443 -0.011969 0.000000 -0.003775 0.000000
# 3 -0.003731 -0.011969 0.032461 0.000000 0.025453 0.000000
# 4 0.000000 0.000000 0.000000 0.081247 0.000000 0.007087
# 5 0.004567 -0.003775 0.025453 0.000000 0.058053 0.000000
# 6 0.000000 0.000000 0.000000 0.007087 0.000000 0.045691
#
#
# Mechanical properties :
#
#
# Convention : Reuss Voigt Hill
#
# Bulk Modulus (GPa) = 12.68062 39.32694 26.00378
# Shear Modulus (GPa) = 12.92932 22.41126 17.67029
#
# Velocity S-wave (km/s) = 2.62583 3.45710 3.06973
# Velocity P-wave (km/s) = 3.99446 6.07518 5.14118
#
# Compressibility (1/GPa) = 0.07886050
#
# Stress axis : x y z
#
# Youngs Moduli (GPa) = 88.91650 11.98421 30.80653
#
# Poissons Ratio (x) = 0.10121 0.11494
# Poissons Ratio (y) = 0.75091 0.36872
# Poissons Ratio (z) = 0.33174 0.14344
#
# Static dielectric constant tensor:
#      x y z
#    x 1.653010 0.000000 -0.001850 
#    y 0.000000 1.644580 0.000000 
#    z -0.001850 0.000000 1.615920 
# 
# From -- ./inp_files/375156.got.cif
#   From: 2010.05.17/outbox.cif.g08.bks.cpg/sg12_188_cif.got.tgz:375156.got - 2010.06.03 13:09:07.
