data_PCOD9201001
_publ_section_title
;
Structure prediction by ZEFSAII (Michael W. Deem and Ramdas Pophale) SiO2 
 PCOD9201001
Probable space group: C 2/M
;
_chemical_formula_sum "Si O2"
_cell_formula_units_Z 64
_cell_length_a 14.114154
_cell_length_b 15.461745
_cell_length_c 13.850922
_cell_angle_alpha 90.000000
_cell_angle_beta 75.864332
_cell_angle_gamma 90.000000
_cell_volume 2931.152885
_symmetry_space_group_name_H-M "C 2/M"
_symmetry_group_IT_number 12
_symmetry_cell_setting 'monoclinic'
loop_
_space_group_symop_operation_xyz
x,y,z
-x,y,-z
-x,-y,-z
x,-y,z
1/2+x,1/2+y,z
1/2-x,1/2+y,-z
1/2-x,1/2-y,-z
1/2+x,1/2-y,z
loop_
_atom_site_type_symbol
_atom_site_label
_atom_site_fract_x
_atom_site_fract_y
_atom_site_fract_z
Si Si1 0.584078 0.605008 0.900630
Si Si2 0.056503 0.650981 0.586730
Si Si3 0.790140 0.394239 0.941246
Si Si4 0.365531 0.398088 0.664101
Si Si5 0.927417 0.163250 0.312636
Si Si6 0.512958 0.900873 0.200075
Si Si7 0.729470 0.351987 0.507851
Si Si8 0.310068 0.106048 0.158496
O O1 0.582484 0.500000 0.884333
O O2 0.688478 0.631208 0.918455
O O3 0.569813 0.652354 0.802472
O O4 0.500000 0.623407 0.000000
O O5 0.070071 0.741516 0.640610
O O6 0.163166 0.610006 0.539343
O O7 0.000000 0.661963 0.500000
O O8 0.996751 0.599313 0.682202
O O9 0.789067 0.500000 0.939601
O O10 0.885823 0.361035 0.861193
O O11 0.797893 0.368053 0.050845
O O12 0.352690 0.500000 0.668113
O O13 0.473440 0.378366 0.672394
O O14 0.343882 0.368575 0.561572
O O15 0.280441 0.361418 0.754651
O O16 0.827662 0.122633 0.381115
O O17 0.413321 0.865207 0.177768
O O18 0.515666 0.000000 0.165211
O O19 0.750000 0.250000 0.500000
O O20 0.308734 0.000000 0.161303
#
# Coordination Sequence:
#
# PCOD9201001 Si02
#       8
#     8   8   8   8   8   8   8   8
#     4  10  21  39  62  91 126 161 199 251 315 373
#     4  11  24  42  63  86 121 167 204 252 316 371
#     4   9  18  33  57  88 120 156 197 246 305 364
#     4  11  21  37  63  94 122 153 208 266 307 359
#     4  11  23  39  61  87 121 165 206 243 304 376
#     4  10  20  37  60  89 119 157 208 258 305 364
#     4  10  22  40  59  84 119 163 203 248 308 371
#     4   9  17  33  59  89 121 155 194 250 311 360
#
# _framework density 21.834413000000001
#
# number of rings (size 3 to 8) (size 9 to 14) (size 15 to 20)
#    0.000    1.875    1.250    3.375    1.750    5.250 
#    0.000    1.250    0.000    2.250    0.000    0.000 
#    0.000    0.000    0.000    0.000    0.000    0.000 
#
# Total GULP energy -178726.426002 kJ/mol
# GULP energy per Si atom -5585.200813 kJ/mol
# Density = 2.178472 g / cm^3
# Si number density = 21.834413 Si / 1000 Ang^3
#
#
#
# Elastic Constant Matrix: (Units=GPa)
#
#
# Indices 1 2 3 4 5 6 
#
# 1 111.6855 26.2234 87.3147 0.0000 9.0177 0.0000
# 2 26.2234 30.2193 21.4677 0.0000 2.7632 0.0000
# 3 87.3147 21.4677 161.9083 0.0000 1.9573 0.0000
# 4 0.0000 0.0000 0.0000 22.4438 0.0000 0.9778
# 5 9.0177 2.7632 1.9573 0.0000 46.9393 0.0000
# 6 0.0000 0.0000 0.0000 0.9778 0.0000 14.3517
#
#
#
# Elastic Compliance Matrix: (Units=1/GPa)
#
#
# Indices 1 2 3 4 5 6 
#
# 1 0.017914 -0.009353 -0.008390 0.000000 -0.002541 0.000000
# 2 -0.009353 0.041595 -0.000464 0.000000 -0.000632 0.000000
# 3 -0.008390 -0.000464 0.010748 0.000000 0.001191 0.000000
# 4 0.000000 0.000000 0.000000 0.044688 0.000000 -0.003045
# 5 -0.002541 -0.000632 0.001191 0.000000 0.021780 0.000000
# 6 0.000000 0.000000 0.000000 -0.003045 0.000000 0.069886
#
#
# Mechanical properties :
#
#
# Convention : Reuss Voigt Hill
#
# Bulk Modulus (GPa) = 29.54730 63.75829 46.65280
# Shear Modulus (GPa) = 19.66144 28.00078 23.83111
#
# Velocity S-wave (km/s) = 3.00405 3.58497 3.30729
# Velocity P-wave (km/s) = 5.05908 6.81177 5.99977
#
# Compressibility (1/GPa) = 0.03384404
#
# Stress axis : x y z
#
# Youngs Moduli (GPa) = 55.82192 24.04151 93.04039
#
# Poissons Ratio (x) = 0.22485 0.78061
# Poissons Ratio (y) = 0.52209 0.04314
# Poissons Ratio (z) = 0.46835 0.01115
#
# Static dielectric constant tensor:
#      x y z
#    x 1.778380 0.000000 -0.047000 
#    y 0.000000 1.862220 0.000000 
#    z -0.047000 0.000000 1.782990 
# 
# From -- ./inp_files/147615.got.cif
#   From: 2010.05.17/outbox.cif.g08.bks.cpg/sg12_74_cif.got.tgz:147615.got - 2010.06.03 13:09:07.
