data_PCOD9201567
_publ_section_title
;
Structure prediction by ZEFSAII (Michael W. Deem and Ramdas Pophale) SiO2 
 PCOD9201567
Probable space group: C 2/M
;
_chemical_formula_sum "Si O2"
_cell_formula_units_Z 48
_cell_length_a 9.905296
_cell_length_b 30.401543
_cell_length_c 9.600509
_cell_angle_alpha 90.000000
_cell_angle_beta 119.299489
_cell_angle_gamma 90.000000
_cell_volume 2521.218594
_symmetry_space_group_name_H-M "C 2/M"
_symmetry_group_IT_number 12
_symmetry_cell_setting 'monoclinic'
loop_
_space_group_symop_operation_xyz
x,y,z
-x,y,-z
-x,-y,-z
x,-y,z
1/2+x,1/2+y,z
1/2-x,1/2+y,-z
1/2-x,1/2-y,-z
1/2+x,1/2-y,z
loop_
_atom_site_type_symbol
_atom_site_label
_atom_site_fract_x
_atom_site_fract_y
_atom_site_fract_z
Si Si1 0.164585 0.126109 0.901301
Si Si2 0.337870 0.551598 0.333907
Si Si3 0.202136 0.128938 0.235834
Si Si4 0.326331 0.048041 0.468775
Si Si5 0.138718 0.224850 0.837646
Si Si6 0.725249 0.274668 0.342442
O O1 0.187012 0.085851 0.805058
O O2 0.193805 0.174329 0.852454
O O3 0.982711 0.128266 0.844074
O O4 0.245595 0.124844 0.094258
O O5 0.500000 0.560650 0.500000
O O6 0.342776 0.500000 0.291897
O O7 0.202947 0.556133 0.382164
O O8 0.252918 0.086772 0.345722
O O9 0.260938 0.173530 0.339726
O O10 0.500000 0.045978 0.500000
O O11 0.252556 0.000000 0.404691
O O12 0.165246 0.249005 0.707076
O O13 0.958263 0.227983 0.788437
O O14 0.250000 0.250000 0.000000
O O15 0.750000 0.250000 0.500000
#
# Coordination Sequence:
#
# PCOD9201567 Si02
#       6
#     8   8   8   8   8   8
#     4  10  21  37  63  87 120 160 201 255 302 356
#     4  10  20  37  62  93 120 153 207 256 300 363
#     4  10  21  39  58  88 121 159 203 247 307 366
#     4  10  22  40  60  86 125 160 191 248 313 366
#     4  11  22  42  60  85 127 164 201 255 314 364
#     4  11  24  39  62  91 119 160 211 259 303 368
#
# _framework density 19.038414
#
# number of rings (size 3 to 8) (size 9 to 14) (size 15 to 20)
#    0.000    1.667    3.333    1.000    2.333    2.000 
#    0.000    2.500    0.000    3.000    0.000    0.000 
#    0.000    0.000    0.000    0.000    0.000    0.000 
#
# Total GULP energy -133754.656773 kJ/mol
# GULP energy per Si atom -5573.110699 kJ/mol
# Density = 1.899508 g / cm^3
# Si number density = 19.038414 Si / 1000 Ang^3
#
#
#
# Elastic Constant Matrix: (Units=GPa)
#
#
# Indices 1 2 3 4 5 6 
#
# 1 58.8783 20.9358 2.8621 0.0000 -16.1626 0.0000
# 2 20.9358 184.3106 75.4938 0.0000 -19.4444 0.0000
# 3 2.8621 75.4938 74.9409 0.0000 -13.8689 0.0000
# 4 0.0000 0.0000 0.0000 23.5955 0.0000 -17.9952
# 5 -16.1626 -19.4444 -13.8689 0.0000 27.1020 0.0000
# 6 0.0000 0.0000 0.0000 -17.9952 0.0000 15.6960
#
#
#
# Elastic Compliance Matrix: (Units=1/GPa)
#
#
# Indices 1 2 3 4 5 6 
#
# 1 0.021355 -0.002906 0.004510 0.000000 0.012959 0.000000
# 2 -0.002906 0.009738 -0.009639 0.000000 0.000321 0.000000
# 3 0.004510 -0.009639 0.024412 0.000000 0.008266 0.000000
# 4 0.000000 0.000000 0.000000 0.337360 0.000000 0.386779
# 5 0.012959 0.000321 0.008266 0.000000 0.049086 0.000000
# 6 0.000000 0.000000 0.000000 0.386779 0.000000 0.507148
#
#
# Mechanical properties :
#
#
# Convention : Reuss Voigt Hill
#
# Bulk Modulus (GPa) = 25.35853 57.41259 41.38556
# Shear Modulus (GPa) = 5.11083 27.86789 16.48936
#
# Velocity S-wave (km/s) = 1.64022 3.83008 2.94617
# Velocity P-wave (km/s) = 4.11530 7.05556 5.77567
#
# Compressibility (1/GPa) = 0.03943447
#
# Stress axis : x y z
#
# Youngs Moduli (GPa) = 46.82637 102.69222 40.96372
#
# Poissons Ratio (x) = 0.29842 -0.18474
# Poissons Ratio (y) = 0.13608 0.39486
# Poissons Ratio (z) = -0.21119 0.98989
#
# Static dielectric constant tensor:
#      x y z
#    x 1.678030 0.000000 0.035730 
#    y 0.000000 1.675470 0.000000 
#    z 0.035730 0.000000 1.726280 
# 
# From -- ./inp_files/52786.got.cif
#   From: 2010.05.17/outbox.cif.g08.bks.cpg/sg12_27_cif.got.tgz:52786.got - 2010.06.03 13:09:07.
