data_PCOD9201799
_publ_section_title
;
Structure prediction by ZEFSAII (Michael W. Deem and Ramdas Pophale) SiO2 
 PCOD9201799
Probable space group: C 2/M
;
_chemical_formula_sum "Si O2"
_cell_formula_units_Z 64
_cell_length_a 26.390605
_cell_length_b 14.651090
_cell_length_c 11.788787
_cell_angle_alpha 90.000000
_cell_angle_beta 141.178690
_cell_angle_gamma 90.000000
_cell_volume 2857.473808
_symmetry_space_group_name_H-M "C 2/M"
_symmetry_group_IT_number 12
_symmetry_cell_setting 'monoclinic'
loop_
_space_group_symop_operation_xyz
x,y,z
-x,y,-z
-x,-y,-z
x,-y,z
1/2+x,1/2+y,z
1/2-x,1/2+y,-z
1/2-x,1/2-y,-z
1/2+x,1/2-y,z
loop_
_atom_site_type_symbol
_atom_site_label
_atom_site_fract_x
_atom_site_fract_y
_atom_site_fract_z
Si Si1 0.964298 0.302447 0.124254
Si Si2 0.080068 0.355371 0.700554
Si Si3 0.639852 0.891051 0.439619
Si Si4 0.674154 0.890977 0.250100
Si Si5 0.372240 0.655835 0.215871
Si Si6 0.326077 0.394471 0.379316
Si Si7 0.231297 0.602740 0.827769
Si Si8 0.507474 0.395581 0.758170
O O1 0.931010 0.345222 0.184751
O O2 0.056494 0.336474 0.282602
O O3 0.957705 0.192188 0.115119
O O4 0.908813 0.342841 0.929587
O O5 0.093178 0.251533 0.682492
O O6 0.160474 0.402557 0.797281
O O7 0.000000 0.392302 0.500000
O O8 0.689365 0.878196 0.410146
O O9 0.689673 0.865868 0.638946
O O10 0.621366 0.000000 0.418313
O O11 0.747625 0.852975 0.301915
O O12 0.663024 0.000000 0.211484
O O13 0.330630 0.611540 0.251795
O O14 0.444912 0.604966 0.278969
O O15 0.301807 0.665762 0.999252
O O16 0.320809 0.500000 0.402256
O O17 0.414494 0.367253 0.576528
O O18 0.265184 0.500000 0.870212
O O19 0.512540 0.500000 0.812084
#
# Coordination Sequence:
#
# PCOD9201799 Si02
#       8
#     8   8   8   8   8   8   8   8
#     4  11  21  38  64  95 126 161 208 254 312 371
#     4  11  22  38  59  90 128 165 201 250 309 370
#     4  10  22  41  65  92 126 166 205 254 313 375
#     4  10  22  41  68  96 121 157 209 264 312 365
#     4  11  21  37  63  93 125 163 207 248 305 367
#     4  10  20  37  64  94 124 158 206 261 308 358
#     4  11  23  37  59  91 129 165 200 249 313 378
#     4  10  22  40  63  91 127 167 207 254 308 368
#
# _framework density 22.397404999999999
#
# number of rings (size 3 to 8) (size 9 to 14) (size 15 to 20)
#    0.000    1.500    1.250    4.875    0.000    5.250 
#    0.000    0.625    5.500    1.500    0.000    0.000 
#    0.000    0.000    0.000    0.000    0.000    0.000 
#
# Total GULP energy -178794.097930 kJ/mol
# GULP energy per Si atom -5587.315560 kJ/mol
# Density = 2.234643 g / cm^3
# Si number density = 22.397405 Si / 1000 Ang^3
#
#
#
# Elastic Constant Matrix: (Units=GPa)
#
#
# Indices 1 2 3 4 5 6 
#
# 1 69.6027 30.9163 36.0520 0.0000 11.6024 0.0000
# 2 30.9163 86.1084 26.5470 0.0000 0.7936 0.0000
# 3 36.0520 26.5470 91.5158 0.0000 11.3195 0.0000
# 4 0.0000 0.0000 0.0000 -0.1208 0.0000 -17.4732
# 5 11.6024 0.7936 11.3195 0.0000 30.0795 0.0000
# 6 0.0000 0.0000 0.0000 -17.4732 0.0000 3.2293
#
#
#
# Elastic Compliance Matrix: (Units=1/GPa)
#
#
# Indices 1 2 3 4 5 6 
#
# 1 0.020860 -0.005623 -0.005883 0.000000 -0.005684 0.000000
# 2 -0.005623 0.014305 -0.002261 0.000000 0.002643 0.000000
# 3 -0.005883 -0.002261 0.014277 0.000000 -0.003044 0.000000
# 4 0.000000 0.000000 0.000000 -0.010564 0.000000 -0.057158
# 5 -0.005684 0.002643 -0.003044 0.000000 0.036513 0.000000
# 6 0.000000 0.000000 0.000000 -0.057158 0.000000 0.000395
#
#
# Mechanical properties :
#
#
# Convention : Reuss Voigt Hill
#
# Bulk Modulus (GPa) = 45.64890 48.25084 46.94987
# Shear Modulus (GPa) = 45.19775 16.88504 31.04139
#
# Velocity S-wave (km/s) = 4.49708 2.74867 3.72686
# Velocity P-wave (km/s) = 6.88408 5.62703 6.28705
#
# Compressibility (1/GPa) = 0.02190633
#
# Stress axis : x y z
#
# Youngs Moduli (GPa) = 47.93883 69.90546 70.04165
#
# Poissons Ratio (x) = 0.39310 0.41208
# Poissons Ratio (y) = 0.26958 0.15838
# Poissons Ratio (z) = 0.28204 0.15807
#
# Static dielectric constant tensor:
#      x y z
#    x 1.857240 0.000000 0.021790 
#    y 0.000000 1.839380 0.000000 
#    z 0.021790 0.000000 1.781170 
# 
# From -- ./inp_files/183814.got.cif
#   From: 2010.05.17/outbox.cif.g08.bks.cpg/sg12_92_cif.got.tgz:183814.got - 2010.06.03 13:09:07.
