data_PCOD9201240
_publ_section_title
;
Structure prediction by ZEFSAII (Michael W. Deem and Ramdas Pophale) SiO2 
 PCOD9201240
Probable space group: C 2/M
;
_chemical_formula_sum "Si O2"
_cell_formula_units_Z 56
_cell_length_a 29.876309
_cell_length_b 8.287385
_cell_length_c 12.973676
_cell_angle_alpha 90.000000
_cell_angle_beta 121.327154
_cell_angle_gamma 90.000000
_cell_volume 2743.932590
_symmetry_space_group_name_H-M "C 2/M"
_symmetry_group_IT_number 12
_symmetry_cell_setting 'monoclinic'
loop_
_space_group_symop_operation_xyz
x,y,z
-x,y,-z
-x,-y,-z
x,-y,z
1/2+x,1/2+y,z
1/2-x,1/2+y,-z
1/2-x,1/2-y,-z
1/2+x,1/2-y,z
loop_
_atom_site_type_symbol
_atom_site_label
_atom_site_fract_x
_atom_site_fract_y
_atom_site_fract_z
Si Si1 0.945799 0.304914 0.491735
Si Si2 0.861656 0.692583 0.225067
Si Si3 0.784731 0.688848 0.446886
Si Si4 0.744291 0.310090 0.811485
Si Si5 0.862675 0.302498 0.997352
Si Si6 0.440119 0.804399 0.907737
Si Si7 0.601374 0.689006 0.361799
O O1 0.942801 0.500000 0.498734
O O2 0.898231 0.246632 0.361500
O O3 0.939499 0.230459 0.596769
O O4 0.000000 0.266598 0.500000
O O5 0.868597 0.500000 0.232752
O O6 0.801190 0.728678 0.176158
O O7 0.877062 0.751848 0.129921
O O8 0.775548 0.500000 0.418497
O O9 0.750000 0.750000 0.500000
O O10 0.769613 0.780361 0.324439
O O11 0.845316 0.717427 0.546773
O O12 0.742950 0.500000 0.832109
O O13 0.803082 0.250806 0.903180
O O14 0.863032 0.500000 0.997144
O O15 0.902392 0.250652 0.955814
O O16 0.419699 0.739784 0.774613
O O17 0.438497 0.000000 0.901796
O O18 0.500000 0.755782 0.000000
O O19 0.613368 0.500000 0.376931
#
# Coordination Sequence:
#
# PCOD9201240 Si02
#       7
#     8   8   8   8   8   8   8
#     4  10  22  39  65  95 123 161 210 262 314 374
#     4  10  20  37  61  89 124 160 203 256 308 370
#     4  12  24  40  63  91 124 163 210 260 313 375
#     4  11  21  36  58  88 127 164 203 251 310 376
#     4   9  20  37  59  90 123 160 206 257 307 366
#     4  10  22  41  68  93 119 162 215 264 310 367
#     4  12  25  42  64  92 130 167 206 258 316 376
#
# _framework density 20.408664999999999
#
# number of rings (size 3 to 8) (size 9 to 14) (size 15 to 20)
#    0.000    1.429    1.429    4.286    2.000    1.714 
#    0.000    2.143    0.000    0.000    0.000    0.000 
#    0.000    0.000    0.000    0.000    0.000    0.000 
#
# Total GULP energy -156572.680033 kJ/mol
# GULP energy per Si atom -5591.881430 kJ/mol
# Density = 2.036221 g / cm^3
# Si number density = 20.408665 Si / 1000 Ang^3
#
#
#
# Elastic Constant Matrix: (Units=GPa)
#
#
# Indices 1 2 3 4 5 6 
#
# 1 115.2356 -2.3248 38.8541 0.0000 -25.2131 0.0000
# 2 -2.3248 12.1131 -1.2667 0.0000 0.7917 0.0000
# 3 38.8541 -1.2667 97.1062 0.0000 -29.9581 0.0000
# 4 0.0000 0.0000 0.0000 11.9309 0.0000 6.9884
# 5 -25.2131 0.7917 -29.9581 0.0000 39.5630 0.0000
# 6 0.0000 0.0000 0.0000 6.9884 0.0000 19.9390
#
#
#
# Elastic Compliance Matrix: (Units=1/GPa)
#
#
# Indices 1 2 3 4 5 6 
#
# 1 0.010673 0.001450 -0.002821 0.000000 0.004636 0.000000
# 2 0.001450 0.082901 0.000358 0.000000 -0.000464 0.000000
# 3 -0.002821 0.000358 0.014189 0.000000 0.008940 0.000000
# 4 0.000000 0.000000 0.000000 0.105468 0.000000 -0.036965
# 5 0.004636 -0.000464 0.008940 0.000000 0.035009 0.000000
# 6 0.000000 0.000000 0.000000 -0.036965 0.000000 0.063109
#
#
# Mechanical properties :
#
#
# Convention : Reuss Voigt Hill
#
# Bulk Modulus (GPa) = 9.45734 32.77557 21.11646
# Shear Modulus (GPa) = 14.34222 26.89940 20.62081
#
# Velocity S-wave (km/s) = 2.65382 3.63442 3.18212
# Velocity P-wave (km/s) = 3.74625 5.80573 4.88574
#
# Compressibility (1/GPa) = 0.10573796
#
# Stress axis : x y z
#
# Youngs Moduli (GPa) = 93.69665 12.06255 70.47529
#
# Poissons Ratio (x) = -0.01749 0.19882
# Poissons Ratio (y) = -0.13589 -0.02524
# Poissons Ratio (z) = 0.26433 -0.00432
#
# Static dielectric constant tensor:
#      x y z
#    x 1.703510 0.000000 0.001900 
#    y 0.000000 1.705050 0.000000 
#    z 0.001900 0.000000 1.702930 
# 
# From -- ./inp_files/180861.got.cif
#   From: 2010.05.17/outbox.cif.g08.bks.cpg/sg12_91_cif.got.tgz:180861.got - 2010.06.03 13:09:07.
