data_PCOD9201539
_publ_section_title
;
Structure prediction by ZEFSAII (Michael W. Deem and Ramdas Pophale) SiO2 
 PCOD9201539
Probable space group: C 2/M
;
_chemical_formula_sum "Si O2"
_cell_formula_units_Z 56
_cell_length_a 22.396323
_cell_length_b 13.884895
_cell_length_c 9.150456
_cell_angle_alpha 90.000000
_cell_angle_beta 79.627357
_cell_angle_gamma 90.000000
_cell_volume 2799.019921
_symmetry_space_group_name_H-M "C 2/M"
_symmetry_group_IT_number 12
_symmetry_cell_setting 'monoclinic'
loop_
_space_group_symop_operation_xyz
x,y,z
-x,y,-z
-x,-y,-z
x,-y,z
1/2+x,1/2+y,z
1/2-x,1/2+y,-z
1/2-x,1/2-y,-z
1/2+x,1/2-y,z
loop_
_atom_site_type_symbol
_atom_site_label
_atom_site_fract_x
_atom_site_fract_y
_atom_site_fract_z
Si Si1 0.433184 0.887770 0.457990
Si Si2 0.180660 0.722756 0.356948
Si Si3 0.011331 0.608840 0.165896
Si Si4 0.905489 0.886837 0.159610
Si Si5 0.609340 0.276124 0.134898
Si Si6 0.488108 0.614385 0.668770
Si Si7 0.792579 0.889561 0.430366
O O1 0.500000 0.875735 0.500000
O O2 0.381541 0.821043 0.547743
O O3 0.449767 0.868448 0.281539
O O4 0.415270 0.000000 0.481658
O O5 0.170176 0.744463 0.190693
O O6 0.196736 0.819568 0.437783
O O7 0.234204 0.648429 0.368286
O O8 0.029332 0.500000 0.205049
O O9 0.063962 0.685447 0.166807
O O10 0.000000 0.607422 0.000000
O O11 0.965240 0.854868 0.223954
O O12 0.850600 0.883594 0.298546
O O13 0.913886 0.000000 0.110639
O O14 0.891277 0.820276 0.026646
O O15 0.578307 0.356443 0.251374
O O16 0.500000 0.652737 0.500000
O O17 0.495274 0.500000 0.658433
O O18 0.784668 0.000000 0.479001
#
# Coordination Sequence:
#
# PCOD9201539 Si02
#       7
#     8   8   8   8   8   8   8
#     4  10  20  37  62  91 124 156 197 249 304 362
#     4  11  24  39  65  92 116 156 208 253 306 365
#     4  10  22  36  53  86 126 163 194 236 298 359
#     4  10  22  40  61  87 125 165 200 242 299 358
#     4  12  23  34  61  89 123 158 196 252 299 367
#     4  10  21  36  58  92 126 159 197 242 299 359
#     4  10  24  45  64  85 117 158 206 258 303 356
#
# _framework density 20.007003999999998
#
# number of rings (size 3 to 8) (size 9 to 14) (size 15 to 20)
#    0.000    1.571    1.429    3.000    6.000    4.571 
#    0.000    0.000    0.000    0.429    0.000    0.000 
#    0.000    0.000    0.000    0.000    0.000    0.000 
#
# Total GULP energy -156434.286457 kJ/mol
# GULP energy per Si atom -5586.938802 kJ/mol
# Density = 1.996147 g / cm^3
# Si number density = 20.007004 Si / 1000 Ang^3
#
#
#
# Elastic Constant Matrix: (Units=GPa)
#
#
# Indices 1 2 3 4 5 6 
#
# 1 53.6275 11.2086 -18.6884 0.0000 17.9458 0.0000
# 2 11.2086 100.2066 7.8235 0.0000 13.0742 0.0000
# 3 -18.6884 7.8235 51.0499 0.0000 16.3779 0.0000
# 4 0.0000 0.0000 0.0000 20.3674 0.0000 -7.4112
# 5 17.9458 13.0742 16.3779 0.0000 25.7049 0.0000
# 6 0.0000 0.0000 0.0000 -7.4112 0.0000 23.2516
#
#
#
# Elastic Compliance Matrix: (Units=1/GPa)
#
#
# Indices 1 2 3 4 5 6 
#
# 1 0.053400 -0.000973 0.039593 0.000000 -0.062013 0.000000
# 2 -0.000973 0.010707 -0.000588 0.000000 -0.004392 0.000000
# 3 0.039593 -0.000588 0.053979 0.000000 -0.061735 0.000000
# 4 0.000000 0.000000 0.000000 0.055540 0.000000 0.017703
# 5 -0.062013 -0.004392 -0.061735 0.000000 0.123765 0.000000
# 6 0.000000 0.000000 0.000000 0.017703 0.000000 0.048650
#
#
# Mechanical properties :
#
#
# Convention : Reuss Voigt Hill
#
# Bulk Modulus (GPa) = 5.15068 22.84125 13.99596
# Shear Modulus (GPa) = 14.93897 27.50082 21.21989
#
# Velocity S-wave (km/s) = 2.73552 3.71153 3.26025
# Velocity P-wave (km/s) = 3.54365 5.45973 4.60251
#
# Compressibility (1/GPa) = 0.19414922
#
# Stress axis : x y z
#
# Youngs Moduli (GPa) = 18.72658 93.39541 18.52568
#
# Poissons Ratio (x) = 0.09090 -0.73349
# Poissons Ratio (y) = 0.01823 0.01090
# Poissons Ratio (z) = -0.74144 0.05494
#
# Static dielectric constant tensor:
#      x y z
#    x 1.688340 0.000000 0.026370 
#    y 0.000000 1.749470 0.000000 
#    z 0.026370 0.000000 1.742930 
# 
# From -- ./inp_files/86328.got.cif
#   From: 2010.05.17/outbox.cif.g08.bks.cpg/sg12_44_cif.got.tgz:86328.got - 2010.06.03 13:09:07.
