data_PCOD9201583
_publ_section_title
;
Structure prediction by ZEFSAII (Michael W. Deem and Ramdas Pophale) SiO2 
 PCOD9201583
Probable space group: C 2/M
;
_chemical_formula_sum "Si O2"
_cell_formula_units_Z 56
_cell_length_a 17.700256
_cell_length_b 17.765543
_cell_length_c 8.369074
_cell_angle_alpha 90.000000
_cell_angle_beta 101.754916
_cell_angle_gamma 90.000000
_cell_volume 2576.502409
_symmetry_space_group_name_H-M "C 2/M"
_symmetry_group_IT_number 12
_symmetry_cell_setting 'monoclinic'
loop_
_space_group_symop_operation_xyz
x,y,z
-x,y,-z
-x,-y,-z
x,-y,z
1/2+x,1/2+y,z
1/2-x,1/2+y,-z
1/2-x,1/2-y,-z
1/2+x,1/2-y,z
loop_
_atom_site_type_symbol
_atom_site_label
_atom_site_fract_x
_atom_site_fract_y
_atom_site_fract_z
Si Si1 0.562653 0.416656 0.666967
Si Si2 0.640961 0.845738 0.814037
Si Si3 0.310460 0.361645 0.500948
Si Si4 0.577462 0.299474 0.945275
Si Si5 0.856333 0.697125 0.562255
Si Si6 0.304450 0.585257 0.849637
Si Si7 0.515718 0.916750 0.315219
O O1 0.500000 0.412895 0.500000
O O2 0.556708 0.500000 0.738129
O O3 0.645090 0.404576 0.618232
O O4 0.551138 0.348731 0.782283
O O5 0.627838 0.771315 0.911774
O O6 0.641138 0.821610 0.626356
O O7 0.721580 0.886879 0.878312
O O8 0.565657 0.897803 0.801000
O O9 0.226936 0.330833 0.412675
O O10 0.358668 0.286992 0.572108
O O11 0.300540 0.410542 0.655419
O O12 0.500000 0.274778 0.000000
O O13 0.630211 0.357086 0.066953
O O14 0.923242 0.650581 0.677916
O O15 0.320204 0.500000 0.906426
O O16 0.500000 0.919006 0.500000
O O17 0.544335 0.000000 0.281514
#
# Coordination Sequence:
#
# PCOD9201583 Si02
#       7
#     8   8   8   8   8   8   8
#     4  11  24  40  62  90 125 163 209 264 320 375
#     4  10  21  40  64  91 123 171 211 256 316 380
#     4  10  20  37  62  95 126 160 210 257 317 378
#     4  12  26  42  64  93 126 170 219 263 314 383
#     4   9  19  34  62  95 128 159 204 259 310 376
#     4  11  24  42  66  93 130 168 208 264 321 385
#     4   9  18  32  58  94 126 156 202 257 313 371
#
# _framework density 21.734891999999999
#
# number of rings (size 3 to 8) (size 9 to 14) (size 15 to 20)
#    0.000    1.714    1.429    2.571    4.000    6.286 
#    0.000    0.000    0.000    3.429    0.000    0.000 
#    0.000    0.000    0.000    0.000    0.000    0.000 
#
# Total GULP energy -156573.717741 kJ/mol
# GULP energy per Si atom -5591.918491 kJ/mol
# Density = 2.168542 g / cm^3
# Si number density = 21.734892 Si / 1000 Ang^3
#
#
#
# Elastic Constant Matrix: (Units=GPa)
#
#
# Indices 1 2 3 4 5 6 
#
# 1 76.6584 6.6584 -2.1705 0.0000 1.5782 0.0000
# 2 6.6584 87.8502 -1.3796 0.0000 1.0604 0.0000
# 3 -2.1705 -1.3796 24.5553 0.0000 2.8124 0.0000
# 4 0.0000 0.0000 0.0000 13.7002 0.0000 -1.0226
# 5 1.5782 1.0604 2.8124 0.0000 26.0851 0.0000
# 6 0.0000 0.0000 0.0000 -1.0226 0.0000 -17.2722
#
#
#
# Elastic Compliance Matrix: (Units=1/GPa)
#
#
# Indices 1 2 3 4 5 6 
#
# 1 0.013182 -0.000969 0.001213 0.000000 -0.000889 0.000000
# 2 -0.000969 0.011472 0.000613 0.000000 -0.000474 0.000000
# 3 0.001213 0.000613 0.041388 0.000000 -0.004561 0.000000
# 4 0.000000 0.000000 0.000000 0.072670 0.000000 -0.004302
# 5 -0.000889 -0.000474 -0.004561 0.000000 0.038901 0.000000
# 6 0.000000 0.000000 0.000000 -0.004302 0.000000 -0.057642
#
#
# Mechanical properties :
#
#
# Convention : Reuss Voigt Hill
#
# Bulk Modulus (GPa) = 14.75915 21.69781 18.22848
# Shear Modulus (GPa) = 35.50035 16.89966 26.20000
#
# Velocity S-wave (km/s) = 4.04584 2.79146 3.47570
# Velocity P-wave (km/s) = 5.35073 4.51600 4.95099
#
# Compressibility (1/GPa) = 0.06775457
#
# Stress axis : x y z
#
# Youngs Moduli (GPa) = 75.86267 87.17003 24.16137
#
# Poissons Ratio (x) = 0.08449 -0.02930
# Poissons Ratio (y) = 0.07353 -0.01481
# Poissons Ratio (z) = -0.09199 -0.05344
#
# Static dielectric constant tensor:
#      x y z
#    x 1.774630 0.000000 -0.002320 
#    y 0.000000 1.769090 0.000000 
#    z -0.002320 0.000000 1.802170 
# 
# From -- ./inp_files/76020.got.cif
#   From: 2010.05.17/outbox.cif.g08.bks.cpg/sg12_39_cif.got.tgz:76020.got - 2010.06.03 13:09:07.
