data_PCOD9201111
_publ_section_title
;
Structure prediction by ZEFSAII (Michael W. Deem and Ramdas Pophale) SiO2 
 PCOD9201111
Probable space group: C 2/M
;
_chemical_formula_sum "Si O2"
_cell_formula_units_Z 48
_cell_length_a 29.173425
_cell_length_b 9.272033
_cell_length_c 7.991532
_cell_angle_alpha 90.000000
_cell_angle_beta 80.107666
_cell_angle_gamma 90.000000
_cell_volume 2129.545866
_symmetry_space_group_name_H-M "C 2/M"
_symmetry_group_IT_number 12
_symmetry_cell_setting 'monoclinic'
loop_
_space_group_symop_operation_xyz
x,y,z
-x,y,-z
-x,-y,-z
x,-y,z
1/2+x,1/2+y,z
1/2-x,1/2+y,-z
1/2-x,1/2-y,-z
1/2+x,1/2-y,z
loop_
_atom_site_type_symbol
_atom_site_label
_atom_site_fract_x
_atom_site_fract_y
_atom_site_fract_z
Si Si1 0.141284 0.167495 0.252916
Si Si2 0.525358 0.668073 0.663275
Si Si3 0.312892 0.337621 0.142043
Si Si4 0.557822 0.167250 0.143409
Si Si5 0.392853 0.165431 0.251052
Si Si6 0.221398 0.669201 0.374624
O O1 0.093998 0.250314 0.240426
O O2 0.173755 0.250976 0.362168
O O3 0.133171 0.000000 0.302530
O O4 0.169477 0.171036 0.058665
O O5 0.500000 0.680848 0.500000
O O6 0.528573 0.500000 0.704954
O O7 0.490949 0.752652 0.808797
O O8 0.576084 0.739212 0.644476
O O9 0.324050 0.500000 0.196054
O O10 0.342402 0.227520 0.235916
O O11 0.257812 0.319976 0.196842
O O12 0.552536 0.000000 0.194496
O O13 0.579760 0.171759 0.944485
O O14 0.390649 0.000000 0.307363
O O15 0.214309 0.500000 0.414760
O O16 0.250000 0.750000 0.500000
#
# Coordination Sequence:
#
# PCOD9201111 Si02
#       6
#     8   8   8   8   8   8
#     4  10  20  37  61  86 111 144 186 231 280 331
#     4  11  24  39  56  81 114 151 188 227 275 331
#     4   9  20  38  60  84 111 145 186 231 278 330
#     4  10  21  38  60  86 113 143 184 231 278 330
#     4  10  21  37  60  87 112 142 184 232 279 330
#     4  11  23  38  56  82 116 152 188 229 278 331
#
# _framework density 22.540015
#
# number of rings (size 3 to 8) (size 9 to 14) (size 15 to 20)
#    0.000    1.833    0.000    3.500    0.000    8.667 
#    0.000    1.667    0.000    0.000    0.000    0.000 
#    0.000    0.000    0.000    0.000    0.000    0.000 
#
# Total GULP energy -134328.105152 kJ/mol
# GULP energy per Si atom -5597.004381 kJ/mol
# Density = 2.248871 g / cm^3
# Si number density = 22.540015 Si / 1000 Ang^3
#
#
#
# Elastic Constant Matrix: (Units=GPa)
#
#
# Indices 1 2 3 4 5 6 
#
# 1 117.6594 67.5194 10.6479 0.0000 24.2254 0.0000
# 2 67.5194 187.9069 33.5383 0.0000 33.4629 0.0000
# 3 10.6479 33.5383 46.0281 0.0000 6.8615 0.0000
# 4 0.0000 0.0000 0.0000 24.9277 0.0000 9.6788
# 5 24.2254 33.4629 6.8615 0.0000 45.4383 0.0000
# 6 0.0000 0.0000 0.0000 9.6788 0.0000 36.5173
#
#
#
# Elastic Compliance Matrix: (Units=1/GPa)
#
#
# Indices 1 2 3 4 5 6 
#
# 1 0.011166 -0.003479 0.000468 0.000000 -0.003462 0.000000
# 2 -0.003479 0.007970 -0.004505 0.000000 -0.003334 0.000000
# 3 0.000468 -0.004505 0.025006 0.000000 -0.000708 0.000000
# 4 0.000000 0.000000 0.000000 0.044718 0.000000 -0.011852
# 5 -0.003462 -0.003334 -0.000708 0.000000 0.026416 0.000000
# 6 0.000000 0.000000 0.000000 -0.011852 0.000000 0.030526
#
#
# Mechanical properties :
#
#
# Convention : Reuss Voigt Hill
#
# Bulk Modulus (GPa) = 34.35397 63.88951 49.12174
# Shear Modulus (GPa) = 29.31912 37.36925 33.34418
#
# Velocity S-wave (km/s) = 3.61052 4.07616 3.85038
# Velocity P-wave (km/s) = 5.71450 7.11055 6.45040
#
# Compressibility (1/GPa) = 0.02910872
#
# Stress axis : x y z
#
# Youngs Moduli (GPa) = 89.55682 125.47280 39.99068
#
# Poissons Ratio (x) = 0.43656 -0.01872
# Poissons Ratio (y) = 0.31160 0.18017
# Poissons Ratio (z) = -0.04192 0.56529
#
# Static dielectric constant tensor:
#      x y z
#    x 1.794770 0.000000 -0.047630 
#    y 0.000000 1.770360 0.000000 
#    z -0.047630 0.000000 1.886440 
# 
# From -- ./inp_files/108607.got.cif
#   From: 2010.05.17/outbox.cif.g08.bks.cpg/sg12_55_cif.got.tgz:108607.got - 2010.06.03 13:09:07.
