data_PCOD9201187
_publ_section_title
;
Structure prediction by ZEFSAII (Michael W. Deem and Ramdas Pophale) SiO2 
 PCOD9201187
Probable space group: C 2/M
;
_chemical_formula_sum "Si O2"
_cell_formula_units_Z 52
_cell_length_a 11.299680
_cell_length_b 25.957778
_cell_length_c 9.700899
_cell_angle_alpha 90.000000
_cell_angle_beta 57.036216
_cell_angle_gamma 90.000000
_cell_volume 2387.345037
_symmetry_space_group_name_H-M "C 2/M"
_symmetry_group_IT_number 12
_symmetry_cell_setting 'monoclinic'
loop_
_space_group_symop_operation_xyz
x,y,z
-x,y,-z
-x,-y,-z
x,-y,z
1/2+x,1/2+y,z
1/2-x,1/2+y,-z
1/2-x,1/2-y,-z
1/2+x,1/2-y,z
loop_
_atom_site_type_symbol
_atom_site_label
_atom_site_fract_x
_atom_site_fract_y
_atom_site_fract_z
Si Si1 0.899611 0.659558 0.297353
Si Si2 0.166872 0.181848 0.241769
Si Si3 0.229227 0.336733 0.103024
Si Si4 0.764311 0.558031 0.495618
Si Si5 0.000000 0.097574 0.500000
Si Si6 0.655093 0.212143 0.408488
Si Si7 0.831641 0.058103 0.124939
O O1 0.817346 0.662780 0.205707
O O2 0.869270 0.603773 0.384491
O O3 0.818965 0.701219 0.447729
O O4 0.063545 0.672002 0.180816
O O5 0.058885 0.136607 0.346664
O O6 0.133384 0.233424 0.347157
O O7 0.179722 0.190520 0.071713
O O8 0.259681 0.316774 0.238325
O O9 0.259426 0.397306 0.083004
O O10 0.821121 0.500000 0.443007
O O11 0.626577 0.565594 0.486345
O O12 0.715288 0.563804 0.685551
O O13 0.500000 0.185609 0.500000
O O14 0.794156 0.000000 0.105250
O O15 0.000000 0.063691 0.000000
#
# Coordination Sequence:
#
# PCOD9201187 Si02
#       7
#     8   8   8   8   4   8   8
#     4  10  22  38  59  85 122 157 197 247 295 358
#     4  11  21  38  59  84 120 161 199 245 302 350
#     4  11  22  38  59  89 120 153 201 248 293 353
#     4  10  20  37  61  88 116 158 201 241 295 360
#     4  10  21  36  60  86 122 156 201 246 298 352
#     4  10  20  38  59  85 119 157 202 244 295 352
#     4  10  21  38  60  87 119 153 197 248 300 351
#
# _framework density 21.781517000000001
#
# number of rings (size 3 to 8) (size 9 to 14) (size 15 to 20)
#    0.000    1.692    2.308    2.538    0.000    0.615 
#    0.000    6.154    0.000    4.615    0.000    0.000 
#    0.000    0.000    0.000    0.000    0.000    0.000 
#
# Total GULP energy -145109.130140 kJ/mol
# GULP energy per Si atom -5581.120390 kJ/mol
# Density = 2.173194 g / cm^3
# Si number density = 21.781517 Si / 1000 Ang^3
#
#
#
# Elastic Constant Matrix: (Units=GPa)
#
#
# Indices 1 2 3 4 5 6 
#
# 1 15.8807 -5.2014 -0.1601 0.0000 -1.3248 0.0000
# 2 -5.2014 107.0967 14.6878 0.0000 -3.5280 0.0000
# 3 -0.1601 14.6878 107.2910 0.0000 5.0022 0.0000
# 4 0.0000 0.0000 0.0000 22.9709 0.0000 0.9332
# 5 -1.3248 -3.5280 5.0022 0.0000 18.7768 0.0000
# 6 0.0000 0.0000 0.0000 0.9332 0.0000 22.0818
#
#
#
# Elastic Compliance Matrix: (Units=1/GPa)
#
#
# Indices 1 2 3 4 5 6 
#
# 1 0.064522 0.003395 -0.000618 0.000000 0.005355 0.000000
# 2 0.003395 0.009782 -0.001449 0.000000 0.002463 0.000000
# 3 -0.000618 -0.001449 0.009652 0.000000 -0.002887 0.000000
# 4 0.000000 0.000000 0.000000 0.043608 0.000000 -0.001843
# 5 0.005355 0.002463 -0.002887 0.000000 0.054867 0.000000
# 6 0.000000 0.000000 0.000000 -0.001843 0.000000 0.045364
#
#
# Mechanical properties :
#
#
# Convention : Reuss Voigt Hill
#
# Bulk Modulus (GPa) = 11.54574 27.65788 19.60181
# Shear Modulus (GPa) = 19.68420 27.49537 23.58978
#
# Velocity S-wave (km/s) = 3.00944 3.55678 3.29449
# Velocity P-wave (km/s) = 4.16987 5.43994 4.84669
#
# Compressibility (1/GPa) = 0.08661201
#
# Stress axis : x y z
#
# Youngs Moduli (GPa) = 15.49863 102.22748 103.60015
#
# Poissons Ratio (x) = -0.34705 0.06404
# Poissons Ratio (y) = -0.05262 0.15011
# Poissons Ratio (z) = 0.00958 0.14812
#
# Static dielectric constant tensor:
#      x y z
#    x 1.806670 0.000000 0.031450 
#    y 0.000000 1.805260 0.000000 
#    z 0.031450 0.000000 1.807040 
# 
# From -- ./inp_files/53107.got.cif
#   From: 2010.05.17/outbox.cif.g08.bks.cpg/sg12_27_cif.got.tgz:53107.got - 2010.06.03 13:09:07.
