data_PCOD9201627
_publ_section_title
;
Structure prediction by ZEFSAII (Michael W. Deem and Ramdas Pophale) SiO2 
 PCOD9201627
Probable space group: C 2/M
;
_chemical_formula_sum "Si O2"
_cell_formula_units_Z 40
_cell_length_a 14.193663
_cell_length_b 10.081113
_cell_length_c 12.303955
_cell_angle_alpha 90.000000
_cell_angle_beta 83.750455
_cell_angle_gamma 90.000000
_cell_volume 1750.084760
_symmetry_space_group_name_H-M "C 2/M"
_symmetry_group_IT_number 12
_symmetry_cell_setting 'monoclinic'
loop_
_space_group_symop_operation_xyz
x,y,z
-x,y,-z
-x,-y,-z
x,-y,z
1/2+x,1/2+y,z
1/2-x,1/2+y,-z
1/2-x,1/2-y,-z
1/2+x,1/2-y,z
loop_
_atom_site_type_symbol
_atom_site_label
_atom_site_fract_x
_atom_site_fract_y
_atom_site_fract_z
Si Si1 0.447370 0.728143 0.605015
Si Si2 0.526537 0.647148 0.158470
Si Si3 0.638853 0.852585 0.571000
Si Si4 0.178430 0.654305 0.073753
Si Si5 0.813796 0.146270 0.256661
O O1 0.500000 0.648673 0.500000
O O2 0.439369 0.655299 0.719157
O O3 0.525777 0.844279 0.613841
O O4 0.360961 0.792233 0.550394
O O5 0.551920 0.500000 0.112725
O O6 0.579393 0.767314 0.092881
O O7 0.412656 0.658934 0.176282
O O8 0.682553 0.760565 0.656233
O O9 0.675708 0.000000 0.568776
O O10 0.172804 0.500000 0.036885
O O11 0.225013 0.650584 0.188018
O O12 0.250000 0.750000 0.000000
O O13 0.818852 0.000000 0.307925
#
# Coordination Sequence:
#
# PCOD9201627 Si02
#       5
#     8   8   8   8   8
#     4   7  15  28  50  86 121 154 188 226 282 330
#     4  10  20  37  63  90 115 154 197 236 284 343
#     4   8  14  26  50  81 114 150 188 229 272 323
#     4  11  25  44  62  84 115 150 191 245 297 349
#     4   9  20  38  59  84 118 153 188 234 292 349
#
# _framework density 22.856036
#
# number of rings (size 3 to 8) (size 9 to 14) (size 15 to 20)
#    1.200    1.600    0.000    1.800    0.000    7.600 
#    0.000    5.000    0.000    0.000    0.000    0.000 
#    0.000    0.000    0.000    0.000    0.000    0.000 
#
# Total GULP energy -111439.262558 kJ/mol
# GULP energy per Si atom -5571.963128 kJ/mol
# Density = 2.280401 g / cm^3
# Si number density = 22.856036 Si / 1000 Ang^3
#
#
#
# Elastic Constant Matrix: (Units=GPa)
#
#
# Indices 1 2 3 4 5 6 
#
# 1 76.0934 50.2042 -1.5864 0.0000 -14.1206 0.0000
# 2 50.2042 163.1226 32.9859 0.0000 -7.5707 0.0000
# 3 -1.5864 32.9859 57.8999 0.0000 9.8740 0.0000
# 4 0.0000 0.0000 0.0000 -13.6625 0.0000 -0.6533
# 5 -14.1206 -7.5707 9.8740 0.0000 26.7025 0.0000
# 6 0.0000 0.0000 0.0000 -0.6533 0.0000 11.8194
#
#
#
# Elastic Compliance Matrix: (Units=1/GPa)
#
#
# Indices 1 2 3 4 5 6 
#
# 1 0.018377 -0.005860 0.002634 0.000000 0.007083 0.000000
# 2 -0.005860 0.009148 -0.005642 0.000000 0.001581 0.000000
# 3 0.002634 -0.005642 0.021979 0.000000 -0.008334 0.000000
# 4 0.000000 0.000000 0.000000 -0.073000 0.000000 -0.004035
# 5 0.007083 0.001581 -0.008334 0.000000 0.044725 0.000000
# 6 0.000000 0.000000 0.000000 -0.004035 0.000000 0.084384
#
#
# Mechanical properties :
#
#
# Convention : Reuss Voigt Hill
#
# Bulk Modulus (GPa) = 31.47757 51.14702 41.31230
# Shear Modulus (GPa) = 37.33077 19.33936 28.33507
#
# Velocity S-wave (km/s) = 4.04580 2.91200 3.52478
# Velocity P-wave (km/s) = 5.96880 5.80800 5.88895
#
# Compressibility (1/GPa) = 0.03176865
#
# Stress axis : x y z
#
# Youngs Moduli (GPa) = 54.41536 109.31204 45.49836
#
# Poissons Ratio (x) = 0.64056 -0.11985
# Poissons Ratio (y) = 0.31887 0.25670
# Poissons Ratio (z) = -0.14333 0.61673
#
# Static dielectric constant tensor:
#      x y z
#    x 1.911380 0.000000 -0.048070 
#    y 0.000000 1.824190 0.000000 
#    z -0.048070 0.000000 1.897260 
# 
# From -- ./inp_files/211330.got.cif
#   From: 2010.05.17/outbox.cif.g08.bks.cpg/sg12_106_cif.got.tgz:211330.got - 2010.06.03 13:09:07.
