data_PCOD9201953
_publ_section_title
;
Structure prediction by ZEFSAII (Michael W. Deem and Ramdas Pophale) SiO2 
 PCOD9201953
Probable space group: C 2/M
;
_chemical_formula_sum "Si O2"
_cell_formula_units_Z 32
_cell_length_a 7.516945
_cell_length_b 22.780102
_cell_length_c 8.399885
_cell_angle_alpha 90.000000
_cell_angle_beta 55.341630
_cell_angle_gamma 90.000000
_cell_volume 1183.141310
_symmetry_space_group_name_H-M "C 2/M"
_symmetry_group_IT_number 12
_symmetry_cell_setting 'monoclinic'
loop_
_space_group_symop_operation_xyz
x,y,z
-x,y,-z
-x,-y,-z
x,-y,z
1/2+x,1/2+y,z
1/2-x,1/2+y,-z
1/2-x,1/2-y,-z
1/2+x,1/2-y,z
loop_
_atom_site_type_symbol
_atom_site_label
_atom_site_fract_x
_atom_site_fract_y
_atom_site_fract_z
Si Si1 0.104913 0.320898 0.207002
Si Si2 0.835276 0.811139 0.756042
Si Si3 0.674066 0.596451 0.656404
Si Si4 0.610661 0.000000 0.679349
Si Si5 0.832630 0.000000 0.914079
O O1 0.872624 0.328119 0.242251
O O2 0.179450 0.371032 0.288469
O O3 0.117250 0.257768 0.285753
O O4 0.268285 0.318398 0.975542
O O5 0.043013 0.851758 0.636683
O O6 0.802859 0.554519 0.469064
O O7 0.489652 0.555913 0.830621
O O8 0.722350 0.000000 0.795264
O O9 0.355945 0.000000 0.856131
#
# Coordination Sequence:
#
# PCOD9201953 Si02
#       5
#     8   8   8   4   4
#     4  10  20  37  72 126 173 229 278 336 412 511
#     4  10  20  38  72 123 178 224 277 335 419 499
#     4  11  21  43  86 128 166 219 283 351 421 501
#     4  10  25  51  86 123 165 218 288 359 429 506
#     4  10  25  53  88 118 160 222 282 357 438 505
#
# _framework density 27.046641000000001
#
# number of rings (size 3 to 8) (size 9 to 14) (size 15 to 20)
#    0.000    1.750    2.500    2.250    0.000    4.000 
#    0.000   15.000    0.000   69.000    0.000   12.250 
#    0.000    0.000    0.000    0.000    0.000    0.000 
#
# Total GULP energy -89927.726829 kJ/mol
# GULP energy per Si atom -5620.482927 kJ/mol
# Density = 2.698508 g / cm^3
# Si number density = 27.046641 Si / 1000 Ang^3
#
#
#
# Elastic Constant Matrix: (Units=GPa)
#
#
# Indices 1 2 3 4 5 6 
#
# 1 205.5936 96.0666 61.9932 0.0000 8.1316 0.0000
# 2 96.0666 235.5244 105.5262 0.0000 -7.7921 0.0000
# 3 61.9932 105.5262 260.7469 0.0000 22.6121 0.0000
# 4 0.0000 0.0000 0.0000 62.3224 0.0000 -18.2658
# 5 8.1316 -7.7921 22.6121 0.0000 31.1922 0.0000
# 6 0.0000 0.0000 0.0000 -18.2658 0.0000 58.7669
#
#
#
# Elastic Compliance Matrix: (Units=1/GPa)
#
#
# Indices 1 2 3 4 5 6 
#
# 1 0.006180 -0.002451 -0.000304 0.000000 -0.002003 0.000000
# 2 -0.002451 0.006437 -0.002366 0.000000 0.003962 0.000000
# 3 -0.000304 -0.002366 0.005239 0.000000 -0.004309 0.000000
# 4 0.000000 0.000000 0.000000 0.017654 0.000000 0.005487
# 5 -0.002003 0.003962 -0.004309 0.000000 0.036695 0.000000
# 6 0.000000 0.000000 0.000000 0.005487 0.000000 0.018722
#
#
# Mechanical properties :
#
#
# Convention : Reuss Voigt Hill
#
# Bulk Modulus (GPa) = 131.33226 136.55968 133.94597
# Shear Modulus (GPa) = 48.21369 59.67487 53.94428
#
# Velocity S-wave (km/s) = 4.22668 4.70230 4.47082
# Velocity P-wave (km/s) = 8.51369 8.94886 8.73399
#
# Compressibility (1/GPa) = 0.00761428
#
# Stress axis : x y z
#
# Youngs Moduli (GPa) = 161.81234 155.36126 190.89409
#
# Poissons Ratio (x) = 0.38078 0.05797
# Poissons Ratio (y) = 0.39659 0.45162
# Poissons Ratio (z) = 0.04914 0.36755
#
# Static dielectric constant tensor:
#      x y z
#    x 2.074060 0.000000 0.025130 
#    y 0.000000 2.093730 0.000000 
#    z 0.025130 0.000000 2.123730 
# 
# From -- ./inp_files/207110.got.cif
#   From: 2010.05.17/outbox.cif.g08.bks.cpg/sg12_104_cif.got.tgz:207110.got - 2010.06.03 13:09:07.
