data_PCOD9201069
_publ_section_title
;
Structure prediction by ZEFSAII (Michael W. Deem and Ramdas Pophale) SiO2 
 PCOD9201069
Probable space group: C 2/M
;
_chemical_formula_sum "Si O2"
_cell_formula_units_Z 64
_cell_length_a 9.768697
_cell_length_b 35.242088
_cell_length_c 14.215530
_cell_angle_alpha 90.000000
_cell_angle_beta 46.871212
_cell_angle_gamma 90.000000
_cell_volume 3571.711884
_symmetry_space_group_name_H-M "C 2/M"
_symmetry_group_IT_number 12
_symmetry_cell_setting 'monoclinic'
loop_
_space_group_symop_operation_xyz
x,y,z
-x,y,-z
-x,-y,-z
x,-y,z
1/2+x,1/2+y,z
1/2-x,1/2+y,-z
1/2-x,1/2-y,-z
1/2+x,1/2-y,z
loop_
_atom_site_type_symbol
_atom_site_label
_atom_site_fract_x
_atom_site_fract_y
_atom_site_fract_z
Si Si1 0.478316 0.288499 0.355156
Si Si2 0.133227 0.347440 0.136738
Si Si3 0.041246 0.454689 0.371023
Si Si4 0.710644 0.454603 0.380426
Si Si5 0.131952 0.899532 0.851198
Si Si6 0.370898 0.352002 0.848582
Si Si7 0.686288 0.212072 0.655586
Si Si8 0.102894 0.406345 0.862183
O O1 0.515202 0.321271 0.262931
O O2 0.412470 0.250698 0.332324
O O3 0.668500 0.281905 0.326398
O O4 0.317213 0.299940 0.505807
O O5 0.262471 0.361605 0.161071
O O6 0.971534 0.318522 0.242722
O O7 0.043208 0.386295 0.138873
O O8 0.260750 0.333780 0.989252
O O9 0.076605 0.500000 0.345148
O O10 0.217222 0.430404 0.251923
O O11 0.000000 0.446735 0.500000
O O12 0.858512 0.445338 0.393671
O O13 0.500000 0.441411 0.500000
O O14 0.708456 0.500000 0.372258
O O15 0.778480 0.435500 0.253017
O O16 0.998951 0.885463 0.830135
O O17 0.000000 0.912612 0.000000
O O18 0.223403 0.371881 0.848395
O O19 0.000000 0.424394 0.000000
#
# Coordination Sequence:
#
# PCOD9201069 Si02
#       8
#     8   8   8   8   8   8   8   8
#     4  10  22  39  56  83 112 147 186 229 279 336
#     4  10  20  39  58  81 112 149 186 234 284 333
#     4  10  22  40  59  83 117 154 193 237 285 339
#     4  10  22  39  59  85 117 152 193 238 284 340
#     4  10  22  39  59  85 115 150 192 237 283 338
#     4  10  22  37  58  85 114 143 189 234 281 340
#     4  10  22  38  58  80 114 148 184 230 280 333
#     4  10  20  37  61  84 113 149 189 239 289 338
#
# _framework density 17.918578
#
# number of rings (size 3 to 8) (size 9 to 14) (size 15 to 20)
#    0.000    2.000    2.500    0.000    3.500    3.000 
#    0.000    0.000    0.000    0.000    0.000    0.000 
#    0.000    0.000    0.000    0.000    0.000    0.000 
#
# Total GULP energy -178518.842184 kJ/mol
# GULP energy per Si atom -5578.713818 kJ/mol
# Density = 1.787779 g / cm^3
# Si number density = 17.918578 Si / 1000 Ang^3
#
#
#
# Elastic Constant Matrix: (Units=GPa)
#
#
# Indices 1 2 3 4 5 6 
#
# 1 40.8953 24.3997 45.1781 0.0000 -4.6906 0.0000
# 2 24.3997 42.2600 72.4195 0.0000 0.4601 0.0000
# 3 45.1781 72.4195 158.0866 0.0000 -4.8495 0.0000
# 4 0.0000 0.0000 0.0000 51.4610 0.0000 -12.8884
# 5 -4.6906 0.4601 -4.8495 0.0000 26.7553 0.0000
# 6 0.0000 0.0000 0.0000 -12.8884 0.0000 21.6569
#
#
#
# Elastic Compliance Matrix: (Units=1/GPa)
#
#
# Indices 1 2 3 4 5 6 
#
# 1 0.038873 -0.017802 -0.002751 0.000000 0.006623 0.000000
# 2 -0.017802 0.121604 -0.051063 0.000000 -0.014468 0.000000
# 3 -0.002751 -0.051063 0.030686 0.000000 0.005958 0.000000
# 4 0.000000 0.000000 0.000000 0.022836 0.000000 0.013590
# 5 0.006623 -0.014468 0.005958 0.000000 0.039866 0.000000
# 6 0.000000 0.000000 0.000000 0.013590 0.000000 0.054262
#
#
# Mechanical properties :
#
#
# Convention : Reuss Voigt Hill
#
# Bulk Modulus (GPa) = 20.86331 58.35962 39.61146
# Shear Modulus (GPa) = 10.69893 26.59095 18.64494
#
# Velocity S-wave (km/s) = 2.44619 3.85644 3.22923
# Velocity P-wave (km/s) = 4.43251 7.24358 6.00486
#
# Compressibility (1/GPa) = 0.04793104
#
# Stress axis : x y z
#
# Youngs Moduli (GPa) = 25.72507 8.22339 32.58763
#
# Poissons Ratio (x) = 0.14640 0.08964
# Poissons Ratio (y) = 0.45797 1.66403
# Poissons Ratio (z) = 0.07076 0.41991
#
# Static dielectric constant tensor:
#      x y z
#    x 1.608010 0.000000 -0.008420 
#    y 0.000000 1.567190 0.000000 
#    z -0.008420 0.000000 1.611610 
# 
# From -- ./inp_files/201273.got.cif
#   From: 2010.05.17/outbox.cif.g08.bks.cpg/sg12_101_cif.got.tgz:201273.got - 2010.06.03 13:09:07.
