data_PCOD9201177
_publ_section_title
;
Structure prediction by ZEFSAII (Michael W. Deem and Ramdas Pophale) SiO2 
 PCOD9201177
Probable space group: C 2/M
;
_chemical_formula_sum "Si O2"
_cell_formula_units_Z 64
_cell_length_a 9.221561
_cell_length_b 23.461317
_cell_length_c 14.986958
_cell_angle_alpha 90.000000
_cell_angle_beta 96.758311
_cell_angle_gamma 90.000000
_cell_volume 3219.897508
_symmetry_space_group_name_H-M "C 2/M"
_symmetry_group_IT_number 12
_symmetry_cell_setting 'monoclinic'
loop_
_space_group_symop_operation_xyz
x,y,z
-x,y,-z
-x,-y,-z
x,-y,z
1/2+x,1/2+y,z
1/2-x,1/2+y,-z
1/2-x,1/2-y,-z
1/2+x,1/2-y,z
loop_
_atom_site_type_symbol
_atom_site_label
_atom_site_fract_x
_atom_site_fract_y
_atom_site_fract_z
Si Si1 0.981598 0.332182 0.725624
Si Si2 0.671604 0.063735 0.532725
Si Si3 0.890693 0.761014 0.571813
Si Si4 0.572535 0.670885 0.912889
Si Si5 0.785426 0.434444 0.657803
Si Si6 0.393251 0.220343 0.905931
Si Si7 0.963466 0.933216 0.213716
Si Si8 0.785212 0.142251 0.692683
O O1 0.934507 0.292698 0.637731
O O2 0.912113 0.393628 0.701124
O O3 0.921419 0.314802 0.817909
O O4 0.157023 0.330847 0.742379
O O5 0.500000 0.062651 0.500000
O O6 0.750712 0.080454 0.446798
O O7 0.700417 0.108355 0.610141
O O8 0.718770 0.000000 0.562281
O O9 0.750000 0.750000 0.500000
O O10 0.874092 0.810440 0.644377
O O11 0.000000 0.775398 0.500000
O O12 0.446232 0.716573 0.876438
O O13 0.726077 0.706053 0.923024
O O14 0.598087 0.613287 0.859967
O O15 0.500000 0.651599 0.000000
O O16 0.836674 0.500000 0.660128
O O17 0.644159 0.430871 0.709336
O O18 0.500000 0.209051 0.000000
O O19 0.116082 0.903963 0.250750
O O20 0.974253 0.000000 0.187364
#
# Coordination Sequence:
#
# PCOD9201177 Si02
#       8
#     8   8   8   8   8   8   8   8
#     4  12  25  42  68  94 135 177 227 276 342 400
#     4  10  20  37  61  87 121 170 225 272 318 379
#     4  12  27  43  61  97 139 182 226 281 345 408
#     4  11  24  45  74 101 138 171 216 277 345 413
#     4  10  22  41  65  91 127 176 224 271 330 395
#     4  11  25  44  74 107 136 174 225 281 345 412
#     4  11  26  45  67 100 134 178 227 280 343 403
#     4  12  26  39  65  92 136 175 232 275 335 399
#
# _framework density 19.876408000000001
#
# number of rings (size 3 to 8) (size 9 to 14) (size 15 to 20)
#    0.000    0.875    3.750    3.375    8.750    0.750 
#    0.000    1.875    0.000    0.750    0.000    0.000 
#    0.000    0.000    0.000    0.000    0.000    0.000 
#
# Total GULP energy -178462.343392 kJ/mol
# GULP energy per Si atom -5576.948231 kJ/mol
# Density = 1.983117 g / cm^3
# Si number density = 19.876408 Si / 1000 Ang^3
#
#
#
# Elastic Constant Matrix: (Units=GPa)
#
#
# Indices 1 2 3 4 5 6 
#
# 1 102.9172 29.2699 21.0559 0.0000 -10.6770 0.0000
# 2 29.2699 75.8312 15.7735 0.0000 9.2624 0.0000
# 3 21.0559 15.7735 60.9975 0.0000 -18.1077 0.0000
# 4 0.0000 0.0000 0.0000 29.9228 0.0000 -4.2602
# 5 -10.6770 9.2624 -18.1077 0.0000 32.4164 0.0000
# 6 0.0000 0.0000 0.0000 -4.2602 0.0000 18.1129
#
#
#
# Elastic Compliance Matrix: (Units=1/GPa)
#
#
# Indices 1 2 3 4 5 6 
#
# 1 0.011853 -0.004793 -0.001542 0.000000 0.004412 0.000000
# 2 -0.004793 0.017428 -0.005753 0.000000 -0.009772 0.000000
# 3 -0.001542 -0.005753 0.022479 0.000000 0.013693 0.000000
# 4 0.000000 0.000000 0.000000 0.034577 0.000000 0.008133
# 5 0.004412 -0.009772 0.013693 0.000000 0.042743 0.000000
# 6 0.000000 0.000000 0.000000 0.008133 0.000000 0.057122
#
#
# Mechanical properties :
#
#
# Convention : Reuss Voigt Hill
#
# Bulk Modulus (GPa) = 36.25479 41.32716 38.79097
# Shear Modulus (GPa) = 22.77152 27.66687 25.21920
#
# Velocity S-wave (km/s) = 3.38843 3.73493 3.56589
# Velocity P-wave (km/s) = 5.79554 6.27987 6.04256
#
# Compressibility (1/GPa) = 0.02758256
#
# Stress axis : x y z
#
# Youngs Moduli (GPa) = 84.36672 57.38039 44.48607
#
# Poissons Ratio (x) = 0.27504 0.06861
# Poissons Ratio (y) = 0.40439 0.25593
# Poissons Ratio (z) = 0.13012 0.33011
#
# Static dielectric constant tensor:
#      x y z
#    x 1.664240 0.000000 0.021840 
#    y 0.000000 1.710540 0.000000 
#    z 0.021840 0.000000 1.739290 
# 
# From -- ./inp_files/198871.got.cif
#   From: 2010.05.17/outbox.cif.g08.bks.cpg/sg12_100_cif.got.tgz:198871.got - 2010.06.03 13:09:07.
