data_PCOD9201856
_publ_section_title
;
Structure prediction by ZEFSAII (Michael W. Deem and Ramdas Pophale) SiO2 
 PCOD9201856
Probable space group: C 2/M
;
_chemical_formula_sum "Si O2"
_cell_formula_units_Z 34
_cell_length_a 13.837716
_cell_length_b 14.030982
_cell_length_c 9.456179
_cell_angle_alpha 90.000000
_cell_angle_beta 114.472030
_cell_angle_gamma 90.000000
_cell_volume 1671.043014
_symmetry_space_group_name_H-M "C 2/M"
_symmetry_group_IT_number 12
_symmetry_cell_setting 'monoclinic'
loop_
_space_group_symop_operation_xyz
x,y,z
-x,y,-z
-x,-y,-z
x,-y,z
1/2+x,1/2+y,z
1/2-x,1/2+y,-z
1/2-x,1/2-y,-z
1/2+x,1/2-y,z
loop_
_atom_site_type_symbol
_atom_site_label
_atom_site_fract_x
_atom_site_fract_y
_atom_site_fract_z
Si Si1 0.000000 0.244034 0.500000
Si Si2 0.269883 0.895081 0.933357
Si Si3 0.710878 0.199309 0.754087
Si Si4 0.500000 0.163079 0.000000
Si Si5 0.000000 0.000000 0.000000
Si Si6 0.434661 0.673188 0.754453
O O1 0.901821 0.308538 0.388728
O O2 0.960286 0.179625 0.605736
O O3 0.270066 0.868697 0.099489
O O4 0.223122 0.000000 0.884145
O O5 0.216060 0.807396 0.819138
O O6 0.391915 0.893357 0.956261
O O7 0.809143 0.182033 0.709558
O O8 0.513088 0.233226 0.141578
O O9 0.021133 0.916344 0.133261
#
# Coordination Sequence:
#
# PCOD9201856 Si02
#       6
#     4   8   8   4   2   8
#     4  12  22  43  63  86 128 172 200 268 320 370
#     4  10  20  37  65  92 121 164 216 260 308 378
#     4  10  23  39  62  92 126 168 210 260 317 373
#     4   9  17  39  61  92 116 162 206 260 308 378
#     4  10  24  42  66  98 122 164 212 262 306 386
#     4  10  22  39  66  89 128 161 210 255 321 367
#
# _framework density 20.346572999999999
#
# number of rings (size 3 to 8) (size 9 to 14) (size 15 to 20)
#    0.000    1.882    2.353    1.059    4.941    0.471 
#    2.118    0.588    0.000    0.000    0.000    0.000 
#    0.000    0.000    0.000    0.000    0.000    0.000 
#
# Total GULP energy -94752.269579 kJ/mol
# GULP energy per Si atom -5573.662916 kJ/mol
# Density = 2.030026 g / cm^3
# Si number density = 20.346573 Si / 1000 Ang^3
#
#
#
# Elastic Constant Matrix: (Units=GPa)
#
#
# Indices 1 2 3 4 5 6 
#
# 1 85.7592 10.2842 49.4900 0.0000 -15.7803 0.0000
# 2 10.2842 94.5944 11.2148 0.0000 -16.7755 0.0000
# 3 49.4900 11.2148 100.6872 0.0000 -30.3654 0.0000
# 4 0.0000 0.0000 0.0000 2.7065 0.0000 -2.2713
# 5 -15.7803 -16.7755 -30.3654 0.0000 44.6914 0.0000
# 6 0.0000 0.0000 0.0000 -2.2713 0.0000 4.2432
#
#
#
# Elastic Compliance Matrix: (Units=1/GPa)
#
#
# Indices 1 2 3 4 5 6 
#
# 1 0.016343 -0.000824 -0.007916 0.000000 0.000083 0.000000
# 2 -0.000824 0.011367 0.000425 0.000000 0.004265 0.000000
# 3 -0.007916 0.000425 0.016326 0.000000 0.008457 0.000000
# 4 0.000000 0.000000 0.000000 0.670846 0.000000 0.359096
# 5 0.000083 0.004265 0.008457 0.000000 0.029752 0.000000
# 6 0.000000 0.000000 0.000000 0.359096 0.000000 0.427892
#
#
# Mechanical properties :
#
#
# Convention : Reuss Voigt Hill
#
# Bulk Modulus (GPa) = 36.48865 47.00208 41.74536
# Shear Modulus (GPa) = 4.17261 24.33166 14.25214
#
# Velocity S-wave (km/s) = 1.43360 3.46187 2.64951
# Velocity P-wave (km/s) = 4.55113 6.25542 5.47006
#
# Compressibility (1/GPa) = 0.02740578
#
# Stress axis : x y z
#
# Youngs Moduli (GPa) = 61.18892 87.97471 61.25273
#
# Poissons Ratio (x) = 0.07245 0.48489
# Poissons Ratio (y) = 0.05039 -0.02602
# Poissons Ratio (z) = 0.48438 -0.03737
#
# Static dielectric constant tensor:
#      x y z
#    x 1.782370 0.000000 0.000470 
#    y 0.000000 1.679950 0.000000 
#    z 0.000470 0.000000 1.711980 
# 
# From -- ./inp_files/58370.got.cif
#   From: 2010.05.17/outbox.cif.g08.bks.cpg/sg12_30_cif.got.tgz:58370.got - 2010.06.03 13:09:07.
