data_PCOD9201859
_publ_section_title
;
Structure prediction by ZEFSAII (Michael W. Deem and Ramdas Pophale) SiO2 
 PCOD9201859
Probable space group: C 2/M
;
_chemical_formula_sum "Si O2"
_cell_formula_units_Z 56
_cell_length_a 12.188402
_cell_length_b 27.904907
_cell_length_c 8.611075
_cell_angle_alpha 90.000000
_cell_angle_beta 70.304687
_cell_angle_gamma 90.000000
_cell_volume 2757.427972
_symmetry_space_group_name_H-M "C 2/M"
_symmetry_group_IT_number 12
_symmetry_cell_setting 'monoclinic'
loop_
_space_group_symop_operation_xyz
x,y,z
-x,y,-z
-x,-y,-z
x,-y,z
1/2+x,1/2+y,z
1/2-x,1/2+y,-z
1/2-x,1/2-y,-z
1/2+x,1/2-y,z
loop_
_atom_site_type_symbol
_atom_site_label
_atom_site_fract_x
_atom_site_fract_y
_atom_site_fract_z
Si Si1 0.614974 0.311908 0.834997
Si Si2 0.615282 0.945367 0.135990
Si Si3 0.225005 0.133182 0.052897
Si Si4 0.017994 0.111490 0.674320
Si Si5 0.884321 0.298416 0.164244
Si Si6 0.263163 0.446208 0.385039
Si Si7 0.924438 0.618479 0.379628
O O1 0.582429 0.339514 0.694277
O O2 0.646260 0.256935 0.792111
O O3 0.500000 0.311395 0.000000
O O4 0.705461 0.343923 0.890932
O O5 0.696218 0.946625 0.252496
O O6 0.496690 0.918968 0.239958
O O7 0.599421 0.000000 0.092038
O O8 0.683218 0.909865 0.990390
O O9 0.277473 0.176068 0.128644
O O10 0.104467 0.113561 0.178241
O O11 0.103121 0.069506 0.692274
O O12 0.000000 0.107719 0.500000
O O13 0.909985 0.331123 0.301086
O O14 0.000000 0.300197 0.000000
O O15 0.253134 0.500000 0.454631
O O16 0.196795 0.407034 0.520538
O O17 0.000000 0.624401 0.500000
#
# Coordination Sequence:
#
# PCOD9201859 Si02
#       7
#     8   8   8   8   8   8   8
#     4   9  21  39  62  87 119 164 205 248 305 360
#     4  10  20  37  65  93 121 160 205 254 306 360
#     4  11  21  40  61  91 123 157 205 257 298 362
#     4  11  23  40  60  88 127 158 200 256 301 358
#     4  11  21  38  63  91 120 161 203 251 310 362
#     4  10  21  39  63  87 121 168 204 241 304 367
#     4  10  21  39  61  92 126 156 202 254 301 365
#
# _framework density 20.308779000000001
#
# number of rings (size 3 to 8) (size 9 to 14) (size 15 to 20)
#    0.000    1.714    2.857    1.714    0.000    3.143 
#    0.000    7.857    0.000    0.000    0.000    0.000 
#    0.000    0.000    0.000    0.000    0.000    0.000 
#
# Total GULP energy -156425.645016 kJ/mol
# GULP energy per Si atom -5586.630179 kJ/mol
# Density = 2.026256 g / cm^3
# Si number density = 20.308779 Si / 1000 Ang^3
#
#
#
# Elastic Constant Matrix: (Units=GPa)
#
#
# Indices 1 2 3 4 5 6 
#
# 1 66.6524 4.0584 5.1142 0.0000 -4.1466 0.0000
# 2 4.0584 106.7812 18.2410 0.0000 3.1421 0.0000
# 3 5.1142 18.2410 13.1931 0.0000 -5.2751 0.0000
# 4 0.0000 0.0000 0.0000 -25.5659 0.0000 -37.2773
# 5 -4.1466 3.1421 -5.2751 0.0000 27.6828 0.0000
# 6 0.0000 0.0000 0.0000 -37.2773 0.0000 17.6862
#
#
#
# Elastic Compliance Matrix: (Units=1/GPa)
#
#
# Indices 1 2 3 4 5 6 
#
# 1 0.015519 0.000433 -0.006175 0.000000 0.001099 0.000000
# 2 0.000433 0.012948 -0.020168 0.000000 -0.005248 0.000000
# 3 -0.006175 -0.020168 0.115414 0.000000 0.023357 0.000000
# 4 0.000000 0.000000 0.000000 -0.009603 0.000000 -0.020240
# 5 0.001099 -0.005248 0.023357 0.000000 0.041334 0.000000
# 6 0.000000 0.000000 0.000000 -0.020240 0.000000 0.013881
#
#
# Mechanical properties :
#
#
# Convention : Reuss Voigt Hill
#
# Bulk Modulus (GPa) = 10.86237 26.82821 18.84529
# Shear Modulus (GPa) = 18.38221 14.57485 16.47853
#
# Velocity S-wave (km/s) = 3.01181 2.68183 2.85160
# Velocity P-wave (km/s) = 4.17791 4.77791 4.48795
#
# Compressibility (1/GPa) = 0.09206098
#
# Stress axis : x y z
#
# Youngs Moduli (GPa) = 64.43712 77.23088 8.66443
#
# Poissons Ratio (x) = -0.03341 0.05350
# Poissons Ratio (y) = -0.02788 0.17475
# Poissons Ratio (z) = 0.39788 1.55762
#
# Static dielectric constant tensor:
#      x y z
#    x 1.733000 0.000000 0.010910 
#    y 0.000000 1.688390 0.000000 
#    z 0.010910 0.000000 1.726220 
# 
# From -- ./inp_files/53174.got.cif
#   From: 2010.05.17/outbox.cif.g08.bks.cpg/sg12_27_cif.got.tgz:53174.got - 2010.06.03 13:09:07.
