data_PCOD9201741
_publ_section_title
;
Structure prediction by ZEFSAII (Michael W. Deem and Ramdas Pophale) SiO2 
 PCOD9201741
Probable space group: C 2/M
;
_chemical_formula_sum "Si O2"
_cell_formula_units_Z 52
_cell_length_a 25.266542
_cell_length_b 15.197093
_cell_length_c 20.319881
_cell_angle_alpha 90.000000
_cell_angle_beta 17.706719
_cell_angle_gamma 90.000000
_cell_volume 2373.055258
_symmetry_space_group_name_H-M "C 2/M"
_symmetry_group_IT_number 12
_symmetry_cell_setting 'monoclinic'
loop_
_space_group_symop_operation_xyz
x,y,z
-x,y,-z
-x,-y,-z
x,-y,z
1/2+x,1/2+y,z
1/2-x,1/2+y,-z
1/2-x,1/2-y,-z
1/2+x,1/2-y,z
loop_
_atom_site_type_symbol
_atom_site_label
_atom_site_fract_x
_atom_site_fract_y
_atom_site_fract_z
Si Si1 0.764935 0.000000 0.114712
Si Si2 0.646761 0.500000 0.688664
Si Si3 0.684392 0.402080 0.315300
Si Si4 0.004849 0.345222 0.414827
Si Si5 0.382615 0.329833 0.332665
Si Si6 0.012387 0.255895 0.057623
Si Si7 0.116632 0.821467 0.523520
Si Si8 0.260287 0.500000 0.278574
O O1 0.664256 0.911961 0.212677
O O2 0.766658 0.000000 0.192144
O O3 0.966905 0.000000 0.860709
O O4 0.728676 0.410414 0.565668
O O5 0.616340 0.500000 0.803238
O O6 0.500000 0.383043 0.500000
O O7 0.745948 0.500000 0.223408
O O8 0.631604 0.399759 0.454264
O O9 0.832068 0.327599 0.127823
O O10 0.000000 0.326544 0.500000
O O11 0.981912 0.258249 0.397877
O O12 0.844482 0.409049 0.587048
O O13 0.250000 0.250000 0.500000
O O14 0.520305 0.306324 0.111761
O O15 0.457230 0.342579 0.317348
O O16 0.821500 0.298154 0.289425
O O17 0.000000 0.211136 0.000000
#
# Coordination Sequence:
#
# PCOD9201741 Si02
#       8
#     4   4   8   8   8   8   8   4
#     4   9  21  35  55  93 127 159 209 255 316 408
#     4  12  23  36  60  88 126 168 209 266 324 383
#     4  10  22  40  64  92 125 167 218 272 327 384
#     4   9  18  36  60  89 122 164 204 253 321 384
#     4  10  23  41  59  95 129 165 220 268 335 388
#     4   9  20  39  63  93 123 158 218 265 319 387
#     4  10  20  37  64  86 124 166 213 273 323 376
#     4   9  17  33  59  87 121 155 197 247 310 379
#
# _framework density 21.912680000000002
#
# number of rings (size 3 to 8) (size 9 to 14) (size 15 to 20)
#    0.000    2.308    0.000    3.462    1.077   10.154 
#    4.154    3.077    0.000    0.000    0.000    0.000 
#    0.000    0.000    0.000    0.000    0.000    0.000 
#
# Total GULP energy -144800.760596 kJ/mol
# GULP energy per Si atom -5569.260023 kJ/mol
# Density = 2.186281 g / cm^3
# Si number density = 21.912680 Si / 1000 Ang^3
#
#
#
# Elastic Constant Matrix: (Units=GPa)
#
#
# Indices 1 2 3 4 5 6 
#
# 1 136.2073 41.4858 41.1285 -0.0112 21.5822 0.0004
# 2 41.4858 118.6911 26.5535 -0.0117 5.9866 -0.0013
# 3 41.1285 26.5535 57.3850 -0.0005 2.4182 -0.0059
# 4 -0.0112 -0.0117 -0.0005 18.2482 0.0020 -0.5931
# 5 21.5822 5.9866 2.4182 0.0020 47.0028 0.0023
# 6 0.0004 -0.0013 -0.0059 -0.5931 0.0023 12.0897
#
#
#
# Elastic Compliance Matrix: (Units=1/GPa)
#
#
# Indices 1 2 3 4 5 6 
#
# 1 0.010593 -0.002040 -0.006468 0.000005 -0.004271 -0.000003
# 2 -0.002040 0.009836 -0.003083 0.000005 -0.000157 0.000000
# 3 -0.006468 -0.003083 0.023397 -0.000005 0.002159 0.000011
# 4 0.000005 0.000005 -0.000005 0.054887 -0.000005 0.002693
# 5 -0.004271 -0.000157 0.002159 -0.000005 0.023146 -0.000003
# 6 -0.000003 0.000000 0.000011 0.002693 -0.000003 0.082847
#
#
# Mechanical properties :
#
#
# Convention : Reuss Voigt Hill
#
# Bulk Modulus (GPa) = 48.43849 58.95765 53.69807
# Shear Modulus (GPa) = 21.29753 29.00920 25.15337
#
# Velocity S-wave (km/s) = 3.12096 3.64243 3.39173
# Velocity P-wave (km/s) = 5.92793 6.68235 6.31642
#
# Compressibility (1/GPa) = 0.02064474
#
# Stress axis : x y z
#
# Youngs Moduli (GPa) = 94.40198 101.66886 42.73988
#
# Poissons Ratio (x) = 0.20741 0.27645
# Poissons Ratio (y) = 0.19258 0.13175
# Poissons Ratio (z) = 0.61061 0.31340
#
# Static dielectric constant tensor:
#      x y z
#    x 1.966720 -0.000010 0.029220 
#    y -0.000010 1.916400 0.000000 
#    z 0.029220 0.000000 1.838470 
# 
# From -- ./inp_files/328319.got.cif
#   From: 2010.05.17/outbox.cif.g08.bks.cpg/sg12_165_cif.got.tgz:328319.got - 2010.06.03 13:09:07.
