data_PCOD9201519
_publ_section_title
;
Structure prediction by ZEFSAII (Michael W. Deem and Ramdas Pophale) SiO2 
 PCOD9201519
Probable space group: C 2/M
;
_chemical_formula_sum "Si O2"
_cell_formula_units_Z 44
_cell_length_a 11.925469
_cell_length_b 21.831725
_cell_length_c 12.545060
_cell_angle_alpha 90.000000
_cell_angle_beta 133.267163
_cell_angle_gamma 90.000000
_cell_volume 2378.299117
_symmetry_space_group_name_H-M "C 2/M"
_symmetry_group_IT_number 12
_symmetry_cell_setting 'monoclinic'
loop_
_space_group_symop_operation_xyz
x,y,z
-x,y,-z
-x,-y,-z
x,-y,z
1/2+x,1/2+y,z
1/2-x,1/2+y,-z
1/2-x,1/2-y,-z
1/2+x,1/2-y,z
loop_
_atom_site_type_symbol
_atom_site_label
_atom_site_fract_x
_atom_site_fract_y
_atom_site_fract_z
Si Si1 0.836601 0.500000 0.271717
Si Si2 0.500000 0.889750 0.500000
Si Si3 0.500000 0.101125 0.000000
Si Si4 0.190757 0.500000 0.996514
Si Si5 0.430746 0.624997 0.624648
Si Si6 0.748075 0.787854 0.608577
Si Si7 0.233267 0.161690 0.697987
Si Si8 0.559845 0.500000 0.249998
O O1 0.918181 0.437681 0.366888
O O2 0.848737 0.500000 0.153363
O O3 0.665376 0.500000 0.212859
O O4 0.622649 0.841824 0.531384
O O5 0.395630 0.140221 0.850553
O O6 0.615700 0.057905 0.008137
O O7 0.375805 0.500000 0.118026
O O8 0.405500 0.674390 0.702364
O O9 0.598599 0.635980 0.685541
O O10 0.313249 0.635699 0.449096
O O11 0.402126 0.559394 0.655711
O O12 0.750000 0.750000 0.500000
O O13 0.725525 0.735683 0.682204
#
# Coordination Sequence:
#
# PCOD9201519 Si02
#       8
#     4   4   4   4   8   8   8   4
#     4  11  26  39  67  92 131 172 211 272 316 393
#     4  11  22  40  62 102 122 163 222 258 324 371
#     4  11  24  44  64  96 130 169 216 264 328 379
#     4  11  26  42  64  89 136 169 212 272 325 382
#     4  10  21  38  65  94 121 166 213 264 321 375
#     4  10  20  37  62  90 128 161 204 266 312 374
#     4  10  22  40  63  95 128 167 214 265 321 378
#     4  12  21  44  64  92 127 166 218 263 327 382
#
# _framework density 18.500616999999998
#
# number of rings (size 3 to 8) (size 9 to 14) (size 15 to 20)
#    0.000    1.455    3.636    2.455    5.091    2.909 
#    0.000    2.727    0.000    0.000    0.000    0.000 
#    0.000    0.000    0.000    0.000    0.000    0.000 
#
# Total GULP energy -122559.649090 kJ/mol
# GULP energy per Si atom -5570.893140 kJ/mol
# Density = 1.845851 g / cm^3
# Si number density = 18.500617 Si / 1000 Ang^3
#
#
#
# Elastic Constant Matrix: (Units=GPa)
#
#
# Indices 1 2 3 4 5 6 
#
# 1 87.6471 37.2393 21.9079 0.0000 -7.2795 0.0000
# 2 37.2393 143.8680 36.0885 0.0000 -4.2406 0.0000
# 3 21.9079 36.0885 95.7468 0.0000 9.7906 0.0000
# 4 0.0000 0.0000 0.0000 32.1733 0.0000 11.1767
# 5 -7.2795 -4.2406 9.7906 0.0000 13.4415 0.0000
# 6 0.0000 0.0000 0.0000 11.1767 0.0000 27.4926
#
#
#
# Elastic Compliance Matrix: (Units=1/GPa)
#
#
# Indices 1 2 3 4 5 6 
#
# 1 0.014054 -0.002572 -0.003178 0.000000 0.009115 0.000000
# 2 -0.002572 0.008457 -0.002949 0.000000 0.003424 0.000000
# 3 -0.003178 -0.002949 0.013565 0.000000 -0.012532 0.000000
# 4 0.000000 0.000000 0.000000 0.036193 0.000000 -0.014714
# 5 0.009115 0.003424 -0.012532 0.000000 0.089540 0.000000
# 6 0.000000 0.000000 0.000000 -0.014714 0.000000 0.042355
#
#
# Mechanical properties :
#
#
# Convention : Reuss Voigt Hill
#
# Bulk Modulus (GPa) = 53.54290 57.52593 55.53441
# Shear Modulus (GPa) = 21.95023 30.08990 26.02006
#
# Velocity S-wave (km/s) = 3.44824 4.03727 3.75433
# Velocity P-wave (km/s) = 6.69759 7.27285 6.99114
#
# Compressibility (1/GPa) = 0.01867661
#
# Stress axis : x y z
#
# Youngs Moduli (GPa) = 71.15659 118.24218 73.72175
#
# Poissons Ratio (x) = 0.30409 0.23431
# Poissons Ratio (y) = 0.18300 0.21743
# Poissons Ratio (z) = 0.22616 0.34873
#
# Static dielectric constant tensor:
#      x y z
#    x 1.687590 0.000000 0.035160 
#    y 0.000000 1.622520 0.000000 
#    z 0.035160 0.000000 1.643860 
# 
# From -- ./inp_files/207851.got.cif
#   From: 2010.05.17/outbox.cif.g08.bks.cpg/sg12_104_cif.got.tgz:207851.got - 2010.06.03 13:09:07.
