data_PCOD9201446
_publ_section_title
;
Structure prediction by ZEFSAII (Michael W. Deem and Ramdas Pophale) SiO2 
 PCOD9201446
Probable space group: C 2/M
;
_chemical_formula_sum "Si O2"
_cell_formula_units_Z 48
_cell_length_a 15.573191
_cell_length_b 8.503121
_cell_length_c 30.434862
_cell_angle_alpha 90.000000
_cell_angle_beta 39.827065
_cell_angle_gamma 90.000000
_cell_volume 2581.236655
_symmetry_space_group_name_H-M "C 2/M"
_symmetry_group_IT_number 12
_symmetry_cell_setting 'monoclinic'
loop_
_space_group_symop_operation_xyz
x,y,z
-x,y,-z
-x,-y,-z
x,-y,z
1/2+x,1/2+y,z
1/2-x,1/2+y,-z
1/2-x,1/2-y,-z
1/2+x,1/2-y,z
loop_
_atom_site_type_symbol
_atom_site_label
_atom_site_fract_x
_atom_site_fract_y
_atom_site_fract_z
Si Si1 0.863842 0.811770 0.673548
Si Si2 0.165504 0.809976 0.574695
Si Si3 0.642970 0.189950 0.422338
Si Si4 0.131478 0.188527 0.827751
Si Si5 0.857060 0.808436 0.076327
Si Si6 0.836267 0.688902 0.924917
O O1 0.844042 0.760344 0.631012
O O2 0.748604 0.744066 0.749733
O O3 0.011869 0.757256 0.630690
O O4 0.860587 0.000000 0.677341
O O5 0.250000 0.750000 0.500000
O O6 0.240130 0.760449 0.590020
O O7 0.167466 0.000000 0.572840
O O8 0.500000 0.234574 0.500000
O O9 0.644958 0.000000 0.418023
O O10 0.156051 0.243774 0.868274
O O11 0.987104 0.250503 0.869230
O O12 0.126850 0.000000 0.829932
O O13 0.738843 0.758743 0.090106
O O14 0.857920 0.000000 0.076201
O O15 0.000000 0.758243 0.000000
O O16 0.835952 0.500000 0.926125
O O17 0.750000 0.750000 0.000000
#
# Coordination Sequence:
#
# PCOD9201446 Si02
#       6
#     8   8   8   8   8   8
#     4  11  24  40  58  87 124 155 192 246 299 349
#     4  10  21  37  60  88 118 153 196 244 291 346
#     4  10  20  37  62  89 118 155 198 240 290 354
#     4  11  23  41  62  85 118 159 198 243 298 351
#     4   9  18  36  61  87 117 154 196 237 287 352
#     4  11  21  37  62  91 121 154 198 244 292 349
#
# _framework density 18.595737
#
# number of rings (size 3 to 8) (size 9 to 14) (size 15 to 20)
#    0.000    1.667    3.333    1.500    0.000    3.000 
#    0.000    7.500    0.000    0.000    0.000    0.000 
#    0.000    0.000    0.000    0.000    0.000    0.000 
#
# Total GULP energy -134081.983746 kJ/mol
# GULP energy per Si atom -5586.749323 kJ/mol
# Density = 1.855341 g / cm^3
# Si number density = 18.595737 Si / 1000 Ang^3
#
#
#
# Elastic Constant Matrix: (Units=GPa)
#
#
# Indices 1 2 3 4 5 6 
#
# 1 226.1070 40.4482 119.0020 -0.0002 -1.4513 -0.0007
# 2 40.4482 31.5471 36.9282 0.0002 -0.6535 -0.0001
# 3 119.0020 36.9282 184.3403 0.0000 -4.4749 -0.0002
# 4 -0.0002 0.0002 0.0000 27.6604 0.0000 -3.9509
# 5 -1.4513 -0.6535 -4.4749 0.0000 34.4805 -0.0001
# 6 -0.0007 -0.0001 -0.0002 -3.9509 -0.0001 21.2122
#
#
#
# Elastic Compliance Matrix: (Units=1/GPa)
#
#
# Indices 1 2 3 4 5 6 
#
# 1 0.007256 -0.004988 -0.003692 0.000000 -0.000268 0.000000
# 2 -0.004988 0.044840 -0.005765 0.000000 -0.000108 0.000000
# 3 -0.003692 -0.005765 0.008985 0.000000 0.000901 0.000000
# 4 0.000000 0.000000 0.000000 0.037141 0.000000 0.006918
# 5 -0.000268 -0.000108 0.000901 0.000000 0.029106 0.000000
# 6 0.000000 0.000000 0.000000 0.006918 0.000000 0.048431
#
#
# Mechanical properties :
#
#
# Convention : Reuss Voigt Hill
#
# Bulk Modulus (GPa) = 31.06397 92.75014 61.90705
# Shear Modulus (GPa) = 23.21489 33.04500 28.12995
#
# Velocity S-wave (km/s) = 3.53710 4.22005 3.89358
# Velocity P-wave (km/s) = 5.78123 8.58664 7.31960
#
# Compressibility (1/GPa) = 0.03219164
#
# Stress axis : x y z
#
# Youngs Moduli (GPa) = 137.81463 22.30132 111.30014
#
# Poissons Ratio (x) = 0.11123 0.41087
# Poissons Ratio (y) = 0.68739 0.64170
# Poissons Ratio (z) = 0.50875 0.12858
#
# Static dielectric constant tensor:
#      x y z
#    x 1.652450 0.000000 -0.001740 
#    y 0.000000 1.637580 0.000000 
#    z -0.001740 0.000000 1.594970 
# 
# From -- ./inp_files/308278.got.cif
#   From: 2010.05.17/outbox.cif.g08.bks.cpg/sg12_155_cif.got.tgz:308278.got - 2010.06.03 13:09:07.
