data_PCOD9201359
_publ_section_title
;
Structure prediction by ZEFSAII (Michael W. Deem and Ramdas Pophale) SiO2 
 PCOD9201359
Probable space group: C 2/M
;
_chemical_formula_sum "Si O2"
_cell_formula_units_Z 56
_cell_length_a 19.678649
_cell_length_b 26.564357
_cell_length_c 8.665954
_cell_angle_alpha 90.000000
_cell_angle_beta 141.644570
_cell_angle_gamma 90.000000
_cell_volume 2811.119595
_symmetry_space_group_name_H-M "C 2/M"
_symmetry_group_IT_number 12
_symmetry_cell_setting 'monoclinic'
loop_
_space_group_symop_operation_xyz
x,y,z
-x,y,-z
-x,-y,-z
x,-y,z
1/2+x,1/2+y,z
1/2-x,1/2+y,-z
1/2-x,1/2-y,-z
1/2+x,1/2-y,z
loop_
_atom_site_type_symbol
_atom_site_label
_atom_site_fract_x
_atom_site_fract_y
_atom_site_fract_z
Si Si1 0.091777 0.943930 0.294569
Si Si2 0.233362 0.176760 0.102439
Si Si3 0.932047 0.604709 0.519823
Si Si4 0.582631 0.844603 0.021082
Si Si5 0.707857 0.284414 0.703986
Si Si6 0.508751 0.650049 0.330758
Si Si7 0.842637 0.557024 0.666341
O O1 0.064896 0.899826 0.364892
O O2 0.211261 0.937912 0.432207
O O3 0.088644 0.000000 0.360525
O O4 0.000000 0.941846 0.000000
O O5 0.323223 0.133130 0.268590
O O6 0.276941 0.224783 0.274204
O O7 0.216963 0.196821 0.898550
O O8 0.114355 0.158763 0.947978
O O9 0.893788 0.568695 0.590266
O O10 0.000000 0.581157 0.500000
O O11 0.014609 0.645704 0.743940
O O12 0.690808 0.811915 0.196657
O O13 0.615681 0.899914 0.143860
O O14 0.500000 0.822387 0.000000
O O15 0.590378 0.303947 0.438135
O O16 0.500000 0.645805 0.500000
O O17 0.868836 0.500000 0.761389
#
# Coordination Sequence:
#
# PCOD9201359 Si02
#       7
#     8   8   8   8   8   8   8
#     4  10  20  37  62  86 119 159 197 246 308 360
#     4  10  22  36  61  89 120 156 200 248 302 353
#     4  11  22  37  62  87 121 155 201 253 294 351
#     4  10  21  38  61  85 120 158 195 245 296 365
#     4  10  20  38  60  86 118 160 200 240 303 358
#     4  10  21  37  61  88 120 154 203 251 293 359
#     4  10  22  41  62  87 119 162 201 243 308 367
#
# _framework density 19.920888999999999
#
# number of rings (size 3 to 8) (size 9 to 14) (size 15 to 20)
#    0.000    1.857    2.857    0.857    2.000    3.714 
#    0.000    5.000    0.000    0.857    0.000    0.000 
#    0.000    0.000    0.000    0.000    0.000    0.000 
#
# Total GULP energy -156326.705190 kJ/mol
# GULP energy per Si atom -5583.096614 kJ/mol
# Density = 1.987555 g / cm^3
# Si number density = 19.920889 Si / 1000 Ang^3
#
#
#
# Elastic Constant Matrix: (Units=GPa)
#
#
# Indices 1 2 3 4 5 6 
#
# 1 106.4248 36.6497 23.2836 0.0000 37.2550 0.0000
# 2 36.6497 82.7710 10.3930 0.0000 21.0773 0.0000
# 3 23.2836 10.3930 83.5878 0.0000 35.5001 0.0000
# 4 0.0000 0.0000 0.0000 74.7200 0.0000 -40.6093
# 5 37.2550 21.0773 35.5001 0.0000 34.2420 0.0000
# 6 0.0000 0.0000 0.0000 -40.6093 0.0000 47.7232
#
#
#
# Elastic Compliance Matrix: (Units=1/GPa)
#
#
# Indices 1 2 3 4 5 6 
#
# 1 0.016841 -0.002504 0.004909 0.000000 -0.021870 0.000000
# 2 -0.002504 0.015300 0.002926 0.000000 -0.009727 0.000000
# 3 0.004909 0.002926 0.023701 0.000000 -0.031714 0.000000
# 4 0.000000 0.000000 0.000000 0.024898 0.000000 0.021186
# 5 -0.021870 -0.009727 -0.031714 0.000000 0.091865 0.000000
# 6 0.000000 0.000000 0.000000 0.021186 0.000000 0.038982
#
#
# Mechanical properties :
#
#
# Convention : Reuss Voigt Hill
#
# Bulk Modulus (GPa) = 15.03667 45.93734 30.48700
# Shear Modulus (GPa) = 22.41216 44.83420 33.62318
#
# Velocity S-wave (km/s) = 3.35783 4.74921 4.11278
# Velocity P-wave (km/s) = 4.75373 7.29269 6.15553
#
# Compressibility (1/GPa) = 0.06650411
#
# Stress axis : x y z
#
# Youngs Moduli (GPa) = 59.38055 65.36048 42.19143
#
# Poissons Ratio (x) = 0.16366 -0.20711
# Poissons Ratio (y) = 0.14868 -0.12347
# Poissons Ratio (z) = -0.29148 -0.19127
#
# Static dielectric constant tensor:
#      x y z
#    x 1.701160 0.000000 -0.002640 
#    y 0.000000 1.683500 0.000000 
#    z -0.002640 0.000000 1.723170 
# 
# From -- ./inp_files/80498.got.cif
#   From: 2010.05.17/outbox.cif.g08.bks.cpg/sg12_41_cif.got.tgz:80498.got - 2010.06.03 13:09:07.
