data_PCOD9201248
_publ_section_title
;
Structure prediction by ZEFSAII (Michael W. Deem and Ramdas Pophale) SiO2 
 PCOD9201248
Probable space group: C 2/M
;
_chemical_formula_sum "Si O2"
_cell_formula_units_Z 64
_cell_length_a 9.879933
_cell_length_b 15.918207
_cell_length_c 29.807430
_cell_angle_alpha 90.000000
_cell_angle_beta 45.659367
_cell_angle_gamma 90.000000
_cell_volume 3352.729511
_symmetry_space_group_name_H-M "C 2/M"
_symmetry_group_IT_number 12
_symmetry_cell_setting 'monoclinic'
loop_
_space_group_symop_operation_xyz
x,y,z
-x,y,-z
-x,-y,-z
x,-y,z
1/2+x,1/2+y,z
1/2-x,1/2+y,-z
1/2-x,1/2-y,-z
1/2+x,1/2-y,z
loop_
_atom_site_type_symbol
_atom_site_label
_atom_site_fract_x
_atom_site_fract_y
_atom_site_fract_z
Si Si1 0.574743 0.902135 0.857927
Si Si2 0.781964 0.865919 0.717972
Si Si3 0.778848 0.904592 0.380329
Si Si4 0.791006 0.756479 0.542939
Si Si5 0.394107 0.816174 0.666086
Si Si6 0.180318 0.907216 0.896847
Si Si7 0.529647 0.231764 0.043120
Si Si8 0.091906 0.409565 0.246829
O O1 0.707561 0.868783 0.786606
O O2 0.363445 0.905738 0.886356
O O3 0.561954 0.834538 0.900874
O O4 0.626492 0.000000 0.857115
O O5 0.805066 0.776274 0.688306
O O6 0.614586 0.907710 0.728142
O O7 0.992434 0.903421 0.669902
O O8 0.710539 0.834023 0.431632
O O9 0.707614 0.872021 0.348149
O O10 0.712869 0.000000 0.403814
O O11 0.750000 0.750000 0.500000
O O12 0.617032 0.808435 0.603664
O O13 0.000000 0.793923 0.500000
O O14 0.377913 0.845077 0.720850
O O15 0.261295 0.900493 0.827695
O O16 0.063069 0.824083 0.932902
O O17 0.087992 0.000000 0.923334
O O18 0.500000 0.197759 0.000000
O O19 0.750000 0.250000 0.000000
O O20 0.119536 0.500000 0.262156
#
# Coordination Sequence:
#
# PCOD9201248 Si02
#       8
#     8   8   8   8   8   8   8   8
#     4  10  21  40  63  88 122 161 200 249 305 362
#     4  10  20  38  63  89 117 155 197 237 295 363
#     4  11  23  39  61  92 124 155 191 246 311 356
#     4  11  23  43  61  84 115 160 209 243 285 352
#     4  11  22  37  62  88 122 156 192 245 299 356
#     4   9  20  40  64  86 117 161 201 242 302 370
#     4  12  24  40  61  90 119 155 209 255 297 359
#     4  10  20  37  61  90 117 147 194 245 292 352
#
# _framework density 19.088923999999999
#
# number of rings (size 3 to 8) (size 9 to 14) (size 15 to 20)
#    0.000    1.500    2.500    4.500    1.750    2.250 
#    2.250    0.000    0.000    1.875    0.000    0.000 
#    0.000    0.000    0.000    0.000    0.000    0.000 
#
# Total GULP energy -178497.040056 kJ/mol
# GULP energy per Si atom -5578.032502 kJ/mol
# Density = 1.904548 g / cm^3
# Si number density = 19.088924 Si / 1000 Ang^3
#
#
#
# Elastic Constant Matrix: (Units=GPa)
#
#
# Indices 1 2 3 4 5 6 
#
# 1 62.3656 2.6785 11.6789 -0.0002 14.8040 0.0002
# 2 2.6785 61.5750 11.0721 -0.0002 5.9929 0.0001
# 3 11.6789 11.0721 45.4637 -0.0005 3.6347 -0.0006
# 4 -0.0002 -0.0002 -0.0005 4.9361 0.0001 -6.4037
# 5 14.8040 5.9929 3.6347 0.0001 37.7485 -0.0002
# 6 0.0002 0.0001 -0.0006 -6.4037 -0.0002 16.1457
#
#
#
# Elastic Compliance Matrix: (Units=1/GPa)
#
#
# Indices 1 2 3 4 5 6 
#
# 1 0.018465 0.000653 -0.004349 0.000000 -0.006926 -0.000001
# 2 0.000653 0.017211 -0.004152 0.000000 -0.002589 0.000000
# 3 -0.004349 -0.004152 0.024121 0.000007 0.000042 0.000004
# 4 0.000000 0.000000 0.000007 0.417307 -0.000001 0.165512
# 5 -0.006926 -0.002589 0.000042 -0.000001 0.029614 0.000000
# 6 -0.000001 0.000000 0.000004 0.165512 0.000000 0.127581
#
#
# Mechanical properties :
#
#
# Convention : Reuss Voigt Hill
#
# Bulk Modulus (GPa) = 22.67569 24.47371 23.57470
# Shear Modulus (GPa) = 7.52226 21.36440 14.44333
#
# Velocity S-wave (km/s) = 1.98726 3.34908 2.75368
# Velocity P-wave (km/s) = 4.14371 5.27294 4.74206
#
# Compressibility (1/GPa) = 0.04410010
#
# Stress axis : x y z
#
# Youngs Moduli (GPa) = 54.15672 58.10406 41.45851
#
# Poissons Ratio (x) = -0.03793 0.18029
# Poissons Ratio (y) = -0.03536 0.17214
# Poissons Ratio (z) = 0.23551 0.24126
#
# Static dielectric constant tensor:
#      x y z
#    x 1.614690 0.000000 0.008930 
#    y 0.000000 1.723120 0.000000 
#    z 0.008930 0.000000 1.660120 
# 
# From -- ./inp_files/372563.got.cif
#   From: 2010.05.17/outbox.cif.g08.bks.cpg/sg12_187_cif.got.tgz:372563.got - 2010.06.03 13:09:07.
