data_PCOD9202078
_publ_section_title
;
Structure prediction by ZEFSAII (Michael W. Deem and Ramdas Pophale) SiO2 
 PCOD9202078
Probable space group: C 2/M
;
_chemical_formula_sum "Si O2"
_cell_formula_units_Z 32
_cell_length_a 12.091730
_cell_length_b 25.934719
_cell_length_c 5.030764
_cell_angle_alpha 90.000000
_cell_angle_beta 85.699288
_cell_angle_gamma 90.000000
_cell_volume 1573.183279
_symmetry_space_group_name_H-M "C 2/M"
_symmetry_group_IT_number 12
_symmetry_cell_setting 'monoclinic'
loop_
_space_group_symop_operation_xyz
x,y,z
-x,y,-z
-x,-y,-z
x,-y,z
1/2+x,1/2+y,z
1/2-x,1/2+y,-z
1/2-x,1/2-y,-z
1/2+x,1/2-y,z
loop_
_atom_site_type_symbol
_atom_site_label
_atom_site_fract_x
_atom_site_fract_y
_atom_site_fract_z
Si Si1 0.213179 0.282502 0.255372
Si Si2 0.000000 0.676034 0.500000
Si Si3 0.624356 0.560107 0.402211
Si Si4 0.000000 0.608904 0.000000
Si Si5 0.255692 0.098021 0.874087
O O1 0.250000 0.250000 0.500000
O O2 0.249643 0.342004 0.215519
O O3 0.083131 0.288724 0.323133
O O4 0.250000 0.250000 0.000000
O O5 0.954447 0.640467 0.267592
O O6 0.500000 0.578290 0.500000
O O7 0.615246 0.500000 0.326659
O O8 0.702504 0.565901 0.644817
O O9 0.681938 0.589635 0.149031
O O10 0.114555 0.584142 0.089578
#
# Coordination Sequence:
#
# PCOD9202078 Si02
#       5
#     8   4   8   4   8
#     4  11  22  39  59  90 126 164 210 261 316 378
#     4  10  20  38  58  82 125 172 203 240 330 382
#     4  11  24  44  66  92 130 173 212 266 334 385
#     4  10  20  38  67  88 120 168 202 258 321 390
#     4  11  22  42  66  93 124 168 221 259 324 392
#
# _framework density 20.340921999999999
#
# number of rings (size 3 to 8) (size 9 to 14) (size 15 to 20)
#    0.000    1.250    0.000    9.000    0.000    2.000 
#   13.500    3.750    0.000    0.000    0.000    0.000 
#    0.000    0.000    0.000    0.000    0.000    0.000 
#
# Total GULP energy -89226.320698 kJ/mol
# GULP energy per Si atom -5576.645044 kJ/mol
# Density = 2.029463 g / cm^3
# Si number density = 20.340922 Si / 1000 Ang^3
#
#
#
# Elastic Constant Matrix: (Units=GPa)
#
#
# Indices 1 2 3 4 5 6 
#
# 1 111.0094 26.9010 45.9422 0.0000 -10.6730 0.0000
# 2 26.9010 51.9315 25.2549 0.0000 -17.5764 0.0000
# 3 45.9422 25.2549 165.5650 0.0000 -13.1131 0.0000
# 4 0.0000 0.0000 0.0000 34.2567 0.0000 6.3015
# 5 -10.6730 -17.5764 -13.1131 0.0000 46.6806 0.0000
# 6 0.0000 0.0000 0.0000 6.3015 0.0000 20.6581
#
#
#
# Elastic Compliance Matrix: (Units=1/GPa)
#
#
# Indices 1 2 3 4 5 6 
#
# 1 0.011108 -0.004544 -0.002377 0.000000 0.000161 0.000000
# 2 -0.004544 0.025243 -0.001963 0.000000 0.007914 0.000000
# 3 -0.002377 -0.001963 0.007054 0.000000 0.000699 0.000000
# 4 0.000000 0.000000 0.000000 0.030927 0.000000 -0.009434
# 5 0.000161 0.007914 0.000699 0.000000 0.024635 0.000000
# 6 0.000000 0.000000 0.000000 -0.009434 0.000000 0.051285
#
#
# Mechanical properties :
#
#
# Convention : Reuss Voigt Hill
#
# Bulk Modulus (GPa) = 39.00289 58.30023 48.65156
# Shear Modulus (GPa) = 28.31809 35.67961 31.99885
#
# Velocity S-wave (km/s) = 3.73523 4.19272 3.97057
# Velocity P-wave (km/s) = 6.14970 7.22235 6.70750
#
# Compressibility (1/GPa) = 0.02563912
#
# Stress axis : x y z
#
# Youngs Moduli (GPa) = 90.02152 39.61477 141.76012
#
# Poissons Ratio (x) = 0.18001 0.33690
# Poissons Ratio (y) = 0.40905 0.27825
# Poissons Ratio (z) = 0.21394 0.07776
#
# Static dielectric constant tensor:
#      x y z
#    x 1.507350 0.000000 -0.242090 
#    y 0.000000 1.808150 0.000000 
#    z -0.242090 0.000000 1.475050 
# 
# From -- ./inp_files/6834.got.cif
#   From: 2010.05.17/outbox.cif.g08.bks.cpg/sg12_4_cif.got.tgz:6834.got - 2010.06.03 13:09:07.
