data_PCOD9202996
_publ_section_title
;
Structure prediction by ZEFSAII (Michael W. Deem and Ramdas Pophale) SiO2 
 PCOD9202996
Probable space group: C 2/M
;
_chemical_formula_sum "Si O2"
_cell_formula_units_Z 60
_cell_length_a 18.147356
_cell_length_b 14.362090
_cell_length_c 12.489558
_cell_angle_alpha 90.000000
_cell_angle_beta 63.468228
_cell_angle_gamma 90.000000
_cell_volume 2912.387107
_symmetry_space_group_name_H-M "C 2/M"
_symmetry_group_IT_number 12
_symmetry_cell_setting 'monoclinic'
loop_
_space_group_symop_operation_xyz
x,y,z
-x,y,-z
-x,-y,-z
x,-y,z
1/2+x,1/2+y,z
1/2-x,1/2+y,-z
1/2-x,1/2-y,-z
1/2+x,1/2-y,z
loop_
_atom_site_type_symbol
_atom_site_label
_atom_site_fract_x
_atom_site_fract_y
_atom_site_fract_z
Si Si1 0.500000 0.223429 0.500000
Si Si2 0.937727 0.779991 0.764783
Si Si3 0.727539 0.610454 0.172176
Si Si4 0.174587 0.610227 0.687626
Si Si5 0.341450 0.891515 0.909651
Si Si6 0.665267 0.888864 0.447086
Si Si7 0.703877 0.391167 0.818599
Si Si8 0.443615 0.742037 0.133089
O O1 0.479310 0.279638 0.621306
O O2 0.419248 0.161919 0.527920
O O3 0.853047 0.836547 0.813402
O O4 0.910604 0.675519 0.817522
O O5 0.000294 0.811235 0.816042
O O6 0.715949 0.500000 0.164650
O O7 0.749508 0.628874 0.281451
O O8 0.807351 0.635956 0.048607
O O9 0.155490 0.500000 0.710075
O O10 0.189842 0.630639 0.553502
O O11 0.100758 0.673936 0.776880
O O12 0.261603 0.882216 0.884962
O O13 0.366682 0.000000 0.893196
O O14 0.737816 0.863024 0.318680
O O15 0.652728 0.000000 0.443787
O O16 0.681984 0.500000 0.821717
O O17 0.624866 0.326724 0.869751
O O18 0.500000 0.776812 0.000000
#
# Coordination Sequence:
#
# PCOD9202996 Si02
#       8
#     4   8   8   8   8   8   8   8
#     4  12  23  38  59  96 122 154 192 252 312 356
#     4  12  24  38  59  93 123 159 198 247 304 356
#     4  10  22  41  63  85 119 163 207 246 290 355
#     4  10  22  40  62  89 119 160 203 246 299 359
#     4  10  20  38  65  91 116 155 202 255 305 351
#     4  10  21  40  65  90 119 154 198 252 305 357
#     4  10  22  40  64  91 118 159 206 249 298 352
#     4  12  25  39  59  90 128 164 198 246 299 355
#
# _framework density 20.601656999999999
#
# number of rings (size 3 to 8) (size 9 to 14) (size 15 to 20)
#    0.000    1.333    2.667    3.000    0.000    3.733 
#    0.000    0.333    0.000    0.000    0.000    0.000 
#    0.000    0.000    0.000    0.000    0.000    0.000 
#
# Total GULP energy -167828.882900 kJ/mol
# GULP energy per Si atom -5594.296097 kJ/mol
# Density = 2.055477 g / cm^3
# Si number density = 20.601657 Si / 1000 Ang^3
#
#
#
# Elastic Constant Matrix: (Units=GPa)
#
#
# Indices 1 2 3 4 5 6 
#
# 1 53.2133 14.2295 -10.1630 0.0000 4.3646 0.0000
# 2 14.2295 47.5571 -0.2709 0.0000 -3.4028 0.0000
# 3 -10.1630 -0.2709 69.3089 0.0000 10.6365 0.0000
# 4 0.0000 0.0000 0.0000 13.9341 0.0000 -2.2003
# 5 4.3646 -3.4028 10.6365 0.0000 33.0210 0.0000
# 6 0.0000 0.0000 0.0000 -2.2003 0.0000 4.8288
#
#
#
# Elastic Compliance Matrix: (Units=1/GPa)
#
#
# Indices 1 2 3 4 5 6 
#
# 1 0.021763 -0.006836 0.003907 0.000000 -0.004840 0.000000
# 2 -0.006836 0.023335 -0.001493 0.000000 0.003789 0.000000
# 3 0.003907 -0.001493 0.015883 0.000000 -0.005786 0.000000
# 4 0.000000 0.000000 0.000000 0.077330 0.000000 0.035236
# 5 -0.004840 0.003789 -0.005786 0.000000 0.033178 0.000000
# 6 0.000000 0.000000 0.000000 0.035236 0.000000 0.223146
#
#
# Mechanical properties :
#
#
# Convention : Reuss Voigt Hill
#
# Bulk Modulus (GPa) = 19.17930 19.74116 19.46023
# Shear Modulus (GPa) = 11.88047 21.44235 16.66141
#
# Velocity S-wave (km/s) = 2.40401 3.22965 2.84692
# Velocity P-wave (km/s) = 4.12741 4.84878 4.50256
#
# Compressibility (1/GPa) = 0.05213956
#
# Stress axis : x y z
#
# Youngs Moduli (GPa) = 45.94871 42.85349 62.95925
#
# Poissons Ratio (x) = 0.29294 -0.24600
# Poissons Ratio (y) = 0.31410 0.09398
# Poissons Ratio (z) = -0.17953 0.06396
#
# Static dielectric constant tensor:
#      x y z
#    x 1.716950 0.000000 0.029050 
#    y 0.000000 1.728500 0.000000 
#    z 0.029050 0.000000 1.726190 
# 
# From -- ./inp_files/156593.got.cif
#   From: 2010.05.17/outbox.cif.g08.bks.cpg/sg12_79_cif.got.tgz:156593.got - 2010.06.03 13:09:07.
