data_PCOD9202841
_publ_section_title
;
Structure prediction by ZEFSAII (Michael W. Deem and Ramdas Pophale) SiO2 
 PCOD9202841
Probable space group: C 2/M
;
_chemical_formula_sum "Si O2"
_cell_formula_units_Z 56
_cell_length_a 19.363001
_cell_length_b 7.505690
_cell_length_c 18.801616
_cell_angle_alpha 90.000000
_cell_angle_beta 67.047250
_cell_angle_gamma 90.000000
_cell_volume 2516.149277
_symmetry_space_group_name_H-M "C 2/M"
_symmetry_group_IT_number 12
_symmetry_cell_setting 'monoclinic'
loop_
_space_group_symop_operation_xyz
x,y,z
-x,y,-z
-x,-y,-z
x,-y,z
1/2+x,1/2+y,z
1/2-x,1/2+y,-z
1/2-x,1/2-y,-z
1/2+x,1/2-y,z
loop_
_atom_site_type_symbol
_atom_site_label
_atom_site_fract_x
_atom_site_fract_y
_atom_site_fract_z
Si Si1 0.449655 0.204315 0.960198
Si Si2 0.932571 0.703776 0.480006
Si Si3 0.285766 0.288145 0.061948
Si Si4 0.786681 0.207136 0.623415
Si Si5 0.972760 0.717408 0.791670
Si Si6 0.326339 0.216016 0.768704
Si Si7 0.119406 0.718086 0.652636
O O1 0.452158 0.279270 0.879437
O O2 0.476419 0.000000 0.940666
O O3 0.500000 0.293335 0.000000
O O4 0.366939 0.203580 0.025139
O O5 0.957110 0.500000 0.454962
O O6 0.856205 0.702963 0.555799
O O7 0.910819 0.780293 0.411964
O O8 0.000000 0.784742 0.500000
O O9 0.294594 0.500000 0.066171
O O10 0.232309 0.226647 0.146986
O O11 0.250000 0.250000 0.000000
O O12 0.801402 0.220882 0.701532
O O13 0.704007 0.277132 0.636101
O O14 0.789236 0.000000 0.601203
O O15 0.969779 0.500000 0.792056
O O16 0.908977 0.774337 0.761193
O O17 0.056165 0.770150 0.735040
O O18 0.326530 0.000000 0.766714
O O19 0.122062 0.500000 0.650839
#
# Coordination Sequence:
#
# PCOD9202841 Si02
#       7
#     8   8   8   8   8   8   8
#     4  10  21  36  59  87 116 155 199 243 297 352
#     4  10  20  38  64  86 108 149 195 227 270 338
#     4  11  22  38  60  85 117 154 199 250 297 348
#     4  11  23  36  56  88 120 146 179 233 291 337
#     4   9  17  35  57  80 111 147 193 238 274 331
#     4  10  21  38  59  81 111 153 196 235 279 341
#     4   9  19  34  56  85 114 147 186 230 279 333
#
# _framework density 22.256232000000001
#
# number of rings (size 3 to 8) (size 9 to 14) (size 15 to 20)
#    0.000    2.000    1.429    2.143    2.000    4.000 
#    0.000    0.714    0.000    2.571    0.000    0.000 
#    0.000    0.000    0.000    0.000    0.000    0.000 
#
# Total GULP energy -156426.130476 kJ/mol
# GULP energy per Si atom -5586.647517 kJ/mol
# Density = 2.220558 g / cm^3
# Si number density = 22.256232 Si / 1000 Ang^3
#
#
#
# Elastic Constant Matrix: (Units=GPa)
#
#
# Indices 1 2 3 4 5 6 
#
# 1 169.5166 1.8599 27.0990 0.0000 -3.9652 -0.0001
# 2 1.8599 62.0183 -1.6383 -0.0002 3.2355 -0.0005
# 3 27.0990 -1.6383 66.9381 0.0001 -11.8646 0.0001
# 4 0.0000 -0.0002 0.0001 16.2921 0.0000 -4.5284
# 5 -3.9652 3.2355 -11.8646 0.0000 38.9992 0.0000
# 6 -0.0001 -0.0005 0.0001 -4.5284 0.0000 5.7595
#
#
#
# Elastic Compliance Matrix: (Units=1/GPa)
#
#
# Indices 1 2 3 4 5 6 
#
# 1 0.006312 -0.000251 -0.002583 0.000000 -0.000123 0.000000
# 2 -0.000251 0.016206 0.000270 0.000001 -0.001288 0.000002
# 3 -0.002583 0.000270 0.016850 0.000000 0.004841 0.000000
# 4 0.000000 0.000001 0.000000 0.078544 0.000000 0.061756
# 5 -0.000123 -0.001288 0.004841 0.000000 0.027209 0.000000
# 6 0.000000 0.000002 0.000000 0.061756 0.000000 0.222180
#
#
# Mechanical properties :
#
#
# Convention : Reuss Voigt Hill
#
# Bulk Modulus (GPa) = 29.20650 39.23491 34.22070
# Shear Modulus (GPa) = 13.02616 30.28701 21.65658
#
# Velocity S-wave (km/s) = 2.42188 3.69295 3.12277
# Velocity P-wave (km/s) = 4.57952 5.98756 5.33024
#
# Compressibility (1/GPa) = 0.03423896
#
# Stress axis : x y z
#
# Youngs Moduli (GPa) = 158.42919 61.70508 59.34837
#
# Poissons Ratio (x) = 0.01549 0.15332
# Poissons Ratio (y) = 0.03978 -0.01603
# Poissons Ratio (z) = 0.40927 -0.01666
#
# Static dielectric constant tensor:
#      x y z
#    x 1.923980 0.000000 -0.042780 
#    y 0.000000 1.938310 0.000000 
#    z -0.042780 0.000000 1.800080 
# 
# From -- ./inp_files/275128.got.cif
#   From: 2010.05.17/outbox.cif.g08.bks.cpg/sg12_138_cif.got.tgz:275128.got - 2010.06.03 13:09:07.
