data_PCOD9202965
_publ_section_title
;
Structure prediction by ZEFSAII (Michael W. Deem and Ramdas Pophale) SiO2 
 PCOD9202965
Probable space group: C 2/M
;
_chemical_formula_sum "Si O2"
_cell_formula_units_Z 44
_cell_length_a 8.700610
_cell_length_b 16.053990
_cell_length_c 31.658334
_cell_angle_alpha 90.000000
_cell_angle_beta 151.635187
_cell_angle_gamma 90.000000
_cell_volume 2100.830730
_symmetry_space_group_name_H-M "C 2/M"
_symmetry_group_IT_number 12
_symmetry_cell_setting 'monoclinic'
loop_
_space_group_symop_operation_xyz
x,y,z
-x,y,-z
-x,-y,-z
x,-y,z
1/2+x,1/2+y,z
1/2-x,1/2+y,-z
1/2-x,1/2-y,-z
1/2+x,1/2-y,z
loop_
_atom_site_type_symbol
_atom_site_label
_atom_site_fract_x
_atom_site_fract_y
_atom_site_fract_z
Si Si1 0.348435 0.000000 0.843274
Si Si2 0.099358 0.336556 0.095359
Si Si3 0.982869 0.500000 0.213546
Si Si4 0.942062 0.000000 0.404943
Si Si5 0.854094 0.500000 0.328451
Si Si6 0.027283 0.162066 0.117670
Si Si7 0.000000 0.736609 0.500000
Si Si8 0.555999 0.864615 0.440419
O O1 0.479440 0.086192 0.893094
O O2 0.373053 0.000000 0.798833
O O3 0.987627 0.000000 0.775615
O O4 0.395260 0.344321 0.133667
O O5 0.163890 0.253699 0.138849
O O6 0.784830 0.336977 0.988821
O O7 0.762377 0.583492 0.166010
O O8 0.267660 0.500000 0.317635
O O9 0.171603 0.078896 0.470505
O O10 0.659003 0.000000 0.371555
O O11 0.868515 0.421494 0.362804
O O12 0.734116 0.794549 0.456510
O O13 0.145180 0.679131 0.571730
#
# Coordination Sequence:
#
# PCOD9202965 Si02
#       8
#     4   8   4   4   4   8   4   8
#     4  12  26  40  59  93 127 169 206 253 309 364
#     4  10  21  41  67  93 123 161 206 255 308 367
#     4  12  26  40  59  93 127 169 206 253 309 364
#     4  11  22  42  60  83 122 164 197 246 304 365
#     4  11  22  42  60  83 122 164 197 246 304 365
#     4  10  21  41  67  93 123 161 206 255 308 367
#     4  10  20  38  64  98 110 146 206 250 296 362
#     4  10  21  40  65  87 119 155 201 244 303 360
#
# _framework density 20.944095000000001
#
# number of rings (size 3 to 8) (size 9 to 14) (size 15 to 20)
#    0.000    1.455    1.818    3.818    2.545    5.091 
#    6.545    0.000    0.000    0.000    0.000    0.000 
#    0.000    0.000    0.000    0.000    0.000    0.000 
#
# Total GULP energy -122776.677594 kJ/mol
# GULP energy per Si atom -5580.758072 kJ/mol
# Density = 2.089642 g / cm^3
# Si number density = 20.944095 Si / 1000 Ang^3
#
#
#
# Elastic Constant Matrix: (Units=GPa)
#
#
# Indices 1 2 3 4 5 6 
#
# 1 103.6999 63.2145 17.3871 0.0016 -23.7901 -0.0001
# 2 63.2145 127.9640 13.7539 -0.0002 -16.2749 0.0022
# 3 17.3871 13.7539 30.2783 -0.0020 -8.1653 0.0068
# 4 0.0016 -0.0002 -0.0020 -2.2941 0.0016 -16.8946
# 5 -23.7901 -16.2749 -8.1653 0.0016 30.4891 0.0009
# 6 -0.0001 0.0022 0.0068 -16.8946 0.0009 14.3058
#
#
#
# Elastic Compliance Matrix: (Units=1/GPa)
#
#
# Indices 1 2 3 4 5 6 
#
# 1 0.016147 -0.006511 -0.004154 0.000000 0.008011 0.000003
# 2 -0.006511 0.011236 -0.001205 0.000000 0.000595 -0.000001
# 3 -0.004154 -0.001205 0.037630 0.000011 0.006193 -0.000006
# 4 0.000000 0.000000 0.000011 -0.044952 0.000007 -0.053087
# 5 0.008011 0.000595 0.006193 0.000007 0.041025 0.000003
# 6 0.000003 -0.000001 -0.000006 -0.053087 0.000003 0.007209
#
#
# Mechanical properties :
#
#
# Convention : Reuss Voigt Hill
#
# Bulk Modulus (GPa) = 24.22899 50.07257 37.15078
# Shear Modulus (GPa) = 47.26253 19.67261 33.46757
#
# Velocity S-wave (km/s) = 4.75553 3.06811 4.00177
# Velocity P-wave (km/s) = 6.46118 6.04241 6.25530
#
# Compressibility (1/GPa) = 0.04127288
#
# Stress axis : x y z
#
# Youngs Moduli (GPa) = 61.93253 88.99699 26.57468
#
# Poissons Ratio (x) = 0.57947 0.11039
# Poissons Ratio (y) = 0.40325 0.03202
# Poissons Ratio (z) = 0.25727 0.10722
#
# Static dielectric constant tensor:
#      x y z
#    x 1.743650 0.000000 -0.006110 
#    y 0.000000 1.828040 0.000000 
#    z -0.006110 0.000000 1.740010 
# 
# From -- ./inp_files/372843.got.cif
#   From: 2010.05.17/outbox.cif.g08.bks.cpg/sg12_187_cif.got.tgz:372843.got - 2010.06.03 13:09:07.
