data_PCOD9202902
_publ_section_title
;
Structure prediction by ZEFSAII (Michael W. Deem and Ramdas Pophale) SiO2 
 PCOD9202902
Probable space group: C 2/M
;
_chemical_formula_sum "Si O2"
_cell_formula_units_Z 52
_cell_length_a 20.080429
_cell_length_b 9.237325
_cell_length_c 19.638379
_cell_angle_alpha 90.000000
_cell_angle_beta 45.832504
_cell_angle_gamma 90.000000
_cell_volume 2612.939226
_symmetry_space_group_name_H-M "C 2/M"
_symmetry_group_IT_number 12
_symmetry_cell_setting 'monoclinic'
loop_
_space_group_symop_operation_xyz
x,y,z
-x,y,-z
-x,-y,-z
x,-y,z
1/2+x,1/2+y,z
1/2-x,1/2+y,-z
1/2-x,1/2-y,-z
1/2+x,1/2-y,z
loop_
_atom_site_type_symbol
_atom_site_label
_atom_site_fract_x
_atom_site_fract_y
_atom_site_fract_z
Si Si1 0.201945 0.326890 0.598321
Si Si2 0.252303 0.328008 0.296820
Si Si3 0.548060 0.170000 0.392410
Si Si4 0.743106 0.000000 0.036644
Si Si5 0.479303 0.335195 0.310682
Si Si6 0.457191 0.328308 0.104708
Si Si7 0.107217 0.235765 0.100547
O O1 0.206647 0.500000 0.590959
O O2 0.250000 0.250000 0.500000
O O3 0.247033 0.266293 0.635331
O O4 0.097171 0.267676 0.668944
O O5 0.252850 0.500000 0.314387
O O6 0.158150 0.303286 0.322027
O O7 0.347652 0.295905 0.188763
O O8 0.500000 0.192074 0.500000
O O9 0.504626 0.270809 0.365954
O O10 0.534688 0.000000 0.383581
O O11 0.664302 0.875576 0.079496
O O12 0.823801 0.874249 0.986064
O O13 0.444262 0.500000 0.340395
O O14 0.568267 0.332163 0.198226
O O15 0.466054 0.500000 0.115457
O O16 0.518968 0.241938 0.114557
O O17 0.500000 0.305699 0.000000
#
# Coordination Sequence:
#
# PCOD9202902 Si02
#       7
#     8   8   8   4   8   8   8
#     4  12  25  41  68  99 130 171 218 270 334 401
#     4  10  21  40  65  93 133 173 217 271 331 398
#     4  10  23  42  64  96 132 170 219 273 332 402
#     4  10  24  38  66  90 134 170 220 272 334 376
#     4  12  24  41  68  95 135 175 217 277 330 387
#     4  10  20  38  64  91 127 173 220 262 318 386
#     4  11  22  43  63  98 130 173 219 279 317 393
#
# _framework density 19.900960000000001
#
# number of rings (size 3 to 8) (size 9 to 14) (size 15 to 20)
#    0.000    1.231    3.077    2.769    2.154    4.615 
#    2.769    0.385    0.000    0.000    0.000    0.000 
#    0.000    0.000    0.000    0.000    0.000    0.000 
#
# Total GULP energy -144756.212357 kJ/mol
# GULP energy per Si atom -5567.546629 kJ/mol
# Density = 1.985566 g / cm^3
# Si number density = 19.900960 Si / 1000 Ang^3
#
#
#
# Elastic Constant Matrix: (Units=GPa)
#
#
# Indices 1 2 3 4 5 6 
#
# 1 41.3391 12.1750 0.1815 0.0000 -10.4762 0.0000
# 2 12.1750 92.4218 -4.2774 0.0000 -1.1591 0.0000
# 3 0.1815 -4.2774 34.5661 0.0000 -12.3576 0.0000
# 4 0.0000 0.0000 0.0000 -27.3351 0.0000 22.6185
# 5 -10.4762 -1.1591 -12.3576 0.0000 32.9136 0.0000
# 6 0.0000 0.0000 0.0000 22.6185 0.0000 8.8504
#
#
#
# Elastic Compliance Matrix: (Units=1/GPa)
#
#
# Indices 1 2 3 4 5 6 
#
# 1 0.027654 -0.003384 0.002934 0.000000 0.009784 0.000000
# 2 -0.003384 0.011327 0.001359 0.000000 -0.000168 0.000000
# 3 0.002934 0.001359 0.033997 0.000000 0.013746 0.000000
# 4 0.000000 0.000000 0.000000 -0.011745 0.000000 0.030017
# 5 0.009784 -0.000168 0.013746 0.000000 0.038652 0.000000
# 6 0.000000 0.000000 0.000000 0.030017 0.000000 0.036276
#
#
# Mechanical properties :
#
#
# Convention : Reuss Voigt Hill
#
# Bulk Modulus (GPa) = 13.36983 20.49836 16.93410
# Shear Modulus (GPa) = 31.39232 13.56896 22.48064
#
# Velocity S-wave (km/s) = 3.97599 2.61401 3.36464
# Velocity P-wave (km/s) = 5.27359 4.40832 4.86025
#
# Compressibility (1/GPa) = 0.07479528
#
# Stress axis : x y z
#
# Youngs Moduli (GPa) = 36.16168 88.28772 29.41409
#
# Poissons Ratio (x) = 0.29880 -0.08630
# Poissons Ratio (y) = 0.12239 -0.03998
# Poissons Ratio (z) = -0.10610 -0.12001
#
# Static dielectric constant tensor:
#      x y z
#    x 1.686170 0.000000 -0.014780 
#    y 0.000000 1.663680 0.000000 
#    z -0.014780 0.000000 1.716850 
# 
# From -- ./inp_files/282026.got.cif
#   From: 2010.05.17/outbox.cif.g08.bks.cpg/sg12_142_cif.got.tgz:282026.got - 2010.06.03 13:09:07.
