data_PCOD9202633
_publ_section_title
;
Structure prediction by ZEFSAII (Michael W. Deem and Ramdas Pophale) SiO2 
 PCOD9202633
Probable space group: C 2/M
;
_chemical_formula_sum "Si O2"
_cell_formula_units_Z 36
_cell_length_a 7.907205
_cell_length_b 23.972743
_cell_length_c 9.614748
_cell_angle_alpha 90.000000
_cell_angle_beta 129.672368
_cell_angle_gamma 90.000000
_cell_volume 1402.827806
_symmetry_space_group_name_H-M "C 2/M"
_symmetry_group_IT_number 12
_symmetry_cell_setting 'monoclinic'
loop_
_space_group_symop_operation_xyz
x,y,z
-x,y,-z
-x,-y,-z
x,-y,z
1/2+x,1/2+y,z
1/2-x,1/2+y,-z
1/2-x,1/2-y,-z
1/2+x,1/2-y,z
loop_
_atom_site_type_symbol
_atom_site_label
_atom_site_fract_x
_atom_site_fract_y
_atom_site_fract_z
Si Si1 0.151869 0.500000 0.295781
Si Si2 0.849136 0.000000 0.091173
Si Si3 0.811565 0.612032 0.523641
Si Si4 0.143711 0.784756 0.320302
Si Si5 0.500000 0.400896 0.000000
Si Si6 0.122359 0.688151 0.829659
O O1 0.272001 0.500000 0.209652
O O2 0.220659 0.552763 0.424593
O O3 0.884897 0.500000 0.120901
O O4 0.994311 0.946254 0.122688
O O5 0.618787 0.652053 0.363080
O O6 0.000000 0.606570 0.500000
O O7 0.910866 0.648612 0.703448
O O8 0.250000 0.750000 0.500000
O O9 0.319845 0.790474 0.293066
O O10 0.957514 0.747010 0.149233
O O11 0.311816 0.357556 0.950192
#
# Coordination Sequence:
#
# PCOD9202633 Si02
#       6
#     4   4   8   8   4   8
#     4  11  19  40  65 100 126 171 228 260 329 368
#     4  10  24  40  63  92 134 175 217 282 301 386
#     4   9  18  35  67  97 130 168 209 266 329 396
#     4   9  19  38  61  92 125 164 211 265 326 382
#     4  11  22  44  62  88 132 177 224 256 328 387
#     4  10  20  38  62  91 123 176 212 259 326 389
#
# _framework density 25.662451000000001
#
# number of rings (size 3 to 8) (size 9 to 14) (size 15 to 20)
#    0.000    2.222    2.222    2.333    0.000    0.889 
#   12.000    0.000    0.000    5.333    0.000    0.000 
#    0.000    0.889    0.000    0.000    0.000    0.000 
#
# Total GULP energy -100232.965155 kJ/mol
# GULP energy per Si atom -5568.498064 kJ/mol
# Density = 2.560404 g / cm^3
# Si number density = 25.662451 Si / 1000 Ang^3
#
#
#
# Elastic Constant Matrix: (Units=GPa)
#
#
# Indices 1 2 3 4 5 6 
#
# 1 66.2614 71.7480 31.5516 0.0000 -13.1825 0.0000
# 2 71.7480 292.3245 55.9947 0.0000 8.6068 0.0000
# 3 31.5516 55.9947 78.6426 0.0000 10.9671 0.0000
# 4 0.0000 0.0000 0.0000 -3.3220 0.0000 33.4540
# 5 -13.1825 8.6068 10.9671 0.0000 45.3501 0.0000
# 6 0.0000 0.0000 0.0000 33.4540 0.0000 23.1421
#
#
#
# Elastic Compliance Matrix: (Units=1/GPa)
#
#
# Indices 1 2 3 4 5 6 
#
# 1 0.027173 -0.005339 -0.008634 0.000000 0.011000 0.000000
# 2 -0.005339 0.005010 -0.001114 0.000000 -0.002234 0.000000
# 3 -0.008634 -0.001114 0.017897 0.000000 -0.006626 0.000000
# 4 0.000000 0.000000 0.000000 -0.019349 0.000000 0.027970
# 5 0.011000 -0.002234 -0.006626 0.000000 0.027275 0.000000
# 6 0.000000 0.000000 0.000000 0.027970 0.000000 0.002777
#
#
# Mechanical properties :
#
#
# Convention : Reuss Voigt Hill
#
# Bulk Modulus (GPa) = 50.23708 83.97966 67.10837
# Shear Modulus (GPa) = 51.23283 31.56300 41.39792
#
# Velocity S-wave (km/s) = 4.47297 3.51084 4.02079
# Velocity P-wave (km/s) = 6.80406 7.01644 6.91107
#
# Compressibility (1/GPa) = 0.01990561
#
# Stress axis : x y z
#
# Youngs Moduli (GPa) = 36.80133 199.58248 55.87518
#
# Poissons Ratio (x) = 1.06563 0.48244
# Poissons Ratio (y) = 0.19649 0.06224
# Poissons Ratio (z) = 0.31775 0.22231
#
# Static dielectric constant tensor:
#      x y z
#    x 2.079980 0.000000 0.172570 
#    y 0.000000 2.140760 0.000000 
#    z 0.172570 0.000000 2.236890 
# 
# From -- ./inp_files/120493.got.cif
#   From: 2010.05.17/outbox.cif.g08.bks.cpg/sg12_61_cif.got.tgz:120493.got - 2010.06.03 13:09:07.
