data_PCOD9202742
_publ_section_title
;
Structure prediction by ZEFSAII (Michael W. Deem and Ramdas Pophale) SiO2 
 PCOD9202742
Probable space group: C 2/M
;
_chemical_formula_sum "Si O2"
_cell_formula_units_Z 64
_cell_length_a 23.208053
_cell_length_b 24.539642
_cell_length_c 18.542686
_cell_angle_alpha 90.000000
_cell_angle_beta 164.179320
_cell_angle_gamma 90.000000
_cell_volume 2879.050467
_symmetry_space_group_name_H-M "C 2/M"
_symmetry_group_IT_number 12
_symmetry_cell_setting 'monoclinic'
loop_
_space_group_symop_operation_xyz
x,y,z
-x,y,-z
-x,-y,-z
x,-y,z
1/2+x,1/2+y,z
1/2-x,1/2+y,-z
1/2-x,1/2-y,-z
1/2+x,1/2-y,z
loop_
_atom_site_type_symbol
_atom_site_label
_atom_site_fract_x
_atom_site_fract_y
_atom_site_fract_z
Si Si1 0.065767 0.246976 0.717131
Si Si2 0.501332 0.370834 0.328655
Si Si3 0.726155 0.938689 0.091126
Si Si4 0.614253 0.938370 0.447981
Si Si5 0.163244 0.637739 0.791007
Si Si6 0.360359 0.740456 0.709163
Si Si7 0.476576 0.377660 0.057743
Si Si8 0.013615 0.354633 0.101735
O O1 0.047594 0.182663 0.680659
O O2 0.111695 0.297946 0.720834
O O3 0.833804 0.258966 0.469230
O O4 0.250000 0.250000 0.000000
O O5 0.740171 0.369626 0.587515
O O6 0.435730 0.420824 0.300246
O O7 0.348342 0.367346 0.074956
O O8 0.543527 0.936735 0.809833
O O9 0.648930 0.895262 0.056741
O O10 0.742254 0.000000 0.138804
O O11 0.526554 0.895213 0.400378
O O12 0.845860 0.919855 0.702687
O O13 0.616849 0.000000 0.479638
O O14 0.252279 0.612069 0.824980
O O15 0.250000 0.750000 0.500000
O O16 0.466739 0.682477 0.845237
O O17 0.512187 0.791899 0.904818
O O18 0.500000 0.377722 0.000000
O O19 0.000000 0.356753 0.000000
#
# Coordination Sequence:
#
# PCOD9202742 Si02
#       8
#     8   8   8   8   8   8   8   8
#     4   9  17  32  58  91 112 148 200 255 312 351
#     4   9  20  37  61  91 116 156 212 258 303 357
#     4  10  22  40  67  91 117 162 214 262 302 358
#     4  10  22  43  66  92 122 160 217 265 303 363
#     4  10  20  38  63  90 119 159 211 263 306 361
#     4  11  21  38  64  90 124 163 212 264 305 368
#     4  12  25  39  60  95 132 167 204 252 320 386
#     4  11  24  39  58  91 133 165 200 248 322 383
#
# _framework density 22.229551000000001
#
# number of rings (size 3 to 8) (size 9 to 14) (size 15 to 20)
#    0.000    1.750    1.250    4.125    5.250    2.500 
#    0.000    3.750    0.000    0.000    0.000    0.000 
#    0.000    0.000    0.000    0.000    0.000    0.000 
#
# Total GULP energy -178811.347530 kJ/mol
# GULP energy per Si atom -5587.854610 kJ/mol
# Density = 2.217896 g / cm^3
# Si number density = 22.229551 Si / 1000 Ang^3
#
#
#
# Elastic Constant Matrix: (Units=GPa)
#
#
# Indices 1 2 3 4 5 6 
#
# 1 69.5053 11.7514 -8.2296 -0.0004 3.9059 0.0002
# 2 11.7514 79.7158 -2.2280 0.0004 0.2422 0.0007
# 3 -8.2296 -2.2280 27.4299 -0.0035 6.2265 -0.0003
# 4 -0.0004 0.0004 -0.0035 13.4509 -0.0012 12.3829
# 5 3.9059 0.2422 6.2265 -0.0012 23.8399 -0.0007
# 6 0.0002 0.0007 -0.0003 12.3829 -0.0007 18.5979
#
#
#
# Elastic Compliance Matrix: (Units=1/GPa)
#
#
# Indices 1 2 3 4 5 6 
#
# 1 0.015611 -0.002138 0.005406 0.000005 -0.003948 -0.000003
# 2 -0.002138 0.012870 0.000376 0.000000 0.000121 -0.000001
# 3 0.005406 0.000376 0.040725 0.000025 -0.011526 -0.000016
# 4 0.000005 0.000000 0.000025 0.192083 -0.000001 -0.127893
# 5 -0.003948 0.000121 -0.011526 -0.000001 0.045602 0.000002
# 6 -0.000003 -0.000001 -0.000016 -0.127893 0.000002 0.138924
#
#
# Mechanical properties :
#
#
# Convention : Reuss Voigt Hill
#
# Bulk Modulus (GPa) = 13.07284 19.91543 16.49414
# Shear Modulus (GPa) = 10.77528 22.86822 16.82175
#
# Velocity S-wave (km/s) = 2.20404 3.21086 2.75386
# Velocity P-wave (km/s) = 3.51720 4.76703 4.18899
#
# Compressibility (1/GPa) = 0.07649445
#
# Stress axis : x y z
#
# Youngs Moduli (GPa) = 64.05803 77.70055 24.55471
#
# Poissons Ratio (x) = 0.16614 -0.13274
# Poissons Ratio (y) = 0.13697 -0.00924
# Poissons Ratio (z) = -0.34630 -0.02924
#
# Static dielectric constant tensor:
#      x y z
#    x 1.812500 0.000000 -0.019670 
#    y 0.000000 1.806130 0.000000 
#    z -0.019670 0.000000 1.857000 
# 
# From -- ./inp_files/286462.got.cif
#   From: 2010.05.17/outbox.cif.g08.bks.cpg/sg12_144_cif.got.tgz:286462.got - 2010.06.03 13:09:07.
