data_PCOD9202519
_publ_section_title
;
Structure prediction by ZEFSAII (Michael W. Deem and Ramdas Pophale) SiO2 
 PCOD9202519
Probable space group: C 2/M
;
_chemical_formula_sum "Si O2"
_cell_formula_units_Z 64
_cell_length_a 12.351165
_cell_length_b 15.730574
_cell_length_c 15.452891
_cell_angle_alpha 90.000000
_cell_angle_beta 86.745308
_cell_angle_gamma 90.000000
_cell_volume 2997.513605
_symmetry_space_group_name_H-M "C 2/M"
_symmetry_group_IT_number 12
_symmetry_cell_setting 'monoclinic'
loop_
_space_group_symop_operation_xyz
x,y,z
-x,y,-z
-x,-y,-z
x,-y,z
1/2+x,1/2+y,z
1/2-x,1/2+y,-z
1/2-x,1/2-y,-z
1/2+x,1/2-y,z
loop_
_atom_site_type_symbol
_atom_site_label
_atom_site_fract_x
_atom_site_fract_y
_atom_site_fract_z
Si Si1 0.460167 0.371777 0.910241
Si Si2 0.455783 0.603435 0.596646
Si Si3 0.746581 0.352521 0.172461
Si Si4 0.775064 0.405809 0.355953
Si Si5 0.991811 0.670624 0.097751
Si Si6 0.991902 0.603110 0.603612
Si Si7 0.656308 0.827459 0.240885
Si Si8 0.608160 0.404315 0.740304
O O1 0.334094 0.387635 0.896473
O O2 0.479116 0.270192 0.911131
O O3 0.531265 0.404138 0.827321
O O4 0.500000 0.405081 0.000000
O O5 0.500000 0.618252 0.500000
O O6 0.446606 0.500000 0.610920
O O7 0.333493 0.637673 0.605481
O O8 0.536807 0.637107 0.666703
O O9 0.757698 0.411677 0.254639
O O10 0.867012 0.334856 0.133167
O O11 0.685108 0.269427 0.213751
O O12 0.782303 0.500000 0.396229
O O13 0.891340 0.366141 0.366523
O O14 0.075740 0.638125 0.167989
O O15 0.000000 0.633312 0.000000
O O16 0.977990 0.500000 0.618495
O O17 0.902757 0.651824 0.665376
O O18 0.000000 0.616689 0.500000
O O19 0.776433 0.866130 0.241055
O O20 0.631011 0.500000 0.710083
#
# Coordination Sequence:
#
# PCOD9202519 Si02
#       8
#     8   8   8   8   8   8   8   8
#     4  10  22  36  59  86 115 152 195 239 291 352
#     4   9  19  35  58  86 113 149 195 237 283 345
#     4  11  21  39  64  86 118 153 197 247 294 348
#     4  10  20  38  62  85 116 155 199 243 290 349
#     4  10  22  39  63  87 112 155 204 244 291 353
#     4  10  22  40  63  88 119 162 205 241 288 350
#     4  11  23  38  62  87 121 153 198 247 294 348
#     4  11  22  37  57  86 123 153 189 240 297 349
#
# _framework density 21.351029
#
# number of rings (size 3 to 8) (size 9 to 14) (size 15 to 20)
#    0.000    1.750    3.750    0.375    3.500    1.750 
#    0.000    1.250    0.000    1.875    0.000    0.000 
#    0.000    0.000    0.000    0.000    0.000    0.000 
#
# Total GULP energy -178479.818458 kJ/mol
# GULP energy per Si atom -5577.494327 kJ/mol
# Density = 2.130243 g / cm^3
# Si number density = 21.351029 Si / 1000 Ang^3
#
#
#
# Elastic Constant Matrix: (Units=GPa)
#
#
# Indices 1 2 3 4 5 6 
#
# 1 155.8640 12.8532 51.3876 0.0000 9.8367 0.0000
# 2 12.8532 27.1861 8.6275 0.0000 3.9029 0.0000
# 3 51.3876 8.6275 115.1288 0.0000 -3.7510 0.0000
# 4 0.0000 0.0000 0.0000 12.3762 0.0000 -1.0163
# 5 9.8367 3.9029 -3.7510 0.0000 28.9741 0.0000
# 6 0.0000 0.0000 0.0000 -1.0163 0.0000 -85.8797
#
#
#
# Elastic Compliance Matrix: (Units=1/GPa)
#
#
# Indices 1 2 3 4 5 6 
#
# 1 0.007920 -0.002240 -0.003460 0.000000 -0.002835 0.000000
# 2 -0.002240 0.039194 -0.002094 0.000000 -0.004790 0.000000
# 3 -0.003460 -0.002094 0.010479 0.000000 0.002813 0.000000
# 4 0.000000 0.000000 0.000000 0.080722 0.000000 -0.000955
# 5 -0.002835 -0.004790 0.002813 0.000000 0.036486 0.000000
# 6 0.000000 0.000000 0.000000 -0.000955 0.000000 -0.011633
#
#
# Mechanical properties :
#
#
# Convention : Reuss Voigt Hill
#
# Bulk Modulus (GPa) = 23.80525 49.32394 36.56460
# Shear Modulus (GPa) = 25.93960 6.11484 16.02722
#
# Velocity S-wave (km/s) = 3.48934 1.69416 2.74278
# Velocity P-wave (km/s) = 5.23523 5.19408 5.21470
#
# Compressibility (1/GPa) = 0.04200754
#
# Stress axis : x y z
#
# Youngs Moduli (GPa) = 126.26123 25.51385 95.43178
#
# Poissons Ratio (x) = 0.05714 0.33016
# Poissons Ratio (y) = 0.28277 0.19980
# Poissons Ratio (z) = 0.43682 0.05342
#
# Static dielectric constant tensor:
#      x y z
#    x 1.778870 0.000000 0.025890 
#    y 0.000000 1.827150 0.000000 
#    z 0.025890 0.000000 1.778790 
# 
# From -- ./inp_files/206701.got.cif
#   From: 2010.05.17/outbox.cif.g08.bks.cpg/sg12_104_cif.got.tgz:206701.got - 2010.06.03 13:09:07.
