data_PCOD9202286
_publ_section_title
;
Structure prediction by ZEFSAII (Michael W. Deem and Ramdas Pophale) SiO2 
 PCOD9202286
Probable space group: C 2/M
;
_chemical_formula_sum "Si O2"
_cell_formula_units_Z 64
_cell_length_a 14.274483
_cell_length_b 20.218442
_cell_length_c 14.587331
_cell_angle_alpha 90.000000
_cell_angle_beta 125.326998
_cell_angle_gamma 90.000000
_cell_volume 3434.806900
_symmetry_space_group_name_H-M "C 2/M"
_symmetry_group_IT_number 12
_symmetry_cell_setting 'monoclinic'
loop_
_space_group_symop_operation_xyz
x,y,z
-x,y,-z
-x,-y,-z
x,-y,z
1/2+x,1/2+y,z
1/2-x,1/2+y,-z
1/2-x,1/2-y,-z
1/2+x,1/2-y,z
loop_
_atom_site_type_symbol
_atom_site_label
_atom_site_fract_x
_atom_site_fract_y
_atom_site_fract_z
Si Si1 0.749829 0.318640 0.657506
Si Si2 0.677324 0.424793 0.258449
Si Si3 0.113320 0.208384 0.002049
Si Si4 0.612990 0.423712 0.695673
Si Si5 0.697842 0.799542 0.753386
Si Si6 0.494654 0.229946 0.761349
Si Si7 0.097816 0.926721 0.906783
Si Si8 0.881291 0.856153 0.595460
O O1 0.702344 0.376862 0.695057
O O2 0.699401 0.250014 0.668611
O O3 0.886946 0.312618 0.733474
O O4 0.703179 0.329299 0.529010
O O5 0.715253 0.500000 0.264954
O O6 0.747260 0.369247 0.243997
O O7 0.540611 0.421777 0.158774
O O8 0.680048 0.404215 0.366851
O O9 0.148958 0.135507 0.987621
O O10 0.074811 0.250029 0.892233
O O11 0.215491 0.233771 0.123539
O O12 0.000000 0.202932 0.000000
O O13 0.622791 0.500000 0.673377
O O14 0.623356 0.421155 0.812703
O O15 0.485415 0.395445 0.606647
O O16 0.574082 0.803122 0.729621
O O17 0.439457 0.296764 0.686759
O O18 0.133277 0.000000 0.958589
#
# Coordination Sequence:
#
# PCOD9202286 Si02
#       8
#     8   8   8   8   8   8   8   8
#     4  12  23  38  61  89 123 159 196 244 299 364
#     4  10  20  38  60  87 124 155 193 249 299 346
#     4  12  19  37  59  87 122 152 199 252 304 344
#     4  10  21  38  62  93 122 152 198 253 305 350
#     4  12  24  38  60  89 123 164 200 244 297 358
#     4  12  24  39  56  90 120 157 202 244 290 360
#     4   9  17  33  58  88 119 148 191 250 304 350
#     4  11  20  38  63  90 119 149 198 250 305 344
#
# _framework density 18.632778999999999
#
# number of rings (size 3 to 8) (size 9 to 14) (size 15 to 20)
#    0.000    1.000    7.500    2.250    0.000    2.250 
#    0.000    0.625    0.000    0.750    0.000    3.500 
#    0.000    0.000    0.000    0.000    0.000    0.000 
#
# Total GULP energy -178790.476158 kJ/mol
# GULP energy per Si atom -5587.202380 kJ/mol
# Density = 1.859037 g / cm^3
# Si number density = 18.632779 Si / 1000 Ang^3
#
#
#
# Elastic Constant Matrix: (Units=GPa)
#
#
# Indices 1 2 3 4 5 6 
#
# 1 113.4060 38.2369 2.8386 0.0000 -4.5035 0.0000
# 2 38.2369 86.5262 20.2115 0.0000 0.3662 0.0000
# 3 2.8386 20.2115 37.2646 0.0000 -7.3760 0.0000
# 4 0.0000 0.0000 0.0000 16.9602 0.0000 -8.8993
# 5 -4.5035 0.3662 -7.3760 0.0000 12.4014 0.0000
# 6 0.0000 0.0000 0.0000 -8.8993 0.0000 31.6836
#
#
#
# Elastic Compliance Matrix: (Units=1/GPa)
#
#
# Indices 1 2 3 4 5 6 
#
# 1 0.010878 -0.005639 0.003451 0.000000 0.006169 0.000000
# 2 -0.005639 0.016470 -0.010206 0.000000 -0.008605 0.000000
# 3 0.003451 -0.010206 0.036741 0.000000 0.023407 0.000000
# 4 0.000000 0.000000 0.000000 0.069154 0.000000 0.019424
# 5 0.006169 -0.008605 0.023407 0.000000 0.097053 0.000000
# 6 0.000000 0.000000 0.000000 0.019424 0.000000 0.037018
#
#
# Mechanical properties :
#
#
# Convention : Reuss Voigt Hill
#
# Bulk Modulus (GPa) = 25.44556 39.97455 32.71006
# Shear Modulus (GPa) = 16.38259 23.93635 20.15947
#
# Velocity S-wave (km/s) = 2.96841 3.58807 3.29285
# Velocity P-wave (km/s) = 5.04327 6.21821 5.66130
#
# Compressibility (1/GPa) = 0.03929958
#
# Stress axis : x y z
#
# Youngs Moduli (GPa) = 91.92970 60.71722 27.21744
#
# Poissons Ratio (x) = 0.34240 -0.09393
# Poissons Ratio (y) = 0.51842 0.27779
# Poissons Ratio (z) = -0.31726 0.61971
#
# Static dielectric constant tensor:
#      x y z
#    x 1.638940 0.000000 -0.030550 
#    y 0.000000 1.646330 0.000000 
#    z -0.030550 0.000000 1.668580 
# 
# From -- ./inp_files/216400.got.cif
#   From: 2010.05.17/outbox.cif.g08.bks.cpg/sg12_109_cif.got.tgz:216400.got - 2010.06.03 13:09:07.
