data_PCOD9202482
_publ_section_title
;
Structure prediction by ZEFSAII (Michael W. Deem and Ramdas Pophale) SiO2 
 PCOD9202482
Probable space group: C 2/M
;
_chemical_formula_sum "Si O2"
_cell_formula_units_Z 44
_cell_length_a 12.156336
_cell_length_b 25.652316
_cell_length_c 7.099892
_cell_angle_alpha 90.000000
_cell_angle_beta 67.778180
_cell_angle_gamma 90.000000
_cell_volume 2049.574804
_symmetry_space_group_name_H-M "C 2/M"
_symmetry_group_IT_number 12
_symmetry_cell_setting 'monoclinic'
loop_
_space_group_symop_operation_xyz
x,y,z
-x,y,-z
-x,-y,-z
x,-y,z
1/2+x,1/2+y,z
1/2-x,1/2+y,-z
1/2-x,1/2-y,-z
1/2+x,1/2-y,z
loop_
_atom_site_type_symbol
_atom_site_label
_atom_site_fract_x
_atom_site_fract_y
_atom_site_fract_z
Si Si1 0.000000 0.731842 0.500000
Si Si2 0.137759 0.891235 0.957101
Si Si3 0.807460 0.440097 0.535716
Si Si4 0.887959 0.943503 0.656424
Si Si5 0.803565 0.204151 0.840156
Si Si6 0.415237 0.849135 0.235544
O O1 0.895558 0.769319 0.638869
O O2 0.963124 0.694952 0.348419
O O3 0.236334 0.907399 0.741438
O O4 0.171432 0.922482 0.121194
O O5 0.140146 0.832974 0.035859
O O6 0.000000 0.904747 0.000000
O O7 0.844292 0.500000 0.566115
O O8 0.706464 0.447048 0.444281
O O9 0.900346 0.401688 0.371159
O O10 0.000000 0.912146 0.500000
O O11 0.936055 0.000000 0.685612
O O12 0.707523 0.172333 0.777265
O O13 0.750000 0.250000 0.000000
O O14 0.500000 0.857263 0.000000
#
# Coordination Sequence:
#
# PCOD9202482 Si02
#       6
#     4   8   8   8   8   8
#     4  12  28  48  81 104 139 186 238 298 356 422
#     4  12  25  39  68 106 144 183 235 290 354 426
#     4  11  25  44  70 101 142 192 238 290 354 420
#     4  10  20  38  61  95 139 182 224 282 348 409
#     4  12  27  47  71 105 143 186 231 292 358 417
#     4  12  27  51  74 103 144 185 241 299 353 422
#
# _framework density 21.467867999999999
#
# number of rings (size 3 to 8) (size 9 to 14) (size 15 to 20)
#    0.000    0.545    5.455    2.182    6.364    1.091 
#    0.000    0.455    0.000    0.000    0.000    0.000 
#    0.000    0.000    0.000    0.000    0.000    0.000 
#
# Total GULP energy -122716.224021 kJ/mol
# GULP energy per Si atom -5578.010183 kJ/mol
# Density = 2.141901 g / cm^3
# Si number density = 21.467868 Si / 1000 Ang^3
#
#
#
# Elastic Constant Matrix: (Units=GPa)
#
#
# Indices 1 2 3 4 5 6 
#
# 1 52.6574 15.7253 27.8970 0.0000 -4.9666 0.0000
# 2 15.7253 115.6491 64.3576 0.0000 -17.8904 0.0000
# 3 27.8970 64.3576 191.4108 0.0000 -23.7915 0.0000
# 4 0.0000 0.0000 0.0000 41.1268 0.0000 0.2831
# 5 -4.9666 -17.8904 -23.7915 0.0000 41.1399 0.0000
# 6 0.0000 0.0000 0.0000 0.2831 0.0000 20.7779
#
#
#
# Elastic Compliance Matrix: (Units=1/GPa)
#
#
# Indices 1 2 3 4 5 6 
#
# 1 0.020771 -0.001353 -0.002514 0.000000 0.000465 0.000000
# 2 -0.001353 0.011023 -0.003161 0.000000 0.002802 0.000000
# 3 -0.002514 -0.003161 0.006944 0.000000 0.002338 0.000000
# 4 0.000000 0.000000 0.000000 0.024317 0.000000 -0.000331
# 5 0.000465 0.002802 0.002338 0.000000 0.026934 0.000000
# 6 0.000000 0.000000 0.000000 -0.000331 0.000000 0.048133
#
#
# Mechanical properties :
#
#
# Convention : Reuss Voigt Hill
#
# Bulk Modulus (GPa) = 40.51621 63.96413 52.24017
# Shear Modulus (GPa) = 31.17090 37.39142 34.28116
#
# Velocity S-wave (km/s) = 3.81462 4.17794 4.00041
# Velocity P-wave (km/s) = 6.18997 7.28928 6.76200
#
# Compressibility (1/GPa) = 0.02468148
#
# Stress axis : x y z
#
# Youngs Moduli (GPa) = 48.14469 90.71684 144.00594
#
# Poissons Ratio (x) = 0.12275 0.36210
# Poissons Ratio (y) = 0.06514 0.45518
# Poissons Ratio (z) = 0.12106 0.28674
#
# Static dielectric constant tensor:
#      x y z
#    x 1.903700 0.000000 -0.122990 
#    y 0.000000 2.029210 0.000000 
#    z -0.122990 0.000000 1.829890 
# 
# From -- ./inp_files/12299.got.cif
#   From: 2010.05.17/outbox.cif.g08.bks.cpg/sg12_7_cif.got.tgz:12299.got - 2010.06.03 13:09:07.
