data_PCOD9202568
_publ_section_title
;
Structure prediction by ZEFSAII (Michael W. Deem and Ramdas Pophale) SiO2 
 PCOD9202568
Probable space group: C 2/M
;
_chemical_formula_sum "Si O2"
_cell_formula_units_Z 56
_cell_length_a 18.216344
_cell_length_b 14.535448
_cell_length_c 21.030242
_cell_angle_alpha 90.000000
_cell_angle_beta 30.105340
_cell_angle_gamma 90.000000
_cell_volume 2793.083792
_symmetry_space_group_name_H-M "C 2/M"
_symmetry_group_IT_number 12
_symmetry_cell_setting 'monoclinic'
loop_
_space_group_symop_operation_xyz
x,y,z
-x,y,-z
-x,-y,-z
x,-y,z
1/2+x,1/2+y,z
1/2-x,1/2+y,-z
1/2-x,1/2-y,-z
1/2+x,1/2-y,z
loop_
_atom_site_type_symbol
_atom_site_label
_atom_site_fract_x
_atom_site_fract_y
_atom_site_fract_z
Si Si1 0.391789 0.756789 0.523635
Si Si2 0.024715 0.401341 0.189297
Si Si3 0.668346 0.653431 0.076389
Si Si4 0.570972 0.244459 0.259977
Si Si5 0.833739 0.227573 0.144391
Si Si6 0.855919 0.109326 0.251804
Si Si7 0.773623 0.607710 0.279805
O O1 0.500000 0.788385 0.500000
O O2 0.471413 0.749300 0.396670
O O3 0.256969 0.828655 0.622562
O O4 0.335820 0.656874 0.588715
O O5 0.974328 0.500000 0.252763
O O6 0.003233 0.323144 0.257948
O O7 0.930706 0.382623 0.196691
O O8 0.193517 0.408307 0.042659
O O9 0.611833 0.662871 0.191159
O O10 0.523531 0.632162 0.144846
O O11 0.750000 0.750000 0.000000
O O12 0.725841 0.203786 0.167968
O O13 0.828989 0.148803 0.201335
O O14 0.776564 0.323641 0.217714
O O15 0.000000 0.240079 0.000000
O O16 0.831332 0.000000 0.275421
O O17 0.744959 0.500000 0.289073
#
# Coordination Sequence:
#
# PCOD9202568 Si02
#       7
#     8   8   8   8   8   8   8
#     4  11  22  43  60  87 124 167 209 254 311 362
#     4  10  21  38  61  90 123 155 194 250 313 372
#     4  10  20  38  62  87 121 158 196 252 304 361
#     4  11  21  37  62  89 115 163 208 247 306 369
#     4  11  21  38  62  91 122 159 205 254 312 369
#     4  11  24  40  61  90 128 168 205 252 305 366
#     4  10  22  41  63  87 120 163 206 257 312 365
#
# _framework density 20.049524000000002
#
# number of rings (size 3 to 8) (size 9 to 14) (size 15 to 20)
#    0.000    1.429    2.857    6.429    0.000    4.571 
#    0.000    4.286    0.000    0.000    0.000    0.000 
#    0.000    0.000    0.000    0.000    0.000    0.000 
#
# Total GULP energy -156144.553964 kJ/mol
# GULP energy per Si atom -5576.591213 kJ/mol
# Density = 2.000389 g / cm^3
# Si number density = 20.049524 Si / 1000 Ang^3
#
#
#
# Elastic Constant Matrix: (Units=GPa)
#
#
# Indices 1 2 3 4 5 6 
#
# 1 59.7315 8.3419 -4.4494 -0.0004 -8.0769 0.0001
# 2 8.3419 110.8011 22.7872 -0.0017 0.8458 0.0003
# 3 -4.4494 22.7872 77.3634 -0.0027 7.8679 0.0006
# 4 -0.0004 -0.0017 -0.0027 8.6776 0.0014 -1.8084
# 5 -8.0769 0.8458 7.8679 0.0014 42.4464 -0.0003
# 6 0.0001 0.0003 0.0006 -1.8084 -0.0003 10.3705
#
#
#
# Elastic Compliance Matrix: (Units=1/GPa)
#
#
# Indices 1 2 3 4 5 6 
#
# 1 0.017472 -0.001576 0.001149 0.000000 0.003143 0.000000
# 2 -0.001576 0.009754 -0.002969 0.000001 0.000056 0.000000
# 3 0.001149 -0.002969 0.014104 0.000004 -0.002337 0.000000
# 4 0.000000 0.000001 0.000004 0.119585 -0.000004 0.020853
# 5 0.003143 0.000056 -0.002337 -0.000004 0.024589 0.000000
# 6 0.000000 0.000000 0.000000 0.020853 0.000000 0.100064
#
#
# Mechanical properties :
#
#
# Convention : Reuss Voigt Hill
#
# Bulk Modulus (GPa) = 28.95272 33.47284 31.21278
# Shear Modulus (GPa) = 16.45422 27.04663 21.75042
#
# Velocity S-wave (km/s) = 2.86786 3.67685 3.29726
# Velocity P-wave (km/s) = 5.04362 5.89550 5.48612
#
# Compressibility (1/GPa) = 0.03453907
#
# Stress axis : x y z
#
# Youngs Moduli (GPa) = 57.23350 102.52125 70.90002
#
# Poissons Ratio (x) = 0.16155 -0.08149
# Poissons Ratio (y) = 0.09019 0.21053
# Poissons Ratio (z) = -0.06578 0.30443
#
# Static dielectric constant tensor:
#      x y z
#    x 1.721060 0.000000 -0.016300 
#    y 0.000000 -0.891240 0.000010 
#    z -0.016300 0.000010 1.743860 
# 
# From -- ./inp_files/316684.got.cif
#   From: 2010.05.17/outbox.cif.g08.bks.cpg/sg12_159_cif.got.tgz:316684.got - 2010.06.03 13:09:07.
