data_PCOD9202717
_publ_section_title
;
Structure prediction by ZEFSAII (Michael W. Deem and Ramdas Pophale) SiO2 
 PCOD9202717
Probable space group: C 2/M
;
_chemical_formula_sum "Si O2"
_cell_formula_units_Z 48
_cell_length_a 20.555620
_cell_length_b 19.856683
_cell_length_c 8.319313
_cell_angle_alpha 90.000000
_cell_angle_beta 136.263983
_cell_angle_gamma 90.000000
_cell_volume 2347.547489
_symmetry_space_group_name_H-M "C 2/M"
_symmetry_group_IT_number 12
_symmetry_cell_setting 'monoclinic'
loop_
_space_group_symop_operation_xyz
x,y,z
-x,y,-z
-x,-y,-z
x,-y,z
1/2+x,1/2+y,z
1/2-x,1/2+y,-z
1/2-x,1/2-y,-z
1/2+x,1/2-y,z
loop_
_atom_site_type_symbol
_atom_site_label
_atom_site_fract_x
_atom_site_fract_y
_atom_site_fract_z
Si Si1 0.942994 0.427998 0.564282
Si Si2 0.970960 0.292582 0.260981
Si Si3 0.222783 0.924745 0.086994
Si Si4 0.375002 0.704989 0.593558
Si Si5 0.092831 0.076706 0.556589
Si Si6 0.195260 0.221186 0.168471
O O1 0.952238 0.500000 0.666554
O O2 0.989180 0.363788 0.730419
O O3 0.834469 0.419505 0.319004
O O4 0.000000 0.432006 0.500000
O O5 0.023604 0.235842 0.255033
O O6 0.000000 0.287014 0.500000
O O7 0.862920 0.275800 0.038230
O O8 0.184313 0.854776 0.086663
O O9 0.194632 0.000000 0.100745
O O10 0.183283 0.924607 0.835680
O O11 0.383394 0.629558 0.540318
O O12 0.301541 0.750698 0.360789
O O13 0.341301 0.715401 0.714325
O O14 0.000000 0.095417 0.500000
O O15 0.075516 0.000000 0.468755
#
# Coordination Sequence:
#
# PCOD9202717 Si02
#       6
#     8   8   8   8   8   8
#     4   9  19  35  57  87 116 149 193 242 300 346
#     4  11  22  37  62  88 114 154 197 254 292 342
#     4  10  20  38  63  88 119 151 196 253 295 349
#     4  11  23  39  57  84 123 163 192 243 291 359
#     4  10  22  39  61  90 118 151 200 253 303 353
#     4  11  24  38  57  88 123 158 201 234 297 358
#
# _framework density 20.446871000000002
#
# number of rings (size 3 to 8) (size 9 to 14) (size 15 to 20)
#    0.000    1.667    1.667    3.000    4.667    2.000 
#    0.000    0.000    0.000    8.000    0.000    0.000 
#    0.000    0.000    0.000    0.000    0.000    0.000 
#
# Total GULP energy -133775.127967 kJ/mol
# GULP energy per Si atom -5573.963665 kJ/mol
# Density = 2.040033 g / cm^3
# Si number density = 20.446871 Si / 1000 Ang^3
#
#
#
# Elastic Constant Matrix: (Units=GPa)
#
#
# Indices 1 2 3 4 5 6 
#
# 1 28.4857 8.0304 -3.0331 0.0000 -2.1095 0.0000
# 2 8.0304 133.8801 40.0258 0.0000 -5.6362 0.0000
# 3 -3.0331 40.0258 67.6687 0.0000 7.0661 0.0000
# 4 0.0000 0.0000 0.0000 23.9181 0.0000 10.6323
# 5 -2.1095 -5.6362 7.0661 0.0000 20.2751 0.0000
# 6 0.0000 0.0000 0.0000 10.6323 0.0000 20.7097
#
#
#
# Elastic Compliance Matrix: (Units=1/GPa)
#
#
# Indices 1 2 3 4 5 6 
#
# 1 0.036458 -0.003090 0.003275 0.000000 0.001793 0.000000
# 2 -0.003090 0.009761 -0.006395 0.000000 0.004621 0.000000
# 3 0.003275 -0.006395 0.019569 0.000000 -0.008257 0.000000
# 4 0.000000 0.000000 0.000000 0.054173 0.000000 -0.027812
# 5 0.001793 0.004621 -0.008257 0.000000 0.053670 0.000000
# 6 0.000000 0.000000 0.000000 -0.027812 0.000000 0.062565
#
#
# Mechanical properties :
#
#
# Convention : Reuss Voigt Hill
#
# Bulk Modulus (GPa) = 18.73776 35.56450 27.15113
# Shear Modulus (GPa) = 18.76834 25.31467 22.04150
#
# Velocity S-wave (km/s) = 3.03299 3.52244 3.28684
# Velocity P-wave (km/s) = 4.63134 5.82879 5.26423
#
# Compressibility (1/GPa) = 0.05336818
#
# Stress axis : x y z
#
# Youngs Moduli (GPa) = 27.42876 102.44803 51.10044
#
# Poissons Ratio (x) = 0.31661 -0.16735
# Poissons Ratio (y) = 0.08477 0.32677
# Poissons Ratio (z) = -0.08983 0.65512
#
# Static dielectric constant tensor:
#      x y z
#    x 1.703640 0.000000 0.004930 
#    y 0.000000 1.806320 0.000000 
#    z 0.004930 0.000000 1.731370 
# 
# From -- ./inp_files/89744.got.cif
#   From: 2010.05.17/outbox.cif.g08.bks.cpg/sg12_45_cif.got.tgz:89744.got - 2010.06.03 13:09:07.
