data_PCOD9202083
_publ_section_title
;
Structure prediction by ZEFSAII (Michael W. Deem and Ramdas Pophale) SiO2 
 PCOD9202083
Probable space group: C 2/M
;
_chemical_formula_sum "Si O2"
_cell_formula_units_Z 56
_cell_length_a 15.569183
_cell_length_b 28.913174
_cell_length_c 12.877216
_cell_angle_alpha 90.000000
_cell_angle_beta 30.371587
_cell_angle_gamma 90.000000
_cell_volume 2930.864742
_symmetry_space_group_name_H-M "C 2/M"
_symmetry_group_IT_number 12
_symmetry_cell_setting 'monoclinic'
loop_
_space_group_symop_operation_xyz
x,y,z
-x,y,-z
-x,-y,-z
x,-y,z
1/2+x,1/2+y,z
1/2-x,1/2+y,-z
1/2-x,1/2-y,-z
1/2+x,1/2-y,z
loop_
_atom_site_type_symbol
_atom_site_label
_atom_site_fract_x
_atom_site_fract_y
_atom_site_fract_z
Si Si1 0.804607 0.816373 0.230770
Si Si2 0.434581 0.552625 0.187511
Si Si3 0.966011 0.553112 0.411577
Si Si4 0.313931 0.798986 0.977748
Si Si5 0.706523 0.804363 0.552368
Si Si6 0.308064 0.711635 0.671071
Si Si7 0.730180 0.380022 0.929442
O O1 0.792063 0.829329 0.365162
O O2 0.707031 0.767625 0.323295
O O3 0.747775 0.854412 0.206061
O O4 0.000000 0.806680 0.000000
O O5 0.456408 0.500000 0.203448
O O6 0.233257 0.563068 0.400323
O O7 0.500000 0.552908 0.000000
O O8 0.565175 0.587711 0.103095
O O9 0.998756 0.500000 0.342880
O O10 0.000000 0.553621 0.500000
O O11 0.102096 0.589205 0.224921
O O12 0.506440 0.807642 0.744653
O O13 0.207630 0.839204 0.035273
O O14 0.250000 0.750000 0.000000
O O15 0.304107 0.799770 0.111765
O O16 0.750000 0.750000 0.500000
O O17 0.756544 0.814164 0.618972
O O18 0.500000 0.700455 0.500000
#
# Coordination Sequence:
#
# PCOD9202083 Si02
#       7
#     8   8   8   8   8   8   8
#     4  11  24  36  56  83 118 156 207 263 295 360
#     4  10  20  38  58  83 123 163 193 244 319 384
#     4  10  21  38  57  82 123 163 195 246 317 386
#     4  12  24  40  56  85 121 164 208 263 304 352
#     4  10  23  39  59  75 106 164 215 258 302 348
#     4  11  23  42  58  73 111 168 216 255 310 344
#     4  12  25  34  60  91 128 154 213 244 310 374
#
# _framework density 19.106988999999999
#
# number of rings (size 3 to 8) (size 9 to 14) (size 15 to 20)
#    0.000    1.143    2.857    4.714    4.000    0.000 
#    0.000    0.000    0.000    0.000    0.000    0.000 
#    0.000   16.000    0.000    2.286    0.000    0.000 
#
# Total GULP energy -156464.416039 kJ/mol
# GULP energy per Si atom -5588.014859 kJ/mol
# Density = 1.906350 g / cm^3
# Si number density = 19.106989 Si / 1000 Ang^3
#
#
#
# Elastic Constant Matrix: (Units=GPa)
#
#
# Indices 1 2 3 4 5 6 
#
# 1 106.4065 48.1456 45.2148 0.0001 1.3335 0.0001
# 2 48.1456 108.5188 16.5074 0.0005 -8.6829 -0.0004
# 3 45.2148 16.5074 83.0635 0.0009 -6.6754 0.0005
# 4 0.0001 0.0005 0.0009 17.8055 0.0000 -6.8743
# 5 1.3335 -8.6829 -6.6754 0.0000 44.8258 -0.0006
# 6 0.0001 -0.0004 0.0005 -6.8743 -0.0006 32.6170
#
#
#
# Elastic Compliance Matrix: (Units=1/GPa)
#
#
# Indices 1 2 3 4 5 6 
#
# 1 0.015182 -0.005836 -0.007319 0.000000 -0.002672 0.000000
# 2 -0.005836 0.011857 0.001031 0.000000 0.002624 0.000000
# 3 -0.007319 0.001031 0.016044 -0.000001 0.002807 0.000000
# 4 0.000000 0.000000 -0.000001 0.061137 0.000000 0.012885
# 5 -0.002672 0.002624 0.002807 0.000000 0.023314 0.000000
# 6 0.000000 0.000000 0.000000 0.012885 0.000000 0.033374
#
#
# Mechanical properties :
#
#
# Convention : Reuss Voigt Hill
#
# Bulk Modulus (GPa) = 53.09225 57.52494 55.30859
# Shear Modulus (GPa) = 26.11842 31.59106 28.85474
#
# Velocity S-wave (km/s) = 3.70125 4.07059 3.89030
# Velocity P-wave (km/s) = 6.79064 7.22945 7.01348
#
# Compressibility (1/GPa) = 0.01883514
#
# Stress axis : x y z
#
# Youngs Moduli (GPa) = 65.86658 84.33572 62.32975
#
# Poissons Ratio (x) = 0.49220 0.45620
# Poissons Ratio (y) = 0.38441 -0.06428
# Poissons Ratio (z) = 0.48209 -0.08698
#
# Static dielectric constant tensor:
#      x y z
#    x 1.688010 -0.000010 0.007430 
#    y -0.000010 1.093300 -0.000020 
#    z 0.007430 -0.000020 1.681200 
# 
# From -- ./inp_files/150430.got.cif
#   From: 2010.05.17/outbox.cif.g08.bks.cpg/sg12_76_cif.got.tgz:150430.got - 2010.06.03 13:09:07.
