data_PCOD9202342
_publ_section_title
;
Structure prediction by ZEFSAII (Michael W. Deem and Ramdas Pophale) SiO2 
 PCOD9202342
Probable space group: C 2/M
;
_chemical_formula_sum "Si O2"
_cell_formula_units_Z 36
_cell_length_a 12.966667
_cell_length_b 19.983527
_cell_length_c 7.656981
_cell_angle_alpha 90.000000
_cell_angle_beta 120.910640
_cell_angle_gamma 90.000000
_cell_volume 1702.275822
_symmetry_space_group_name_H-M "C 2/M"
_symmetry_group_IT_number 12
_symmetry_cell_setting 'monoclinic'
loop_
_space_group_symop_operation_xyz
x,y,z
-x,y,-z
-x,-y,-z
x,-y,z
1/2+x,1/2+y,z
1/2-x,1/2+y,-z
1/2-x,1/2-y,-z
1/2+x,1/2-y,z
loop_
_atom_site_type_symbol
_atom_site_label
_atom_site_fract_x
_atom_site_fract_y
_atom_site_fract_z
Si Si1 0.049623 0.424551 0.349567
Si Si2 0.106154 0.207318 0.962472
Si Si3 0.172227 0.353475 0.999925
Si Si4 0.792606 0.922622 0.417325
Si Si5 0.000000 0.176836 0.500000
O O1 0.044340 0.500000 0.269956
O O2 0.189231 0.405270 0.466429
O O3 0.000000 0.427241 0.500000
O O4 0.958366 0.376290 0.173343
O O5 0.153665 0.279749 0.065393
O O6 0.058398 0.214271 0.718260
O O7 0.221336 0.158616 0.048187
O O8 0.000000 0.185537 0.000000
O O9 0.222766 0.408565 0.175639
O O10 0.902031 0.871676 0.504228
O O11 0.829604 0.000000 0.467069
#
# Coordination Sequence:
#
# PCOD9202342 Si02
#       5
#     8   8   8   8   4
#     4  10  21  34  55  85 112 145 190 238 287 335
#     4  10  22  39  58  85 119 152 192 237 282 346
#     4  10  21  38  57  84 111 151 195 231 289 341
#     4  10  20  38  61  82 114 151 191 242 286 343
#     4  10  23  38  60  90 113 158 194 228 294 346
#
# _framework density 21.148161000000002
#
# number of rings (size 3 to 8) (size 9 to 14) (size 15 to 20)
#    0.000    2.000    0.000    3.000    4.667    1.778 
#    0.000    4.444    0.000    4.000    0.000    0.000 
#    0.000    0.000    0.000    0.000    0.000    0.000 
#
# Total GULP energy -100390.310552 kJ/mol
# GULP energy per Si atom -5577.239475 kJ/mol
# Density = 2.110003 g / cm^3
# Si number density = 21.148161 Si / 1000 Ang^3
#
#
#
# Elastic Constant Matrix: (Units=GPa)
#
#
# Indices 1 2 3 4 5 6 
#
# 1 166.8764 24.1227 -3.7757 0.0000 4.3398 0.0000
# 2 24.1227 29.4162 6.1022 0.0000 2.7600 0.0000
# 3 -3.7757 6.1022 37.2837 0.0000 2.8358 0.0000
# 4 0.0000 0.0000 0.0000 16.0749 0.0000 4.8980
# 5 4.3398 2.7600 2.8358 0.0000 27.2464 0.0000
# 6 0.0000 0.0000 0.0000 4.8980 0.0000 30.5116
#
#
#
# Elastic Compliance Matrix: (Units=1/GPa)
#
#
# Indices 1 2 3 4 5 6 
#
# 1 0.006911 -0.005962 0.001727 0.000000 -0.000677 0.000000
# 2 -0.005962 0.040576 -0.007060 0.000000 -0.002426 0.000000
# 3 0.001727 -0.007060 0.028343 0.000000 -0.002510 0.000000
# 4 0.000000 0.000000 0.000000 0.065408 0.000000 -0.010500
# 5 -0.000677 -0.002426 -0.002510 0.000000 0.037317 0.000000
# 6 0.000000 0.000000 0.000000 -0.010500 0.000000 0.034460
#
#
# Mechanical properties :
#
#
# Convention : Reuss Voigt Hill
#
# Bulk Modulus (GPa) = 18.78309 31.83051 25.30680
# Shear Modulus (GPa) = 19.73538 28.57504 24.15521
#
# Velocity S-wave (km/s) = 3.05814 3.67983 3.38330
# Velocity P-wave (km/s) = 4.62283 5.75663 5.22060
#
# Compressibility (1/GPa) = 0.05323938
#
# Stress axis : x y z
#
# Youngs Moduli (GPa) = 144.69719 24.64493 35.28239
#
# Poissons Ratio (x) = 0.14694 -0.06094
# Poissons Ratio (y) = 0.86270 0.24911
# Poissons Ratio (z) = -0.24991 0.17400
#
# Static dielectric constant tensor:
#      x y z
#    x 1.830960 0.000000 0.010690 
#    y 0.000000 1.749670 0.000000 
#    z 0.010690 0.000000 1.790550 
# 
# From -- ./inp_files/46815.got.cif
#   From: 2010.05.17/outbox.cif.g08.bks.cpg/sg12_24_cif.got.tgz:46815.got - 2010.06.03 13:09:07.
