data_PCOD9202477
_publ_section_title
;
Structure prediction by ZEFSAII (Michael W. Deem and Ramdas Pophale) SiO2 
 PCOD9202477
Probable space group: C 2/M
;
_chemical_formula_sum "Si O2"
_cell_formula_units_Z 60
_cell_length_a 26.339641
_cell_length_b 18.677898
_cell_length_c 11.432899
_cell_angle_alpha 90.000000
_cell_angle_beta 32.050745
_cell_angle_gamma 90.000000
_cell_volume 2984.824995
_symmetry_space_group_name_H-M "C 2/M"
_symmetry_group_IT_number 12
_symmetry_cell_setting 'monoclinic'
loop_
_space_group_symop_operation_xyz
x,y,z
-x,y,-z
-x,-y,-z
x,-y,z
1/2+x,1/2+y,z
1/2-x,1/2+y,-z
1/2-x,1/2-y,-z
1/2+x,1/2-y,z
loop_
_atom_site_type_symbol
_atom_site_label
_atom_site_fract_x
_atom_site_fract_y
_atom_site_fract_z
Si Si1 0.051248 0.420320 0.153598
Si Si2 0.390126 0.656253 0.686252
Si Si3 0.638918 0.701716 0.524794
Si Si4 0.500000 0.735252 0.000000
Si Si5 0.836875 0.371286 0.521008
Si Si6 0.235369 0.420612 0.116529
Si Si7 0.663812 0.850857 0.743399
Si Si8 0.895326 0.308883 0.756878
O O1 0.065046 0.500000 0.178039
O O2 0.092135 0.353370 0.148690
O O3 0.938965 0.407766 0.350140
O O4 0.109804 0.412244 0.920050
O O5 0.500000 0.644715 0.500000
O O6 0.376785 0.668492 0.573432
O O7 0.357104 0.728021 0.823156
O O8 0.328692 0.592049 0.857741
O O9 0.552471 0.694396 0.789358
O O10 0.649268 0.786766 0.484229
O O11 0.738604 0.674399 0.385449
O O12 0.585257 0.786419 0.883624
O O13 0.757081 0.404150 0.761043
O O14 0.813644 0.377144 0.430598
O O15 0.197448 0.500000 0.174627
O O16 0.162689 0.361597 0.211846
O O17 0.000000 0.301454 0.500000
#
# Coordination Sequence:
#
# PCOD9202477 Si02
#       8
#     8   8   8   4   8   8   8   8
#     4  12  23  37  61  91 134 177 211 261 326 396
#     4  11  25  43  67  92 128 173 218 276 327 381
#     4  11  22  41  65  95 126 168 219 275 324 379
#     4  10  20  38  61  94 125 168 212 270 324 376
#     4  11  21  39  57  92 129 170 211 260 322 387
#     4  12  25  40  63  95 131 172 218 265 323 392
#     4  11  23  38  62  93 131 172 218 267 319 385
#     4  11  22  39  61  92 128 167 211 265 326 386
#
# _framework density 20.101680999999999
#
# number of rings (size 3 to 8) (size 9 to 14) (size 15 to 20)
#    0.000    0.800    5.333    4.400    1.867    3.467 
#    0.000    0.000    0.000    0.000    0.000    1.867 
#    0.000    0.000    0.000    0.000    0.000    0.000 
#
# Total GULP energy -167501.190744 kJ/mol
# GULP energy per Si atom -5583.373025 kJ/mol
# Density = 2.005593 g / cm^3
# Si number density = 20.101681 Si / 1000 Ang^3
#
#
#
# Elastic Constant Matrix: (Units=GPa)
#
#
# Indices 1 2 3 4 5 6 
#
# 1 122.9628 6.8699 43.2203 0.0000 11.6202 0.0000
# 2 6.8699 42.3597 17.1094 0.0000 7.4745 0.0000
# 3 43.2203 17.1094 91.7095 0.0000 9.4106 0.0000
# 4 0.0000 0.0000 0.0000 13.1796 0.0000 -3.7451
# 5 11.6202 7.4745 9.4106 0.0000 35.4169 0.0000
# 6 0.0000 0.0000 0.0000 -3.7451 0.0000 -0.3071
#
#
#
# Elastic Compliance Matrix: (Units=1/GPa)
#
#
# Indices 1 2 3 4 5 6 
#
# 1 0.009906 0.000618 -0.004561 0.000000 -0.002169 0.000000
# 2 0.000618 0.026204 -0.004721 0.000000 -0.004479 0.000000
# 3 -0.004561 -0.004721 0.014062 0.000000 -0.001244 0.000000
# 4 0.000000 0.000000 0.000000 0.016992 0.000000 -0.207219
# 5 -0.002169 -0.004479 -0.001244 0.000000 0.030222 0.000000
# 6 0.000000 0.000000 0.000000 -0.207219 0.000000 -0.729238
#
#
# Mechanical properties :
#
#
# Convention : Reuss Voigt Hill
#
# Bulk Modulus (GPa) = 30.44579 43.49236 36.96908
# Shear Modulus (GPa) = -8.28395 22.31337 7.01471
#
# Velocity S-wave (km/s) = -2.03223 3.33532 1.87008
# Velocity P-wave (km/s) = 3.11001 6.04281 4.80561
#
# Compressibility (1/GPa) = 0.03284526
#
# Stress axis : x y z
#
# Youngs Moduli (GPa) = 100.94668 38.16209 71.11396
#
# Poissons Ratio (x) = -0.02360 0.32438
# Poissons Ratio (y) = -0.06243 0.33570
# Poissons Ratio (z) = 0.46046 0.18015
#
# Static dielectric constant tensor:
#      x y z
#    x 1.755750 0.000000 0.042760 
#    y 0.000000 1.693800 0.000000 
#    z 0.042760 0.000000 1.718640 
# 
# From -- ./inp_files/184415.got.cif
#   From: 2010.05.17/outbox.cif.g08.bks.cpg/sg12_93_cif.got.tgz:184415.got - 2010.06.03 13:09:07.
