data_PCOD9202419
_publ_section_title
;
Structure prediction by ZEFSAII (Michael W. Deem and Ramdas Pophale) SiO2 
 PCOD9202419
Probable space group: C 2/M
;
_chemical_formula_sum "Si O2"
_cell_formula_units_Z 48
_cell_length_a 20.668080
_cell_length_b 7.931881
_cell_length_c 13.927464
_cell_angle_alpha 90.000000
_cell_angle_beta 90.245444
_cell_angle_gamma 90.000000
_cell_volume 2283.202249
_symmetry_space_group_name_H-M "C 2/M"
_symmetry_group_IT_number 12
_symmetry_cell_setting 'monoclinic'
loop_
_space_group_symop_operation_xyz
x,y,z
-x,y,-z
-x,-y,-z
x,-y,z
1/2+x,1/2+y,z
1/2-x,1/2+y,-z
1/2-x,1/2-y,-z
1/2+x,1/2-y,z
loop_
_atom_site_type_symbol
_atom_site_label
_atom_site_fract_x
_atom_site_fract_y
_atom_site_fract_z
Si Si1 0.381335 0.796810 0.143646
Si Si2 0.859058 0.293334 0.926236
Si Si3 0.694156 0.798150 0.425704
Si Si4 0.449933 0.301294 0.578567
Si Si5 0.252630 0.797294 0.778514
Si Si6 0.022182 0.700344 0.204770
O O1 0.321832 0.750771 0.211348
O O2 0.451043 0.732021 0.178869
O O3 0.384635 0.000000 0.140423
O O4 0.365276 0.736453 0.035772
O O5 0.858819 0.500000 0.926931
O O6 0.794604 0.237418 0.869983
O O7 0.920798 0.235911 0.864055
O O8 0.750000 0.750000 0.500000
O O9 0.624042 0.727930 0.452209
O O10 0.714899 0.736367 0.319821
O O11 0.688498 0.000000 0.422132
O O12 0.500000 0.232152 0.500000
O O13 0.461792 0.500000 0.587656
O O14 0.460488 0.226486 0.684239
O O15 0.256477 0.000000 0.777238
O O16 0.020012 0.500000 0.187561
#
# Coordination Sequence:
#
# PCOD9202419 Si02
#       6
#     8   8   8   8   8   8
#     4  10  21  34  58  91 119 154 200 243 286 349
#     4   9  17  36  60  84 116 156 199 243 292 345
#     4  11  24  43  66  91 120 157 199 246 299 356
#     4  11  25  43  63  89 120 156 197 248 304 356
#     4  10  21  38  59  83 120 159 191 239 297 348
#     4  10  20  38  61  87 118 156 199 245 295 350
#
# _framework density 21.023105000000001
#
# number of rings (size 3 to 8) (size 9 to 14) (size 15 to 20)
#    0.000    1.833    1.667    2.000    2.333    5.333 
#    0.000    0.833    0.000    2.000    0.000    0.000 
#    0.000    0.000    0.000    0.000    0.000    0.000 
#
# Total GULP energy -134129.794197 kJ/mol
# GULP energy per Si atom -5588.741425 kJ/mol
# Density = 2.097526 g / cm^3
# Si number density = 21.023105 Si / 1000 Ang^3
#
#
#
# Elastic Constant Matrix: (Units=GPa)
#
#
# Indices 1 2 3 4 5 6 
#
# 1 115.1393 -14.5289 18.4770 0.0000 -2.9128 0.0000
# 2 -14.5289 12.9712 -11.6014 0.0000 -2.6668 0.0000
# 3 18.4770 -11.6014 59.7964 0.0000 -6.0077 0.0000
# 4 0.0000 0.0000 0.0000 17.5900 0.0000 -0.3558
# 5 -2.9128 -2.6668 -6.0077 0.0000 43.6172 0.0000
# 6 0.0000 0.0000 0.0000 -0.3558 0.0000 26.1386
#
#
#
# Elastic Compliance Matrix: (Units=1/GPa)
#
#
# Indices 1 2 3 4 5 6 
#
# 1 0.010239 0.010890 -0.000928 0.000000 0.001222 0.000000
# 2 0.010890 0.107931 0.018568 0.000000 0.009884 0.000000
# 3 -0.000928 0.018568 0.021011 0.000000 0.003967 0.000000
# 4 0.000000 0.000000 0.000000 0.056866 0.000000 0.000774
# 5 0.001222 0.009884 0.003967 0.000000 0.024159 0.000000
# 6 0.000000 0.000000 0.000000 0.000774 0.000000 0.038268
#
#
# Mechanical properties :
#
#
# Convention : Reuss Voigt Hill
#
# Bulk Modulus (GPa) = 5.09577 19.17780 12.13678
# Shear Modulus (GPa) = 18.73856 30.50651 24.62253
#
# Velocity S-wave (km/s) = 2.98876 3.81346 3.42601
# Velocity P-wave (km/s) = 3.78674 5.34153 4.62987
#
# Compressibility (1/GPa) = 0.19624133
#
# Stress axis : x y z
#
# Youngs Moduli (GPa) = 97.66455 9.26515 47.59314
#
# Poissons Ratio (x) = -0.10089 0.04418
# Poissons Ratio (y) = -1.06353 -0.88373
# Poissons Ratio (z) = 0.09067 -0.17204
#
# Static dielectric constant tensor:
#      x y z
#    x 1.738660 0.000000 -0.005300 
#    y 0.000000 1.771500 0.000000 
#    z -0.005300 0.000000 1.732790 
# 
# From -- ./inp_files/221705.got.cif
#   From: 2010.05.17/outbox.cif.g08.bks.cpg/sg12_111_cif.got.tgz:221705.got - 2010.06.03 13:09:07.
