data_PCOD9202451
_publ_section_title
;
Structure prediction by ZEFSAII (Michael W. Deem and Ramdas Pophale) SiO2 
 PCOD9202451
Probable space group: C 2/M
;
_chemical_formula_sum "Si O2"
_cell_formula_units_Z 58
_cell_length_a 27.546234
_cell_length_b 17.486473
_cell_length_c 11.503228
_cell_angle_alpha 90.000000
_cell_angle_beta 146.693189
_cell_angle_gamma 90.000000
_cell_volume 3042.658143
_symmetry_space_group_name_H-M "C 2/M"
_symmetry_group_IT_number 12
_symmetry_cell_setting 'monoclinic'
loop_
_space_group_symop_operation_xyz
x,y,z
-x,y,-z
-x,-y,-z
x,-y,z
1/2+x,1/2+y,z
1/2-x,1/2+y,-z
1/2-x,1/2-y,-z
1/2+x,1/2-y,z
loop_
_atom_site_type_symbol
_atom_site_label
_atom_site_fract_x
_atom_site_fract_y
_atom_site_fract_z
Si Si1 0.616998 0.121011 0.088595
Si Si2 0.422237 0.155053 0.253176
Si Si3 0.000000 0.500000 0.000000
Si Si4 0.593932 0.294067 0.122300
Si Si5 0.817551 0.914083 0.538610
Si Si6 0.409380 0.412753 0.479918
Si Si7 0.765344 0.840489 0.031687
Si Si8 0.090875 0.832770 0.848736
O O1 0.617243 0.205561 0.146216
O O2 0.719061 0.094740 0.290220
O O3 0.577240 0.123220 0.877780
O O4 0.559109 0.066056 0.051788
O O5 0.500000 0.137213 0.500000
O O6 0.421939 0.247310 0.229995
O O7 0.330469 0.127719 0.128204
O O8 0.661353 0.345612 0.331198
O O9 0.500000 0.297869 0.000000
O O10 0.590400 0.327823 0.985962
O O11 0.887086 0.908974 0.572008
O O12 0.825269 0.000000 0.605589
O O13 0.397792 0.500000 0.418492
O O14 0.336537 0.361277 0.271670
O O15 0.507065 0.383637 0.648406
O O16 0.815814 0.862379 0.014434
O O17 0.750000 0.750000 0.000000
#
# Coordination Sequence:
#
# PCOD9202451 Si02
#       8
#     8   8   2   8   8   8   8   8
#     4  11  23  44  67  94 127 168 225 276 321 386
#     4  10  21  41  66  93 125 168 215 270 326 381
#     4  12  24  44  74  92 124 178 224 280 326 372
#     4  11  22  40  63  97 130 169 215 262 322 392
#     4  11  23  41  65  91 131 174 211 258 327 394
#     4  11  22  37  64  91 126 169 205 257 322 389
#     4  10  20  38  61  89 122 165 213 258 313 380
#     4  10  21  37  60  94 131 163 211 264 313 384
#
# _framework density 19.062279
#
# number of rings (size 3 to 8) (size 9 to 14) (size 15 to 20)
#    0.000    1.379    4.138    2.483    0.000    1.931 
#    2.483    0.345    0.000    0.000    0.000    0.000 
#    0.000    0.000    0.000    0.000    0.000    0.000 
#
# Total GULP energy -161531.042151 kJ/mol
# GULP energy per Si atom -5570.035936 kJ/mol
# Density = 1.901889 g / cm^3
# Si number density = 19.062279 Si / 1000 Ang^3
#
#
#
# Elastic Constant Matrix: (Units=GPa)
#
#
# Indices 1 2 3 4 5 6 
#
# 1 127.7038 32.5270 46.0854 0.0000 15.0128 0.0000
# 2 32.5270 93.1680 40.3046 0.0000 -12.6494 0.0000
# 3 46.0854 40.3046 82.6567 0.0000 -0.4788 0.0000
# 4 0.0000 0.0000 0.0000 4.0825 0.0000 5.2481
# 5 15.0128 -12.6494 -0.4788 0.0000 25.9504 0.0000
# 6 0.0000 0.0000 0.0000 5.2481 0.0000 33.6301
#
#
#
# Elastic Compliance Matrix: (Units=1/GPa)
#
#
# Indices 1 2 3 4 5 6 
#
# 1 0.011293 -0.002902 -0.004928 0.000000 -0.008039 0.000000
# 2 -0.002902 0.015545 -0.005909 0.000000 0.009147 0.000000
# 3 -0.004928 -0.005909 0.017729 0.000000 0.000298 0.000000
# 4 0.000000 0.000000 0.000000 0.306421 0.000000 -0.047818
# 5 -0.008039 0.009147 0.000298 0.000000 0.047650 0.000000
# 6 0.000000 0.000000 0.000000 -0.047818 0.000000 0.037198
#
#
# Mechanical properties :
#
#
# Convention : Reuss Voigt Hill
#
# Bulk Modulus (GPa) = 58.51788 60.15139 59.33464
# Shear Modulus (GPa) = 10.66078 25.04003 17.85041
#
# Velocity S-wave (km/s) = 2.36743 3.62828 3.06343
# Velocity P-wave (km/s) = 6.18368 7.01258 6.61113
#
# Compressibility (1/GPa) = 0.01708879
#
# Stress axis : x y z
#
# Youngs Moduli (GPa) = 88.54780 64.33130 56.40596
#
# Poissons Ratio (x) = 0.18671 0.27797
# Poissons Ratio (y) = 0.25700 0.33328
# Poissons Ratio (z) = 0.43636 0.38010
#
# Static dielectric constant tensor:
#      x y z
#    x 1.679690 0.000000 0.000960 
#    y 0.000000 1.656800 0.000000 
#    z 0.000960 0.000000 1.644820 
# 
# From -- ./inp_files/184473.got.cif
#   From: 2010.05.17/outbox.cif.g08.bks.cpg/sg12_93_cif.got.tgz:184473.got - 2010.06.03 13:09:07.
