data_PCOD9202276
_publ_section_title
;
Structure prediction by ZEFSAII (Michael W. Deem and Ramdas Pophale) SiO2 
 PCOD9202276
Probable space group: C 2/M
;
_chemical_formula_sum "Si O2"
_cell_formula_units_Z 44
_cell_length_a 17.336249
_cell_length_b 12.951740
_cell_length_c 14.600830
_cell_angle_alpha 90.000000
_cell_angle_beta 37.771433
_cell_angle_gamma 90.000000
_cell_volume 2008.057385
_symmetry_space_group_name_H-M "C 2/M"
_symmetry_group_IT_number 12
_symmetry_cell_setting 'monoclinic'
loop_
_space_group_symop_operation_xyz
x,y,z
-x,y,-z
-x,-y,-z
x,-y,z
1/2+x,1/2+y,z
1/2-x,1/2+y,-z
1/2-x,1/2-y,-z
1/2+x,1/2-y,z
loop_
_atom_site_type_symbol
_atom_site_label
_atom_site_fract_x
_atom_site_fract_y
_atom_site_fract_z
Si Si1 0.741883 0.714210 0.753769
Si Si2 0.922149 0.838535 0.380837
Si Si3 0.681622 0.889273 0.489397
Si Si4 0.874726 0.229128 0.940910
Si Si5 0.563355 0.114767 0.841460
Si Si6 0.500000 0.674117 0.500000
O O1 0.760018 0.620996 0.666999
O O2 0.672436 0.802022 0.757205
O O3 0.880194 0.758527 0.645360
O O4 0.665345 0.695258 0.918747
O O5 0.795904 0.881523 0.454089
O O6 0.897915 0.715317 0.421790
O O7 0.034598 0.846032 0.201828
O O8 0.956378 0.882177 0.448426
O O9 0.615957 0.000000 0.558511
O O10 0.957149 0.333143 0.878505
O O11 0.750000 0.250000 0.000000
O O12 0.603201 0.000000 0.775944
O O13 0.500000 0.105332 0.000000
#
# Coordination Sequence:
#
# PCOD9202276 Si02
#       6
#     8   8   8   8   8   4
#     4  10  20  38  64  89 125 164 207 258 316 369
#     4  10  21  40  61  91 121 164 211 254 317 367
#     4  10  22  42  65  92 125 165 212 257 314 388
#     4  11  20  37  64  88 126 165 204 262 310 364
#     4   9  19  36  60  89 120 159 205 251 307 369
#     4  10  20  38  60  86 122 160 204 254 318 368
#
# _framework density 21.911725000000001
#
# number of rings (size 3 to 8) (size 9 to 14) (size 15 to 20)
#    0.000    2.000    3.636    0.000    0.000    0.727 
#    0.000   12.727    0.000    0.000    0.000    0.000 
#    0.000    0.000    0.000    0.000    0.000    0.000 
#
# Total GULP energy -122774.338318 kJ/mol
# GULP energy per Si atom -5580.651742 kJ/mol
# Density = 2.186185 g / cm^3
# Si number density = 21.911725 Si / 1000 Ang^3
#
#
#
# Elastic Constant Matrix: (Units=GPa)
#
#
# Indices 1 2 3 4 5 6 
#
# 1 141.3338 15.2107 21.7983 0.0000 4.9515 0.0000
# 2 15.2107 94.6633 12.3359 0.0000 -0.1415 0.0000
# 3 21.7983 12.3359 126.0598 0.0000 32.0254 0.0000
# 4 0.0000 0.0000 0.0000 10.5654 0.0000 1.7836
# 5 4.9515 -0.1415 32.0254 0.0000 56.0958 0.0000
# 6 0.0000 0.0000 0.0000 1.7836 0.0000 -3.7538
#
#
#
# Elastic Compliance Matrix: (Units=1/GPa)
#
#
# Indices 1 2 3 4 5 6 
#
# 1 0.007367 -0.001030 -0.001178 0.000000 0.000020 0.000000
# 2 -0.001030 0.010870 -0.001071 0.000000 0.000730 0.000000
# 3 -0.001178 -0.001071 0.009609 0.000000 -0.005385 0.000000
# 4 0.000000 0.000000 0.000000 0.087620 0.000000 0.041633
# 5 0.000020 0.000730 -0.005385 0.000000 0.020901 0.000000
# 6 0.000000 0.000000 0.000000 0.041633 0.000000 -0.246615
#
#
# Mechanical properties :
#
#
# Convention : Reuss Voigt Hill
#
# Bulk Modulus (GPa) = 46.97515 51.19406 49.08460
# Shear Modulus (GPa) = -51.76338 33.42895 -9.16721
#
# Velocity S-wave (km/s) = -4.86568 3.91016 -2.04763
# Velocity P-wave (km/s) = 3.17515 6.61818 4.10601
#
# Compressibility (1/GPa) = 0.02128785
#
# Stress axis : x y z
#
# Youngs Moduli (GPa) = 135.73406 91.99673 104.06640
#
# Poissons Ratio (x) = 0.09478 0.12261
# Poissons Ratio (y) = 0.13984 0.11145
# Poissons Ratio (z) = 0.15992 0.09852
#
# Static dielectric constant tensor:
#      x y z
#    x 1.798310 0.000000 0.045630 
#    y 0.000000 1.781620 0.000000 
#    z 0.045630 0.000000 1.856090 
# 
# From -- ./inp_files/224592.got.cif
#   From: 2010.05.17/outbox.cif.g08.bks.cpg/sg12_113_cif.got.tgz:224592.got - 2010.06.03 13:09:07.
