data_PCOD9202461
_publ_section_title
;
Structure prediction by ZEFSAII (Michael W. Deem and Ramdas Pophale) SiO2 
 PCOD9202461
Probable space group: C 2/M
;
_chemical_formula_sum "Si O2"
_cell_formula_units_Z 56
_cell_length_a 15.824916
_cell_length_b 17.206523
_cell_length_c 18.687044
_cell_angle_alpha 90.000000
_cell_angle_beta 144.069560
_cell_angle_gamma 90.000000
_cell_volume 2985.844550
_symmetry_space_group_name_H-M "C 2/M"
_symmetry_group_IT_number 12
_symmetry_cell_setting 'monoclinic'
loop_
_space_group_symop_operation_xyz
x,y,z
-x,y,-z
-x,-y,-z
x,-y,z
1/2+x,1/2+y,z
1/2-x,1/2+y,-z
1/2-x,1/2-y,-z
1/2+x,1/2-y,z
loop_
_atom_site_type_symbol
_atom_site_label
_atom_site_fract_x
_atom_site_fract_y
_atom_site_fract_z
Si Si1 0.565094 0.361939 0.863551
Si Si2 0.230038 0.851087 0.419125
Si Si3 0.983304 0.736016 0.911040
Si Si4 0.820362 0.410713 0.934503
Si Si5 0.145270 0.820264 0.515148
Si Si6 0.331900 0.000000 0.401202
Si Si7 0.549912 0.500000 0.116890
Si Si8 0.807844 0.840323 0.295746
O O1 0.435104 0.350094 0.719200
O O2 0.570590 0.282137 0.911324
O O3 0.701490 0.390457 0.912888
O O4 0.516529 0.425860 0.887948
O O5 0.223515 0.857270 0.500411
O O6 0.303926 0.769624 0.448867
O O7 0.298411 0.923718 0.425396
O O8 0.812299 0.727990 0.782980
O O9 0.052051 0.650338 0.964369
O O10 0.000000 0.774776 0.000000
O O11 0.865064 0.500000 0.970352
O O12 0.750091 0.394561 0.808032
O O13 0.183482 0.864633 0.615011
O O14 0.971910 0.818938 0.389178
O O15 0.500000 0.000000 0.500000
O O16 0.220470 0.000000 0.256758
O O17 0.500000 0.500000 0.000000
#
# Coordination Sequence:
#
# PCOD9202461 Si02
#       8
#     8   8   8   8   8   4   4   8
#     4  11  19  39  61  91 121 158 213 255 310 373
#     4  10  21  37  65  89 126 162 203 252 309 375
#     4  10  22  37  59  89 118 159 206 258 300 368
#     4  11  23  41  62  86 122 169 207 250 315 369
#     4  10  20  38  61  91 120 162 205 253 299 364
#     4  10  24  40  62  96 129 165 200 256 326 378
#     4  10  22  38  64  89 125 163 208 261 316 376
#     4  10  21  36  61  89 120 156 209 248 303 359
#
# _framework density 18.755163
#
# number of rings (size 3 to 8) (size 9 to 14) (size 15 to 20)
#    0.000    1.714    3.571    0.857    2.000    2.571 
#    1.286    2.143    0.000    0.000    0.000    0.000 
#    0.000    0.000    0.000    0.000    0.000    0.000 
#
# Total GULP energy -156050.610270 kJ/mol
# GULP energy per Si atom -5573.236081 kJ/mol
# Density = 1.871247 g / cm^3
# Si number density = 18.755163 Si / 1000 Ang^3
#
#
#
# Elastic Constant Matrix: (Units=GPa)
#
#
# Indices 1 2 3 4 5 6 
#
# 1 112.6370 30.5771 48.5112 0.0001 -13.4631 0.0001
# 2 30.5771 75.6392 16.1367 0.0000 -12.4200 0.0000
# 3 48.5112 16.1367 81.8432 0.0002 -8.0138 0.0002
# 4 0.0001 0.0000 0.0002 16.6213 0.0003 -0.8331
# 5 -13.4631 -12.4200 -8.0138 0.0003 37.5011 0.0002
# 6 0.0001 0.0000 0.0002 -0.8331 0.0002 17.1017
#
#
#
# Elastic Compliance Matrix: (Units=1/GPa)
#
#
# Indices 1 2 3 4 5 6 
#
# 1 0.013003 -0.003462 -0.006823 0.000000 0.002064 0.000000
# 2 -0.003462 0.015361 -0.000613 0.000000 0.003713 0.000000
# 3 -0.006823 -0.000613 0.016468 0.000000 0.000867 0.000000
# 4 0.000000 0.000000 0.000000 0.060311 -0.000001 0.002938
# 5 0.002064 0.003713 0.000867 -0.000001 0.028822 0.000000
# 6 0.000000 0.000000 0.000000 0.002938 0.000000 0.058617
#
#
# Mechanical properties :
#
#
# Convention : Reuss Voigt Hill
#
# Bulk Modulus (GPa) = 43.40913 51.17439 47.29176
# Shear Modulus (GPa) = 22.51687 25.90444 24.21066
#
# Velocity S-wave (km/s) = 3.46868 3.72047 3.59678
# Velocity P-wave (km/s) = 6.26400 6.76761 6.52067
#
# Compressibility (1/GPa) = 0.02303663
#
# Stress axis : x y z
#
# Youngs Moduli (GPa) = 76.90540 65.10112 60.72301
#
# Poissons Ratio (x) = 0.22539 0.41429
# Poissons Ratio (y) = 0.26625 0.03722
# Poissons Ratio (z) = 0.52470 0.03990
#
# Static dielectric constant tensor:
#      x y z
#    x 1.654620 0.000000 -0.024120 
#    y 0.000000 1.652420 0.000000 
#    z -0.024120 0.000000 1.668410 
# 
# From -- ./inp_files/271477.got.cif
#   From: 2010.05.17/outbox.cif.g08.bks.cpg/sg12_136_cif.got.tgz:271477.got - 2010.06.03 13:09:07.
