data_PCOD9202329
_publ_section_title
;
Structure prediction by ZEFSAII (Michael W. Deem and Ramdas Pophale) SiO2 
 PCOD9202329
Probable space group: C 2/M
;
_chemical_formula_sum "Si O2"
_cell_formula_units_Z 48
_cell_length_a 20.035690
_cell_length_b 7.825855
_cell_length_c 12.092566
_cell_angle_alpha 90.000000
_cell_angle_beta 83.719901
_cell_angle_gamma 90.000000
_cell_volume 1884.692572
_symmetry_space_group_name_H-M "C 2/M"
_symmetry_group_IT_number 12
_symmetry_cell_setting 'monoclinic'
loop_
_space_group_symop_operation_xyz
x,y,z
-x,y,-z
-x,-y,-z
x,-y,z
1/2+x,1/2+y,z
1/2-x,1/2+y,-z
1/2-x,1/2-y,-z
1/2+x,1/2-y,z
loop_
_atom_site_type_symbol
_atom_site_label
_atom_site_fract_x
_atom_site_fract_y
_atom_site_fract_z
Si Si1 0.948045 0.190481 0.855671
Si Si2 0.347982 0.800053 0.414070
Si Si3 0.006376 0.293345 0.625052
Si Si4 0.703561 0.707488 0.352467
Si Si5 0.090728 0.696733 0.909728
Si Si6 0.238559 0.294929 0.875866
O O1 0.952870 0.236286 0.725916
O O2 0.025965 0.202120 0.880766
O O3 0.921005 0.000000 0.871962
O O4 0.910894 0.300331 0.955596
O O5 0.418291 0.733249 0.356209
O O6 0.346802 0.780687 0.547640
O O7 0.277432 0.732122 0.382474
O O8 0.346268 0.000000 0.387324
O O9 0.005621 0.500000 0.624586
O O10 0.000000 0.234031 0.500000
O O11 0.698532 0.500000 0.360223
O O12 0.706166 0.761039 0.223801
O O13 0.081491 0.500000 0.874976
O O14 0.163038 0.763505 0.859869
O O15 0.236063 0.500000 0.868199
O O16 0.250000 0.250000 0.000000
#
# Coordination Sequence:
#
# PCOD9202329 Si02
#       6
#     8   8   8   8   8   8
#     4  11  22  36  57  85 112 139 180 234 284 323
#     4   9  18  34  56  79 102 133 177 221 259 310
#     4  10  21  37  56  78 108 146 184 220 265 328
#     4   9  18  34  54  77 105 135 171 217 267 311
#     4  10  20  38  61  81 107 146 188 225 269 328
#     4  10  22  37  55  80 111 147 182 220 267 322
#
# _framework density 25.468344999999999
#
# number of rings (size 3 to 8) (size 9 to 14) (size 15 to 20)
#    0.000    2.167    0.000    4.000    0.000    7.000 
#    0.000    8.333    0.000    0.000    0.000    0.000 
#    0.000    0.000    0.000    0.000    0.000    0.000 
#
# Total GULP energy -134201.055754 kJ/mol
# GULP energy per Si atom -5591.710656 kJ/mol
# Density = 2.541038 g / cm^3
# Si number density = 25.468345 Si / 1000 Ang^3
#
#
#
# Elastic Constant Matrix: (Units=GPa)
#
#
# Indices 1 2 3 4 5 6 
#
# 1 63.7147 -7.8906 8.8858 0.0000 -19.4664 0.0000
# 2 -7.8906 42.1629 -6.0407 0.0000 -0.2712 0.0000
# 3 8.8858 -6.0407 170.7939 0.0000 -20.8182 0.0000
# 4 0.0000 0.0000 0.0000 18.9340 0.0000 9.0043
# 5 -19.4664 -0.2712 -20.8182 0.0000 50.3377 0.0000
# 6 0.0000 0.0000 0.0000 9.0043 0.0000 3.4478
#
#
#
# Elastic Compliance Matrix: (Units=1/GPa)
#
#
# Indices 1 2 3 4 5 6 
#
# 1 0.018292 0.003474 0.000038 0.000000 0.007108 0.000000
# 2 0.003474 0.024510 0.000912 0.000000 0.001853 0.000000
# 3 0.000038 0.000912 0.006200 0.000000 0.002584 0.000000
# 4 0.000000 0.000000 0.000000 -0.218269 0.000000 0.570028
# 5 0.007108 0.001853 0.002584 0.000000 0.023693 0.000000
# 6 0.000000 0.000000 0.000000 0.570028 0.000000 -1.198637
#
#
# Mechanical properties :
#
#
# Convention : Reuss Voigt Hill
#
# Bulk Modulus (GPa) = 17.28607 29.62006 23.45307
# Shear Modulus (GPa) = -3.74876 33.32503 14.78814
#
# Velocity S-wave (km/s) = -1.21455 3.62123 2.41228
# Velocity P-wave (km/s) = 2.19890 5.39813 4.12159
#
# Compressibility (1/GPa) = 0.05785003
#
# Stress axis : x y z
#
# Youngs Moduli (GPa) = 54.66975 40.79918 161.28412
#
# Poissons Ratio (x) = -0.14175 -0.00607
# Poissons Ratio (y) = -0.18994 -0.14709
# Poissons Ratio (z) = -0.00206 -0.03721
#
# Static dielectric constant tensor:
#      x y z
#    x 2.044060 0.000000 0.071990 
#    y 0.000000 1.928480 0.000000 
#    z 0.071990 0.000000 2.076150 
# 
# From -- ./inp_files/172178.got.cif
#   From: 2010.05.17/outbox.cif.g08.bks.cpg/sg12_87_cif.got.tgz:172178.got - 2010.06.03 13:09:07.
