data_PCOD9202644
_publ_section_title
;
Structure prediction by ZEFSAII (Michael W. Deem and Ramdas Pophale) SiO2 
 PCOD9202644
Probable space group: C 2/M
;
_chemical_formula_sum "Si O2"
_cell_formula_units_Z 50
_cell_length_a 20.069706
_cell_length_b 20.477357
_cell_length_c 16.367215
_cell_angle_alpha 90.000000
_cell_angle_beta 159.478001
_cell_angle_gamma 90.000000
_cell_volume 2358.091898
_symmetry_space_group_name_H-M "C 2/M"
_symmetry_group_IT_number 12
_symmetry_cell_setting 'monoclinic'
loop_
_space_group_symop_operation_xyz
x,y,z
-x,y,-z
-x,-y,-z
x,-y,z
1/2+x,1/2+y,z
1/2-x,1/2+y,-z
1/2-x,1/2-y,-z
1/2+x,1/2-y,z
loop_
_atom_site_type_symbol
_atom_site_label
_atom_site_fract_x
_atom_site_fract_y
_atom_site_fract_z
Si Si1 0.977673 0.683087 0.179854
Si Si2 0.931491 0.114428 0.286689
Si Si3 0.500000 0.500000 0.500000
Si Si4 0.022366 0.929679 0.929005
Si Si5 0.732102 0.427780 0.505267
Si Si6 0.299383 0.707174 0.871142
Si Si7 0.583029 0.755789 0.473323
O O1 0.064317 0.718299 0.359593
O O2 0.119528 0.628873 0.308554
O O3 0.777018 0.645961 0.967368
O O4 0.938747 0.739094 0.069014
O O5 0.062531 0.177614 0.458087
O O6 0.035578 0.084555 0.327236
O O7 0.935480 0.058469 0.360031
O O8 0.821740 0.926355 0.651943
O O9 0.108862 0.000000 0.004367
O O10 0.135057 0.865460 0.036358
O O11 0.000000 0.929412 0.000000
O O12 0.803911 0.500000 0.610349
O O13 0.104531 0.717938 0.696468
O O14 0.258132 0.718662 0.728056
#
# Coordination Sequence:
#
# PCOD9202644 Si02
#       7
#     8   8   2   8   8   8   8
#     4  11  23  41  69  96 131 177 224 279 334 394
#     4  11  23  44  67  93 132 178 213 277 335 398
#     4  12  24  44  70  96 134 184 216 270 350 402
#     4  10  21  37  58  87 130 172 213 273 337 393
#     4  11  24  41  62  98 131 173 228 269 332 413
#     4  10  20  38  62  93 125 169 223 276 333 397
#     4  10  21  40  65  95 129 168 229 277 329 402
#
# _framework density 21.203585
#
# number of rings (size 3 to 8) (size 9 to 14) (size 15 to 20)
#    0.000    1.440    0.800    6.720    1.120    3.840 
#    0.000    5.600    0.000    0.000    0.000    0.000 
#    0.000    0.000    0.000    0.000    0.000    0.000 
#
# Total GULP energy -139403.153450 kJ/mol
# GULP energy per Si atom -5576.126138 kJ/mol
# Density = 2.115532 g / cm^3
# Si number density = 21.203585 Si / 1000 Ang^3
#
#
#
# Elastic Constant Matrix: (Units=GPa)
#
#
# Indices 1 2 3 4 5 6 
#
# 1 58.6845 36.1408 41.0157 0.0002 -7.9072 0.0001
# 2 36.1408 225.3165 69.9982 0.0000 -8.2491 0.0000
# 3 41.0157 69.9982 96.1740 0.0002 -26.8041 0.0000
# 4 0.0002 0.0000 0.0002 1.4965 0.0002 -13.2261
# 5 -7.9072 -8.2491 -26.8041 0.0002 28.8012 0.0000
# 6 0.0001 0.0000 0.0000 -13.2261 0.0000 24.5505
#
#
#
# Elastic Compliance Matrix: (Units=1/GPa)
#
#
# Indices 1 2 3 4 5 6 
#
# 1 0.024695 -0.000649 -0.011101 0.000000 -0.003737 0.000000
# 2 -0.000649 0.005954 -0.004903 0.000000 -0.003036 0.000000
# 3 -0.011101 -0.004903 0.023575 0.000001 0.017488 0.000000
# 4 0.000000 0.000000 0.000001 -0.177658 0.000002 -0.095709
# 5 -0.003737 -0.003036 0.017488 0.000002 0.049100 0.000001
# 6 0.000000 0.000000 0.000000 -0.095709 0.000001 -0.010829
#
#
# Mechanical properties :
#
#
# Convention : Reuss Voigt Hill
#
# Bulk Modulus (GPa) = 47.80597 74.94271 61.37434
# Shear Modulus (GPa) = -111.39956 26.50432 -42.44762
#
# Velocity S-wave (km/s) = -7.25618 3.53936 -4.47912
# Velocity P-wave (km/s) = 6.89984 7.21968 1.50268
#
# Compressibility (1/GPa) = 0.02091789
#
# Stress axis : x y z
#
# Youngs Moduli (GPa) = 40.49373 167.94333 42.41863
#
# Poissons Ratio (x) = 0.10904 0.47088
# Poissons Ratio (y) = 0.02629 0.20798
# Poissons Ratio (z) = 0.44952 0.82342
#
# Static dielectric constant tensor:
#      x y z
#    x 1.790080 0.000000 -0.013290 
#    y 0.000000 1.762220 0.000000 
#    z -0.013290 0.000000 1.783730 
# 
# From -- ./inp_files/290760.got.cif
#   From: 2010.05.17/outbox.cif.g08.bks.cpg/sg12_146_cif.got.tgz:290760.got - 2010.06.03 13:09:07.
