data_PCOD9202080
_publ_section_title
;
Structure prediction by ZEFSAII (Michael W. Deem and Ramdas Pophale) SiO2 
 PCOD9202080
Probable space group: C 2/M
;
_chemical_formula_sum "Si O2"
_cell_formula_units_Z 38
_cell_length_a 12.340270
_cell_length_b 19.218705
_cell_length_c 13.534333
_cell_angle_alpha 90.000000
_cell_angle_beta 147.766773
_cell_angle_gamma 90.000000
_cell_volume 1712.031338
_symmetry_space_group_name_H-M "C 2/M"
_symmetry_group_IT_number 12
_symmetry_cell_setting 'monoclinic'
loop_
_space_group_symop_operation_xyz
x,y,z
-x,y,-z
-x,-y,-z
x,-y,z
1/2+x,1/2+y,z
1/2-x,1/2+y,-z
1/2-x,1/2-y,-z
1/2+x,1/2-y,z
loop_
_atom_site_type_symbol
_atom_site_label
_atom_site_fract_x
_atom_site_fract_y
_atom_site_fract_z
Si Si1 0.000000 0.500000 0.500000
Si Si2 0.035290 0.348710 0.829113
Si Si3 0.203068 0.234696 0.835787
Si Si4 0.500000 0.792785 0.500000
Si Si5 0.314694 0.646946 0.585800
Si Si6 0.070439 0.000000 0.250111
Si Si7 0.625458 0.000000 0.833867
O O1 0.239763 0.500000 0.675763
O O2 0.025090 0.500000 0.647289
O O3 0.194315 0.312367 0.874482
O O4 0.062424 0.430792 0.844360
O O5 0.811871 0.338427 0.611498
O O6 0.105006 0.309899 0.982020
O O7 0.147576 0.246003 0.680048
O O8 0.004476 0.198468 0.731123
O O9 0.351868 0.839112 0.455549
O O10 0.406571 0.570161 0.667847
O O11 0.868493 0.000000 0.029099
#
# Coordination Sequence:
#
# PCOD9202080 Si02
#       7
#     2   8   8   4   8   4   4
#     4  12  24  40  52  94 132 152 202 246 302 382
#     4  10  20  38  58  83 118 160 196 243 294 361
#     4  10  22  39  60  87 119 160 207 240 303 363
#     4  10  21  37  62  87 120 161 196 258 295 347
#     4  11  21  40  62  88 125 160 196 244 304 365
#     4  12  23  37  61  90 120 164 194 240 309 367
#     4  12  23  37  59  86 124 160 200 246 303 369
#
# _framework density 22.195855000000002
#
# number of rings (size 3 to 8) (size 9 to 14) (size 15 to 20)
#    0.000    1.263    4.211    3.474    2.947    0.000 
#    0.000   16.842    0.000    2.526    0.000   10.316 
#    0.000    0.000    0.000    0.000    0.000    0.000 
#
# Total GULP energy -105812.474272 kJ/mol
# GULP energy per Si atom -5569.077593 kJ/mol
# Density = 2.214534 g / cm^3
# Si number density = 22.195855 Si / 1000 Ang^3
#
#
#
# Elastic Constant Matrix: (Units=GPa)
#
#
# Indices 1 2 3 4 5 6 
#
# 1 48.8559 13.9742 27.1526 -0.0001 -5.7771 0.0000
# 2 13.9742 135.3641 33.2028 -0.0005 -20.3788 0.0003
# 3 27.1526 33.2028 195.5100 -0.0012 -19.5761 0.0007
# 4 -0.0001 -0.0005 -0.0012 405.4858 -0.0002 -210.8589
# 5 -5.7771 -20.3788 -19.5761 -0.0002 43.6426 0.0001
# 6 0.0000 0.0003 0.0007 -210.8589 0.0001 112.4176
#
#
#
# Elastic Compliance Matrix: (Units=1/GPa)
#
#
# Indices 1 2 3 4 5 6 
#
# 1 0.022561 -0.001491 -0.002775 0.000000 0.001045 0.000001
# 2 -0.001491 0.008245 -0.000866 0.000000 0.003264 0.000000
# 3 -0.002775 -0.000866 0.005832 0.000000 0.001844 0.000000
# 4 0.000000 0.000000 0.000000 0.100172 0.000000 0.187890
# 5 0.001045 0.003264 0.001844 0.000000 0.025403 0.000001
# 6 0.000001 0.000000 0.000000 0.187890 0.000001 0.361316
#
#
# Mechanical properties :
#
#
# Convention : Reuss Voigt Hill
#
# Bulk Modulus (GPa) = 37.91777 58.70992 48.31384
# Shear Modulus (GPa) = 9.21513 132.66922 70.94217
#
# Velocity S-wave (km/s) = 2.03979 7.73963 5.65962
# Velocity P-wave (km/s) = 4.76109 10.31394 8.03260
#
# Compressibility (1/GPa) = 0.02637286
#
# Stress axis : x y z
#
# Youngs Moduli (GPa) = 44.32446 121.28093 171.46613
#
# Poissons Ratio (x) = 0.18082 0.47589
# Poissons Ratio (y) = 0.06608 0.14855
# Poissons Ratio (z) = 0.12302 0.10508
#
# Static dielectric constant tensor:
#      x y z
#    x 1.842930 0.000000 -0.041790 
#    y 0.000000 1.823850 0.000000 
#    z -0.041790 0.000000 1.844850 
# 
# From -- ./inp_files/217359.got.cif
#   From: 2010.05.17/outbox.cif.g08.bks.cpg/sg12_109_cif.got.tgz:217359.got - 2010.06.03 13:09:07.
