data_PCOD9202922
_publ_section_title
;
Structure prediction by ZEFSAII (Michael W. Deem and Ramdas Pophale) SiO2 
 PCOD9202922
Probable space group: C 2/M
;
_chemical_formula_sum "Si O2"
_cell_formula_units_Z 48
_cell_length_a 17.982665
_cell_length_b 15.589260
_cell_length_c 15.657816
_cell_angle_alpha 90.000000
_cell_angle_beta 144.863057
_cell_angle_gamma 90.000000
_cell_volume 2526.275502
_symmetry_space_group_name_H-M "C 2/M"
_symmetry_group_IT_number 12
_symmetry_cell_setting 'monoclinic'
loop_
_space_group_symop_operation_xyz
x,y,z
-x,y,-z
-x,-y,-z
x,-y,z
1/2+x,1/2+y,z
1/2-x,1/2+y,-z
1/2-x,1/2-y,-z
1/2+x,1/2-y,z
loop_
_atom_site_type_symbol
_atom_site_label
_atom_site_fract_x
_atom_site_fract_y
_atom_site_fract_z
Si Si1 0.650965 0.280633 0.655229
Si Si2 0.323281 0.745106 0.658574
Si Si3 0.365932 0.095417 0.900117
Si Si4 0.987756 0.101753 0.091358
Si Si5 0.781269 0.317102 0.106863
Si Si6 0.514029 0.903344 0.809959
O O1 0.500000 0.291960 0.500000
O O2 0.717542 0.240900 0.634257
O O3 0.733300 0.366424 0.745541
O O4 0.681978 0.229680 0.770813
O O5 0.250000 0.750000 0.500000
O O6 0.416810 0.664448 0.766080
O O7 0.409014 0.832399 0.738015
O O8 0.374634 0.000000 0.871608
O O9 0.500000 0.142586 0.000000
O O10 0.379569 0.093773 0.014402
O O11 0.012803 0.000000 0.127165
O O12 0.000000 0.119303 0.000000
O O13 0.844976 0.126641 0.990505
O O14 0.905255 0.371890 0.195071
O O15 0.750000 0.250000 0.000000
O O16 0.461999 0.000000 0.751227
#
# Coordination Sequence:
#
# PCOD9202922 Si02
#       6
#     8   8   8   8   8   8
#     4  12  25  40  62  97 137 177 218 273 346 404
#     4  12  25  43  68  95 136 181 225 283 343 406
#     4  10  20  38  64  93 125 169 222 272 327 401
#     4  11  24  45  73 101 131 180 241 290 335 399
#     4  12  22  40  69  97 134 174 221 281 334 404
#     4  11  23  40  68  99 127 172 226 276 331 402
#
# _framework density 19.000302999999999
#
# number of rings (size 3 to 8) (size 9 to 14) (size 15 to 20)
#    0.000    0.667    6.667    1.500    0.000    1.000 
#    0.000    0.000    0.000    2.500    0.000    0.000 
#    0.000    0.000    0.000    0.000    0.000    0.000 
#
# Total GULP energy -133875.378073 kJ/mol
# GULP energy per Si atom -5578.140753 kJ/mol
# Density = 1.895706 g / cm^3
# Si number density = 19.000303 Si / 1000 Ang^3
#
#
#
# Elastic Constant Matrix: (Units=GPa)
#
#
# Indices 1 2 3 4 5 6 
#
# 1 136.2900 46.3509 48.8896 0.0000 2.8464 0.0000
# 2 46.3509 129.4025 67.5299 0.0000 5.6916 0.0000
# 3 48.8896 67.5299 138.5098 0.0000 3.8742 0.0000
# 4 0.0000 0.0000 0.0000 6.8943 0.0000 0.9446
# 5 2.8464 5.6916 3.8742 0.0000 46.2666 0.0000
# 6 0.0000 0.0000 0.0000 0.9446 0.0000 25.4552
#
#
#
# Elastic Compliance Matrix: (Units=1/GPa)
#
#
# Indices 1 2 3 4 5 6 
#
# 1 0.008790 -0.002047 -0.002101 0.000000 -0.000113 0.000000
# 2 -0.002047 0.010875 -0.004557 0.000000 -0.000830 0.000000
# 3 -0.002101 -0.004557 0.010188 0.000000 -0.000163 0.000000
# 4 0.000000 0.000000 0.000000 0.145790 0.000000 -0.005410
# 5 -0.000113 -0.000830 -0.000163 0.000000 0.021737 0.000000
# 6 0.000000 0.000000 0.000000 -0.005410 0.000000 0.039485
#
#
# Mechanical properties :
#
#
# Convention : Reuss Voigt Hill
#
# Bulk Modulus (GPa) = 80.36633 81.08258 80.72446
# Shear Modulus (GPa) = 19.34825 31.81867 25.58346
#
# Velocity S-wave (km/s) = 3.19456 4.09668 3.67342
# Velocity P-wave (km/s) = 7.48306 8.07118 7.78268
#
# Compressibility (1/GPa) = 0.01244302
#
# Stress axis : x y z
#
# Youngs Moduli (GPa) = 113.77168 91.95092 98.15915
#
# Poissons Ratio (x) = 0.18820 0.20627
# Poissons Ratio (y) = 0.23286 0.44727
# Poissons Ratio (z) = 0.23908 0.41898
#
# Static dielectric constant tensor:
#      x y z
#    x 1.745080 0.000000 -0.000450 
#    y 0.000000 1.714120 0.000000 
#    z -0.000450 0.000000 1.650190 
# 
# From -- ./inp_files/226924.got.cif
#   From: 2010.05.17/outbox.cif.g08.bks.cpg/sg12_114_cif.got.tgz:226924.got - 2010.06.03 13:09:07.
