data_PCOD9202855
_publ_section_title
;
Structure prediction by ZEFSAII (Michael W. Deem and Ramdas Pophale) SiO2 
 PCOD9202855
Probable space group: C 2/M
;
_chemical_formula_sum "Si O2"
_cell_formula_units_Z 48
_cell_length_a 23.798226
_cell_length_b 13.650761
_cell_length_c 18.680792
_cell_angle_alpha 90.000000
_cell_angle_beta 19.588039
_cell_angle_gamma 90.000000
_cell_volume 2034.566390
_symmetry_space_group_name_H-M "C 2/M"
_symmetry_group_IT_number 12
_symmetry_cell_setting 'monoclinic'
loop_
_space_group_symop_operation_xyz
x,y,z
-x,y,-z
-x,-y,-z
x,-y,z
1/2+x,1/2+y,z
1/2-x,1/2+y,-z
1/2-x,1/2-y,-z
1/2+x,1/2-y,z
loop_
_atom_site_type_symbol
_atom_site_label
_atom_site_fract_x
_atom_site_fract_y
_atom_site_fract_z
Si Si1 0.189209 0.615831 0.559758
Si Si2 0.433874 0.786743 0.765930
Si Si3 0.796898 0.892640 0.748577
Si Si4 0.815212 0.887439 0.565840
Si Si5 0.989151 0.886437 0.093521
Si Si6 0.168621 0.324070 0.252117
O O1 0.172963 0.500000 0.569419
O O2 0.210340 0.630001 0.619441
O O3 0.351368 0.649086 0.317242
O O4 0.031725 0.668353 0.714191
O O5 0.543441 0.695439 0.606062
O O6 0.399052 0.860430 0.742806
O O7 0.250000 0.750000 0.000000
O O8 0.733112 0.881822 0.742958
O O9 0.769079 0.790284 0.821768
O O10 0.000000 0.899335 0.500000
O O11 0.738526 0.000000 0.846448
O O12 0.880623 0.000000 0.481661
O O13 0.942761 0.000000 0.138425
O O14 0.172964 0.879991 0.907032
O O15 0.000000 0.841239 0.000000
O O16 0.000000 0.326954 0.500000
#
# Coordination Sequence:
#
# PCOD9202855 Si02
#       6
#     8   8   8   8   8   8
#     4  10  23  43  64  89 125 165 209 257 312 376
#     4  12  24  38  61  95 124 159 205 258 317 373
#     4   9  17  34  61  89 120 161 206 247 304 371
#     4  10  20  38  64  88 120 164 202 249 308 370
#     4  10  22  40  62  88 121 169 215 258 311 370
#     4  11  21  37  61  92 126 164 208 259 315 362
#
# _framework density 23.592251000000001
#
# number of rings (size 3 to 8) (size 9 to 14) (size 15 to 20)
#    0.000    1.667    3.333    2.500    0.000    1.667 
#    0.000    0.000    0.000    1.500    0.000    0.000 
#    0.000    0.000    0.000    0.000    0.000    0.000 
#
# Total GULP energy -133976.603804 kJ/mol
# GULP energy per Si atom -5582.358492 kJ/mol
# Density = 2.353855 g / cm^3
# Si number density = 23.592251 Si / 1000 Ang^3
#
#
#
# Elastic Constant Matrix: (Units=GPa)
#
#
# Indices 1 2 3 4 5 6 
#
# 1 179.1142 -0.0095 43.2932 -0.0001 -27.4378 0.0000
# 2 -0.0095 56.1945 -12.1641 -0.0006 -4.1572 0.0005
# 3 43.2932 -12.1641 87.6589 -0.0005 -15.9053 0.0007
# 4 -0.0001 -0.0006 -0.0005 5.1089 0.0002 -7.3084
# 5 -27.4378 -4.1572 -15.9053 0.0002 29.2433 -0.0002
# 6 0.0000 0.0005 0.0007 -7.3084 -0.0002 21.6036
#
#
#
# Elastic Compliance Matrix: (Units=1/GPa)
#
#
# Indices 1 2 3 4 5 6 
#
# 1 0.006986 -0.000167 -0.002539 0.000000 0.005150 0.000000
# 2 -0.000167 0.018883 0.003508 0.000003 0.004435 0.000001
# 3 -0.002539 0.003508 0.014209 0.000002 0.005845 0.000000
# 4 0.000000 0.000003 0.000002 0.379288 0.000000 0.128311
# 5 0.005150 0.004435 0.005845 0.000000 0.042837 0.000000
# 6 0.000000 0.000001 0.000000 0.128311 0.000000 0.089696
#
#
# Mechanical properties :
#
#
# Convention : Reuss Voigt Hill
#
# Bulk Modulus (GPa) = 23.99238 42.80076 33.39657
# Shear Modulus (GPa) = 8.86230 30.64768 19.75499
#
# Velocity S-wave (km/s) = 1.94026 3.60815 2.89684
# Velocity P-wave (km/s) = 3.90015 5.96151 5.03740
#
# Compressibility (1/GPa) = 0.04167991
#
# Stress axis : x y z
#
# Youngs Moduli (GPa) = 143.15312 52.95860 70.37778
#
# Poissons Ratio (x) = 0.00887 0.17868
# Poissons Ratio (y) = 0.02397 -0.24686
# Poissons Ratio (z) = 0.36345 -0.18576
#
# Static dielectric constant tensor:
#      x y z
#    x 1.927830 0.000000 0.022070 
#    y 0.000000 1.943670 0.000000 
#    z 0.022070 0.000000 1.843540 
# 
# From -- ./inp_files/325640.got.cif
#   From: 2010.05.17/outbox.cif.g08.bks.cpg/sg12_163_cif.got.tgz:325640.got - 2010.06.03 13:09:07.
