data_PCOD9202701
_publ_section_title
;
Structure prediction by ZEFSAII (Michael W. Deem and Ramdas Pophale) SiO2 
 PCOD9202701
Probable space group: C 2/M
;
_chemical_formula_sum "Si O2"
_cell_formula_units_Z 48
_cell_length_a 14.769583
_cell_length_b 16.498199
_cell_length_c 15.509620
_cell_angle_alpha 90.000000
_cell_angle_beta 30.884886
_cell_angle_gamma 90.000000
_cell_volume 1939.946655
_symmetry_space_group_name_H-M "C 2/M"
_symmetry_group_IT_number 12
_symmetry_cell_setting 'monoclinic'
loop_
_space_group_symop_operation_xyz
x,y,z
-x,y,-z
-x,-y,-z
x,-y,z
1/2+x,1/2+y,z
1/2-x,1/2+y,-z
1/2-x,1/2-y,-z
1/2+x,1/2-y,z
loop_
_atom_site_type_symbol
_atom_site_label
_atom_site_fract_x
_atom_site_fract_y
_atom_site_fract_z
Si Si1 0.419967 0.821711 0.195252
Si Si2 0.885818 0.405458 0.670055
Si Si3 0.584837 0.630077 0.796099
Si Si4 0.185562 0.593560 0.085162
Si Si5 0.826552 0.903967 0.461912
Si Si6 0.149339 0.906749 0.301711
O O1 0.431614 0.726072 0.181490
O O2 0.608419 0.859153 0.066747
O O3 0.298851 0.852289 0.374367
O O4 0.314186 0.855079 0.199081
O O5 0.937579 0.500000 0.635333
O O6 0.687518 0.402200 0.795084
O O7 0.891650 0.371392 0.761431
O O8 0.000000 0.365704 0.500000
O O9 0.700159 0.609344 0.617101
O O10 0.393437 0.594926 0.932361
O O11 0.130115 0.500000 0.120481
O O12 0.028888 0.881110 0.319830
O O13 0.806582 0.000000 0.498115
O O14 0.000000 0.905517 0.500000
O O15 0.205868 0.000000 0.243712
#
# Coordination Sequence:
#
# PCOD9202701 Si02
#       6
#     8   8   8   8   8   8
#     4  11  22  37  59  88 119 155 199 250 299 349
#     4  10  22  41  65  89 113 152 205 248 287 351
#     4  12  24  37  57  90 127 156 191 249 310 351
#     4  11  23  41  63  85 119 163 201 240 292 358
#     4  10  20  38  63  87 117 159 205 245 287 351
#     4   8  16  33  58  84 110 148 199 247 290 343
#
# _framework density 24.742947000000001
#
# number of rings (size 3 to 8) (size 9 to 14) (size 15 to 20)
#    0.000    1.667    0.000    6.500    0.000    6.000 
#    0.000    2.500    0.000    3.000    0.000    0.000 
#    0.000    0.000    0.000    0.000    0.000    0.000 
#
# Total GULP energy -134366.797846 kJ/mol
# GULP energy per Si atom -5598.616577 kJ/mol
# Density = 2.468663 g / cm^3
# Si number density = 24.742947 Si / 1000 Ang^3
#
#
#
# Elastic Constant Matrix: (Units=GPa)
#
#
# Indices 1 2 3 4 5 6 
#
# 1 150.0357 12.8908 12.0588 -0.0027 -16.9496 0.0027
# 2 12.8908 73.4295 -3.7570 -0.0081 -15.2864 0.0032
# 3 12.0588 -3.7570 83.0525 -0.0141 -15.1228 0.0083
# 4 -0.0027 -0.0081 -0.0141 21.9235 0.0046 -3.1679
# 5 -16.9496 -15.2864 -15.1228 0.0046 45.9712 -0.0034
# 6 0.0027 0.0032 0.0083 -3.1679 -0.0034 -26.3125
#
#
#
# Elastic Compliance Matrix: (Units=1/GPa)
#
#
# Indices 1 2 3 4 5 6 
#
# 1 0.007027 -0.000833 -0.000677 0.000000 0.002091 0.000000
# 2 -0.000833 0.014945 0.001751 0.000006 0.005238 0.000001
# 3 -0.000677 0.001751 0.013061 0.000008 0.004629 0.000003
# 4 0.000000 0.000006 0.000008 0.044833 0.000000 -0.005398
# 5 0.002091 0.005238 0.004629 0.000000 0.025788 -0.000001
# 6 0.000000 0.000001 0.000003 -0.005398 -0.000001 -0.037355
#
#
# Mechanical properties :
#
#
# Convention : Reuss Voigt Hill
#
# Bulk Modulus (GPa) = 28.15762 38.76699 33.46231
# Shear Modulus (GPa) = 62.76926 27.33810 45.05368
#
# Velocity S-wave (km/s) = 5.04218 3.32759 4.27179
# Velocity P-wave (km/s) = 6.73074 5.51957 6.15502
#
# Compressibility (1/GPa) = 0.03551436
#
# Stress axis : x y z
#
# Youngs Moduli (GPa) = 142.30163 66.91281 76.56383
#
# Poissons Ratio (x) = 0.05574 0.05185
# Poissons Ratio (y) = 0.11853 -0.13405
# Poissons Ratio (z) = 0.09637 -0.11715
#
# Static dielectric constant tensor:
#      x y z
#    x 1.947350 0.000000 0.007180 
#    y 0.000000 1.849450 0.000000 
#    z 0.007180 0.000000 2.091440 
# 
# From -- ./inp_files/271595.got.cif
#   From: 2010.05.17/outbox.cif.g08.bks.cpg/sg12_136_cif.got.tgz:271595.got - 2010.06.03 13:09:07.
