data_PCOD9202148
_publ_section_title
;
Structure prediction by ZEFSAII (Michael W. Deem and Ramdas Pophale) SiO2 
 PCOD9202148
Probable space group: C 2/M
;
_chemical_formula_sum "Si O2"
_cell_formula_units_Z 50
_cell_length_a 5.723021
_cell_length_b 25.418430
_cell_length_c 15.379801
_cell_angle_alpha 90.000000
_cell_angle_beta 112.044647
_cell_angle_gamma 90.000000
_cell_volume 2073.737375
_symmetry_space_group_name_H-M "C 2/M"
_symmetry_group_IT_number 12
_symmetry_cell_setting 'monoclinic'
loop_
_space_group_symop_operation_xyz
x,y,z
-x,y,-z
-x,-y,-z
x,-y,z
1/2+x,1/2+y,z
1/2-x,1/2+y,-z
1/2-x,1/2-y,-z
1/2+x,1/2-y,z
loop_
_atom_site_type_symbol
_atom_site_label
_atom_site_fract_x
_atom_site_fract_y
_atom_site_fract_z
Si Si1 0.213972 0.437136 0.461138
Si Si2 0.897922 0.807599 0.898538
Si Si3 0.273034 0.058203 0.283624
Si Si4 0.202829 0.236541 0.712926
Si Si5 0.149187 0.416515 0.896079
Si Si6 0.000000 0.500000 0.000000
Si Si7 0.156436 0.130208 0.783205
O O1 0.500000 0.415871 0.500000
O O2 0.237858 0.500000 0.480593
O O3 0.000000 0.417863 0.500000
O O4 0.062155 0.431486 0.349625
O O5 0.765858 0.768502 0.811795
O O6 0.730497 0.855770 0.913157
O O7 0.091871 0.838392 0.863023
O O8 0.000000 0.780235 0.000000
O O9 0.233898 0.060437 0.175203
O O10 0.092084 0.103880 0.291173
O O11 0.206866 0.000000 0.307549
O O12 0.398399 0.257230 0.667786
O O13 0.258318 0.175095 0.734117
O O14 0.178534 0.453734 0.981027
O O15 0.851748 0.414864 0.833493
#
# Coordination Sequence:
#
# PCOD9202148 Si02
#       7
#     8   8   8   8   8   2   8
#     4   9  19  36  60  93 124 157 200 248 304 372
#     4  10  21  38  56  78 111 149 206 272 326 372
#     4  10  22  38  59  85 126 168 203 252 309 370
#     4  10  20  38  59  83 112 146 194 263 327 369
#     4  11  22  40  53  83 114 165 219 255 306 360
#     4  12  24  36  58  76 116 172 216 268 284 360
#     4  10  22  36  56  81 113 154 203 251 309 377
#
# _framework density 24.111056999999999
#
# number of rings (size 3 to 8) (size 9 to 14) (size 15 to 20)
#    0.000    1.920    2.400    0.960    3.360    2.560 
#    1.440    2.000    0.000    0.000    0.000    0.000 
#    0.000   34.560    0.000    0.000    0.000    0.000 
#
# Total GULP energy -139245.060120 kJ/mol
# GULP energy per Si atom -5569.802405 kJ/mol
# Density = 2.405618 g / cm^3
# Si number density = 24.111057 Si / 1000 Ang^3
#
#
#
# Elastic Constant Matrix: (Units=GPa)
#
#
# Indices 1 2 3 4 5 6 
#
# 1 111.6435 10.4472 18.4009 0.0000 15.4220 0.0000
# 2 10.4472 81.4558 0.0023 0.0000 1.2539 0.0000
# 3 18.4009 0.0023 46.1962 0.0000 -1.3939 0.0000
# 4 0.0000 0.0000 0.0000 -14.7252 0.0000 63.1149
# 5 15.4220 1.2539 -1.3939 0.0000 27.9291 0.0000
# 6 0.0000 0.0000 0.0000 63.1149 0.0000 -88.0300
#
#
#
# Elastic Compliance Matrix: (Units=1/GPa)
#
#
# Indices 1 2 3 4 5 6 
#
# 1 0.010639 -0.001271 -0.004420 0.000000 -0.006038 0.000000
# 2 -0.001271 0.012437 0.000511 0.000000 0.000169 0.000000
# 3 -0.004420 0.000511 0.023516 0.000000 0.003591 0.000000
# 4 0.000000 0.000000 0.000000 0.032759 0.000000 0.023487
# 5 -0.006038 0.000169 0.003591 0.000000 0.039311 0.000000
# 6 0.000000 0.000000 0.000000 0.023487 0.000000 0.005480
#
#
# Mechanical properties :
#
#
# Convention : Reuss Voigt Hill
#
# Bulk Modulus (GPa) = 27.60079 32.99959 30.30019
# Shear Modulus (GPa) = 34.11168 -0.93555 16.58806
#
# Velocity S-wave (km/s) = 3.76543 -0.62359 2.62579
# Velocity P-wave (km/s) = 5.51152 3.63287 4.66768
#
# Compressibility (1/GPa) = 0.03623085
#
# Stress axis : x y z
#
# Youngs Moduli (GPa) = 93.99773 80.40501 42.52499
#
# Poissons Ratio (x) = 0.10223 0.18795
# Poissons Ratio (y) = 0.11951 -0.02173
# Poissons Ratio (z) = 0.41544 -0.04108
#
# Static dielectric constant tensor:
#      x y z
#    x 2.030370 0.000000 0.024430 
#    y 0.000000 1.900760 0.000000 
#    z 0.024430 0.000000 1.989640 
# 
# From -- ./inp_files/253502.got.cif
#   From: 2010.05.17/outbox.cif.g08.bks.cpg/sg12_127_cif.got.tgz:253502.got - 2010.06.03 13:09:07.
