data_PCOD9202883
_publ_section_title
;
Structure prediction by ZEFSAII (Michael W. Deem and Ramdas Pophale) SiO2 
 PCOD9202883
Probable space group: C 2/M
;
_chemical_formula_sum "Si O2"
_cell_formula_units_Z 44
_cell_length_a 8.794920
_cell_length_b 17.515941
_cell_length_c 15.845388
_cell_angle_alpha 90.000000
_cell_angle_beta 125.259768
_cell_angle_gamma 90.000000
_cell_volume 1993.183965
_symmetry_space_group_name_H-M "C 2/M"
_symmetry_group_IT_number 12
_symmetry_cell_setting 'monoclinic'
loop_
_space_group_symop_operation_xyz
x,y,z
-x,y,-z
-x,-y,-z
x,-y,z
1/2+x,1/2+y,z
1/2-x,1/2+y,-z
1/2-x,1/2-y,-z
1/2+x,1/2-y,z
loop_
_atom_site_type_symbol
_atom_site_label
_atom_site_fract_x
_atom_site_fract_y
_atom_site_fract_z
Si Si1 0.500000 0.290478 0.000000
Si Si2 0.764956 0.294329 0.308497
Si Si3 0.659885 0.375481 0.699466
Si Si4 0.256249 0.415944 0.550902
Si Si5 0.139471 0.182648 0.868639
Si Si6 0.497387 0.084952 0.696614
O O1 0.675405 0.234176 0.075822
O O2 0.417460 0.336969 0.053428
O O3 0.862204 0.212935 0.337058
O O4 0.779376 0.345426 0.397425
O O5 0.549725 0.275737 0.221970
O O6 0.847360 0.350740 0.264044
O O7 0.476674 0.415360 0.605246
O O8 0.658938 0.379720 0.801107
O O9 0.854411 0.404668 0.726959
O O10 0.211673 0.500000 0.573934
O O11 0.135640 0.407130 0.428455
O O12 0.577912 0.000000 0.724579
#
# Coordination Sequence:
#
# PCOD9202883 Si02
#       6
#     4   8   8   8   8   8
#     4  10  20  38  64  90 124 154 180 242 322 382
#     4  11  22  36  58  91 127 151 205 261 302 341
#     4  11  22  36  58  91 127 151 205 261 302 341
#     4  10  22  39  56  82 122 175 219 239 282 356
#     4  10  21  35  60  92 124 145 188 247 311 369
#     4  11  23  38  59  85 125 176 214 241 286 354
#
# _framework density 22.075233000000001
#
# number of rings (size 3 to 8) (size 9 to 14) (size 15 to 20)
#    0.000    1.455    1.818    4.364    0.000    7.273 
#    0.000    0.000    0.000    0.000    0.000   63.636 
#    0.000    0.000    0.000    0.000    0.000    0.000 
#
# Total GULP energy -122807.294697 kJ/mol
# GULP energy per Si atom -5582.149759 kJ/mol
# Density = 2.202499 g / cm^3
# Si number density = 22.075233 Si / 1000 Ang^3
#
#
#
# Elastic Constant Matrix: (Units=GPa)
#
#
# Indices 1 2 3 4 5 6 
#
# 1 143.3615 28.4389 29.6577 0.0000 2.4361 0.0000
# 2 28.4389 108.5598 16.1368 0.0000 8.2054 0.0000
# 3 29.6577 16.1368 67.3056 0.0000 8.2978 0.0000
# 4 0.0000 0.0000 0.0000 14.0093 0.0000 -3.5173
# 5 2.4361 8.2054 8.2978 0.0000 52.9139 0.0000
# 6 0.0000 0.0000 0.0000 -3.5173 0.0000 20.6317
#
#
#
# Elastic Compliance Matrix: (Units=1/GPa)
#
#
# Indices 1 2 3 4 5 6 
#
# 1 0.007947 -0.001642 -0.003156 0.000000 0.000384 0.000000
# 2 -0.001642 0.009960 -0.001513 0.000000 -0.001232 0.000000
# 3 -0.003156 -0.001513 0.016890 0.000000 -0.002269 0.000000
# 4 0.000000 0.000000 0.000000 0.074573 0.000000 0.012713
# 5 0.000384 -0.001232 -0.002269 0.000000 0.019428 0.000000
# 6 0.000000 0.000000 0.000000 0.012713 0.000000 0.050636
#
#
# Mechanical properties :
#
#
# Convention : Reuss Voigt Hill
#
# Bulk Modulus (GPa) = 45.09095 51.96596 48.52845
# Shear Modulus (GPa) = 25.06934 33.84391 29.45662
#
# Velocity S-wave (km/s) = 3.37357 3.91975 3.65687
# Velocity P-wave (km/s) = 5.97034 6.63908 6.31357
#
# Compressibility (1/GPa) = 0.02217740
#
# Stress axis : x y z
#
# Youngs Moduli (GPa) = 125.82793 100.40617 59.20510
#
# Poissons Ratio (x) = 0.16485 0.18683
# Poissons Ratio (y) = 0.20659 0.08955
# Poissons Ratio (z) = 0.39706 0.15187
#
# Static dielectric constant tensor:
#      x y z
#    x 1.881760 0.000000 -0.054110 
#    y 0.000000 1.813410 0.000000 
#    z -0.054110 0.000000 1.835590 
# 
# From -- ./inp_files/195510.got.cif
#   From: 2010.05.17/outbox.cif.g08.bks.cpg/sg12_98_cif.got.tgz:195510.got - 2010.06.03 13:09:07.
