data_PCOD9202585
_publ_section_title
;
Structure prediction by ZEFSAII (Michael W. Deem and Ramdas Pophale) SiO2 
 PCOD9202585
Probable space group: C 2/M
;
_chemical_formula_sum "Si O2"
_cell_formula_units_Z 56
_cell_length_a 21.946110
_cell_length_b 23.026469
_cell_length_c 17.738766
_cell_angle_alpha 90.000000
_cell_angle_beta 161.065181
_cell_angle_gamma 90.000000
_cell_volume 2908.792211
_symmetry_space_group_name_H-M "C 2/M"
_symmetry_group_IT_number 12
_symmetry_cell_setting 'monoclinic'
loop_
_space_group_symop_operation_xyz
x,y,z
-x,y,-z
-x,-y,-z
x,-y,z
1/2+x,1/2+y,z
1/2-x,1/2+y,-z
1/2-x,1/2-y,-z
1/2+x,1/2-y,z
loop_
_atom_site_type_symbol
_atom_site_label
_atom_site_fract_x
_atom_site_fract_y
_atom_site_fract_z
Si Si1 0.214907 0.863918 0.730155
Si Si2 0.920389 0.143693 0.093831
Si Si3 0.074366 0.432007 0.736835
Si Si4 0.644348 0.432271 0.237933
Si Si5 0.467896 0.066613 0.135284
Si Si6 0.478074 0.247280 0.059877
Si Si7 0.727932 0.347025 0.570538
O O1 0.230747 0.871097 0.658913
O O2 0.000000 0.857161 0.500000
O O3 0.309222 0.914355 0.890054
O O4 0.331528 0.805693 0.884788
O O5 0.909622 0.204153 0.036883
O O6 0.058993 0.104685 0.205345
O O7 0.023993 0.153776 0.294727
O O8 0.725688 0.109802 0.875942
O O9 0.102890 0.500000 0.748400
O O10 0.096855 0.428074 0.853872
O O11 0.857694 0.415564 0.466528
O O12 0.655594 0.500000 0.273755
O O13 0.500000 0.427273 0.000000
O O14 0.638562 0.110400 0.320666
O O15 0.524478 0.000000 0.189339
O O16 0.673683 0.216381 0.312616
O O17 0.500000 0.270548 0.000000
#
# Coordination Sequence:
#
# PCOD9202585 Si02
#       7
#     8   8   8   8   8   8   8
#     4  10  21  40  58  86 126 160 195 253 311 350
#     4  12  21  38  64  92 116 163 210 249 298 367
#     4  10  22  39  60  93 126 153 200 256 304 360
#     4  10  22  41  61  84 122 163 196 251 314 359
#     4  10  20  38  62  88 122 161 203 244 294 370
#     4   9  21  41  59  84 119 162 205 255 300 362
#     4  10  21  38  62  85 125 163 199 249 310 351
#
# _framework density 19.251975999999999
#
# number of rings (size 3 to 8) (size 9 to 14) (size 15 to 20)
#    0.000    1.857    1.429    3.429    0.000    2.571 
#    7.714    5.714    0.000    0.000    0.000    0.000 
#    0.000    0.000    0.000    0.000    0.000    0.000 
#
# Total GULP energy -156365.918359 kJ/mol
# GULP energy per Si atom -5584.497084 kJ/mol
# Density = 1.920816 g / cm^3
# Si number density = 19.251976 Si / 1000 Ang^3
#
#
#
# Elastic Constant Matrix: (Units=GPa)
#
#
# Indices 1 2 3 4 5 6 
#
# 1 44.3384 36.3239 39.6403 -0.0001 -3.6677 0.0001
# 2 36.3239 65.3788 35.6132 0.0003 -1.4379 -0.0002
# 3 39.6403 35.6132 101.2255 0.0016 -0.3815 -0.0011
# 4 -0.0001 0.0003 0.0016 78.7047 0.0006 -20.7238
# 5 -3.6677 -1.4379 -0.3815 0.0006 32.1454 -0.0004
# 6 0.0001 -0.0002 -0.0011 -20.7238 -0.0004 45.8577
#
#
#
# Elastic Compliance Matrix: (Units=1/GPa)
#
#
# Indices 1 2 3 4 5 6 
#
# 1 0.052450 -0.022089 -0.012750 0.000000 0.004845 0.000000
# 2 -0.022089 0.028243 -0.001291 0.000000 -0.001272 0.000000
# 3 -0.012750 -0.001291 0.015321 0.000000 -0.001331 0.000000
# 4 0.000000 0.000000 0.000000 0.014422 0.000000 0.006517
# 5 0.004845 -0.001272 -0.001331 0.000000 0.031589 0.000000
# 6 0.000000 0.000000 0.000000 0.006517 0.000000 0.024752
#
#
# Mechanical properties :
#
#
# Convention : Reuss Voigt Hill
#
# Bulk Modulus (GPa) = 42.09828 48.23307 45.16567
# Shear Modulus (GPa) = 20.24661 37.96592 29.10626
#
# Velocity S-wave (km/s) = 3.24645 4.44560 3.89248
# Velocity P-wave (km/s) = 5.99726 7.17350 6.61159
#
# Compressibility (1/GPa) = 0.02375394
#
# Stress axis : x y z
#
# Youngs Moduli (GPa) = 19.06586 35.40662 65.26931
#
# Poissons Ratio (x) = 0.78210 0.83218
# Poissons Ratio (y) = 0.42114 0.08428
# Poissons Ratio (z) = 0.24309 0.04572
#
# Static dielectric constant tensor:
#      x y z
#    x 1.677590 0.000000 -0.033100 
#    y 0.000000 1.658390 0.000000 
#    z -0.033100 0.000000 1.683330 
# 
# From -- ./inp_files/286052.got.cif
#   From: 2010.05.17/outbox.cif.g08.bks.cpg/sg12_144_cif.got.tgz:286052.got - 2010.06.03 13:09:07.
