data_PCOD9202791
_publ_section_title
;
Structure prediction by ZEFSAII (Michael W. Deem and Ramdas Pophale) SiO2 
 PCOD9202791
Probable space group: C 2/M
;
_chemical_formula_sum "Si O2"
_cell_formula_units_Z 56
_cell_length_a 8.171255
_cell_length_b 30.247424
_cell_length_c 20.347072
_cell_angle_alpha 90.000000
_cell_angle_beta 149.324339
_cell_angle_gamma 90.000000
_cell_volume 2565.668103
_symmetry_space_group_name_H-M "C 2/M"
_symmetry_group_IT_number 12
_symmetry_cell_setting 'monoclinic'
loop_
_space_group_symop_operation_xyz
x,y,z
-x,y,-z
-x,-y,-z
x,-y,z
1/2+x,1/2+y,z
1/2-x,1/2+y,-z
1/2-x,1/2-y,-z
1/2+x,1/2-y,z
loop_
_atom_site_type_symbol
_atom_site_label
_atom_site_fract_x
_atom_site_fract_y
_atom_site_fract_z
Si Si1 0.878244 0.299054 0.032369
Si Si2 0.130059 0.951988 0.734667
Si Si3 0.285672 0.147993 0.546258
Si Si4 0.758620 0.355043 0.740469
Si Si5 0.730533 0.046928 0.463836
Si Si6 0.884037 0.950100 0.122788
Si Si7 0.790498 0.139516 0.810814
O O1 0.580102 0.331677 0.937177
O O2 0.750000 0.250000 0.000000
O O3 0.000000 0.303140 0.000000
O O4 0.140368 0.316953 0.174480
O O5 0.287298 0.903962 0.782067
O O6 0.986859 0.950850 0.757790
O O7 0.882384 0.953535 0.588992
O O8 0.308230 0.000000 0.791821
O O9 0.385494 0.096406 0.584410
O O10 0.626804 0.165254 0.691043
O O11 0.000000 0.157777 0.500000
O O12 0.099306 0.153545 0.412991
O O13 0.006435 0.359376 0.765773
O O14 0.000000 0.045892 0.500000
O O15 0.559824 0.000000 0.395153
O O16 0.058653 0.909680 0.147127
O O17 0.916503 0.000000 0.105658
O O18 0.500000 0.942165 0.000000
#
# Coordination Sequence:
#
# PCOD9202791 Si02
#       7
#     8   8   8   8   8   8   8
#     4  12  26  46  69  92 117 150 196 247 301 363
#     4   9  17  31  52  79 116 162 204 243 291 344
#     4   8  17  32  54  86 122 155 191 241 298 354
#     4  10  20  38  63  92 125 159 198 248 302 359
#     4   8  13  24  44  71 106 151 199 241 280 327
#     4  10  21  36  53  80 123 169 210 255 304 353
#     4  11  21  37  63  93 122 158 203 248 301 362
#
# _framework density 21.826674000000001
#
# number of rings (size 3 to 8) (size 9 to 14) (size 15 to 20)
#    0.000    2.286    0.000    4.286    0.000    1.143 
#    0.000    8.571    0.000   12.000    0.000    0.000 
#    0.000    0.000    0.000    0.000    0.000    0.000 
#
# Total GULP energy -155872.816570 kJ/mol
# GULP energy per Si atom -5566.886306 kJ/mol
# Density = 2.177700 g / cm^3
# Si number density = 21.826674 Si / 1000 Ang^3
#
#
#
# Elastic Constant Matrix: (Units=GPa)
#
#
# Indices 1 2 3 4 5 6 
#
# 1 53.9583 11.8405 10.6499 0.0006 -6.5670 -0.0003
# 2 11.8405 84.1656 10.4903 0.0004 -4.3090 -0.0003
# 3 10.6499 10.4903 87.2125 0.0012 4.4483 -0.0001
# 4 0.0006 0.0004 0.0012 7.7913 0.0003 -0.6482
# 5 -6.5670 -4.3090 4.4483 0.0003 22.0364 0.0002
# 6 -0.0003 -0.0003 -0.0001 -0.6482 0.0002 22.9141
#
#
#
# Elastic Compliance Matrix: (Units=1/GPa)
#
#
# Indices 1 2 3 4 5 6 
#
# 1 0.020262 -0.002224 -0.002519 -0.000001 0.006112 0.000000
# 2 -0.002224 0.012465 -0.001332 0.000000 0.002044 0.000000
# 3 -0.002519 -0.001332 0.012110 -0.000001 -0.003456 0.000000
# 4 -0.000001 0.000000 -0.000001 0.128651 -0.000002 0.003640
# 5 0.006112 0.002044 -0.003456 -0.000002 0.048298 0.000000
# 6 0.000000 0.000000 0.000000 0.003640 0.000000 0.043744
#
#
# Mechanical properties :
#
#
# Convention : Reuss Voigt Hill
#
# Bulk Modulus (GPa) = 30.59183 32.36641 31.47912
# Shear Modulus (GPa) = 17.32655 23.37207 20.34931
#
# Velocity S-wave (km/s) = 2.82055 3.27586 3.05669
# Velocity P-wave (km/s) = 4.96523 5.40087 5.18763
#
# Compressibility (1/GPa) = 0.03268846
#
# Stress axis : x y z
#
# Youngs Moduli (GPa) = 49.35421 80.22590 82.57452
#
# Poissons Ratio (x) = 0.17839 0.20796
# Poissons Ratio (y) = 0.10975 0.10999
# Poissons Ratio (z) = 0.12430 0.10686
#
# Static dielectric constant tensor:
#      x y z
#    x 1.865540 0.000000 0.019940 
#    y 0.000000 1.798560 0.000000 
#    z 0.019940 0.000000 1.902260 
# 
# From -- ./inp_files/303064.got.cif
#   From: 2010.05.17/outbox.cif.g08.bks.cpg/sg12_152_cif.got.tgz:303064.got - 2010.06.03 13:09:07.
