data_PCOD9202595
_publ_section_title
;
Structure prediction by ZEFSAII (Michael W. Deem and Ramdas Pophale) SiO2 
 PCOD9202595
Probable space group: C 2/M
;
_chemical_formula_sum "Si O2"
_cell_formula_units_Z 64
_cell_length_a 27.461545
_cell_length_b 14.439538
_cell_length_c 9.232538
_cell_angle_alpha 90.000000
_cell_angle_beta 130.202935
_cell_angle_gamma 90.000000
_cell_volume 2796.133894
_symmetry_space_group_name_H-M "C 2/M"
_symmetry_group_IT_number 12
_symmetry_cell_setting 'monoclinic'
loop_
_space_group_symop_operation_xyz
x,y,z
-x,y,-z
-x,-y,-z
x,-y,z
1/2+x,1/2+y,z
1/2-x,1/2+y,-z
1/2-x,1/2-y,-z
1/2+x,1/2-y,z
loop_
_atom_site_type_symbol
_atom_site_label
_atom_site_fract_x
_atom_site_fract_y
_atom_site_fract_z
Si Si1 0.336789 0.601821 0.661567
Si Si2 0.719397 0.106410 0.092682
Si Si3 0.036501 0.295249 0.842429
Si Si4 0.368844 0.394901 0.385970
Si Si5 0.963706 0.097781 0.082503
Si Si6 0.829870 0.698366 0.723533
Si Si7 0.389343 0.802667 0.292002
Si Si8 0.906324 0.607885 0.628533
O O1 0.304698 0.500000 0.596385
O O2 0.368551 0.614302 0.562318
O O3 0.304657 0.697941 0.645574
O O4 0.391019 0.595799 0.889558
O O5 0.793796 0.107664 0.200877
O O6 0.711515 0.139808 0.243594
O O7 0.696142 0.000000 0.034049
O O8 0.677758 0.175767 0.915889
O O9 0.020720 0.186953 0.796756
O O10 0.058207 0.328961 0.727149
O O11 0.975439 0.346042 0.789029
O O12 0.099622 0.298644 0.063270
O O13 0.391542 0.500000 0.394073
O O14 0.396049 0.303754 0.359254
O O15 0.980146 0.000000 0.183610
O O16 0.000000 0.105561 0.000000
O O17 0.848771 0.650913 0.610066
O O18 0.393560 0.868088 0.437848
O O19 0.910168 0.500000 0.665855
#
# Coordination Sequence:
#
# PCOD9202595 Si02
#       8
#     8   8   8   8   8   8   8   8
#     4   9  17  33  56  86 118 149 186 238 298 348
#     4  10  22  40  62  87 117 157 200 246 301 349
#     4  10  22  36  56  84 117 153 195 235 288 349
#     4  10  21  39  64  87 116 156 198 245 303 355
#     4   9  17  31  55  82 113 148 185 235 294 349
#     4  10  20  38  62  89 118 153 199 246 291 352
#     4  11  23  40  58  84 119 158 198 242 292 352
#     4  12  24  39  59  85 118 156 199 245 292 349
#
# _framework density 22.888746000000001
#
# number of rings (size 3 to 8) (size 9 to 14) (size 15 to 20)
#    0.000    1.875    1.250    3.375    0.000    5.000 
#    0.000    1.875    0.000    2.250    0.000    0.000 
#    0.000    0.000    0.000    0.000    0.000    0.000 
#
# Total GULP energy -178777.747624 kJ/mol
# GULP energy per Si atom -5586.804613 kJ/mol
# Density = 2.283665 g / cm^3
# Si number density = 22.888746 Si / 1000 Ang^3
#
#
#
# Elastic Constant Matrix: (Units=GPa)
#
#
# Indices 1 2 3 4 5 6 
#
# 1 37.0903 13.2365 4.5404 0.0000 -1.4746 0.0000
# 2 13.2365 131.7195 12.6922 0.0000 0.0574 0.0000
# 3 4.5404 12.6922 82.0933 0.0000 1.1530 0.0000
# 4 0.0000 0.0000 0.0000 36.7528 0.0000 -7.8973
# 5 -1.4746 0.0574 1.1530 0.0000 30.5055 0.0000
# 6 0.0000 0.0000 0.0000 -7.8973 0.0000 8.9652
#
#
#
# Elastic Compliance Matrix: (Units=1/GPa)
#
#
# Indices 1 2 3 4 5 6 
#
# 1 0.028128 -0.002716 -0.001156 0.000000 0.001408 0.000000
# 2 -0.002716 0.007969 -0.001080 0.000000 -0.000105 0.000000
# 3 -0.001156 -0.001080 0.012420 0.000000 -0.000523 0.000000
# 4 0.000000 0.000000 0.000000 0.033561 0.000000 0.029564
# 5 0.001408 -0.000105 -0.000523 0.000000 0.032869 0.000000
# 6 0.000000 0.000000 0.000000 0.029564 0.000000 0.137585
#
#
# Mechanical properties :
#
#
# Convention : Reuss Voigt Hill
#
# Bulk Modulus (GPa) = 25.89813 34.64903 30.27358
# Shear Modulus (GPa) = 18.16160 29.94030 24.05095
#
# Velocity S-wave (km/s) = 2.81992 3.62066 3.24508
# Velocity P-wave (km/s) = 4.68422 5.71400 5.22455
#
# Compressibility (1/GPa) = 0.03861283
#
# Stress axis : x y z
#
# Youngs Moduli (GPa) = 35.55191 125.48698 80.51817
#
# Poissons Ratio (x) = 0.34080 0.09304
# Poissons Ratio (y) = 0.09655 0.08699
# Poissons Ratio (z) = 0.04108 0.13557
#
# Static dielectric constant tensor:
#      x y z
#    x 1.859980 0.000000 0.080390 
#    y 0.000000 1.856750 0.000000 
#    z 0.080390 0.000000 1.911410 
# 
# From -- ./inp_files/111666.got.cif
#   From: 2010.05.17/outbox.cif.g08.bks.cpg/sg12_56_cif.got.tgz:111666.got - 2010.06.03 13:09:07.
