data_PCOD9202749
_publ_section_title
;
Structure prediction by ZEFSAII (Michael W. Deem and Ramdas Pophale) SiO2 
 PCOD9202749
Probable space group: C 2/M
;
_chemical_formula_sum "Si O2"
_cell_formula_units_Z 56
_cell_length_a 28.167053
_cell_length_b 8.781037
_cell_length_c 19.016679
_cell_angle_alpha 90.000000
_cell_angle_beta 36.718172
_cell_angle_gamma 90.000000
_cell_volume 2812.130627
_symmetry_space_group_name_H-M "C 2/M"
_symmetry_group_IT_number 12
_symmetry_cell_setting 'monoclinic'
loop_
_space_group_symop_operation_xyz
x,y,z
-x,y,-z
-x,-y,-z
x,-y,z
1/2+x,1/2+y,z
1/2-x,1/2+y,-z
1/2-x,1/2-y,-z
1/2+x,1/2-y,z
loop_
_atom_site_type_symbol
_atom_site_label
_atom_site_fract_x
_atom_site_fract_y
_atom_site_fract_z
Si Si1 0.376658 0.817354 0.039604
Si Si2 0.233396 0.682765 0.295798
Si Si3 0.538290 0.317343 0.804868
Si Si4 0.996476 0.683479 0.307136
Si Si5 0.930205 0.817484 0.528738
Si Si6 0.329682 0.181492 0.935653
Si Si7 0.781619 0.817527 0.390060
O O1 0.315071 0.742338 0.165842
O O2 0.377589 0.000000 0.045853
O O3 0.466085 0.753578 0.934848
O O4 0.344901 0.778121 0.998892
O O5 0.230464 0.500000 0.295436
O O6 0.156455 0.752774 0.349523
O O7 0.233900 0.730206 0.377364
O O8 0.529655 0.500000 0.812936
O O9 0.532987 0.250910 0.731982
O O10 0.625543 0.278894 0.729691
O O11 0.988951 0.500000 0.313784
O O12 0.952327 0.750129 0.426491
O O13 0.089949 0.725289 0.200602
O O14 0.000000 0.773200 0.500000
O O15 0.926726 0.000000 0.530079
O O16 0.323657 0.000000 0.939346
O O17 0.250000 0.250000 0.000000
O O18 0.750000 0.750000 0.500000
O O19 0.776006 0.000000 0.401665
#
# Coordination Sequence:
#
# PCOD9202749 Si02
#       7
#     8   8   8   8   8   8   8
#     4  10  22  40  59  87 124 160 201 250 300 358
#     4  11  24  42  63  89 122 160 201 251 304 361
#     4  10  20  38  63  90 121 160 201 246 301 357
#     4  10  21  38  58  86 118 152 197 247 296 355
#     4  11  25  42  60  85 118 158 201 249 302 360
#     4   9  20  35  55  82 113 149 192 242 291 346
#     4  10  23  40  62  92 123 157 202 251 300 357
#
# _framework density 19.913727000000002
#
# number of rings (size 3 to 8) (size 9 to 14) (size 15 to 20)
#    0.000    1.857    0.000    3.857    2.000    9.714 
#    0.000    2.857    0.000    0.000    0.000    0.000 
#    0.000    0.000    0.000    0.000    0.000    0.000 
#
# Total GULP energy -156482.503311 kJ/mol
# GULP energy per Si atom -5588.660833 kJ/mol
# Density = 1.986840 g / cm^3
# Si number density = 19.913727 Si / 1000 Ang^3
#
#
#
# Elastic Constant Matrix: (Units=GPa)
#
#
# Indices 1 2 3 4 5 6 
#
# 1 90.3159 36.2668 42.6835 0.0040 -29.0655 0.0001
# 2 36.2668 50.4878 31.6145 0.0037 -8.3812 -0.0007
# 3 42.6835 31.6145 107.7598 0.0074 -8.1076 -0.0012
# 4 0.0040 0.0037 0.0074 35.2631 -0.0023 -1.7924
# 5 -29.0655 -8.3812 -8.1076 -0.0023 26.6084 -0.0009
# 6 0.0001 -0.0007 -0.0012 -1.7924 -0.0009 25.5572
#
#
#
# Elastic Compliance Matrix: (Units=1/GPa)
#
#
# Indices 1 2 3 4 5 6 
#
# 1 0.025148 -0.011224 -0.004982 0.000001 0.022417 0.000000
# 2 -0.011224 0.030118 -0.004707 -0.000001 -0.004207 0.000000
# 3 -0.004982 -0.004707 0.012397 -0.000002 -0.003147 0.000000
# 4 0.000001 -0.000001 -0.000002 0.028460 0.000003 0.001996
# 5 0.022417 -0.004207 -0.003147 0.000003 0.059785 0.000002
# 6 0.000000 0.000000 0.000000 0.001996 0.000002 0.039268
#
#
# Mechanical properties :
#
#
# Convention : Reuss Voigt Hill
#
# Bulk Modulus (GPa) = 38.70177 52.18812 45.44494
# Shear Modulus (GPa) = 20.35735 26.68566 23.52151
#
# Velocity S-wave (km/s) = 3.20078 3.66466 3.44054
# Velocity P-wave (km/s) = 5.75646 6.64607 6.21720
#
# Compressibility (1/GPa) = 0.02583861
#
# Stress axis : x y z
#
# Youngs Moduli (GPa) = 39.76538 33.20292 80.66308
#
# Poissons Ratio (x) = 0.37265 0.40183
# Poissons Ratio (y) = 0.44631 0.37967
# Poissons Ratio (z) = 0.19809 0.15628
#
# Static dielectric constant tensor:
#      x y z
#    x 1.706090 0.000000 -0.011220 
#    y 0.000000 1.664750 0.000000 
#    z -0.011220 0.000000 1.711750 
# 
# From -- ./inp_files/292441.got.cif
#   From: 2010.05.17/outbox.cif.g08.bks.cpg/sg12_147_cif.got.tgz:292441.got - 2010.06.03 13:09:07.
