data_PCOD9202097
_publ_section_title
;
Structure prediction by ZEFSAII (Michael W. Deem and Ramdas Pophale) SiO2 
 PCOD9202097
Probable space group: C 2/M
;
_chemical_formula_sum "Si O2"
_cell_formula_units_Z 36
_cell_length_a 8.446800
_cell_length_b 25.973976
_cell_length_c 11.772670
_cell_angle_alpha 90.000000
_cell_angle_beta 51.450598
_cell_angle_gamma 90.000000
_cell_volume 2020.002298
_symmetry_space_group_name_H-M "C 2/M"
_symmetry_group_IT_number 12
_symmetry_cell_setting 'monoclinic'
loop_
_space_group_symop_operation_xyz
x,y,z
-x,y,-z
-x,-y,-z
x,-y,z
1/2+x,1/2+y,z
1/2-x,1/2+y,-z
1/2-x,1/2-y,-z
1/2+x,1/2-y,z
loop_
_atom_site_type_symbol
_atom_site_label
_atom_site_fract_x
_atom_site_fract_y
_atom_site_fract_z
Si Si1 0.540183 0.084307 0.608062
Si Si2 0.831229 0.173961 0.387783
Si Si3 0.428942 0.395391 0.152636
Si Si4 0.500000 0.747797 0.500000
Si Si5 0.173570 0.000000 0.094009
Si Si6 0.899516 0.500000 0.233045
O O1 0.500000 0.060089 0.500000
O O2 0.689479 0.132213 0.516648
O O3 0.313589 0.099527 0.744636
O O4 0.623147 0.048051 0.670548
O O5 0.968206 0.142444 0.239800
O O6 0.682746 0.213585 0.390344
O O7 0.949147 0.210253 0.420287
O O8 0.538776 0.449789 0.127370
O O9 0.500000 0.375367 0.000000
O O10 0.250047 0.000000 0.191197
O O11 0.373905 0.000000 0.923874
#
# Coordination Sequence:
#
# PCOD9202097 Si02
#       6
#     8   8   8   4   4   4
#     4  10  20  38  58  86 113 155 191 227 279 339
#     4  10  22  38  64  85 110 151 185 243 285 336
#     4  11  20  39  59  84 116 156 192 220 284 350
#     4  10  20  42  62  82 116 140 194 238 300 328
#     4  11  24  34  56  86 124 157 178 234 287 325
#     4  11  22  37  54  87 124 151 190 228 277 339
#
# _framework density 17.821763000000001
#
# number of rings (size 3 to 8) (size 9 to 14) (size 15 to 20)
#    0.000    1.556    5.556    1.333    3.111    2.667 
#    0.000    5.556    0.000    0.000    0.000    0.000 
#    0.000    0.000    0.000    0.000    0.000    0.000 
#
# Total GULP energy -100335.060280 kJ/mol
# GULP energy per Si atom -5574.170016 kJ/mol
# Density = 1.778120 g / cm^3
# Si number density = 17.821763 Si / 1000 Ang^3
#
#
#
# Elastic Constant Matrix: (Units=GPa)
#
#
# Indices 1 2 3 4 5 6 
#
# 1 60.4527 41.6569 28.1735 0.0000 12.2041 0.0000
# 2 41.6569 125.7661 49.6117 0.0000 9.8065 0.0000
# 3 28.1735 49.6117 121.5498 0.0000 8.5835 0.0000
# 4 0.0000 0.0000 0.0000 193.2824 0.0000 -160.4584
# 5 12.2041 9.8065 8.5835 0.0000 18.5280 0.0000
# 6 0.0000 0.0000 0.0000 -160.4584 0.0000 144.3250
#
#
#
# Elastic Compliance Matrix: (Units=1/GPa)
#
#
# Indices 1 2 3 4 5 6 
#
# 1 0.024231 -0.006231 -0.002253 0.000000 -0.011619 0.000000
# 2 -0.006231 0.011283 -0.003132 0.000000 -0.000417 0.000000
# 3 -0.002253 -0.003132 0.010137 0.000000 -0.001555 0.000000
# 4 0.000000 0.000000 0.000000 0.067173 0.000000 0.074681
# 5 -0.011619 -0.000417 -0.001555 0.000000 0.062567 0.000000
# 6 0.000000 0.000000 0.000000 0.074681 0.000000 0.089959
#
#
# Mechanical properties :
#
#
# Convention : Reuss Voigt Hill
#
# Bulk Modulus (GPa) = 44.60202 60.73920 52.67061
# Shear Modulus (GPa) = 16.88883 83.78218 50.33551
#
# Velocity S-wave (km/s) = 3.08174 6.86391 5.32026
# Velocity P-wave (km/s) = 6.14360 9.84749 8.20722
#
# Compressibility (1/GPa) = 0.02242051
#
# Stress axis : x y z
#
# Youngs Moduli (GPa) = 41.26902 88.62840 98.64701
#
# Poissons Ratio (x) = 0.55228 0.22221
# Poissons Ratio (y) = 0.25717 0.30891
# Poissons Ratio (z) = 0.09296 0.27754
#
# Static dielectric constant tensor:
#      x y z
#    x 1.636180 0.000000 0.004380 
#    y 0.000000 1.606450 0.000000 
#    z 0.004380 0.000000 1.614520 
# 
# From -- ./inp_files/39912.got.cif
#   From: 2010.05.17/outbox.cif.g08.bks.cpg/sg12_20_cif.got.tgz:39912.got - 2010.06.03 13:09:07.
