data_PCOD9202024
_publ_section_title
;
Structure prediction by ZEFSAII (Michael W. Deem and Ramdas Pophale) SiO2 
 PCOD9202024
Probable space group: C 2/M
;
_chemical_formula_sum "Si O2"
_cell_formula_units_Z 64
_cell_length_a 14.131608
_cell_length_b 25.642432
_cell_length_c 16.957957
_cell_angle_alpha 90.000000
_cell_angle_beta 32.618145
_cell_angle_gamma 90.000000
_cell_volume 3312.404357
_symmetry_space_group_name_H-M "C 2/M"
_symmetry_group_IT_number 12
_symmetry_cell_setting 'monoclinic'
loop_
_space_group_symop_operation_xyz
x,y,z
-x,y,-z
-x,-y,-z
x,-y,z
1/2+x,1/2+y,z
1/2-x,1/2+y,-z
1/2-x,1/2-y,-z
1/2+x,1/2-y,z
loop_
_atom_site_type_symbol
_atom_site_label
_atom_site_fract_x
_atom_site_fract_y
_atom_site_fract_z
Si Si1 0.050229 0.322174 0.334770
Si Si2 0.234086 0.308884 0.039769
Si Si3 0.413523 0.110465 0.982701
Si Si4 0.339875 0.272933 0.562025
Si Si5 0.251339 0.059850 0.321655
Si Si6 0.245081 0.870749 0.481107
Si Si7 0.093786 0.790334 0.850123
Si Si8 0.433500 0.438960 0.710629
O O1 0.234264 0.325182 0.251845
O O2 0.934423 0.277267 0.457202
O O3 0.916655 0.369531 0.415129
O O4 0.116859 0.308430 0.200444
O O5 0.145436 0.346546 0.038765
O O6 0.437210 0.321532 0.917676
O O7 0.250000 0.250000 0.000000
O O8 0.245524 0.076459 0.121843
O O9 0.500000 0.136234 0.000000
O O10 0.562190 0.071191 0.849321
O O11 0.500000 0.298278 0.500000
O O12 0.287436 0.312491 0.529606
O O13 0.180671 0.254562 0.732059
O O14 0.261979 0.095785 0.390085
O O15 0.109392 0.070389 0.352409
O O16 0.232291 0.000000 0.358250
O O17 0.079383 0.898306 0.636968
O O18 0.000000 0.773070 0.000000
O O19 0.476286 0.500000 0.690973
#
# Coordination Sequence:
#
# PCOD9202024 Si02
#       8
#     8   8   8   8   8   8   8   8
#     4  10  22  37  53  82 117 158 195 235 284 343
#     4  11  22  37  56  85 117 152 200 240 284 341
#     4  10  22  38  59  85 115 156 194 235 292 349
#     4  10  21  36  53  79 119 157 194 230 284 343
#     4  10  20  38  57  79 114 150 191 245 293 347
#     4  12  21  34  55  85 114 153 197 231 287 348
#     4   9  21  39  58  79 115 157 192 238 282 332
#     4  10  22  37  56  84 115 149 195 243 296 348
#
# _framework density 19.321311999999999
#
# number of rings (size 3 to 8) (size 9 to 14) (size 15 to 20)
#    0.000    1.750    1.250    3.000    3.500    4.000 
#    2.250    0.000    0.000    0.000    0.000    5.250 
#    0.000    0.000    0.000    0.000    0.000    0.000 
#
# Total GULP energy -178476.201834 kJ/mol
# GULP energy per Si atom -5577.381307 kJ/mol
# Density = 1.927734 g / cm^3
# Si number density = 19.321312 Si / 1000 Ang^3
#
#
#
# Elastic Constant Matrix: (Units=GPa)
#
#
# Indices 1 2 3 4 5 6 
#
# 1 87.8589 33.0674 33.9601 -0.0079 -23.8551 -0.0039
# 2 33.0674 56.2593 28.4037 0.0115 -11.8283 0.0103
# 3 33.9601 28.4037 119.5628 0.0114 -22.2935 0.0046
# 4 -0.0079 0.0115 0.0114 -12.2474 0.0008 -10.3913
# 5 -23.8551 -11.8283 -22.2935 0.0008 36.1775 -0.0012
# 6 -0.0039 0.0103 0.0046 -10.3913 -0.0012 26.6571
#
#
#
# Elastic Compliance Matrix: (Units=1/GPa)
#
#
# Indices 1 2 3 4 5 6 
#
# 1 0.016922 -0.007525 -0.001578 -0.000018 0.007725 -0.000001
# 2 -0.007525 0.024102 -0.003439 0.000025 0.000799 0.000000
# 3 -0.001578 -0.003439 0.010423 0.000006 0.004258 0.000002
# 4 -0.000018 0.000025 0.000006 -0.061357 0.000000 -0.023918
# 5 0.007725 0.000799 0.004258 0.000000 0.035620 0.000002
# 6 -0.000001 0.000000 0.000002 -0.023918 0.000002 0.028190
#
#
# Mechanical properties :
#
#
# Convention : Reuss Voigt Hill
#
# Bulk Modulus (GPa) = 37.93422 50.50483 44.21953
# Shear Modulus (GPa) = 56.96537 21.33411 39.14974
#
# Velocity S-wave (km/s) = 5.43573 3.32652 4.50627
# Velocity P-wave (km/s) = 7.68585 6.39926 7.07187
#
# Compressibility (1/GPa) = 0.02636142
#
# Stress axis : x y z
#
# Youngs Moduli (GPa) = 59.09616 41.49002 95.94098
#
# Poissons Ratio (x) = 0.31221 0.15142
# Poissons Ratio (y) = 0.44470 0.32999
# Poissons Ratio (z) = 0.09327 0.14270
#
# Static dielectric constant tensor:
#      x y z
#    x 1.726360 0.000000 0.004610 
#    y 0.000000 1.722750 0.000010 
#    z 0.004610 0.000010 1.735110 
# 
# From -- ./inp_files/272798.got.cif
#   From: 2010.05.17/outbox.cif.g08.bks.cpg/sg12_137_cif.got.tgz:272798.got - 2010.06.03 13:09:07.
