data_PCOD9202639
_publ_section_title
;
Structure prediction by ZEFSAII (Michael W. Deem and Ramdas Pophale) SiO2 
 PCOD9202639
Probable space group: C 2/M
;
_chemical_formula_sum "Si O2"
_cell_formula_units_Z 56
_cell_length_a 18.045141
_cell_length_b 19.096513
_cell_length_c 9.374634
_cell_angle_alpha 90.000000
_cell_angle_beta 55.229344
_cell_angle_gamma 90.000000
_cell_volume 2653.659870
_symmetry_space_group_name_H-M "C 2/M"
_symmetry_group_IT_number 12
_symmetry_cell_setting 'monoclinic'
loop_
_space_group_symop_operation_xyz
x,y,z
-x,y,-z
-x,-y,-z
x,-y,z
1/2+x,1/2+y,z
1/2-x,1/2+y,-z
1/2-x,1/2-y,-z
1/2+x,1/2-y,z
loop_
_atom_site_type_symbol
_atom_site_label
_atom_site_fract_x
_atom_site_fract_y
_atom_site_fract_z
Si Si1 0.241589 0.313237 0.123556
Si Si2 0.076073 0.778221 0.032776
Si Si3 0.547833 0.675596 0.602471
Si Si4 0.132882 0.330406 0.513313
Si Si5 0.222405 0.914296 0.456145
Si Si6 0.222054 0.424662 0.921244
Si Si7 0.468275 0.121649 0.870943
O O1 0.156585 0.326469 0.318745
O O2 0.260249 0.379075 0.005131
O O3 0.250000 0.250000 0.000000
O O4 0.327011 0.298917 0.130685
O O5 0.077191 0.698464 0.084556
O O6 0.037890 0.826012 0.199446
O O7 0.000000 0.780516 0.000000
O O8 0.500000 0.676164 0.500000
O O9 0.602116 0.749245 0.574239
O O10 0.620063 0.614529 0.554822
O O11 0.217897 0.367445 0.499784
O O12 0.049264 0.375494 0.668888
O O13 0.227923 0.000000 0.474287
O O14 0.264435 0.897314 0.253726
O O15 0.265713 0.500000 0.874633
O O16 0.115177 0.427752 0.066490
O O17 0.500000 0.110389 0.000000
#
# Coordination Sequence:
#
# PCOD9202639 Si02
#       7
#     8   8   8   8   8   8   8
#     4  12  23  41  65  93 132 170 214 275 333 387
#     4  10  21  37  61  91 120 161 208 265 320 375
#     4  11  23  39  64  98 129 164 219 277 330 383
#     4  11  24  39  69  96 129 173 224 275 328 394
#     4  11  24  43  67  96 131 179 227 270 329 399
#     4  11  24  40  62  93 132 175 214 267 334 397
#     4  10  20  38  62  92 127 161 213 266 322 387
#
# _framework density 21.102931999999999
#
# number of rings (size 3 to 8) (size 9 to 14) (size 15 to 20)
#    0.000    1.143    2.857    3.857    2.000    1.714 
#    0.000    1.429    0.000    1.714    0.000    0.000 
#    0.000    0.000    0.000    0.000    0.000    0.000 
#
# Total GULP energy -156024.484636 kJ/mol
# GULP energy per Si atom -5572.303023 kJ/mol
# Density = 2.105490 g / cm^3
# Si number density = 21.102932 Si / 1000 Ang^3
#
#
#
# Elastic Constant Matrix: (Units=GPa)
#
#
# Indices 1 2 3 4 5 6 
#
# 1 67.6236 29.1459 -7.9428 0.0000 -7.4176 0.0000
# 2 29.1459 48.2981 18.3211 0.0000 -0.0552 0.0000
# 3 -7.9428 18.3211 99.8694 0.0000 5.0630 0.0000
# 4 0.0000 0.0000 0.0000 14.0495 0.0000 4.0730
# 5 -7.4176 -0.0552 5.0630 0.0000 24.9066 0.0000
# 6 0.0000 0.0000 0.0000 4.0730 0.0000 23.7227
#
#
#
# Elastic Compliance Matrix: (Units=1/GPa)
#
#
# Indices 1 2 3 4 5 6 
#
# 1 0.022464 -0.015172 0.004276 0.000000 0.005787 0.000000
# 2 -0.015172 0.032519 -0.007019 0.000000 -0.003019 0.000000
# 3 0.004276 -0.007019 0.011698 0.000000 -0.001120 0.000000
# 4 0.000000 0.000000 0.000000 0.074905 0.000000 -0.012861
# 5 0.005787 -0.003019 -0.001120 0.000000 0.042094 0.000000
# 6 0.000000 0.000000 0.000000 -0.012861 0.000000 0.044362
#
#
# Mechanical properties :
#
#
# Convention : Reuss Voigt Hill
#
# Bulk Modulus (GPa) = 32.41276 32.75995 32.58636
# Shear Modulus (GPa) = 18.23785 24.28689 21.26237
#
# Velocity S-wave (km/s) = 2.94297 3.39614 3.17764
# Velocity P-wave (km/s) = 5.19046 5.56201 5.37944
#
# Compressibility (1/GPa) = 0.03085204
#
# Stress axis : x y z
#
# Youngs Moduli (GPa) = 44.51606 30.75091 85.48725
#
# Poissons Ratio (x) = 0.46654 -0.36558
# Poissons Ratio (y) = 0.67538 0.60006
# Poissons Ratio (z) = -0.19037 0.21585
#
# Static dielectric constant tensor:
#      x y z
#    x 2.675400 0.000000 0.812640 
#    y 0.000000 2.094310 0.000000 
#    z 0.812640 0.000000 2.543520 
# 
# From -- ./inp_files/77340.got.cif
#   From: 2010.05.17/outbox.cif.g08.bks.cpg/sg12_39_cif.got.tgz:77340.got - 2010.06.03 13:09:07.
