data_PCOD9202337
_publ_section_title
;
Structure prediction by ZEFSAII (Michael W. Deem and Ramdas Pophale) SiO2 
 PCOD9202337
Probable space group: C 2/M
;
_chemical_formula_sum "Si O2"
_cell_formula_units_Z 64
_cell_length_a 24.773157
_cell_length_b 8.421976
_cell_length_c 15.853724
_cell_angle_alpha 90.000000
_cell_angle_beta 79.581258
_cell_angle_gamma 90.000000
_cell_volume 3253.167865
_symmetry_space_group_name_H-M "C 2/M"
_symmetry_group_IT_number 12
_symmetry_cell_setting 'monoclinic'
loop_
_space_group_symop_operation_xyz
x,y,z
-x,y,-z
-x,-y,-z
x,-y,z
1/2+x,1/2+y,z
1/2-x,1/2+y,-z
1/2-x,1/2-y,-z
1/2+x,1/2-y,z
loop_
_atom_site_type_symbol
_atom_site_label
_atom_site_fract_x
_atom_site_fract_y
_atom_site_fract_z
Si Si1 0.459631 0.815357 0.118527
Si Si2 0.700145 0.692436 0.071991
Si Si3 0.921076 0.812624 0.957144
Si Si4 0.911590 0.686408 0.480575
Si Si5 0.431345 0.308874 0.652559
Si Si6 0.041697 0.812753 0.705133
Si Si7 0.708896 0.691231 0.440995
Si Si8 0.691672 0.307509 0.263016
O O1 0.428190 0.717379 0.055190
O O2 0.438378 0.777770 0.217953
O O3 0.453756 0.000000 0.100128
O O4 0.524338 0.769399 0.095939
O O5 0.700007 0.500000 0.070723
O O6 0.709381 0.748171 0.165978
O O7 0.750000 0.750000 0.000000
O O8 0.638772 0.741838 0.058624
O O9 0.925599 0.000000 0.936985
O O10 0.917899 0.500000 0.464853
O O11 0.942458 0.736948 0.557517
O O12 0.928229 0.776028 0.390930
O O13 0.849408 0.733156 0.520091
O O14 0.431261 0.500000 0.643224
O O15 0.478898 0.265197 0.703428
O O16 0.371774 0.260991 0.703262
O O17 0.043607 0.000000 0.721983
O O18 0.704252 0.500000 0.444351
O O19 0.750000 0.750000 0.500000
O O20 0.722882 0.738797 0.340236
O O21 0.692896 0.500000 0.259818
#
# Coordination Sequence:
#
# PCOD9202337 Si02
#       8
#     8   8   8   8   8   8   8   8
#     4  11  22  36  57  86 116 149 191 241 295 347
#     4  10  21  38  60  86 115 150 192 242 295 347
#     4  10  20  38  61  82 111 152 196 237 287 354
#     4  11  22  35  52  80 116 148 184 231 283 337
#     4   9  18  34  57  80 107 147 190 230 278 337
#     4  11  21  35  55  81 114 152 191 228 277 341
#     4  10  20  38  61  82 108 147 192 239 286 339
#     4   8  16  34  58  82 107 141 186 229 279 339
#
# _framework density 19.673131000000001
#
# number of rings (size 3 to 8) (size 9 to 14) (size 15 to 20)
#    0.000    2.000    0.000    6.000    0.000    5.500 
#    2.250    3.125    0.000    0.000    0.000    0.000 
#    0.000    0.000    0.000    0.000    0.000    0.000 
#
# Total GULP energy -178606.202619 kJ/mol
# GULP energy per Si atom -5581.443832 kJ/mol
# Density = 1.962835 g / cm^3
# Si number density = 19.673131 Si / 1000 Ang^3
#
#
#
# Elastic Constant Matrix: (Units=GPa)
#
#
# Indices 1 2 3 4 5 6 
#
# 1 57.8774 1.0407 32.1435 0.0000 16.2714 0.0000
# 2 1.0407 10.3513 -7.5216 0.0000 2.4970 0.0000
# 3 32.1435 -7.5216 139.5008 0.0000 12.3226 0.0000
# 4 0.0000 0.0000 0.0000 27.5744 0.0000 -3.0698
# 5 16.2714 2.4970 12.3226 0.0000 23.8317 0.0000
# 6 0.0000 0.0000 0.0000 -3.0698 0.0000 21.1248
#
#
#
# Elastic Compliance Matrix: (Units=1/GPa)
#
#
# Indices 1 2 3 4 5 6 
#
# 1 0.023556 -0.002247 -0.004348 0.000000 -0.013600 0.000000
# 2 -0.002247 0.105408 0.007378 0.000000 -0.013325 0.000000
# 3 -0.004348 0.007378 0.008775 0.000000 -0.002342 0.000000
# 4 0.000000 0.000000 0.000000 0.036862 0.000000 0.005357
# 5 -0.013600 -0.013325 -0.002342 0.000000 0.053854 0.000000
# 6 0.000000 0.000000 0.000000 0.005357 0.000000 0.048116
#
#
# Mechanical properties :
#
#
# Convention : Reuss Voigt Hill
#
# Bulk Modulus (GPa) = 7.17841 28.78383 17.98112
# Shear Modulus (GPa) = 15.55508 26.64396 21.09952
#
# Velocity S-wave (km/s) = 2.81495 3.68412 3.27846
# Velocity P-wave (km/s) = 3.77121 5.72362 4.84674
#
# Compressibility (1/GPa) = 0.13930664
#
# Stress axis : x y z
#
# Youngs Moduli (GPa) = 42.45157 9.48697 113.96191
#
# Poissons Ratio (x) = 0.02131 0.49546
# Poissons Ratio (y) = 0.09537 -0.84082
# Poissons Ratio (z) = 0.18456 -0.07000
#
# Static dielectric constant tensor:
#      x y z
#    x 1.685100 0.000000 0.016350 
#    y 0.000000 1.709200 0.000000 
#    z 0.016350 0.000000 1.708980 
# 
# From -- ./inp_files/243806.got.cif
#   From: 2010.05.17/outbox.cif.g08.bks.cpg/sg12_122_cif.got.tgz:243806.got - 2010.06.03 13:09:07.
