data_PCOD9202708
_publ_section_title
;
Structure prediction by ZEFSAII (Michael W. Deem and Ramdas Pophale) SiO2 
 PCOD9202708
Probable space group: C 2/M
;
_chemical_formula_sum "Si O2"
_cell_formula_units_Z 64
_cell_length_a 16.433815
_cell_length_b 8.639658
_cell_length_c 27.674495
_cell_angle_alpha 90.000000
_cell_angle_beta 53.960155
_cell_angle_gamma 90.000000
_cell_volume 3177.259621
_symmetry_space_group_name_H-M "C 2/M"
_symmetry_group_IT_number 12
_symmetry_cell_setting 'monoclinic'
loop_
_space_group_symop_operation_xyz
x,y,z
-x,y,-z
-x,-y,-z
x,-y,z
1/2+x,1/2+y,z
1/2-x,1/2+y,-z
1/2-x,1/2-y,-z
1/2+x,1/2-y,z
loop_
_atom_site_type_symbol
_atom_site_label
_atom_site_fract_x
_atom_site_fract_y
_atom_site_fract_z
Si Si1 0.648133 0.819713 0.254005
Si Si2 0.070214 0.813135 0.930853
Si Si3 0.479263 0.688806 0.860015
Si Si4 0.793895 0.183370 0.865188
Si Si5 0.098676 0.320894 0.498800
Si Si6 0.287725 0.180604 0.378797
Si Si7 0.465759 0.318046 0.376205
Si Si8 0.672704 0.682225 0.735591
O O1 0.649817 0.721417 0.204723
O O2 0.564451 0.763981 0.320821
O O3 0.755357 0.805024 0.243119
O O4 0.632203 0.000000 0.247691
O O5 0.184023 0.758194 0.899743
O O6 0.020542 0.758949 0.897660
O O7 0.072391 0.000000 0.928224
O O8 0.000000 0.765310 0.000000
O O9 0.478792 0.500000 0.861012
O O10 0.368321 0.739177 0.882002
O O11 0.561865 0.732874 0.790788
O O12 0.781434 0.000000 0.874443
O O13 0.130877 0.500000 0.492916
O O14 0.186536 0.226299 0.442079
O O15 0.069729 0.252301 0.560634
O O16 0.000000 0.316664 0.500000
O O17 0.377264 0.282400 0.369421
O O18 0.282847 0.221295 0.324048
O O19 0.309727 0.000000 0.378201
O O20 0.483309 0.500000 0.375032
O O21 0.670701 0.500000 0.722647
#
# Coordination Sequence:
#
# PCOD9202708 Si02
#       8
#     8   8   8   8   8   8   8   8
#     4  11  22  39  64  92 123 161 208 256 309 374
#     4  10  21  41  66  90 123 170 217 259 312 380
#     4   9  19  38  61  89 124 167 207 253 317 378
#     4  11  22  37  62  93 129 167 209 260 319 378
#     4  11  24  43  64  86 116 157 202 249 313 379
#     4  12  25  40  60  88 121 156 204 257 308 371
#     4  12  25  41  61  87 122 160 202 254 314 370
#     4  10  20  38  63  87 121 163 203 251 314 378
#
# _framework density 20.143146000000002
#
# number of rings (size 3 to 8) (size 9 to 14) (size 15 to 20)
#    0.000    1.250    1.250    5.250    0.000    6.750 
#    0.000    1.875    0.000    0.000    0.000    0.000 
#    0.000    0.000    0.000    0.000    0.000    0.000 
#
# Total GULP energy -178928.210867 kJ/mol
# GULP energy per Si atom -5591.506590 kJ/mol
# Density = 2.009730 g / cm^3
# Si number density = 20.143146 Si / 1000 Ang^3
#
#
#
# Elastic Constant Matrix: (Units=GPa)
#
#
# Indices 1 2 3 4 5 6 
#
# 1 100.5591 6.7436 39.7226 -0.0001 -11.0640 -0.0002
# 2 6.7436 18.7008 2.5073 -0.0001 -2.8795 -0.0001
# 3 39.7226 2.5073 107.0966 0.0000 -2.0798 0.0000
# 4 -0.0001 -0.0001 0.0000 22.0463 0.0000 -9.2620
# 5 -11.0640 -2.8795 -2.0798 0.0000 12.8425 0.0000
# 6 -0.0002 -0.0001 0.0000 -9.2620 0.0000 14.8548
#
#
#
# Elastic Compliance Matrix: (Units=1/GPa)
#
#
# Indices 1 2 3 4 5 6 
#
# 1 0.013011 -0.002555 -0.004574 0.000000 0.009896 0.000000
# 2 -0.002555 0.056007 -0.000163 0.000000 0.010330 0.000001
# 3 -0.004574 -0.000163 0.010995 0.000000 -0.002196 0.000000
# 4 0.000000 0.000000 0.000000 0.061457 0.000000 0.038319
# 5 0.009896 0.010330 -0.002196 0.000000 0.088352 0.000001
# 6 0.000000 0.000001 0.000000 0.038319 0.000001 0.091210
#
#
# Mechanical properties :
#
#
# Convention : Reuss Voigt Hill
#
# Bulk Modulus (GPa) = 15.28352 36.03372 25.65862
# Shear Modulus (GPa) = 13.98886 21.77425 17.88155
#
# Velocity S-wave (km/s) = 2.63814 3.29139 2.98270
# Velocity P-wave (km/s) = 4.10897 5.68964 4.96264
#
# Compressibility (1/GPa) = 0.06542996
#
# Stress axis : x y z
#
# Youngs Moduli (GPa) = 76.85613 17.85478 90.95019
#
# Poissons Ratio (x) = 0.04562 0.41600
# Poissons Ratio (y) = 0.19636 0.01482
# Poissons Ratio (z) = 0.35154 0.00291
#
# Static dielectric constant tensor:
#      x y z
#    x 1.732930 0.000000 0.024490 
#    y 0.000000 1.684920 0.000000 
#    z 0.024490 0.000000 1.738950 
# 
# From -- ./inp_files/375399.got.cif
#   From: 2010.05.17/outbox.cif.g08.bks.cpg/sg12_188_cif.got.tgz:375399.got - 2010.06.03 13:09:07.
