data_PCOD9202007
_publ_section_title
;
Structure prediction by ZEFSAII (Michael W. Deem and Ramdas Pophale) SiO2 
 PCOD9202007
Probable space group: C 2/M
;
_chemical_formula_sum "Si O2"
_cell_formula_units_Z 56
_cell_length_a 13.611773
_cell_length_b 23.319603
_cell_length_c 8.921228
_cell_angle_alpha 90.000000
_cell_angle_beta 104.522156
_cell_angle_gamma 90.000000
_cell_volume 2741.312925
_symmetry_space_group_name_H-M "C 2/M"
_symmetry_group_IT_number 12
_symmetry_cell_setting 'monoclinic'
loop_
_space_group_symop_operation_xyz
x,y,z
-x,y,-z
-x,-y,-z
x,-y,z
1/2+x,1/2+y,z
1/2-x,1/2+y,-z
1/2-x,1/2-y,-z
1/2+x,1/2-y,z
loop_
_atom_site_type_symbol
_atom_site_label
_atom_site_fract_x
_atom_site_fract_y
_atom_site_fract_z
Si Si1 0.906276 0.067797 0.074953
Si Si2 0.130646 0.676372 0.911795
Si Si3 0.802732 0.436336 0.191362
Si Si4 0.409436 0.187711 0.759501
Si Si5 0.706623 0.878598 0.504917
Si Si6 0.770776 0.263685 0.294900
Si Si7 0.606691 0.645375 0.629115
O O1 0.902174 0.109850 0.217862
O O2 0.915289 0.000000 0.123905
O O3 0.805200 0.072474 0.933980
O O4 0.000000 0.081323 0.000000
O O5 0.126944 0.612150 0.850018
O O6 0.222599 0.709410 0.868615
O O7 0.026030 0.704147 0.814647
O O8 0.130148 0.674227 0.088787
O O9 0.837917 0.500000 0.172908
O O10 0.796815 0.425799 0.367425
O O11 0.385418 0.133591 0.644850
O O12 0.338481 0.241455 0.693914
O O13 0.705265 0.818651 0.595874
O O14 0.807891 0.883853 0.444452
O O15 0.846373 0.209386 0.331147
O O16 0.500000 0.647246 0.500000
#
# Coordination Sequence:
#
# PCOD9202007 Si02
#       7
#     8   8   8   8   8   8   8
#     4  10  22  41  61  85 122 159 198 253 306 356
#     4  10  22  38  61  84 121 157 200 246 301 354
#     4  10  21  40  63  85 114 158 204 248 301 356
#     4  10  20  38  56  85 116 159 193 247 302 354
#     4  10  22  38  58  84 125 154 198 253 302 352
#     4  10  22  36  58  84 124 159 196 243 301 358
#     4  11  22  35  59  92 118 157 204 242 296 366
#
# _framework density 20.428166999999998
#
# number of rings (size 3 to 8) (size 9 to 14) (size 15 to 20)
#    0.000    1.857    0.000    4.714    4.000    3.714 
#    2.571    3.571    0.000    0.857    0.000    0.000 
#    0.000    0.000    0.000    0.000    0.000    0.000 
#
# Total GULP energy -156169.355784 kJ/mol
# GULP energy per Si atom -5577.476992 kJ/mol
# Density = 2.038167 g / cm^3
# Si number density = 20.428167 Si / 1000 Ang^3
#
#
#
# Elastic Constant Matrix: (Units=GPa)
#
#
# Indices 1 2 3 4 5 6 
#
# 1 4.7162 1.1911 -4.4369 0.0000 -5.6601 0.0000
# 2 1.1911 68.4793 13.9295 0.0000 -7.7960 0.0000
# 3 -4.4369 13.9295 69.4035 0.0000 -1.2505 0.0000
# 4 0.0000 0.0000 0.0000 12.7888 0.0000 0.1333
# 5 -5.6601 -7.7960 -1.2505 0.0000 35.0774 0.0000
# 6 0.0000 0.0000 0.0000 0.1333 0.0000 13.0242
#
#
#
# Elastic Compliance Matrix: (Units=1/GPa)
#
#
# Indices 1 2 3 4 5 6 
#
# 1 0.287230 -0.003794 0.019957 0.000000 0.046215 0.000000
# 2 -0.003794 0.015661 -0.003336 0.000000 0.002749 0.000000
# 3 0.019957 -0.003336 0.016409 0.000000 0.003064 0.000000
# 4 0.000000 0.000000 0.000000 0.078202 0.000000 -0.000800
# 5 0.046215 0.002749 0.003064 0.000000 0.036686 0.000000
# 6 0.000000 0.000000 0.000000 -0.000800 0.000000 0.076788
#
#
# Mechanical properties :
#
#
# Convention : Reuss Voigt Hill
#
# Bulk Modulus (GPa) = 2.89895 18.21850 10.55872
# Shear Modulus (GPa) = 8.32906 20.97243 14.65075
#
# Velocity S-wave (km/s) = 2.02141 3.20760 2.68093
# Velocity P-wave (km/s) = 2.62113 4.75983 3.84228
#
# Compressibility (1/GPa) = 0.34495265
#
# Stress axis : x y z
#
# Youngs Moduli (GPa) = 3.48153 63.85472 60.94185
#
# Poissons Ratio (x) = 0.24227 -1.21619
# Poissons Ratio (y) = 0.01321 0.20331
# Poissons Ratio (z) = -0.06948 0.21303
#
# Static dielectric constant tensor:
#      x y z
#    x 1.743640 0.000000 0.039850 
#    y 0.000000 1.712310 0.000000 
#    z 0.039850 0.000000 1.835630 
# 
# From -- ./inp_files/65471.got.cif
#   From: 2010.05.17/outbox.cif.g08.bks.cpg/sg12_33_cif.got.tgz:65471.got - 2010.06.03 13:09:07.
