data_PCOD9202920
_publ_section_title
;
Structure prediction by ZEFSAII (Michael W. Deem and Ramdas Pophale) SiO2 
 PCOD9202920
Probable space group: C 2/M
;
_chemical_formula_sum "Si O2"
_cell_formula_units_Z 48
_cell_length_a 21.145652
_cell_length_b 15.589114
_cell_length_c 18.937160
_cell_angle_alpha 90.000000
_cell_angle_beta 20.717692
_cell_angle_gamma 90.000000
_cell_volume 2208.363707
_symmetry_space_group_name_H-M "C 2/M"
_symmetry_group_IT_number 12
_symmetry_cell_setting 'monoclinic'
loop_
_space_group_symop_operation_xyz
x,y,z
-x,y,-z
-x,-y,-z
x,-y,z
1/2+x,1/2+y,z
1/2-x,1/2+y,-z
1/2-x,1/2-y,-z
1/2+x,1/2-y,z
loop_
_atom_site_type_symbol
_atom_site_label
_atom_site_fract_x
_atom_site_fract_y
_atom_site_fract_z
Si Si1 0.049483 0.668372 0.710550
Si Si2 0.250960 0.266564 0.202744
Si Si3 0.453593 0.357466 0.300484
Si Si4 0.108037 0.331631 0.481795
Si Si5 0.468338 0.590942 0.127318
Si Si6 0.236419 0.903860 0.122596
O O1 0.245801 0.654744 0.537888
O O2 0.977369 0.764236 0.796741
O O3 0.079326 0.669109 0.595431
O O4 0.908377 0.604792 0.891560
O O5 0.199732 0.255720 0.339107
O O6 0.247345 0.175721 0.166035
O O7 0.092346 0.328582 0.338669
O O8 0.425020 0.324308 0.007531
O O9 0.461608 0.409036 0.219554
O O10 0.568502 0.390294 0.245518
O O11 0.264898 0.401772 0.311181
O O12 0.550692 0.500000 0.020088
O O13 0.230362 0.000000 0.159776
#
# Coordination Sequence:
#
# PCOD9202920 Si02
#       6
#     8   8   8   8   8   8
#     4  10  20  39  67  91 122 166 216 265 318 373
#     4  11  23  42  63  91 132 173 211 258 325 384
#     4  10  20  38  64  93 125 163 209 264 323 378
#     4  10  23  40  64  89 123 172 213 259 317 384
#     4  11  23  40  65  96 126 164 214 268 324 387
#     4  12  24  39  66  99 132 170 217 267 318 383
#
# _framework density 21.735548999999999
#
# number of rings (size 3 to 8) (size 9 to 14) (size 15 to 20)
#    0.000    1.333    3.333    2.500    0.000    5.333 
#    0.000    3.333    0.000    2.000    0.000    0.000 
#    0.000    0.000    0.000    0.000    0.000    0.000 
#
# Total GULP energy -133692.535860 kJ/mol
# GULP energy per Si atom -5570.522327 kJ/mol
# Density = 2.168608 g / cm^3
# Si number density = 21.735549 Si / 1000 Ang^3
#
#
#
# Elastic Constant Matrix: (Units=GPa)
#
#
# Indices 1 2 3 4 5 6 
#
# 1 66.7392 33.2318 34.9772 -0.0019 5.0620 0.0003
# 2 33.2318 119.8843 29.0972 -0.0156 -6.9346 0.0052
# 3 34.9772 29.0972 73.7870 -0.0204 -13.2241 0.0090
# 4 -0.0019 -0.0156 -0.0204 -8.9695 0.0105 17.3206
# 5 5.0620 -6.9346 -13.2241 0.0105 44.9874 -0.0025
# 6 0.0003 0.0052 0.0090 17.3206 -0.0025 -10.3329
#
#
#
# Elastic Compliance Matrix: (Units=1/GPa)
#
#
# Indices 1 2 3 4 5 6 
#
# 1 0.022992 -0.004222 -0.010360 -0.000001 -0.006283 -0.000010
# 2 -0.004222 0.010006 -0.001671 0.000002 0.001526 0.000007
# 3 -0.010360 -0.001671 0.020357 0.000002 0.006892 0.000018
# 4 -0.000001 0.000002 0.000002 0.049841 -0.000006 0.083545
# 5 -0.006283 0.001526 0.006892 -0.000006 0.025197 -0.000010
# 6 -0.000010 0.000007 0.000018 0.083545 -0.000010 0.043264
#
#
# Mechanical properties :
#
#
# Convention : Reuss Voigt Hill
#
# Bulk Modulus (GPa) = 47.96291 50.55809 49.26050
# Shear Modulus (GPa) = 23.68404 16.01060 19.84732
#
# Velocity S-wave (km/s) = 3.30456 2.71700 3.02508
# Velocity P-wave (km/s) = 6.05596 5.75794 5.90883
#
# Compressibility (1/GPa) = 0.02084944
#
# Stress axis : x y z
#
# Youngs Moduli (GPa) = 43.49280 99.94444 49.12201
#
# Poissons Ratio (x) = 0.42200 0.50891
# Poissons Ratio (y) = 0.18364 0.08206
# Poissons Ratio (z) = 0.45059 0.16696
#
# Static dielectric constant tensor:
#      x y z
#    x 1.856280 0.000000 0.024660 
#    y 0.000000 1.803410 0.000000 
#    z 0.024660 0.000000 1.837170 
# 
# From -- ./inp_files/325619.got.cif
#   From: 2010.05.17/outbox.cif.g08.bks.cpg/sg12_163_cif.got.tgz:325619.got - 2010.06.03 13:09:07.
