data_PCOD9202241
_publ_section_title
;
Structure prediction by ZEFSAII (Michael W. Deem and Ramdas Pophale) SiO2 
 PCOD9202241
Probable space group: C 2/M
;
_chemical_formula_sum "Si O2"
_cell_formula_units_Z 32
_cell_length_a 13.930116
_cell_length_b 8.009844
_cell_length_c 14.041844
_cell_angle_alpha 90.000000
_cell_angle_beta 90.622550
_cell_angle_gamma 90.000000
_cell_volume 1566.669172
_symmetry_space_group_name_H-M "C 2/M"
_symmetry_group_IT_number 12
_symmetry_cell_setting 'monoclinic'
loop_
_space_group_symop_operation_xyz
x,y,z
-x,y,-z
-x,-y,-z
x,-y,z
1/2+x,1/2+y,z
1/2-x,1/2+y,-z
1/2-x,1/2-y,-z
1/2+x,1/2-y,z
loop_
_atom_site_type_symbol
_atom_site_label
_atom_site_fract_x
_atom_site_fract_y
_atom_site_fract_z
Si Si1 0.099023 0.000000 0.124285
Si Si2 0.633012 0.500000 0.909895
Si Si3 0.922954 0.315123 0.750102
Si Si4 0.712035 0.303368 0.397340
Si Si5 0.848728 0.691554 0.220489
O O1 0.118535 0.165835 0.185833
O O2 0.983430 0.000000 0.104989
O O3 0.149336 0.000000 0.022770
O O4 0.669828 0.333385 0.858049
O O5 0.896211 0.500000 0.784639
O O6 0.881447 0.289649 0.644000
O O7 0.037652 0.301827 0.755161
O O8 0.691821 0.500000 0.399031
O O9 0.750000 0.250000 0.500000
O O10 0.791712 0.271544 0.316770
O O11 0.827625 0.500000 0.190158
#
# Coordination Sequence:
#
# PCOD9202241 Si02
#       5
#     4   4   8   8   8
#     4   9  18  36  57  91 112 149 191 239 281 339
#     4   9  18  34  63  83 116 149 193 233 287 335
#     4  10  20  38  60  83 117 153 188 235 285 337
#     4  11  23  39  59  85 116 150 193 240 288 343
#     4   9  21  38  58  84 117 152 189 235 283 340
#
# _framework density 20.425498999999999
#
# number of rings (size 3 to 8) (size 9 to 14) (size 15 to 20)
#    0.000    2.250    1.250    0.750    3.500    2.000 
#    0.000   11.250    0.000    0.000    0.000    0.000 
#    0.000    0.000    0.000    0.000    0.000    0.000 
#
# Total GULP energy -89386.168905 kJ/mol
# GULP energy per Si atom -5586.635557 kJ/mol
# Density = 2.037901 g / cm^3
# Si number density = 20.425499 Si / 1000 Ang^3
#
#
#
# Elastic Constant Matrix: (Units=GPa)
#
#
# Indices 1 2 3 4 5 6 
#
# 1 48.9699 24.2310 13.6368 0.0000 3.5099 0.0000
# 2 24.2310 105.7124 41.8186 0.0000 -6.9909 0.0000
# 3 13.6368 41.8186 104.2972 0.0000 5.0904 0.0000
# 4 0.0000 0.0000 0.0000 30.6161 0.0000 -1.2908
# 5 3.5099 -6.9909 5.0904 0.0000 27.9404 0.0000
# 6 0.0000 0.0000 0.0000 -1.2908 0.0000 25.4595
#
#
#
# Elastic Compliance Matrix: (Units=1/GPa)
#
#
# Indices 1 2 3 4 5 6 
#
# 1 0.023593 -0.005402 -0.000715 0.000000 -0.004185 0.000000
# 2 -0.005402 0.012865 -0.004684 0.000000 0.004751 0.000000
# 3 -0.000715 -0.004684 0.011716 0.000000 -0.003217 0.000000
# 4 0.000000 0.000000 0.000000 0.032733 0.000000 0.001660
# 5 -0.004185 0.004751 -0.003217 0.000000 0.038091 0.000000
# 6 0.000000 0.000000 0.000000 0.001660 0.000000 0.039362
#
#
# Mechanical properties :
#
#
# Convention : Reuss Voigt Hill
#
# Bulk Modulus (GPa) = 37.63165 46.48356 42.05761
# Shear Modulus (GPa) = 26.48055 28.75609 27.61832
#
# Velocity S-wave (km/s) = 3.60453 3.75621 3.68115
# Velocity P-wave (km/s) = 5.98225 6.45129 6.22119
#
# Compressibility (1/GPa) = 0.02657337
#
# Stress axis : x y z
#
# Youngs Moduli (GPa) = 42.38618 77.73098 85.35038
#
# Poissons Ratio (x) = 0.41990 0.06098
# Poissons Ratio (y) = 0.22897 0.39977
# Poissons Ratio (z) = 0.03029 0.36408
#
# Static dielectric constant tensor:
#      x y z
#    x 1.762040 0.000000 0.018270 
#    y 0.000000 1.733970 0.000000 
#    z 0.018270 0.000000 1.675590 
# 
# From -- ./inp_files/138389.got.cif
#   From: 2010.05.17/outbox.cif.g08.bks.cpg/sg12_70_cif.got.tgz:138389.got - 2010.06.03 13:09:07.
