data_PCOD9202625
_publ_section_title
;
Structure prediction by ZEFSAII (Michael W. Deem and Ramdas Pophale) SiO2 
 PCOD9202625
Probable space group: C 2/M
;
_chemical_formula_sum "Si O2"
_cell_formula_units_Z 48
_cell_length_a 30.112456
_cell_length_b 8.867821
_cell_length_c 15.373959
_cell_angle_alpha 90.000000
_cell_angle_beta 140.059200
_cell_angle_gamma 90.000000
_cell_volume 2635.608969
_symmetry_space_group_name_H-M "C 2/M"
_symmetry_group_IT_number 12
_symmetry_cell_setting 'monoclinic'
loop_
_space_group_symop_operation_xyz
x,y,z
-x,y,-z
-x,-y,-z
x,-y,z
1/2+x,1/2+y,z
1/2-x,1/2+y,-z
1/2-x,1/2-y,-z
1/2+x,1/2-y,z
loop_
_atom_site_type_symbol
_atom_site_label
_atom_site_fract_x
_atom_site_fract_y
_atom_site_fract_z
Si Si1 0.081085 0.320261 0.625686
Si Si2 0.327361 0.180316 0.902712
Si Si3 0.176082 0.179594 0.915690
Si Si4 0.580672 0.181480 0.125748
Si Si5 0.669651 0.680264 0.606788
Si Si6 0.176295 0.819345 0.415857
O O1 0.088529 0.500000 0.647075
O O2 0.119377 0.239204 0.762891
O O3 0.119027 0.267029 0.595051
O O4 0.000000 0.283221 0.500000
O O5 0.379491 0.221548 0.903469
O O6 0.249016 0.210840 0.753479
O O7 0.332943 0.000000 0.926341
O O8 0.340558 0.266456 0.011913
O O9 0.180956 0.000000 0.918297
O O10 0.250000 0.250000 0.000000
O O11 0.619094 0.258804 0.263752
O O12 0.586592 0.000000 0.144656
O O13 0.500000 0.220812 0.000000
O O14 0.658787 0.500000 0.599887
O O15 0.660474 0.721274 0.492124
O O16 0.250000 0.750000 0.500000
O O17 0.181127 0.000000 0.418367
#
# Coordination Sequence:
#
# PCOD9202625 Si02
#       6
#     8   8   8   8   8   8
#     4  11  25  43  63  90 123 158 200 250 302 360
#     4  10  20  38  62  90 124 159 201 248 296 353
#     4  12  24  39  63  92 121 158 203 249 300 359
#     4  10  22  41  63  89 125 164 200 245 302 356
#     4  10  21  38  62  90 122 160 199 249 301 353
#     4  11  22  38  62  91 123 158 203 251 298 356
#
# _framework density 18.212109999999999
#
# number of rings (size 3 to 8) (size 9 to 14) (size 15 to 20)
#    0.000    1.333    3.333    2.500    0.000    5.000 
#    0.000    5.000    0.000    0.000    0.000    0.000 
#    0.000    0.000    0.000    0.000    0.000    0.000 
#
# Total GULP energy -134181.552234 kJ/mol
# GULP energy per Si atom -5590.898010 kJ/mol
# Density = 1.817066 g / cm^3
# Si number density = 18.212110 Si / 1000 Ang^3
#
#
#
# Elastic Constant Matrix: (Units=GPa)
#
#
# Indices 1 2 3 4 5 6 
#
# 1 168.7935 80.4195 110.3628 0.0000 -9.0555 0.0000
# 2 80.4195 77.2669 87.4926 0.0000 -5.5291 0.0000
# 3 110.3628 87.4926 174.0965 0.0000 -12.9262 0.0000
# 4 0.0000 0.0000 0.0000 34.5649 0.0000 -5.2999
# 5 -9.0555 -5.5291 -12.9262 0.0000 38.7792 0.0000
# 6 0.0000 0.0000 0.0000 -5.2999 0.0000 30.2221
#
#
#
# Elastic Compliance Matrix: (Units=1/GPa)
#
#
# Indices 1 2 3 4 5 6 
#
# 1 0.012490 -0.009377 -0.003167 0.000000 0.000524 0.000000
# 2 -0.009377 0.037094 -0.012784 0.000000 -0.001162 0.000000
# 3 -0.003167 -0.012784 0.014341 0.000000 0.002218 0.000000
# 4 0.000000 0.000000 0.000000 0.029731 0.000000 0.005214
# 5 0.000524 -0.001162 0.002218 0.000000 0.026483 0.000000
# 6 0.000000 0.000000 0.000000 0.005214 0.000000 0.034003
#
#
# Mechanical properties :
#
#
# Convention : Reuss Voigt Hill
#
# Bulk Modulus (GPa) = 75.35538 108.52298 91.93918
# Shear Modulus (GPa) = 23.89832 30.17202 27.03517
#
# Velocity S-wave (km/s) = 3.62639 4.07468 3.85705
# Velocity P-wave (km/s) = 7.68119 9.04738 8.39213
#
# Compressibility (1/GPa) = 0.01327045
#
# Stress axis : x y z
#
# Youngs Moduli (GPa) = 80.06110 26.95841 69.73221
#
# Poissons Ratio (x) = 0.25279 0.22082
# Poissons Ratio (y) = 0.75072 0.89145
# Poissons Ratio (z) = 0.25352 0.34463
#
# Static dielectric constant tensor:
#      x y z
#    x 1.603560 0.000000 -0.003460 
#    y 0.000000 1.610450 0.000000 
#    z -0.003460 0.000000 1.594340 
# 
# From -- ./inp_files/244841.got.cif
#   From: 2010.05.17/outbox.cif.g08.bks.cpg/sg12_123_cif.got.tgz:244841.got - 2010.06.03 13:09:07.
