data_PCOD9202310
_publ_section_title
;
Structure prediction by ZEFSAII (Michael W. Deem and Ramdas Pophale) SiO2 
 PCOD9202310
Probable space group: C 2/M
;
_chemical_formula_sum "Si O2"
_cell_formula_units_Z 44
_cell_length_a 17.373051
_cell_length_b 15.268589
_cell_length_c 23.258089
_cell_angle_alpha 90.000000
_cell_angle_beta 158.744958
_cell_angle_gamma 90.000000
_cell_volume 2236.562621
_symmetry_space_group_name_H-M "C 2/M"
_symmetry_group_IT_number 12
_symmetry_cell_setting 'monoclinic'
loop_
_space_group_symop_operation_xyz
x,y,z
-x,y,-z
-x,-y,-z
x,-y,z
1/2+x,1/2+y,z
1/2-x,1/2+y,-z
1/2-x,1/2-y,-z
1/2+x,1/2-y,z
loop_
_atom_site_type_symbol
_atom_site_label
_atom_site_fract_x
_atom_site_fract_y
_atom_site_fract_z
Si Si1 0.038319 0.500000 0.458736
Si Si2 0.303904 0.312160 0.943037
Si Si3 0.365058 0.137603 0.062751
Si Si4 0.223301 0.328297 0.754644
Si Si5 0.254789 0.500000 0.189080
Si Si6 0.041055 0.000000 0.792854
Si Si7 0.316080 0.638569 0.327030
O O1 0.289737 0.500000 0.622808
O O2 0.000000 0.500000 0.500000
O O3 0.929646 0.411143 0.359504
O O4 0.140430 0.359282 0.871828
O O5 0.226542 0.299735 0.824078
O O6 0.340695 0.225059 0.006817
O O7 0.536606 0.355050 0.096927
O O8 0.594578 0.108053 0.201464
O O9 0.157871 0.082142 0.903087
O O10 0.173959 0.241947 0.682385
O O11 0.379015 0.500000 0.216481
O O12 0.321067 0.584383 0.271840
O O13 0.000000 0.500000 0.000000
O O14 0.500000 0.618775 0.500000
#
# Coordination Sequence:
#
# PCOD9202310 Si02
#       7
#     4   8   8   8   4   4   8
#     4  12  26  42  59  90 133 173 215 261 317 373
#     4   9  20  37  63  87 120 163 220 256 312 374
#     4  10  20  38  60  91 120 163 210 261 313 386
#     4  10  22  40  62  89 128 173 211 261 317 375
#     4  12  23  42  68  94 127 163 212 263 321 390
#     4  12  24  39  66  91 123 171 216 257 322 386
#     4  11  23  40  66  95 131 164 207 271 328 375
#
# _framework density 19.673047
#
# number of rings (size 3 to 8) (size 9 to 14) (size 15 to 20)
#    0.000    1.455    1.818    3.000    2.545    6.545 
#    0.000    2.727    0.000    0.000    0.000    0.000 
#    0.000    0.000    0.000    0.000    0.000    0.000 
#
# Total GULP energy -122657.435871 kJ/mol
# GULP energy per Si atom -5575.337994 kJ/mol
# Density = 1.962827 g / cm^3
# Si number density = 19.673047 Si / 1000 Ang^3
#
#
#
# Elastic Constant Matrix: (Units=GPa)
#
#
# Indices 1 2 3 4 5 6 
#
# 1 145.2958 9.5250 35.2418 -0.0410 1.4522 -0.0197
# 2 9.5250 66.0892 37.4599 -0.1319 9.1067 -0.0258
# 3 35.2418 37.4599 113.6401 -0.0963 2.7397 -0.0268
# 4 -0.0410 -0.1319 -0.0963 23.4968 0.0041 4.8962
# 5 1.4522 9.1067 2.7397 0.0041 33.5239 0.0069
# 6 -0.0197 -0.0258 -0.0268 4.8962 0.0069 32.4369
#
#
#
# Elastic Compliance Matrix: (Units=1/GPa)
#
#
# Indices 1 2 3 4 5 6 
#
# 1 0.007448 0.000323 -0.002411 0.000005 -0.000213 0.000002
# 2 0.000323 0.019345 -0.006362 0.000084 -0.004749 -0.000001
# 3 -0.002411 -0.006362 0.011623 0.000007 0.000883 0.000002
# 4 0.000005 0.000084 0.000007 0.043942 -0.000028 -0.006633
# 5 -0.000213 -0.004749 0.000883 -0.000028 0.031057 -0.000006
# 6 0.000002 -0.000001 0.000002 -0.006633 -0.000006 0.031830
#
#
# Mechanical properties :
#
#
# Convention : Reuss Voigt Hill
#
# Bulk Modulus (GPa) = 46.47855 54.38651 50.43253
# Shear Modulus (GPa) = 29.53001 34.07807 31.80404
#
# Velocity S-wave (km/s) = 3.87853 4.16651 4.02510
# Velocity P-wave (km/s) = 6.61318 7.13103 6.87698
#
# Compressibility (1/GPa) = 0.02151530
#
# Stress axis : x y z
#
# Youngs Moduli (GPa) = 134.25886 51.69179 86.03324
#
# Poissons Ratio (x) = -0.01667 0.20743
# Poissons Ratio (y) = -0.04330 0.54738
# Poissons Ratio (z) = 0.32370 0.32888
#
# Static dielectric constant tensor:
#      x y z
#    x 1.642170 -0.000020 0.023010 
#    y -0.000020 1.761960 -0.000010 
#    z 0.023010 -0.000010 1.663410 
# 
# From -- ./inp_files/344162.got.cif
#   From: 2010.05.17/outbox.cif.g08.bks.cpg/sg12_173_cif.got.tgz:344162.got - 2010.06.03 13:09:07.
