data_PCOD9202621
_publ_section_title
;
Structure prediction by ZEFSAII (Michael W. Deem and Ramdas Pophale) SiO2 
 PCOD9202621
Probable space group: C 2/M
;
_chemical_formula_sum "Si O2"
_cell_formula_units_Z 64
_cell_length_a 29.225242
_cell_length_b 8.983438
_cell_length_c 15.443861
_cell_angle_alpha 90.000000
_cell_angle_beta 126.422501
_cell_angle_gamma 90.000000
_cell_volume 3262.641532
_symmetry_space_group_name_H-M "C 2/M"
_symmetry_group_IT_number 12
_symmetry_cell_setting 'monoclinic'
loop_
_space_group_symop_operation_xyz
x,y,z
-x,y,-z
-x,-y,-z
x,-y,z
1/2+x,1/2+y,z
1/2-x,1/2+y,-z
1/2-x,1/2-y,-z
1/2+x,1/2-y,z
loop_
_atom_site_type_symbol
_atom_site_label
_atom_site_fract_x
_atom_site_fract_y
_atom_site_fract_z
Si Si1 0.238086 0.321428 0.579336
Si Si2 0.703555 0.677483 0.010532
Si Si3 0.460429 0.177695 0.728555
Si Si4 0.120570 0.175274 0.502108
Si Si5 0.412955 0.174960 0.175393
Si Si6 0.937355 0.678038 0.899619
Si Si7 0.433578 0.171034 0.402864
Si Si8 0.822592 0.821018 0.828146
O O1 0.237764 0.500000 0.572207
O O2 0.250000 0.250000 0.500000
O O3 0.177606 0.263009 0.543602
O O4 0.285586 0.277216 0.703214
O O5 0.709160 0.500000 0.011351
O O6 0.708208 0.722436 0.116891
O O7 0.750000 0.750000 0.000000
O O8 0.640599 0.728529 0.912178
O O9 0.428060 0.266750 0.617991
O O10 0.527594 0.213297 0.804205
O O11 0.433797 0.206929 0.792641
O O12 0.456166 0.000000 0.705454
O O13 0.101388 0.217536 0.577066
O O14 0.128805 0.000000 0.501031
O O15 0.423890 0.191402 0.290285
O O16 0.400933 0.000000 0.144574
O O17 0.934482 0.500000 0.909884
O O18 0.885220 0.752562 0.890417
O O19 0.000000 0.727676 0.000000
O O20 0.500000 0.187574 0.500000
O O21 0.417491 0.000000 0.406957
O O22 0.827529 0.000000 0.834055
#
# Coordination Sequence:
#
# PCOD9202621 Si02
#       8
#     8   8   8   8   8   8   8   8
#     4  11  24  44  67  92 125 165 211 259 312 373
#     4  11  25  44  64  90 122 163 211 260 312 369
#     4  10  20  38  62  90 123 162 202 246 306 374
#     4  12  25  38  58  91 127 161 205 253 307 368
#     4  10  21  39  65  91 121 161 206 255 312 369
#     4  10  21  37  63  94 122 153 198 250 299 356
#     4  10  20  39  64  89 121 166 208 249 311 376
#     4  10  24  44  64  88 123 164 205 250 308 371
#
# _framework density 19.616008000000001
#
# number of rings (size 3 to 8) (size 9 to 14) (size 15 to 20)
#    0.000    1.500    1.250    3.375    1.750    7.000 
#    0.000    0.000    0.000    0.000    0.000    0.000 
#    0.000    0.000    0.000    0.000    0.000    0.000 
#
# Total GULP energy -178930.121747 kJ/mol
# GULP energy per Si atom -5591.566305 kJ/mol
# Density = 1.957136 g / cm^3
# Si number density = 19.616008 Si / 1000 Ang^3
#
#
#
# Elastic Constant Matrix: (Units=GPa)
#
#
# Indices 1 2 3 4 5 6 
#
# 1 127.2475 41.0278 40.0256 0.0000 -4.9280 0.0000
# 2 41.0278 44.4649 34.9582 0.0000 -3.4533 0.0000
# 3 40.0256 34.9582 85.7750 0.0000 -4.0512 0.0000
# 4 0.0000 0.0000 0.0000 27.5757 0.0000 1.6381
# 5 -4.9280 -3.4533 -4.0512 0.0000 28.2681 0.0000
# 6 0.0000 0.0000 0.0000 1.6381 0.0000 34.1206
#
#
#
# Elastic Compliance Matrix: (Units=1/GPa)
#
#
# Indices 1 2 3 4 5 6 
#
# 1 0.011329 -0.009228 -0.001496 0.000000 0.000633 0.000000
# 2 -0.009228 0.040738 -0.012220 0.000000 0.001617 0.000000
# 3 -0.001496 -0.012220 0.017372 0.000000 0.000736 0.000000
# 4 0.000000 0.000000 0.000000 0.036368 0.000000 -0.001746
# 5 0.000633 0.001617 0.000736 0.000000 0.035789 0.000000
# 6 0.000000 0.000000 0.000000 -0.001746 0.000000 0.029392
#
#
# Mechanical properties :
#
#
# Convention : Reuss Voigt Hill
#
# Bulk Modulus (GPa) = 42.46305 54.39009 48.42657
# Shear Modulus (GPa) = 22.24940 27.42460 24.83700
#
# Velocity S-wave (km/s) = 3.37151 3.74314 3.56217
# Velocity P-wave (km/s) = 6.07044 6.81682 6.45443
#
# Compressibility (1/GPa) = 0.02354989
#
# Stress axis : x y z
#
# Youngs Moduli (GPa) = 88.26800 24.54719 57.56547
#
# Poissons Ratio (x) = 0.22653 0.08609
# Poissons Ratio (y) = 0.81457 0.70347
# Poissons Ratio (z) = 0.13201 0.29998
#
# Static dielectric constant tensor:
#      x y z
#    x 1.717160 0.000000 -0.031500 
#    y 0.000000 1.660490 0.000000 
#    z -0.031500 0.000000 1.692780 
# 
# From -- ./inp_files/249989.got.cif
#   From: 2010.05.17/outbox.cif.g08.bks.cpg/sg12_125_cif.got.tgz:249989.got - 2010.06.03 13:09:07.
