data_PCOD9202753
_publ_section_title
;
Structure prediction by ZEFSAII (Michael W. Deem and Ramdas Pophale) SiO2 
 PCOD9202753
Probable space group: C 2/M
;
_chemical_formula_sum "Si O2"
_cell_formula_units_Z 64
_cell_length_a 18.896003
_cell_length_b 31.743295
_cell_length_c 11.940465
_cell_angle_alpha 90.000000
_cell_angle_beta 153.891222
_cell_angle_gamma 90.000000
_cell_volume 3151.894091
_symmetry_space_group_name_H-M "C 2/M"
_symmetry_group_IT_number 12
_symmetry_cell_setting 'monoclinic'
loop_
_space_group_symop_operation_xyz
x,y,z
-x,y,-z
-x,-y,-z
x,-y,z
1/2+x,1/2+y,z
1/2-x,1/2+y,-z
1/2-x,1/2-y,-z
1/2+x,1/2-y,z
loop_
_atom_site_type_symbol
_atom_site_label
_atom_site_fract_x
_atom_site_fract_y
_atom_site_fract_z
Si Si1 0.683480 0.952374 0.263539
Si Si2 0.280519 0.180098 0.842495
Si Si3 0.175340 0.271772 0.692479
Si Si4 0.326488 0.547841 0.220761
Si Si5 0.175476 0.832697 0.942246
Si Si6 0.159667 0.870102 0.462951
Si Si7 0.624930 0.160488 0.428037
Si Si8 0.073436 0.598714 0.713824
O O1 0.736198 0.954758 0.209914
O O2 0.801734 0.919591 0.490628
O O3 0.685982 0.000000 0.314173
O O4 0.500000 0.936744 0.000000
O O5 0.225787 0.225758 0.723070
O O6 0.249099 0.146106 0.702244
O O7 0.181538 0.170979 0.816474
O O8 0.466594 0.178464 0.141285
O O9 0.300056 0.287729 0.964696
O O10 0.174319 0.306116 0.592662
O O11 0.000000 0.269389 0.500000
O O12 0.500000 0.567205 0.500000
O O13 0.356438 0.500000 0.220965
O O14 0.211322 0.572767 0.973438
O O15 0.334126 0.859492 0.197448
O O16 0.022893 0.856826 0.774046
O O17 0.235913 0.848089 0.463195
O O18 0.562089 0.116788 0.395220
O O19 0.000000 0.577024 0.500000
#
# Coordination Sequence:
#
# PCOD9202753 Si02
#       8
#     8   8   8   8   8   8   8   8
#     4  10  20  38  63  90 124 164 201 245 312 385
#     4  11  24  39  66  88 121 165 214 260 310 378
#     4  12  22  43  64  84 117 171 221 251 299 381
#     4  10  21  36  61  97 129 156 200 268 325 374
#     4  11  22  40  62  87 117 168 210 256 308 375
#     4  12  24  39  61  99 127 155 206 266 321 370
#     4  11  24  42  60  86 127 163 206 264 315 370
#     4  11  20  40  64  86 121 173 216 254 313 388
#
# _framework density 20.305250999999998
#
# number of rings (size 3 to 8) (size 9 to 14) (size 15 to 20)
#    0.000    1.000    3.750    5.625    1.750    1.250 
#    2.250    0.000    0.000    0.000    0.000    0.875 
#    0.000    0.500    0.000    0.000    0.000    0.000 
#
# Total GULP energy -178863.092308 kJ/mol
# GULP energy per Si atom -5589.471635 kJ/mol
# Density = 2.025904 g / cm^3
# Si number density = 20.305251 Si / 1000 Ang^3
#
#
#
# Elastic Constant Matrix: (Units=GPa)
#
#
# Indices 1 2 3 4 5 6 
#
# 1 92.7405 8.5408 34.1470 0.0000 11.7081 0.0000
# 2 8.5408 76.3321 9.2341 0.0000 -2.8114 0.0000
# 3 34.1470 9.2341 48.0033 0.0000 -1.3086 0.0000
# 4 0.0000 0.0000 0.0000 32.2060 0.0000 -2.9600
# 5 11.7081 -2.8114 -1.3086 0.0000 33.6114 0.0000
# 6 0.0000 0.0000 0.0000 -2.9600 0.0000 29.9888
#
#
#
# Elastic Compliance Matrix: (Units=1/GPa)
#
#
# Indices 1 2 3 4 5 6 
#
# 1 0.015729 -0.000621 -0.011232 0.000000 -0.005968 0.000000
# 2 -0.000621 0.013472 -0.002116 0.000000 0.001261 0.000000
# 3 -0.011232 -0.002116 0.029362 0.000000 0.004879 0.000000
# 4 0.000000 0.000000 0.000000 0.031334 0.000000 0.003093
# 5 -0.005968 0.001261 0.004879 0.000000 0.032126 0.000000
# 6 0.000000 0.000000 0.000000 0.003093 0.000000 0.033651
#
#
# Mechanical properties :
#
#
# Convention : Reuss Voigt Hill
#
# Bulk Modulus (GPa) = 32.65184 35.65777 34.15480
# Shear Modulus (GPa) = 25.79703 30.17150 27.98427
#
# Velocity S-wave (km/s) = 3.56822 3.85891 3.71641
# Velocity P-wave (km/s) = 5.75253 6.11996 5.93909
#
# Compressibility (1/GPa) = 0.03062615
#
# Stress axis : x y z
#
# Youngs Moduli (GPa) = 63.57655 74.22536 34.05796
#
# Poissons Ratio (x) = 0.04609 0.38254
# Poissons Ratio (y) = 0.03948 0.07205
# Poissons Ratio (z) = 0.71410 0.15703
#
# Static dielectric constant tensor:
#      x y z
#    x 1.678930 0.000000 -0.008900 
#    y 0.000000 1.755770 0.000000 
#    z -0.008900 0.000000 1.735460 
# 
# From -- ./inp_files/161264.got.cif
#   From: 2010.05.17/outbox.cif.g08.bks.cpg/sg12_81_cif.got.tgz:161264.got - 2010.06.03 13:09:07.
