data_PCOD9202643
_publ_section_title
;
Structure prediction by ZEFSAII (Michael W. Deem and Ramdas Pophale) SiO2 
 PCOD9202643
Probable space group: C 2/M
;
_chemical_formula_sum "Si O2"
_cell_formula_units_Z 56
_cell_length_a 11.849278
_cell_length_b 22.052120
_cell_length_c 11.800597
_cell_angle_alpha 90.000000
_cell_angle_beta 121.699539
_cell_angle_gamma 90.000000
_cell_volume 2623.502758
_symmetry_space_group_name_H-M "C 2/M"
_symmetry_group_IT_number 12
_symmetry_cell_setting 'monoclinic'
loop_
_space_group_symop_operation_xyz
x,y,z
-x,y,-z
-x,-y,-z
x,-y,z
1/2+x,1/2+y,z
1/2-x,1/2+y,-z
1/2-x,1/2-y,-z
1/2+x,1/2-y,z
loop_
_atom_site_type_symbol
_atom_site_label
_atom_site_fract_x
_atom_site_fract_y
_atom_site_fract_z
Si Si1 0.408490 0.727602 0.765153
Si Si2 0.340813 0.151029 0.789886
Si Si3 0.879245 0.182777 0.512355
Si Si4 0.041215 0.430337 0.323065
Si Si5 0.772443 0.633413 0.221163
Si Si6 0.186057 0.067985 0.391855
Si Si7 0.801237 0.818910 0.053234
O O1 0.440963 0.792373 0.836445
O O2 0.373982 0.728428 0.614417
O O3 0.279858 0.697554 0.756503
O O4 0.540454 0.687891 0.849933
O O5 0.237860 0.170868 0.637385
O O6 0.408854 0.091286 0.774974
O O7 0.267470 0.153740 0.870758
O O8 0.898015 0.117812 0.585057
O O9 0.000000 0.202093 0.500000
O O10 0.993016 0.500000 0.296380
O O11 0.166649 0.428048 0.474311
O O12 0.926902 0.384361 0.302981
O O13 0.701921 0.586475 0.269334
O O14 0.729352 0.637678 0.068652
O O15 0.136699 0.000000 0.379815
O O16 0.750000 0.750000 0.000000
#
# Coordination Sequence:
#
# PCOD9202643 Si02
#       7
#     8   8   8   8   8   8   8
#     4  11  23  40  62  94 131 165 211 264 322 383
#     4  11  23  40  65  94 126 169 214 262 320 384
#     4  10  20  38  62  93 125 158 205 271 326 377
#     4  10  22  42  68  95 127 166 215 270 322 375
#     4  11  22  36  62  92 123 165 211 256 310 372
#     4   9  20  39  64  93 122 162 215 265 318 376
#     4  12  24  40  61  88 131 176 211 251 315 399
#
# _framework density 21.345507999999999
#
# number of rings (size 3 to 8) (size 9 to 14) (size 15 to 20)
#    0.000    1.429    2.857    2.571    0.000    3.143 
#    0.000    3.571    0.000   16.286    0.000    0.000 
#    0.000    0.000    0.000    0.000    0.000    0.000 
#
# Total GULP energy -156281.681585 kJ/mol
# GULP energy per Si atom -5581.488628 kJ/mol
# Density = 2.129693 g / cm^3
# Si number density = 21.345508 Si / 1000 Ang^3
#
#
#
# Elastic Constant Matrix: (Units=GPa)
#
#
# Indices 1 2 3 4 5 6 
#
# 1 64.4321 20.9191 33.0577 0.0000 -31.7979 0.0000
# 2 20.9191 68.0341 27.4190 0.0000 -13.8039 0.0000
# 3 33.0577 27.4190 96.8806 0.0000 -30.7285 0.0000
# 4 0.0000 0.0000 0.0000 15.2467 0.0000 4.1353
# 5 -31.7979 -13.8039 -30.7285 0.0000 49.8179 0.0000
# 6 0.0000 0.0000 0.0000 4.1353 0.0000 11.4936
#
#
#
# Elastic Compliance Matrix: (Units=1/GPa)
#
#
# Indices 1 2 3 4 5 6 
#
# 1 0.024689 -0.003663 -0.003371 0.000000 0.012664 0.000000
# 2 -0.003663 0.017316 -0.003569 0.000000 0.000259 0.000000
# 3 -0.003371 -0.003569 0.014280 0.000000 0.005668 0.000000
# 4 0.000000 0.000000 0.000000 0.072680 0.000000 -0.026150
# 5 0.012664 0.000259 0.005668 0.000000 0.031724 0.000000
# 6 0.000000 0.000000 0.000000 -0.026150 0.000000 0.096413
#
#
# Mechanical properties :
#
#
# Convention : Reuss Voigt Hill
#
# Bulk Modulus (GPa) = 28.50709 43.57093 36.03901
# Shear Modulus (GPa) = 17.24135 25.17504 21.20819
#
# Velocity S-wave (km/s) = 2.84514 3.43797 3.15551
# Velocity P-wave (km/s) = 4.91703 6.01798 5.49515
#
# Compressibility (1/GPa) = 0.03507899
#
# Stress axis : x y z
#
# Youngs Moduli (GPa) = 40.50394 57.75147 70.02881
#
# Poissons Ratio (x) = 0.21156 0.23605
# Poissons Ratio (y) = 0.14838 0.24991
# Poissons Ratio (z) = 0.13653 0.20609
#
# Static dielectric constant tensor:
#      x y z
#    x 1.781140 0.000000 0.024950 
#    y 0.000000 1.785650 0.000000 
#    z 0.024950 0.000000 1.797680 
# 
# From -- ./inp_files/135461.got.cif
#   From: 2010.05.17/outbox.cif.g08.bks.cpg/sg12_68_cif.got.tgz:135461.got - 2010.06.03 13:09:07.
