data_PCOD9202948
_publ_section_title
;
Structure prediction by ZEFSAII (Michael W. Deem and Ramdas Pophale) SiO2 
 PCOD9202948
Probable space group: C 2/M
;
_chemical_formula_sum "Si O2"
_cell_formula_units_Z 44
_cell_length_a 10.457837
_cell_length_b 18.067409
_cell_length_c 13.142417
_cell_angle_alpha 90.000000
_cell_angle_beta 122.147360
_cell_angle_gamma 90.000000
_cell_volume 2102.487931
_symmetry_space_group_name_H-M "C 2/M"
_symmetry_group_IT_number 12
_symmetry_cell_setting 'monoclinic'
loop_
_space_group_symop_operation_xyz
x,y,z
-x,y,-z
-x,-y,-z
x,-y,z
1/2+x,1/2+y,z
1/2-x,1/2+y,-z
1/2-x,1/2-y,-z
1/2+x,1/2-y,z
loop_
_atom_site_type_symbol
_atom_site_label
_atom_site_fract_x
_atom_site_fract_y
_atom_site_fract_z
Si Si1 0.129929 0.914294 0.404761
Si Si2 0.805131 0.681701 0.322602
Si Si3 0.000000 0.803234 0.500000
Si Si4 0.936207 0.584194 0.663589
Si Si5 0.817784 0.269164 0.919888
Si Si6 0.139673 0.581533 0.137214
O O1 0.193781 0.875062 0.331205
O O2 0.016242 0.857985 0.411208
O O3 0.272906 0.915262 0.542553
O O4 0.081988 0.000000 0.371660
O O5 0.733575 0.714802 0.190716
O O6 0.858306 0.748705 0.418977
O O7 0.955005 0.638463 0.350801
O O8 0.996043 0.500000 0.681910
O O9 0.919685 0.602585 0.775685
O O10 0.764337 0.351550 0.865945
O O11 0.750000 0.250000 0.000000
O O12 0.000000 0.268915 0.000000
O O13 0.210714 0.500000 0.175411
O O14 0.000000 0.575254 0.000000
#
# Coordination Sequence:
#
# PCOD9202948 Si02
#       6
#     8   8   4   8   8   8
#     4  11  24  42  61  93 134 174 214 264 333 398
#     4  12  23  39  68  93 131 161 219 269 325 388
#     4  12  25  36  65 100 130 168 208 274 333 386
#     4  10  20  38  64  95 126 167 215 266 322 391
#     4  11  25  42  66  95 128 170 216 269 327 390
#     4   9  18  35  60  87 118 159 212 261 311 375
#
# _framework density 20.927586999999999
#
# number of rings (size 3 to 8) (size 9 to 14) (size 15 to 20)
#    0.000    1.273    1.818    4.636    5.091    1.455 
#    0.000    1.818    0.000    2.727    0.000    0.000 
#    0.000    0.000    0.000    0.000    0.000    0.000 
#
# Total GULP energy -122978.899700 kJ/mol
# GULP energy per Si atom -5589.949986 kJ/mol
# Density = 2.087995 g / cm^3
# Si number density = 20.927587 Si / 1000 Ang^3
#
#
#
# Elastic Constant Matrix: (Units=GPa)
#
#
# Indices 1 2 3 4 5 6 
#
# 1 62.4856 43.4799 21.8985 0.0000 -17.3536 0.0000
# 2 43.4799 147.3850 35.8593 0.0000 -31.2854 0.0000
# 3 21.8985 35.8593 106.2902 0.0000 -25.0169 0.0000
# 4 0.0000 0.0000 0.0000 32.4606 0.0000 -7.4304
# 5 -17.3536 -31.2854 -25.0169 0.0000 37.5719 0.0000
# 6 0.0000 0.0000 0.0000 -7.4304 0.0000 25.8367
#
#
#
# Elastic Compliance Matrix: (Units=1/GPa)
#
#
# Indices 1 2 3 4 5 6 
#
# 1 0.021274 -0.004887 -0.001636 0.000000 0.004667 0.000000
# 2 -0.004887 0.009539 -0.001035 0.000000 0.004996 0.000000
# 3 -0.001636 -0.001035 0.011519 0.000000 0.006052 0.000000
# 4 0.000000 0.000000 0.000000 0.032978 0.000000 0.009484
# 5 0.004667 0.004996 0.006052 0.000000 0.036962 0.000000
# 6 0.000000 0.000000 0.000000 0.009484 0.000000 0.041432
#
#
# Mechanical properties :
#
#
# Convention : Reuss Voigt Hill
#
# Bulk Modulus (GPa) = 36.74377 57.62623 47.18500
# Shear Modulus (GPa) = 28.10698 33.50205 30.80452
#
# Velocity S-wave (km/s) = 3.66875 4.00541 3.84077
# Velocity P-wave (km/s) = 5.96171 6.99906 6.50111
#
# Compressibility (1/GPa) = 0.02721550
#
# Stress axis : x y z
#
# Youngs Moduli (GPa) = 47.00598 104.82997 86.81336
#
# Poissons Ratio (x) = 0.51234 0.14199
# Poissons Ratio (y) = 0.22973 0.08989
# Poissons Ratio (z) = 0.07688 0.10854
#
# Static dielectric constant tensor:
#      x y z
#    x 1.766630 0.000000 0.054470 
#    y 0.000000 1.792830 0.000000 
#    z 0.054470 0.000000 1.775630 
# 
# From -- ./inp_files/120823.got.cif
#   From: 2010.05.17/outbox.cif.g08.bks.cpg/sg12_61_cif.got.tgz:120823.got - 2010.06.03 13:09:07.
