data_PCOD9202236
_publ_section_title
;
Structure prediction by ZEFSAII (Michael W. Deem and Ramdas Pophale) SiO2 
 PCOD9202236
Probable space group: C 2/M
;
_chemical_formula_sum "Si O2"
_cell_formula_units_Z 64
_cell_length_a 15.330524
_cell_length_b 9.017087
_cell_length_c 32.352278
_cell_angle_alpha 90.000000
_cell_angle_beta 131.828520
_cell_angle_gamma 90.000000
_cell_volume 3332.486579
_symmetry_space_group_name_H-M "C 2/M"
_symmetry_group_IT_number 12
_symmetry_cell_setting 'monoclinic'
loop_
_space_group_symop_operation_xyz
x,y,z
-x,y,-z
-x,-y,-z
x,-y,z
1/2+x,1/2+y,z
1/2-x,1/2+y,-z
1/2-x,1/2-y,-z
1/2+x,1/2-y,z
loop_
_atom_site_type_symbol
_atom_site_label
_atom_site_fract_x
_atom_site_fract_y
_atom_site_fract_z
Si Si1 0.871221 0.821059 0.582446
Si Si2 0.600287 0.820992 0.498107
Si Si3 0.399909 0.832001 0.875843
Si Si4 0.241421 0.172658 0.103918
Si Si5 0.847281 0.673036 0.003055
Si Si6 0.580278 0.680168 0.707458
Si Si7 0.167656 0.672966 0.240505
Si Si8 0.045981 0.176485 0.790757
O O1 0.736586 0.783968 0.552068
O O2 0.909340 0.750158 0.550662
O O3 0.963969 0.774173 0.646556
O O4 0.876193 0.000000 0.579764
O O5 0.500000 0.775431 0.500000
O O6 0.592246 0.000000 0.492154
O O7 0.322416 0.709144 0.873447
O O8 0.386938 0.821508 0.822857
O O9 0.358170 0.000000 0.874162
O O10 0.529996 0.815857 0.934528
O O11 0.161366 0.247605 0.043711
O O12 0.367810 0.248371 0.148762
O O13 0.254592 0.000000 0.099679
O O14 0.821748 0.500000 0.989089
O O15 0.750000 0.750000 0.000000
O O16 0.582884 0.500000 0.708845
O O17 0.698921 0.725838 0.721855
O O18 0.581045 0.725143 0.755554
O O19 0.165927 0.500000 0.253002
O O20 0.085655 0.771209 0.242988
O O21 0.056296 0.000000 0.797161
#
# Coordination Sequence:
#
# PCOD9202236 Si02
#       8
#     8   8   8   8   8   8   8   8
#     4   9  18  34  56  82 112 153 199 235 282 342
#     4   9  18  33  54  82 118 156 191 237 288 332
#     4  10  21  39  60  80 108 147 186 233 293 354
#     4  12  24  38  58  83 112 147 190 237 288 347
#     4  11  23  38  58  84 113 145 186 234 292 352
#     4   9  19  37  59  81 114 154 190 236 292 349
#     4  10  20  38  60  83 113 148 188 237 296 351
#     4  11  22  39  61  85 113 150 193 238 293 351
#
# _framework density 19.204878000000001
#
# number of rings (size 3 to 8) (size 9 to 14) (size 15 to 20)
#    0.000    1.875    1.250    3.000    0.000    5.250 
#    0.000    3.125    0.000    0.000    0.000    0.000 
#    0.000    0.000    0.000    0.000    0.000    0.000 
#
# Total GULP energy -178603.547050 kJ/mol
# GULP energy per Si atom -5581.360845 kJ/mol
# Density = 1.916117 g / cm^3
# Si number density = 19.204878 Si / 1000 Ang^3
#
#
#
# Elastic Constant Matrix: (Units=GPa)
#
#
# Indices 1 2 3 4 5 6 
#
# 1 96.1698 27.8440 16.9456 0.0000 17.8656 0.0000
# 2 27.8440 57.8641 27.5119 0.0000 10.2108 0.0000
# 3 16.9456 27.5119 90.4096 0.0000 20.7804 0.0000
# 4 0.0000 0.0000 0.0000 18.8732 0.0000 -2.4468
# 5 17.8656 10.2108 20.7804 0.0000 20.4408 0.0000
# 6 0.0000 0.0000 0.0000 -2.4468 0.0000 32.5275
#
#
#
# Elastic Compliance Matrix: (Units=1/GPa)
#
#
# Indices 1 2 3 4 5 6 
#
# 1 0.013713 -0.005432 0.001584 0.000000 -0.010883 0.000000
# 2 -0.005432 0.022758 -0.005723 0.000000 -0.000803 0.000000
# 3 0.001584 -0.005723 0.015876 0.000000 -0.014666 0.000000
# 4 0.000000 0.000000 0.000000 0.053507 0.000000 0.004025
# 5 -0.010883 -0.000803 -0.014666 0.000000 0.073744 0.000000
# 6 0.000000 0.000000 0.000000 0.004025 0.000000 0.031046
#
#
# Mechanical properties :
#
#
# Convention : Reuss Voigt Hill
#
# Bulk Modulus (GPa) = 30.11408 43.22740 36.67074
# Shear Modulus (GPa) = 20.75944 25.84445 23.30195
#
# Velocity S-wave (km/s) = 3.29134 3.67239 3.48707
# Velocity P-wave (km/s) = 5.49166 6.36705 5.94549
#
# Compressibility (1/GPa) = 0.03320706
#
# Stress axis : x y z
#
# Youngs Moduli (GPa) = 72.92099 43.94030 62.98746
#
# Poissons Ratio (x) = 0.23866 -0.09976
# Poissons Ratio (y) = 0.39607 0.36046
# Poissons Ratio (z) = -0.11550 0.25146
#
# Static dielectric constant tensor:
#      x y z
#    x 1.698530 0.000000 0.004230 
#    y 0.000000 1.647700 0.000000 
#    z 0.004230 0.000000 1.687030 
# 
# From -- ./inp_files/359816.got.cif
#   From: 2010.05.17/outbox.cif.g08.bks.cpg/sg12_180_cif.got.tgz:359816.got - 2010.06.03 13:09:07.
