data_PCOD9202624
_publ_section_title
;
Structure prediction by ZEFSAII (Michael W. Deem and Ramdas Pophale) SiO2 
 PCOD9202624
Probable space group: C 2/M
;
_chemical_formula_sum "Si O2"
_cell_formula_units_Z 48
_cell_length_a 8.110476
_cell_length_b 20.800489
_cell_length_c 14.114699
_cell_angle_alpha 90.000000
_cell_angle_beta 97.534253
_cell_angle_gamma 90.000000
_cell_volume 2360.618549
_symmetry_space_group_name_H-M "C 2/M"
_symmetry_group_IT_number 12
_symmetry_cell_setting 'monoclinic'
loop_
_space_group_symop_operation_xyz
x,y,z
-x,y,-z
-x,-y,-z
x,-y,z
1/2+x,1/2+y,z
1/2-x,1/2+y,-z
1/2-x,1/2-y,-z
1/2+x,1/2-y,z
loop_
_atom_site_type_symbol
_atom_site_label
_atom_site_fract_x
_atom_site_fract_y
_atom_site_fract_z
Si Si1 0.186664 0.926289 0.616335
Si Si2 0.251090 0.244965 0.192348
Si Si3 0.681100 0.845245 0.550601
Si Si4 0.527630 0.686880 0.318804
Si Si5 0.558325 0.927190 0.720615
Si Si6 0.018373 0.341511 0.893495
O O1 0.239437 0.892669 0.521812
O O2 0.360516 0.927458 0.685813
O O3 0.055834 0.880219 0.659070
O O4 0.130326 0.000000 0.600358
O O5 0.381102 0.262473 0.286342
O O6 0.125035 0.193038 0.226784
O O7 0.151341 0.308690 0.157136
O O8 0.347544 0.215351 0.111379
O O9 0.500000 0.822356 0.500000
O O10 0.833561 0.798590 0.590920
O O11 0.640111 0.885875 0.642651
O O12 0.575708 0.895647 0.824563
O O13 0.620245 0.000000 0.721104
O O14 0.000000 0.361586 0.000000
#
# Coordination Sequence:
#
# PCOD9202624 Si02
#       6
#     8   8   8   8   8   8
#     4  10  21  38  61  89 119 160 204 240 287 348
#     4  10  23  40  61  88 118 155 201 244 297 354
#     4  10  21  37  59  89 119 157 205 239 286 343
#     4  11  21  39  62  83 123 158 195 248 290 345
#     4  10  20  38  62  90 124 153 191 250 301 348
#     4  11  21  40  67  89 113 152 199 248 300 359
#
# _framework density 20.333653000000002
#
# number of rings (size 3 to 8) (size 9 to 14) (size 15 to 20)
#    0.000    1.667    3.333    1.500    0.000    4.333 
#    0.000    5.833    0.000    0.000    0.000    3.500 
#    0.000    0.000    0.000    0.000    0.000    0.000 
#
# Total GULP energy -133885.240970 kJ/mol
# GULP energy per Si atom -5578.551707 kJ/mol
# Density = 2.028737 g / cm^3
# Si number density = 20.333653 Si / 1000 Ang^3
#
#
#
# Elastic Constant Matrix: (Units=GPa)
#
#
# Indices 1 2 3 4 5 6 
#
# 1 78.4533 24.7558 32.4928 0.0000 -8.1266 0.0000
# 2 24.7558 44.6992 46.2766 0.0000 -9.8722 0.0000
# 3 32.4928 46.2766 118.2155 0.0000 -12.9469 0.0000
# 4 0.0000 0.0000 0.0000 17.6933 0.0000 -4.1955
# 5 -8.1266 -9.8722 -12.9469 0.0000 21.7545 0.0000
# 6 0.0000 0.0000 0.0000 -4.1955 0.0000 25.1974
#
#
#
# Elastic Compliance Matrix: (Units=1/GPa)
#
#
# Indices 1 2 3 4 5 6 
#
# 1 0.015679 -0.006751 -0.001456 0.000000 0.001927 0.000000
# 2 -0.006751 0.042201 -0.013739 0.000000 0.008453 0.000000
# 3 -0.001456 -0.013739 0.014436 0.000000 0.001813 0.000000
# 4 0.000000 0.000000 0.000000 0.058842 0.000000 0.009798
# 5 0.001927 0.008453 0.001813 0.000000 0.051602 0.000000
# 6 0.000000 0.000000 0.000000 0.009798 0.000000 0.041318
#
#
# Mechanical properties :
#
#
# Convention : Reuss Voigt Hill
#
# Bulk Modulus (GPa) = 35.17978 49.82426 42.50202
# Shear Modulus (GPa) = 18.02168 22.11857 20.07013
#
# Velocity S-wave (km/s) = 2.98031 3.30173 3.14513
# Velocity P-wave (km/s) = 5.40202 6.25234 5.84267
#
# Compressibility (1/GPa) = 0.02842542
#
# Stress axis : x y z
#
# Youngs Moduli (GPa) = 63.77856 23.69618 69.27126
#
# Poissons Ratio (x) = 0.15997 0.10085
# Poissons Ratio (y) = 0.43055 0.95170
# Poissons Ratio (z) = 0.09286 0.32555
#
# Static dielectric constant tensor:
#      x y z
#    x 1.782530 0.000000 0.024390 
#    y 0.000000 1.723110 0.000000 
#    z 0.024390 0.000000 1.706750 
# 
# From -- ./inp_files/121954.got.cif
#   From: 2010.05.17/outbox.cif.g08.bks.cpg/sg12_61_cif.got.tgz:121954.got - 2010.06.03 13:09:07.
