data_PCOD9202980
_publ_section_title
;
Structure prediction by ZEFSAII (Michael W. Deem and Ramdas Pophale) SiO2 
 PCOD9202980
Probable space group: C 2/M
;
_chemical_formula_sum "Si O2"
_cell_formula_units_Z 64
_cell_length_a 18.983479
_cell_length_b 19.796083
_cell_length_c 18.118637
_cell_angle_alpha 90.000000
_cell_angle_beta 151.319639
_cell_angle_gamma 90.000000
_cell_volume 3267.773841
_symmetry_space_group_name_H-M "C 2/M"
_symmetry_group_IT_number 12
_symmetry_cell_setting 'monoclinic'
loop_
_space_group_symop_operation_xyz
x,y,z
-x,y,-z
-x,-y,-z
x,-y,z
1/2+x,1/2+y,z
1/2-x,1/2+y,-z
1/2-x,1/2-y,-z
1/2+x,1/2-y,z
loop_
_atom_site_type_symbol
_atom_site_label
_atom_site_fract_x
_atom_site_fract_y
_atom_site_fract_z
Si Si1 0.541831 0.383374 0.615975
Si Si2 0.112590 0.354025 0.035240
Si Si3 0.227281 0.926348 0.046173
Si Si4 0.535097 0.571536 0.298437
Si Si5 0.269401 0.825021 0.487924
Si Si6 0.977867 0.270269 0.564024
Si Si7 0.769331 0.225071 0.931583
Si Si8 0.024534 0.576618 0.232736
O O1 0.500000 0.415321 0.500000
O O2 0.718606 0.373288 0.787404
O O3 0.478403 0.422165 0.627042
O O4 0.457141 0.310700 0.539500
O O5 0.126754 0.279480 0.012143
O O6 0.000000 0.354986 0.000000
O O7 0.047071 0.401022 0.910381
O O8 0.184969 0.852948 0.038139
O O9 0.394760 0.922684 0.174206
O O10 0.203308 0.000000 0.062114
O O11 0.129308 0.928607 0.882752
O O12 0.604720 0.500000 0.340102
O O13 0.618291 0.635163 0.341618
O O14 0.250000 0.750000 0.500000
O O15 0.353047 0.814096 0.488098
O O16 0.359037 0.869988 0.629344
O O17 0.000000 0.293189 0.500000
O O18 0.114775 0.272892 0.746206
O O19 0.750000 0.250000 0.000000
O O20 0.081436 0.500000 0.279331
#
# Coordination Sequence:
#
# PCOD9202980 Si02
#       8
#     8   8   8   8   8   8   8   8
#     4  10  21  39  57  85 132 170 206 255 327 401
#     4  11  24  37  63  98 126 165 217 270 320 386
#     4  10  20  38  65  87 116 163 214 267 324 381
#     4  11  23  39  60  93 127 163 211 269 321 379
#     4  12  24  38  65  95 121 166 218 267 312 381
#     4  10  21  39  60  91 130 165 204 266 333 380
#     4  11  19  39  66  92 123 164 220 271 317 385
#     4  11  23  41  64  91 126 165 213 266 317 387
#
# _framework density 19.585198999999999
#
# number of rings (size 3 to 8) (size 9 to 14) (size 15 to 20)
#    0.000    1.250    5.000    1.125    3.500    1.500 
#    0.000    0.000    0.000    3.750    0.000    0.000 
#    0.000    0.000    0.000    0.000    0.000    0.000 
#
# Total GULP energy -178397.991235 kJ/mol
# GULP energy per Si atom -5574.937226 kJ/mol
# Density = 1.954062 g / cm^3
# Si number density = 19.585199 Si / 1000 Ang^3
#
#
#
# Elastic Constant Matrix: (Units=GPa)
#
#
# Indices 1 2 3 4 5 6 
#
# 1 87.1788 25.9250 14.5225 0.0000 1.0431 -0.0006
# 2 25.9250 142.6715 20.0465 0.0001 3.5334 -0.0002
# 3 14.5225 20.0465 54.1928 0.0009 -1.2401 0.0002
# 4 0.0000 0.0001 0.0009 22.5856 0.0016 -1.2470
# 5 1.0431 3.5334 -1.2401 0.0016 25.1328 0.0003
# 6 -0.0006 -0.0002 0.0002 -1.2470 0.0003 15.9379
#
#
#
# Elastic Compliance Matrix: (Units=1/GPa)
#
#
# Indices 1 2 3 4 5 6 
#
# 1 0.012478 -0.001885 -0.002655 0.000000 -0.000384 0.000000
# 2 -0.001885 0.007713 -0.002374 0.000000 -0.001123 0.000000
# 3 -0.002655 -0.002374 0.020075 -0.000001 0.001435 0.000000
# 4 0.000000 0.000000 -0.000001 0.044468 -0.000003 0.003479
# 5 -0.000384 -0.001123 0.001435 -0.000003 0.040033 -0.000001
# 6 0.000000 0.000000 0.000000 0.003479 -0.000001 0.063016
#
#
# Mechanical properties :
#
#
# Convention : Reuss Voigt Hill
#
# Bulk Modulus (GPa) = 37.82395 45.00345 41.41370
# Shear Modulus (GPa) = 23.76157 27.63454 25.69805
#
# Velocity S-wave (km/s) = 3.48694 3.76039 3.62624
# Velocity P-wave (km/s) = 5.96373 6.47165 6.22287
#
# Compressibility (1/GPa) = 0.02643828
#
# Stress axis : x y z
#
# Youngs Moduli (GPa) = 80.14027 129.65218 49.81288
#
# Poissons Ratio (x) = 0.24437 0.13228
# Poissons Ratio (y) = 0.15105 0.11824
# Poissons Ratio (z) = 0.21281 0.30776
#
# Static dielectric constant tensor:
#      x y z
#    x 1.678560 0.000000 0.011650 
#    y 0.000000 1.756720 0.000000 
#    z 0.011650 0.000000 1.739470 
# 
# From -- ./inp_files/279142.got.cif
#   From: 2010.05.17/outbox.cif.g08.bks.cpg/sg12_140_cif.got.tgz:279142.got - 2010.06.03 13:09:07.
