data_PCOD9202015
_publ_section_title
;
Structure prediction by ZEFSAII (Michael W. Deem and Ramdas Pophale) SiO2 
 PCOD9202015
Probable space group: C 2/M
;
_chemical_formula_sum "Si O2"
_cell_formula_units_Z 44
_cell_length_a 22.847447
_cell_length_b 12.144122
_cell_length_c 8.610499
_cell_angle_alpha 90.000000
_cell_angle_beta 66.976948
_cell_angle_gamma 90.000000
_cell_volume 2198.791214
_symmetry_space_group_name_H-M "C 2/M"
_symmetry_group_IT_number 12
_symmetry_cell_setting 'monoclinic'
loop_
_space_group_symop_operation_xyz
x,y,z
-x,y,-z
-x,-y,-z
x,-y,z
1/2+x,1/2+y,z
1/2-x,1/2+y,-z
1/2-x,1/2-y,-z
1/2+x,1/2-y,z
loop_
_atom_site_type_symbol
_atom_site_label
_atom_site_fract_x
_atom_site_fract_y
_atom_site_fract_z
Si Si1 0.204593 0.226568 0.347679
Si Si2 0.191387 0.880867 0.677338
Si Si3 0.500000 0.730061 0.500000
Si Si4 0.385388 0.630079 0.805964
Si Si5 0.074871 0.778497 0.912258
Si Si6 0.907803 0.630670 0.382554
O O1 0.210244 0.137336 0.479186
O O2 0.271457 0.288104 0.265337
O O3 0.175564 0.172440 0.225766
O O4 0.154623 0.316052 0.471439
O O5 0.115828 0.864788 0.768280
O O6 0.210169 0.000000 0.714668
O O7 0.445686 0.655349 0.632925
O O8 0.533564 0.808433 0.592484
O O9 0.381650 0.500000 0.846397
O O10 0.397330 0.703343 0.945811
O O11 0.087746 0.666649 0.802910
O O12 0.000000 0.799383 0.000000
O O13 0.909079 0.500000 0.399592
#
# Coordination Sequence:
#
# PCOD9202015 Si02
#       6
#     8   8   4   8   8   8
#     4   9  21  38  60  90 116 148 209 246 285 360
#     4  10  20  38  62  85 118 157 193 248 301 344
#     4  10  20  38  56  90 114 150 202 246 282 360
#     4  11  22  38  59  86 123 159 194 246 296 344
#     4  11  23  40  55  90 123 156 200 240 284 366
#     4  10  20  38  61  83 117 157 195 245 294 340
#
# _framework density 20.010992999999999
#
# number of rings (size 3 to 8) (size 9 to 14) (size 15 to 20)
#    0.000    1.818    1.818    2.182    0.000    2.545 
#    0.000    2.727    0.000    0.000    0.000    0.000 
#    0.000    0.000    0.000    0.000    0.000    0.000 
#
# Total GULP energy -122751.450456 kJ/mol
# GULP energy per Si atom -5579.611384 kJ/mol
# Density = 1.996545 g / cm^3
# Si number density = 20.010993 Si / 1000 Ang^3
#
#
#
# Elastic Constant Matrix: (Units=GPa)
#
#
# Indices 1 2 3 4 5 6 
#
# 1 86.4097 23.6096 20.5322 0.0000 2.6286 0.0000
# 2 23.6096 83.7326 19.2797 0.0000 -1.7147 0.0000
# 3 20.5322 19.2797 62.4993 0.0000 7.1422 0.0000
# 4 0.0000 0.0000 0.0000 8.0578 0.0000 2.3834
# 5 2.6286 -1.7147 7.1422 0.0000 40.7722 0.0000
# 6 0.0000 0.0000 0.0000 2.3834 0.0000 16.4090
#
#
#
# Elastic Compliance Matrix: (Units=1/GPa)
#
#
# Indices 1 2 3 4 5 6 
#
# 1 0.013194 -0.002950 -0.003381 0.000000 -0.000382 0.000000
# 2 -0.002950 0.013579 -0.003374 0.000000 0.001352 0.000000
# 3 -0.003381 -0.003374 0.018514 0.000000 -0.003167 0.000000
# 4 0.000000 0.000000 0.000000 0.129675 0.000000 -0.018835
# 5 -0.000382 0.001352 -0.003167 0.000000 0.025163 0.000000
# 6 0.000000 0.000000 0.000000 -0.018835 0.000000 0.063678
#
#
# Mechanical properties :
#
#
# Convention : Reuss Voigt Hill
#
# Bulk Modulus (GPa) = 38.64444 39.94272 39.29358
# Shear Modulus (GPa) = 17.13285 24.32915 20.73100
#
# Velocity S-wave (km/s) = 2.92922 3.49060 3.22216
# Velocity P-wave (km/s) = 5.54923 6.02075 5.78979
#
# Compressibility (1/GPa) = 0.02587694
#
# Stress axis : x y z
#
# Youngs Moduli (GPa) = 75.79418 73.64257 54.01407
#
# Poissons Ratio (x) = 0.21721 0.18261
# Poissons Ratio (y) = 0.22356 0.18227
# Poissons Ratio (z) = 0.25624 0.24850
#
# Static dielectric constant tensor:
#      x y z
#    x 1.722870 0.000000 -0.008190 
#    y 0.000000 1.679760 0.000000 
#    z -0.008190 0.000000 1.748260 
# 
# From -- ./inp_files/94233.got.cif
#   From: 2010.05.17/outbox.cif.g08.bks.cpg/sg12_48_cif.got.tgz:94233.got - 2010.06.03 13:09:07.
