data_PCOD9202180
_publ_section_title
;
Structure prediction by ZEFSAII (Michael W. Deem and Ramdas Pophale) SiO2 
 PCOD9202180
Probable space group: C 2/M
;
_chemical_formula_sum "Si O2"
_cell_formula_units_Z 42
_cell_length_a 13.830051
_cell_length_b 10.145030
_cell_length_c 15.525679
_cell_angle_alpha 90.000000
_cell_angle_beta 120.851915
_cell_angle_gamma 90.000000
_cell_volume 1870.104124
_symmetry_space_group_name_H-M "C 2/M"
_symmetry_group_IT_number 12
_symmetry_cell_setting 'monoclinic'
loop_
_space_group_symop_operation_xyz
x,y,z
-x,y,-z
-x,-y,-z
x,-y,z
1/2+x,1/2+y,z
1/2-x,1/2+y,-z
1/2-x,1/2-y,-z
1/2+x,1/2-y,z
loop_
_atom_site_type_symbol
_atom_site_label
_atom_site_fract_x
_atom_site_fract_y
_atom_site_fract_z
Si Si1 0.816158 0.272472 0.393526
Si Si2 0.477608 0.857806 0.248547
Si Si3 0.899542 0.142071 0.594450
Si Si4 0.345499 0.845417 0.821901
Si Si5 0.225116 0.846432 0.068966
Si Si6 0.500000 0.000000 0.500000
O O1 0.866336 0.163793 0.480985
O O2 0.713092 0.338032 0.400418
O O3 0.758338 0.202733 0.285658
O O4 0.908934 0.384956 0.427635
O O5 0.515578 0.749317 0.332007
O O6 0.545237 0.838537 0.190040
O O7 0.346543 0.858722 0.170278
O O8 0.516321 0.000000 0.301619
O O9 0.948725 0.000000 0.632175
O O10 0.352215 0.740104 0.902217
O O11 0.332491 0.000000 0.842644
O O12 0.189114 0.000000 0.034336
O O13 0.250000 0.750000 0.000000
#
# Coordination Sequence:
#
# PCOD9202180 Si02
#       6
#     8   8   8   8   8   2
#     4  10  23  35  59  86 126 165 205 246 300 356
#     4   9  22  41  65  90 122 169 203 242 307 370
#     4  10  20  38  59  87 122 163 207 249 292 351
#     4  10  22  43  65  90 126 161 207 257 304 364
#     4  11  25  44  67  93 122 156 201 253 312 375
#     4  12  24  36  54  92 124 168 208 252 300 362
#
# _framework density 22.458644
#
# number of rings (size 3 to 8) (size 9 to 14) (size 15 to 20)
#    0.000    1.905    0.952    1.143    5.333    5.333 
#    0.000    4.762    0.000    0.000    0.000    0.000 
#    0.000    0.000    0.000    0.000    0.000    0.000 
#
# Total GULP energy -117120.004154 kJ/mol
# GULP energy per Si atom -5577.143055 kJ/mol
# Density = 2.240753 g / cm^3
# Si number density = 22.458644 Si / 1000 Ang^3
#
#
#
# Elastic Constant Matrix: (Units=GPa)
#
#
# Indices 1 2 3 4 5 6 
#
# 1 73.5245 30.0325 -9.8951 0.0000 -4.2022 0.0000
# 2 30.0325 188.4261 27.4630 0.0000 -23.8628 0.0000
# 3 -9.8951 27.4630 29.2963 0.0000 -13.9407 0.0000
# 4 0.0000 0.0000 0.0000 34.2560 0.0000 -2.4566
# 5 -4.2022 -23.8628 -13.9407 0.0000 32.4631 0.0000
# 6 0.0000 0.0000 0.0000 -2.4566 0.0000 11.0937
#
#
#
# Elastic Compliance Matrix: (Units=1/GPa)
#
#
# Indices 1 2 3 4 5 6 
#
# 1 0.016920 -0.003807 0.011304 0.000000 0.004246 0.000000
# 2 -0.003807 0.007179 -0.007212 0.000000 0.001687 0.000000
# 3 0.011304 -0.007212 0.053901 0.000000 0.019308 0.000000
# 4 0.000000 0.000000 0.000000 0.029663 0.000000 0.006569
# 5 0.004246 0.001687 0.019308 0.000000 0.040885 0.000000
# 6 0.000000 0.000000 0.000000 0.006569 0.000000 0.091596
#
#
# Mechanical properties :
#
#
# Convention : Reuss Voigt Hill
#
# Bulk Modulus (GPa) = 12.72768 42.93861 27.83314
# Shear Modulus (GPa) = 18.81372 31.80568 25.30970
#
# Velocity S-wave (km/s) = 2.89745 3.76731 3.36065
# Velocity P-wave (km/s) = 4.10769 6.17122 5.24200
#
# Compressibility (1/GPa) = 0.07856894
#
# Stress axis : x y z
#
# Youngs Moduli (GPa) = 59.10265 139.30177 18.55254
#
# Poissons Ratio (x) = 0.53025 -0.20971
# Poissons Ratio (y) = 0.22497 0.13381
# Poissons Ratio (z) = -0.66808 1.00470
#
# Static dielectric constant tensor:
#      x y z
#    x 1.887970 0.000000 -0.061690 
#    y 0.000000 1.798120 0.000000 
#    z -0.061690 0.000000 1.820790 
# 
# From -- ./inp_files/267517.got.cif
#   From: 2010.05.17/outbox.cif.g08.bks.cpg/sg12_134_cif.got.tgz:267517.got - 2010.06.03 13:09:07.
