data_PCOD9202173
_publ_section_title
;
Structure prediction by ZEFSAII (Michael W. Deem and Ramdas Pophale) SiO2 
 PCOD9202173
Probable space group: C 2/M
;
_chemical_formula_sum "Si O2"
_cell_formula_units_Z 40
_cell_length_a 17.862833
_cell_length_b 12.717720
_cell_length_c 15.007950
_cell_angle_alpha 90.000000
_cell_angle_beta 40.081144
_cell_angle_gamma 90.000000
_cell_volume 2195.231956
_symmetry_space_group_name_H-M "C 2/M"
_symmetry_group_IT_number 12
_symmetry_cell_setting 'monoclinic'
loop_
_space_group_symop_operation_xyz
x,y,z
-x,y,-z
-x,-y,-z
x,-y,z
1/2+x,1/2+y,z
1/2-x,1/2+y,-z
1/2-x,1/2-y,-z
1/2+x,1/2-y,z
loop_
_atom_site_type_symbol
_atom_site_label
_atom_site_fract_x
_atom_site_fract_y
_atom_site_fract_z
Si Si1 0.884623 0.767598 0.854680
Si Si2 0.402366 0.124116 0.370472
Si Si3 0.618365 0.377582 0.334231
Si Si4 0.251646 0.263445 0.632203
Si Si5 0.968106 0.875299 0.128778
O O1 0.894167 0.824905 0.750630
O O2 0.938961 0.838089 0.883469
O O3 0.969133 0.665046 0.773737
O O4 0.750000 0.750000 0.000000
O O5 0.358425 0.201643 0.489144
O O6 0.307513 0.150804 0.379609
O O7 0.401615 0.000000 0.391663
O O8 0.500000 0.372885 0.500000
O O9 0.649218 0.500000 0.295444
O O10 0.711479 0.316632 0.309677
O O11 0.153166 0.176705 0.735252
O O12 0.958751 0.000000 0.138485
O O13 0.000000 0.840685 0.000000
#
# Coordination Sequence:
#
# PCOD9202173 Si02
#       5
#     8   8   8   8   8
#     4  11  23  40  60  87 124 158 198 251 299 356
#     4  10  21  37  59  86 116 156 200 243 296 352
#     4  11  22  38  61  89 120 156 197 243 301 359
#     4  10  20  38  59  86 117 153 196 250 290 352
#     4  10  21  38  61  86 116 158 200 242 297 355
#
# _framework density 18.221309000000002
#
# number of rings (size 3 to 8) (size 9 to 14) (size 15 to 20)
#    0.000    1.600    2.000    3.000    0.000    1.600 
#    0.000    3.000    0.000    6.600    0.000    0.000 
#    0.000    0.000    0.000    0.000    0.000    0.000 
#
# Total GULP energy -111623.773588 kJ/mol
# GULP energy per Si atom -5581.188679 kJ/mol
# Density = 1.817984 g / cm^3
# Si number density = 18.221309 Si / 1000 Ang^3
#
#
#
# Elastic Constant Matrix: (Units=GPa)
#
#
# Indices 1 2 3 4 5 6 
#
# 1 130.8146 54.2571 38.0649 0.0000 18.0050 0.0000
# 2 54.2571 98.2786 34.7972 0.0000 -0.5119 0.0000
# 3 38.0649 34.7972 94.1332 0.0000 -8.1834 0.0000
# 4 0.0000 0.0000 0.0000 16.0981 0.0000 11.2129
# 5 18.0050 -0.5119 -8.1834 0.0000 42.0487 0.0000
# 6 0.0000 0.0000 0.0000 11.2129 0.0000 15.3518
#
#
#
# Elastic Compliance Matrix: (Units=1/GPa)
#
#
# Indices 1 2 3 4 5 6 
#
# 1 0.011535 -0.005261 -0.003209 0.000000 -0.005628 0.000000
# 2 -0.005261 0.014128 -0.002934 0.000000 0.001854 0.000000
# 3 -0.003209 -0.002934 0.013347 0.000000 0.003936 0.000000
# 4 0.000000 0.000000 0.000000 0.126449 0.000000 -0.092357
# 5 -0.005628 0.001854 0.003936 0.000000 0.026980 0.000000
# 6 0.000000 0.000000 0.000000 -0.092357 0.000000 0.132596
#
#
# Mechanical properties :
#
#
# Convention : Reuss Voigt Hill
#
# Bulk Modulus (GPa) = 61.71835 64.16277 62.94056
# Shear Modulus (GPa) = 14.15450 27.77355 20.96402
#
# Velocity S-wave (km/s) = 2.79016 3.90838 3.39561
# Velocity P-wave (km/s) = 6.65770 7.46034 7.07042
#
# Compressibility (1/GPa) = 0.01620264
#
# Stress axis : x y z
#
# Youngs Moduli (GPa) = 86.69361 70.78009 74.92044
#
# Poissons Ratio (x) = 0.37240 0.24040
# Poissons Ratio (y) = 0.45612 0.21981
# Poissons Ratio (z) = 0.27818 0.20767
#
# Static dielectric constant tensor:
#      x y z
#    x 1.626050 0.000000 0.006420 
#    y 0.000000 1.591600 0.000000 
#    z 0.006420 0.000000 1.647820 
# 
# From -- ./inp_files/153307.got.cif
#   From: 2010.05.17/outbox.cif.g08.bks.cpg/sg12_77_cif.got.tgz:153307.got - 2010.06.03 13:09:07.
