data_PCOD9202067
_publ_section_title
;
Structure prediction by ZEFSAII (Michael W. Deem and Ramdas Pophale) SiO2 
 PCOD9202067
Probable space group: C 2/M
;
_chemical_formula_sum "Si O2"
_cell_formula_units_Z 56
_cell_length_a 22.279116
_cell_length_b 9.448785
_cell_length_c 14.784725
_cell_angle_alpha 90.000000
_cell_angle_beta 110.494509
_cell_angle_gamma 90.000000
_cell_volume 2915.347695
_symmetry_space_group_name_H-M "C 2/M"
_symmetry_group_IT_number 12
_symmetry_cell_setting 'monoclinic'
loop_
_space_group_symop_operation_xyz
x,y,z
-x,y,-z
-x,-y,-z
x,-y,z
1/2+x,1/2+y,z
1/2-x,1/2+y,-z
1/2-x,1/2-y,-z
1/2+x,1/2-y,z
loop_
_atom_site_type_symbol
_atom_site_label
_atom_site_fract_x
_atom_site_fract_y
_atom_site_fract_z
Si Si1 0.879596 0.666375 0.836409
Si Si2 0.770470 0.164818 0.238454
Si Si3 0.197651 0.830524 0.534205
Si Si4 0.934623 0.660948 0.059478
Si Si5 0.952188 0.171639 0.554400
Si Si6 0.798722 0.660957 0.086685
Si Si7 0.969163 0.168519 0.766738
O O1 0.886790 0.500000 0.818486
O O2 0.805092 0.688430 0.817485
O O3 0.903303 0.762811 0.767353
O O4 0.921308 0.697880 0.948000
O O5 0.784889 0.189535 0.351053
O O6 0.806394 0.265101 0.187615
O O7 0.785027 0.000000 0.226109
O O8 0.250000 0.750000 0.500000
O O9 0.122881 0.784050 0.486003
O O10 0.200868 0.000000 0.516336
O O11 0.960638 0.500000 0.077058
O O12 0.865609 0.658456 0.070080
O O13 0.978066 0.765826 0.139379
O O14 0.979875 0.207041 0.667821
O O15 0.000000 0.222269 0.500000
O O16 0.950211 0.000000 0.545758
O O17 0.775425 0.500000 0.084619
O O18 0.750000 0.750000 0.000000
O O19 0.967029 0.000000 0.772895
#
# Coordination Sequence:
#
# PCOD9202067 Si02
#       7
#     8   8   8   8   8   8   8
#     4  10  20  38  58  80 118 156 184 227 290 356
#     4  10  21  37  60  89 116 154 198 236 293 356
#     4  10  21  38  64  90 119 156 200 251 302 361
#     4  10  22  39  57  80 116 158 190 225 288 352
#     4   9  20  39  59  84 118 156 195 244 304 351
#     4  11  22  38  59  85 118 154 192 240 289 347
#     4  11  23  36  58  87 112 146 198 247 283 335
#
# _framework density 19.208687999999999
#
# number of rings (size 3 to 8) (size 9 to 14) (size 15 to 20)
#    0.000    1.857    1.429    2.143    2.000    4.571 
#    0.000    0.714    0.000    2.143    0.000    0.000 
#    0.000    0.000    0.000    0.000    0.000    0.000 
#
# Total GULP energy -156327.456203 kJ/mol
# GULP energy per Si atom -5583.123436 kJ/mol
# Density = 1.916497 g / cm^3
# Si number density = 19.208688 Si / 1000 Ang^3
#
#
#
# Elastic Constant Matrix: (Units=GPa)
#
#
# Indices 1 2 3 4 5 6 
#
# 1 101.1747 40.6541 41.0970 0.0000 -19.3485 0.0000
# 2 40.6541 61.5153 48.4562 0.0000 -20.2998 0.0000
# 3 41.0970 48.4562 99.4999 0.0000 -16.3274 0.0000
# 4 0.0000 0.0000 0.0000 22.6520 0.0000 -5.9011
# 5 -19.3485 -20.2998 -16.3274 0.0000 38.4855 0.0000
# 6 0.0000 0.0000 0.0000 -5.9011 0.0000 32.0502
#
#
#
# Elastic Compliance Matrix: (Units=1/GPa)
#
#
# Indices 1 2 3 4 5 6 
#
# 1 0.013913 -0.006735 -0.002044 0.000000 0.002575 0.000000
# 2 -0.006735 0.032970 -0.011798 0.000000 0.009000 0.000000
# 3 -0.002044 -0.011798 0.016606 0.000000 -0.000205 0.000000
# 4 0.000000 0.000000 0.000000 0.046370 0.000000 0.008538
# 5 0.002575 0.009000 -0.000205 0.000000 0.031938 0.000000
# 6 0.000000 0.000000 0.000000 0.008538 0.000000 0.032773
#
#
# Mechanical properties :
#
#
# Convention : Reuss Voigt Hill
#
# Bulk Modulus (GPa) = 44.77122 58.06717 51.41919
# Shear Modulus (GPa) = 22.40446 27.43637 24.92041
#
# Velocity S-wave (km/s) = 3.41892 3.78343 3.60578
# Velocity P-wave (km/s) = 6.24049 7.02716 6.64548
#
# Compressibility (1/GPa) = 0.02233578
#
# Stress axis : x y z
#
# Youngs Moduli (GPa) = 71.87614 30.33054 60.21776
#
# Poissons Ratio (x) = 0.20427 0.12309
# Poissons Ratio (y) = 0.48407 0.71044
# Poissons Ratio (z) = 0.14692 0.35784
#
# Static dielectric constant tensor:
#      x y z
#    x 1.682850 0.000000 0.012440 
#    y 0.000000 1.648980 0.000000 
#    z 0.012440 0.000000 1.666240 
# 
# From -- ./inp_files/237498.got.cif
#   From: 2010.05.17/outbox.cif.g08.bks.cpg/sg12_119_cif.got.tgz:237498.got - 2010.06.03 13:09:07.
