data_PCOD9202457
_publ_section_title
;
Structure prediction by ZEFSAII (Michael W. Deem and Ramdas Pophale) SiO2 
 PCOD9202457
Probable space group: C 2/M
;
_chemical_formula_sum "Si O2"
_cell_formula_units_Z 48
_cell_length_a 10.914708
_cell_length_b 24.063818
_cell_length_c 16.399209
_cell_angle_alpha 90.000000
_cell_angle_beta 146.025829
_cell_angle_gamma 90.000000
_cell_volume 2406.970737
_symmetry_space_group_name_H-M "C 2/M"
_symmetry_group_IT_number 12
_symmetry_cell_setting 'monoclinic'
loop_
_space_group_symop_operation_xyz
x,y,z
-x,y,-z
-x,-y,-z
x,-y,z
1/2+x,1/2+y,z
1/2-x,1/2+y,-z
1/2-x,1/2-y,-z
1/2+x,1/2-y,z
loop_
_atom_site_type_symbol
_atom_site_label
_atom_site_fract_x
_atom_site_fract_y
_atom_site_fract_z
Si Si1 0.411820 0.121827 0.358221
Si Si2 0.465839 0.438090 0.093036
Si Si3 0.493878 0.245657 0.594952
Si Si4 0.487006 0.065766 0.239585
Si Si5 0.333681 0.363118 0.332699
Si Si6 0.757477 0.562733 0.855358
O O1 0.500000 0.116403 0.500000
O O2 0.426844 0.185055 0.335161
O O3 0.532772 0.083253 0.358138
O O4 0.160312 0.104195 0.213795
O O5 0.557865 0.500000 0.128222
O O6 0.343375 0.440058 0.111747
O O7 0.272593 0.426664 0.922097
O O8 0.500000 0.241991 0.500000
O O9 0.644006 0.300449 0.690881
O O10 0.250000 0.250000 0.500000
O O11 0.616370 0.108195 0.251432
O O12 0.536679 0.000000 0.252960
O O13 0.500000 0.365288 0.500000
O O14 0.387314 0.402664 0.286748
O O15 0.785409 0.500000 0.838668
O O16 0.000000 0.587923 0.000000
#
# Coordination Sequence:
#
# PCOD9202457 Si02
#       6
#     8   8   8   8   8   8
#     4  11  24  40  64  93 122 166 215 263 310 376
#     4  10  22  40  62  88 127 171 201 247 318 385
#     4  10  23  43  65  89 129 170 209 261 330 379
#     4  11  23  42  64  92 132 169 205 257 324 381
#     4  11  23  39  65  93 121 163 214 262 308 369
#     4  10  20  38  61  90 128 163 199 249 319 380
#
# _framework density 19.942079
#
# number of rings (size 3 to 8) (size 9 to 14) (size 15 to 20)
#    0.000    1.500    1.667    3.500    7.000    4.000 
#    0.000    2.500    0.000    0.000    0.000    0.000 
#    0.000    0.000    0.000    0.000    0.000    0.000 
#
# Total GULP energy -133757.778469 kJ/mol
# GULP energy per Si atom -5573.240770 kJ/mol
# Density = 1.989669 g / cm^3
# Si number density = 19.942079 Si / 1000 Ang^3
#
#
#
# Elastic Constant Matrix: (Units=GPa)
#
#
# Indices 1 2 3 4 5 6 
#
# 1 107.1492 41.8374 27.8150 0.0306 -1.1984 -0.0505
# 2 41.8374 140.4406 66.4485 0.0155 16.4640 -0.0255
# 3 27.8150 66.4485 81.3139 -0.0332 -0.5381 0.0553
# 4 0.0306 0.0155 -0.0332 -981.2499 0.0064 1693.7924
# 5 -1.1984 16.4640 -0.5381 0.0064 45.8054 -0.0102
# 6 -0.0505 -0.0255 0.0553 1693.7924 -0.0102-2812.5759
#
#
#
# Elastic Compliance Matrix: (Units=1/GPa)
#
#
# Indices 1 2 3 4 5 6 
#
# 1 0.010769 -0.002626 -0.001530 0.000000 0.001208 0.000000
# 2 -0.002626 0.013156 -0.009885 0.000000 -0.004913 0.000000
# 3 -0.001530 -0.009885 0.020924 0.000000 0.003759 0.000000
# 4 0.000000 0.000000 0.000000 0.025781 0.000000 0.015526
# 5 0.001208 -0.004913 0.003759 0.000000 0.023673 0.000000
# 6 0.000000 0.000000 0.000000 0.015526 0.000000 0.008995
#
#
# Mechanical properties :
#
#
# Convention : Reuss Voigt Hill
#
# Bulk Modulus (GPa) = 59.64025 66.78950 63.21488
# Shear Modulus (GPa) = 36.50486 -736.75056 -350.12285
#
# Velocity S-wave (km/s) = 4.28313 -19.24181 -13.26465
# Velocity P-wave (km/s) = 7.37780 21.44991 14.24196
#
# Compressibility (1/GPa) = 0.01676720
#
# Stress axis : x y z
#
# Youngs Moduli (GPa) = 92.86193 76.01312 47.79178
#
# Poissons Ratio (x) = 0.19958 0.07312
# Poissons Ratio (y) = 0.24382 0.47242
# Poissons Ratio (z) = 0.14208 0.75139
#
# Static dielectric constant tensor:
#      x y z
#    x 0.059450 -0.000010 1.014270 
#    y -0.000010 1.732000 0.000010 
#    z 1.014270 0.000010 1.103970 
# 
# From -- ./inp_files/50803.got.cif
#   From: 2010.05.17/outbox.cif.g08.bks.cpg/sg12_26_cif.got.tgz:50803.got - 2010.06.03 13:09:07.
