data_PCOD9202424
_publ_section_title
;
Structure prediction by ZEFSAII (Michael W. Deem and Ramdas Pophale) SiO2 
 PCOD9202424
Probable space group: C 2/M
;
_chemical_formula_sum "Si O2"
_cell_formula_units_Z 48
_cell_length_a 12.779782
_cell_length_b 16.450638
_cell_length_c 9.902322
_cell_angle_alpha 90.000000
_cell_angle_beta 117.720918
_cell_angle_gamma 90.000000
_cell_volume 1842.876985
_symmetry_space_group_name_H-M "C 2/M"
_symmetry_group_IT_number 12
_symmetry_cell_setting 'monoclinic'
loop_
_space_group_symop_operation_xyz
x,y,z
-x,y,-z
-x,-y,-z
x,-y,z
1/2+x,1/2+y,z
1/2-x,1/2+y,-z
1/2-x,1/2-y,-z
1/2+x,1/2-y,z
loop_
_atom_site_type_symbol
_atom_site_label
_atom_site_fract_x
_atom_site_fract_y
_atom_site_fract_z
Si Si1 0.690320 0.639785 0.582706
Si Si2 0.636604 0.404318 0.844781
Si Si3 0.384550 0.595575 0.763965
Si Si4 0.894900 0.409122 0.021024
Si Si5 0.549662 0.130017 0.341432
Si Si6 0.657750 0.183139 0.659530
O O1 0.627482 0.603903 0.676768
O O2 0.645640 0.604987 0.414476
O O3 0.832320 0.628431 0.676615
O O4 0.676060 0.736577 0.582816
O O5 0.641533 0.500000 0.881896
O O6 0.520150 0.374787 0.852096
O O7 0.767006 0.368286 0.950547
O O8 0.376465 0.500000 0.795556
O O9 0.284491 0.648727 0.778935
O O10 0.877842 0.500000 0.951077
O O11 0.951601 0.419936 0.202668
O O12 0.000000 0.366999 0.000000
O O13 0.608132 0.115949 0.523279
O O14 0.454939 0.203259 0.313507
#
# Coordination Sequence:
#
# PCOD9202424 Si02
#       6
#     8   8   8   8   8   8
#     4  11  21  36  63  86 122 160 199 255 300 354
#     4  10  21  36  61  92 118 156 204 251 302 347
#     4  10  21  37  58  89 123 154 203 249 298 360
#     4  10  20  38  61  87 120 154 197 254 298 353
#     4  10  21  38  59  87 114 159 204 235 304 355
#     4  10  24  38  60  89 126 162 197 245 308 364
#
# _framework density 26.046230999999999
#
# number of rings (size 3 to 8) (size 9 to 14) (size 15 to 20)
#    0.000    1.833    1.667    3.000    7.000    4.667 
#    0.000    5.833    3.667    3.000    0.000    0.000 
#    0.000    0.000    0.000    0.000    0.000    0.000 
#
# Total GULP energy -133657.387137 kJ/mol
# GULP energy per Si atom -5569.057797 kJ/mol
# Density = 2.598695 g / cm^3
# Si number density = 26.046231 Si / 1000 Ang^3
#
#
#
# Elastic Constant Matrix: (Units=GPa)
#
#
# Indices 1 2 3 4 5 6 
#
# 1 186.3479 13.2378 31.0100 0.0000 49.7635 0.0000
# 2 13.2378 46.0338 -3.3859 0.0000 1.9936 0.0000
# 3 31.0100 -3.3859 86.4573 0.0000 23.5272 0.0000
# 4 0.0000 0.0000 0.0000 7.3410 0.0000 4.0334
# 5 49.7635 1.9936 23.5272 0.0000 58.7412 0.0000
# 6 0.0000 0.0000 0.0000 4.0334 0.0000 -2.5651
#
#
#
# Elastic Compliance Matrix: (Units=1/GPa)
#
#
# Indices 1 2 3 4 5 6 
#
# 1 0.007175 -0.001906 -0.001135 0.000000 -0.005559 0.000000
# 2 -0.001906 0.022370 0.001489 0.000000 0.000259 0.000000
# 3 -0.001135 0.001489 0.013225 0.000000 -0.004386 0.000000
# 4 0.000000 0.000000 0.000000 0.073082 0.000000 0.114917
# 5 -0.005559 0.000259 -0.004386 0.000000 0.023481 0.000000
# 6 0.000000 0.000000 0.000000 0.114917 0.000000 -0.209152
#
#
# Mechanical properties :
#
#
# Convention : Reuss Voigt Hill
#
# Bulk Modulus (GPa) = 25.21078 44.50698 34.85888
# Shear Modulus (GPa) = -93.47269 31.23521 -31.11874
#
# Velocity S-wave (km/s) = -5.99709 3.46674 -3.46027
# Velocity P-wave (km/s) = 6.18492 5.75753 1.59752
#
# Compressibility (1/GPa) = 0.03966557
#
# Stress axis : x y z
#
# Youngs Moduli (GPa) = 139.36894 44.70348 75.61185
#
# Poissons Ratio (x) = 0.08521 0.08585
# Poissons Ratio (y) = 0.26565 -0.11260
# Poissons Ratio (z) = 0.15824 -0.06657
#
# Static dielectric constant tensor:
#      x y z
#    x 2.156570 0.000000 -0.024550 
#    y 0.000000 2.030290 0.000000 
#    z -0.024550 0.000000 2.128220 
# 
# From -- ./inp_files/133415.got.cif
#   From: 2010.05.17/outbox.cif.g08.bks.cpg/sg12_67_cif.got.tgz:133415.got - 2010.06.03 13:09:07.
