data_PCOD9202384
_publ_section_title
;
Structure prediction by ZEFSAII (Michael W. Deem and Ramdas Pophale) SiO2 
 PCOD9202384
Probable space group: C 2/M
;
_chemical_formula_sum "Si O2"
_cell_formula_units_Z 48
_cell_length_a 28.072963
_cell_length_b 7.552440
_cell_length_c 17.255219
_cell_angle_alpha 90.000000
_cell_angle_beta 35.008460
_cell_angle_gamma 90.000000
_cell_volume 2098.837816
_symmetry_space_group_name_H-M "C 2/M"
_symmetry_group_IT_number 12
_symmetry_cell_setting 'monoclinic'
loop_
_space_group_symop_operation_xyz
x,y,z
-x,y,-z
-x,-y,-z
x,-y,z
1/2+x,1/2+y,z
1/2-x,1/2+y,-z
1/2-x,1/2-y,-z
1/2+x,1/2-y,z
loop_
_atom_site_type_symbol
_atom_site_label
_atom_site_fract_x
_atom_site_fract_y
_atom_site_fract_z
Si Si1 0.921295 0.202655 0.935337
Si Si2 0.818449 0.715350 0.565205
Si Si3 0.129252 0.705293 0.830302
Si Si4 0.249857 0.787705 0.909148
Si Si5 0.591638 0.783750 0.401018
Si Si6 0.103353 0.703072 0.694338
O O1 0.006906 0.295254 0.799427
O O2 0.928906 0.000000 0.899125
O O3 0.912467 0.207449 0.040050
O O4 0.836148 0.279645 0.013845
O O5 0.816088 0.500000 0.566761
O O6 0.727929 0.780641 0.708985
O O7 0.883319 0.766734 0.545130
O O8 0.843774 0.780844 0.446323
O O9 0.102601 0.500000 0.867065
O O10 0.111277 0.783701 0.769270
O O11 0.333516 0.723750 0.755123
O O12 0.248824 0.000000 0.898586
O O13 0.250000 0.750000 0.000000
O O14 0.500000 0.722655 0.500000
O O15 0.590588 0.000000 0.399374
O O16 0.131635 0.500000 0.665707
#
# Coordination Sequence:
#
# PCOD9202384 Si02
#       6
#     8   8   8   8   8   8
#     4  11  23  40  60  85 119 157 197 242 291 347
#     4  10  20  38  61  85 118 154 194 240 291 351
#     4  11  22  38  59  86 120 154 197 246 293 345
#     4  10  22  39  60  87 116 147 191 238 287 350
#     4   9  18  35  60  86 111 145 190 236 282 344
#     4  10  23  38  58  89 119 155 199 242 289 349
#
# _framework density 22.869800999999999
#
# number of rings (size 3 to 8) (size 9 to 14) (size 15 to 20)
#    0.000    1.833    1.667    2.000    2.333    5.333 
#    0.000    0.000    0.000    1.000    0.000    0.000 
#    0.000    0.000    0.000    0.000    0.000    0.000 
#
# Total GULP energy -134180.526912 kJ/mol
# GULP energy per Si atom -5590.855288 kJ/mol
# Density = 2.281775 g / cm^3
# Si number density = 22.869801 Si / 1000 Ang^3
#
#
#
# Elastic Constant Matrix: (Units=GPa)
#
#
# Indices 1 2 3 4 5 6 
#
# 1 86.8846 -3.2318 -3.4230 -0.0088 -2.0184 0.0072
# 2 -3.2318 56.0781 -12.0660 0.0081 -0.5297 -0.0071
# 3 -3.4230 -12.0660 44.8477 0.0004 0.9398 0.0070
# 4 -0.0088 0.0081 0.0004 19.9393 0.0020 -0.8223
# 5 -2.0184 -0.5297 0.9398 0.0020 42.0370 -0.0018
# 6 0.0072 -0.0071 0.0070 -0.8223 -0.0018 13.0694
#
#
#
# Elastic Compliance Matrix: (Units=1/GPa)
#
#
# Indices 1 2 3 4 5 6 
#
# 1 0.011600 0.000915 0.001120 0.000004 0.000543 -0.000006
# 2 0.000915 0.019001 0.005178 -0.000007 0.000168 0.000007
# 3 0.001120 0.005178 0.023785 -0.000002 -0.000413 -0.000011
# 4 0.000004 -0.000007 -0.000002 0.050283 -0.000002 0.003164
# 5 0.000543 0.000168 -0.000413 -0.000002 0.023826 0.000003
# 6 -0.000006 0.000007 -0.000011 0.003164 0.000003 0.076713
#
#
# Mechanical properties :
#
#
# Convention : Reuss Voigt Hill
#
# Bulk Modulus (GPa) = 14.53229 16.70764 15.61996
# Shear Modulus (GPa) = 23.39516 28.77790 26.08653
#
# Velocity S-wave (km/s) = 3.20186 3.55115 3.38102
# Velocity P-wave (km/s) = 4.47631 4.91280 4.69963
#
# Compressibility (1/GPa) = 0.06881228
#
# Stress axis : x y z
#
# Youngs Moduli (GPa) = 86.20467 52.62947 42.04323
#
# Poissons Ratio (x) = -0.04814 -0.04709
# Poissons Ratio (y) = -0.07885 -0.21771
# Poissons Ratio (z) = -0.09656 -0.27253
#
# Static dielectric constant tensor:
#      x y z
#    x 1.847740 0.000000 -0.002660 
#    y 0.000000 1.839760 0.000000 
#    z -0.002660 0.000000 1.803060 
# 
# From -- ./inp_files/274106.got.cif
#   From: 2010.05.17/outbox.cif.g08.bks.cpg/sg12_138_cif.got.tgz:274106.got - 2010.06.03 13:09:07.
