data_PCOD9202150
_publ_section_title
;
Structure prediction by ZEFSAII (Michael W. Deem and Ramdas Pophale) SiO2 
 PCOD9202150
Probable space group: C 2/M
;
_chemical_formula_sum "Si O2"
_cell_formula_units_Z 56
_cell_length_a 19.305026
_cell_length_b 8.631643
_cell_length_c 27.691793
_cell_angle_alpha 90.000000
_cell_angle_beta 41.448953
_cell_angle_gamma 90.000000
_cell_volume 3054.511552
_symmetry_space_group_name_H-M "C 2/M"
_symmetry_group_IT_number 12
_symmetry_cell_setting 'monoclinic'
loop_
_space_group_symop_operation_xyz
x,y,z
-x,y,-z
-x,-y,-z
x,-y,z
1/2+x,1/2+y,z
1/2-x,1/2+y,-z
1/2-x,1/2-y,-z
1/2+x,1/2-y,z
loop_
_atom_site_type_symbol
_atom_site_label
_atom_site_fract_x
_atom_site_fract_y
_atom_site_fract_z
Si Si1 0.681041 0.185472 0.079417
Si Si2 0.865710 0.815518 0.436756
Si Si3 0.976338 0.687187 0.568911
Si Si4 0.733076 0.816137 0.261016
Si Si5 0.478693 0.822745 0.287649
Si Si6 0.936622 0.680666 0.203189
Si Si7 0.696909 0.677955 0.173726
O O1 0.558449 0.233085 0.135871
O O2 0.726170 0.240697 0.107719
O O3 0.681076 0.000000 0.079435
O O4 0.750000 0.250000 0.000000
O O5 0.750000 0.750000 0.500000
O O6 0.915186 0.718712 0.367422
O O7 0.934829 0.773539 0.447037
O O8 0.867059 0.000000 0.427426
O O9 0.985352 0.500000 0.570074
O O10 0.863678 0.732167 0.652539
O O11 0.000000 0.719794 0.500000
O O12 0.845812 0.770797 0.223528
O O13 0.726719 0.747311 0.210209
O O14 0.724626 0.000000 0.261240
O O15 0.414278 0.811441 0.272138
O O16 0.572166 0.701082 0.237537
O O17 0.521157 0.000000 0.267366
O O18 0.932899 0.500000 0.190257
O O19 0.728688 0.500000 0.155299
#
# Coordination Sequence:
#
# PCOD9202150 Si02
#       7
#     8   8   8   8   8   8   8
#     4  10  21  40  65  93 125 159 195 243 296 351
#     4  12  25  39  58  83 113 152 197 249 303 359
#     4  10  23  42  60  83 118 158 200 252 309 358
#     4  11  22  37  60  87 121 159 200 251 299 351
#     4  10  20  38  59  83 114 150 195 248 296 348
#     4   9  21  38  59  87 121 155 192 239 294 351
#     4  11  21  36  61  89 118 157 199 238 289 354
#
# _framework density 18.333535999999999
#
# number of rings (size 3 to 8) (size 9 to 14) (size 15 to 20)
#    0.000    1.571    1.429    4.714    2.000    4.286 
#    0.000    0.714    0.000    4.286    0.000    0.000 
#    0.000    0.000    0.000    0.000    0.000    0.000 
#
# Total GULP energy -156110.131172 kJ/mol
# GULP energy per Si atom -5575.361828 kJ/mol
# Density = 1.829181 g / cm^3
# Si number density = 18.333536 Si / 1000 Ang^3
#
#
#
# Elastic Constant Matrix: (Units=GPa)
#
#
# Indices 1 2 3 4 5 6 
#
# 1 129.5627 50.8097 62.9377 0.0000 10.3949 0.0004
# 2 50.8097 64.6537 28.9388 0.0001 6.2067 0.0006
# 3 62.9377 28.9388 95.0922 0.0000 26.3525 0.0001
# 4 0.0000 0.0001 0.0000 25.9407 0.0000 1.5148
# 5 10.3949 6.2067 26.3525 0.0000 26.8637 0.0000
# 6 0.0004 0.0006 0.0001 1.5148 0.0000 36.5582
#
#
#
# Elastic Compliance Matrix: (Units=1/GPa)
#
#
# Indices 1 2 3 4 5 6 
#
# 1 0.014683 -0.008176 -0.008486 0.000000 0.004532 0.000000
# 2 -0.008176 0.022513 -0.001202 0.000000 -0.000859 0.000000
# 3 -0.008486 -0.001202 0.021303 0.000000 -0.017336 0.000000
# 4 0.000000 0.000000 0.000000 0.038643 0.000000 -0.001601
# 5 0.004532 -0.000859 -0.017336 0.000000 0.052676 0.000000
# 6 0.000000 0.000000 0.000000 -0.001601 0.000000 0.027420
#
#
# Mechanical properties :
#
#
# Convention : Reuss Voigt Hill
#
# Bulk Modulus (GPa) = 43.91550 63.85345 53.88448
# Shear Modulus (GPa) = 22.67008 27.64735 25.15872
#
# Velocity S-wave (km/s) = 3.52026 3.88754 3.70845
# Velocity P-wave (km/s) = 6.36621 7.41990 6.91316
#
# Compressibility (1/GPa) = 0.02277100
#
# Stress axis : x y z
#
# Youngs Moduli (GPa) = 68.10487 44.41946 46.94255
#
# Poissons Ratio (x) = 0.36317 0.39835
# Poissons Ratio (y) = 0.55682 0.05642
# Poissons Ratio (z) = 0.57794 0.05338
#
# Static dielectric constant tensor:
#      x y z
#    x 1.637830 0.000000 -0.005460 
#    y 0.000000 1.688190 0.000000 
#    z -0.005460 0.000000 1.695500 
# 
# From -- ./inp_files/342594.got.cif
#   From: 2010.05.17/outbox.cif.g08.bks.cpg/sg12_172_cif.got.tgz:342594.got - 2010.06.03 13:09:07.
