data_PCOD9202072
_publ_section_title
;
Structure prediction by ZEFSAII (Michael W. Deem and Ramdas Pophale) SiO2 
 PCOD9202072
Probable space group: C 2/M
;
_chemical_formula_sum "Si O2"
_cell_formula_units_Z 64
_cell_length_a 30.627735
_cell_length_b 9.446724
_cell_length_c 19.612122
_cell_angle_alpha 90.000000
_cell_angle_beta 37.174453
_cell_angle_gamma 90.000000
_cell_volume 3428.727477
_symmetry_space_group_name_H-M "C 2/M"
_symmetry_group_IT_number 12
_symmetry_cell_setting 'monoclinic'
loop_
_space_group_symop_operation_xyz
x,y,z
-x,y,-z
-x,-y,-z
x,-y,z
1/2+x,1/2+y,z
1/2-x,1/2+y,-z
1/2-x,1/2-y,-z
1/2+x,1/2-y,z
loop_
_atom_site_type_symbol
_atom_site_label
_atom_site_fract_x
_atom_site_fract_y
_atom_site_fract_z
Si Si1 0.848686 0.668918 0.029154
Si Si2 0.707084 0.835387 0.165003
Si Si3 0.601472 0.169342 0.182122
Si Si4 0.308500 0.331494 0.329074
Si Si5 0.420337 0.842057 0.566739
Si Si6 0.170082 0.834929 0.537728
Si Si7 0.039907 0.835388 0.603656
Si Si8 0.415274 0.170435 0.093205
O O1 0.836918 0.500000 0.044899
O O2 0.772618 0.746266 0.113347
O O3 0.889798 0.706320 0.047815
O O4 0.892424 0.701353 0.905484
O O5 0.673373 0.788195 0.134500
O O6 0.639877 0.827836 0.300689
O O7 0.729250 0.000000 0.131413
O O8 0.532659 0.246469 0.298658
O O9 0.594071 0.000000 0.200544
O O10 0.306797 0.500000 0.318021
O O11 0.228589 0.263118 0.427265
O O12 0.331017 0.307858 0.380079
O O13 0.363350 0.252923 0.210170
O O14 0.500000 0.833145 0.500000
O O15 0.415757 0.722871 0.515701
O O16 0.413123 0.000000 0.545072
O O17 0.091210 0.815259 0.604740
O O18 0.191146 0.000000 0.501523
O O19 0.023006 0.000000 0.616555
O O20 0.406994 0.000000 0.112633
O O21 0.500000 0.203892 0.000000
#
# Coordination Sequence:
#
# PCOD9202072 Si02
#       8
#     8   8   8   8   8   8   8   8
#     4  10  23  40  61  87 115 152 198 243 290 345
#     4  10  21  38  61  86 117 154 194 243 292 341
#     4  10  21  40  61  84 116 156 200 241 287 346
#     4  10  21  39  63  88 114 150 195 239 289 346
#     4  10  20  38  58  81 117 157 192 231 281 341
#     4   9  21  40  59  86 121 151 186 238 293 346
#     4  11  23  36  57  88 119 152 190 240 292 341
#     4  10  23  42  61  86 120 156 193 239 293 348
#
# _framework density 18.665816
#
# number of rings (size 3 to 8) (size 9 to 14) (size 15 to 20)
#    0.000    2.000    1.250    1.125    3.500    4.000 
#    0.000    0.000    0.000    0.000    0.000    0.000 
#    0.000    0.000    0.000    0.000    0.000    0.000 
#
# Total GULP energy -178620.823385 kJ/mol
# GULP energy per Si atom -5581.900731 kJ/mol
# Density = 1.862333 g / cm^3
# Si number density = 18.665816 Si / 1000 Ang^3
#
#
#
# Elastic Constant Matrix: (Units=GPa)
#
#
# Indices 1 2 3 4 5 6 
#
# 1 108.8620 49.8903 46.5924 -0.0027 5.1545 0.0019
# 2 49.8903 41.1914 45.9926 -0.0001 0.5489 0.0022
# 3 46.5924 45.9926 88.2344 -0.0002 5.9701 0.0013
# 4 -0.0027 -0.0001 -0.0002 29.1134 0.0018 0.6574
# 5 5.1545 0.5489 5.9701 0.0018 15.7231 -0.0018
# 6 0.0019 0.0022 0.0013 0.6574 -0.0018 26.1916
#
#
#
# Elastic Compliance Matrix: (Units=1/GPa)
#
#
# Indices 1 2 3 4 5 6 
#
# 1 0.022768 -0.035177 0.006913 0.000003 -0.008861 0.000000
# 2 -0.035177 0.113913 -0.042403 -0.000005 0.023656 -0.000003
# 3 0.006913 -0.042403 0.030626 0.000002 -0.012415 0.000001
# 4 0.000003 -0.000005 0.000002 0.034368 -0.000005 -0.000863
# 5 -0.008861 0.023656 -0.012415 -0.000005 0.070394 0.000004
# 6 0.000000 -0.000003 0.000001 -0.000863 0.000004 0.038202
#
#
# Mechanical properties :
#
#
# Convention : Reuss Voigt Hill
#
# Bulk Modulus (GPa) = 38.50182 58.13763 48.31973
# Shear Modulus (GPa) = 10.86340 20.59311 15.72825
#
# Velocity S-wave (km/s) = 2.41507 3.32513 2.90595
# Velocity P-wave (km/s) = 5.33371 6.77910 6.09937
#
# Compressibility (1/GPa) = 0.02597280
#
# Stress axis : x y z
#
# Youngs Moduli (GPa) = 43.92136 8.77865 32.65221
#
# Poissons Ratio (x) = 0.30881 -0.22572
# Poissons Ratio (y) = 1.54501 1.38455
# Poissons Ratio (z) = -0.30363 0.37224
#
# Static dielectric constant tensor:
#      x y z
#    x 1.652480 0.000000 0.019330 
#    y 0.000000 1.633080 0.000000 
#    z 0.019330 0.000000 1.623710 
# 
# From -- ./inp_files/295528.got.cif
#   From: 2010.05.17/outbox.cif.g08.bks.cpg/sg12_148_cif.got.tgz:295528.got - 2010.06.03 13:09:07.
