data_PCOD9202400
_publ_section_title
;
Structure prediction by ZEFSAII (Michael W. Deem and Ramdas Pophale) SiO2 
 PCOD9202400
Probable space group: C 2/M
;
_chemical_formula_sum "Si O2"
_cell_formula_units_Z 64
_cell_length_a 26.876602
_cell_length_b 7.998484
_cell_length_c 14.346869
_cell_angle_alpha 90.000000
_cell_angle_beta 86.493928
_cell_angle_gamma 90.000000
_cell_volume 3078.403561
_symmetry_space_group_name_H-M "C 2/M"
_symmetry_group_IT_number 12
_symmetry_cell_setting 'monoclinic'
loop_
_space_group_symop_operation_xyz
x,y,z
-x,y,-z
-x,-y,-z
x,-y,z
1/2+x,1/2+y,z
1/2-x,1/2+y,-z
1/2-x,1/2-y,-z
1/2+x,1/2-y,z
loop_
_atom_site_type_symbol
_atom_site_label
_atom_site_fract_x
_atom_site_fract_y
_atom_site_fract_z
Si Si1 0.018372 0.196369 0.397985
Si Si2 0.130791 0.701962 0.407150
Si Si3 0.509510 0.195754 0.798394
Si Si4 0.105783 0.196446 0.895758
Si Si5 0.594336 0.197232 0.106627
Si Si6 0.299837 0.200010 0.438576
Si Si7 0.812380 0.703522 0.786008
Si Si8 0.702681 0.700405 0.776194
O O1 0.077694 0.221402 0.389286
O O2 0.000000 0.261415 0.500000
O O3 0.994109 0.284378 0.312092
O O4 0.006238 0.000000 0.393405
O O5 0.125250 0.500000 0.408202
O O6 0.153628 0.756965 0.503068
O O7 0.169581 0.743545 0.320620
O O8 0.557620 0.281346 0.836452
O O9 0.457574 0.265895 0.846514
O O10 0.513071 0.000000 0.822459
O O11 0.154760 0.264627 0.837572
O O12 0.112900 0.000000 0.913240
O O13 0.096780 0.280921 0.996148
O O14 0.644431 0.265187 0.149595
O O15 0.593344 0.000000 0.130240
O O16 0.250000 0.250000 0.500000
O O17 0.300818 0.265649 0.333630
O O18 0.301388 0.000000 0.434607
O O19 0.810672 0.500000 0.792915
O O20 0.756134 0.765286 0.806331
O O21 0.702783 0.500000 0.787112
#
# Coordination Sequence:
#
# PCOD9202400 Si02
#       8
#     8   8   8   8   8   8   8   8
#     4  11  25  41  59  90 128 161 194 244 309 361
#     4  10  20  38  61  86 117 159 205 245 295 359
#     4  11  23  42  67  91 118 160 209 251 298 363
#     4  11  25  41  60  90 126 161 198 250 316 365
#     4  10  21  40  66  90 113 151 206 258 306 364
#     4  11  22  36  59  89 120 158 203 245 291 351
#     4   9  17  37  64  87 116 156 200 247 295 353
#     4  10  22  41  61  85 124 166 201 246 305 364
#
# _framework density 20.789995999999999
#
# number of rings (size 3 to 8) (size 9 to 14) (size 15 to 20)
#    0.000    1.625    2.500    1.875    1.750    6.000 
#    0.000    0.625    0.000    0.000    0.000    0.000 
#    0.000    0.000    0.000    0.000    0.000    0.000 
#
# Total GULP energy -178820.481141 kJ/mol
# GULP energy per Si atom -5588.140036 kJ/mol
# Density = 2.074268 g / cm^3
# Si number density = 20.789996 Si / 1000 Ang^3
#
#
#
# Elastic Constant Matrix: (Units=GPa)
#
#
# Indices 1 2 3 4 5 6 
#
# 1 134.5819 0.2277 56.4755 0.0000 4.0401 0.0000
# 2 0.2277 15.4148 -13.7660 0.0000 -3.4118 0.0000
# 3 56.4755 -13.7660 91.3858 0.0000 -12.0912 0.0000
# 4 0.0000 0.0000 0.0000 23.4050 0.0000 -1.1104
# 5 4.0401 -3.4118 -12.0912 0.0000 30.0856 0.0000
# 6 0.0000 0.0000 0.0000 -1.1104 0.0000 20.5195
#
#
#
# Elastic Compliance Matrix: (Units=1/GPa)
#
#
# Indices 1 2 3 4 5 6 
#
# 1 0.011693 -0.010248 -0.009644 0.000000 -0.006608 0.000000
# 2 -0.010248 0.089758 0.022584 0.000000 0.020631 0.000000
# 3 -0.009644 0.022584 0.021984 0.000000 0.012691 0.000000
# 4 0.000000 0.000000 0.000000 0.042836 0.000000 0.002318
# 5 -0.006608 0.020631 0.012691 0.000000 0.041566 0.000000
# 6 0.000000 0.000000 0.000000 0.002318 0.000000 0.048860
#
#
# Mechanical properties :
#
#
# Convention : Reuss Voigt Hill
#
# Bulk Modulus (GPa) = 7.76289 36.36189 22.06239
# Shear Modulus (GPa) = 16.99210 28.03169 22.51190
#
# Velocity S-wave (km/s) = 2.86198 3.67594 3.29420
# Velocity P-wave (km/s) = 3.82927 5.96194 5.01039
#
# Compressibility (1/GPa) = 0.12881804
#
# Stress axis : x y z
#
# Youngs Moduli (GPa) = 85.51890 11.14101 45.48775
#
# Poissons Ratio (x) = 0.11418 0.43871
# Poissons Ratio (y) = 0.87642 -1.02729
# Poissons Ratio (z) = 0.82478 -0.25161
#
# Static dielectric constant tensor:
#      x y z
#    x 1.749290 0.000000 -0.003030 
#    y 0.000000 1.843790 0.000000 
#    z -0.003030 0.000000 1.696240 
# 
# From -- ./inp_files/238739.got.cif
#   From: 2010.05.17/outbox.cif.g08.bks.cpg/sg12_120_cif.got.tgz:238739.got - 2010.06.03 13:09:07.
