data_PCOD9202240
_publ_section_title
;
Structure prediction by ZEFSAII (Michael W. Deem and Ramdas Pophale) SiO2 
 PCOD9202240
Probable space group: C 2/M
;
_chemical_formula_sum "Si O2"
_cell_formula_units_Z 48
_cell_length_a 16.438545
_cell_length_b 8.584966
_cell_length_c 29.991322
_cell_angle_alpha 90.000000
_cell_angle_beta 144.836609
_cell_angle_gamma 90.000000
_cell_volume 2437.542790
_symmetry_space_group_name_H-M "C 2/M"
_symmetry_group_IT_number 12
_symmetry_cell_setting 'monoclinic'
loop_
_space_group_symop_operation_xyz
x,y,z
-x,y,-z
-x,-y,-z
x,-y,z
1/2+x,1/2+y,z
1/2-x,1/2+y,-z
1/2-x,1/2-y,-z
1/2+x,1/2-y,z
loop_
_atom_site_type_symbol
_atom_site_label
_atom_site_fract_x
_atom_site_fract_y
_atom_site_fract_z
Si Si1 0.359400 0.188440 0.177435
Si Si2 0.881662 0.812712 0.086937
Si Si3 0.841445 0.314070 0.500457
Si Si4 0.678155 0.310947 0.176474
Si Si5 0.159059 0.688286 0.663585
Si Si6 0.670340 0.185076 0.340985
O O1 0.367548 0.256485 0.131577
O O2 0.229761 0.241029 0.150798
O O3 0.505503 0.228666 0.268285
O O4 0.354135 0.000000 0.171176
O O5 0.027534 0.758422 0.128515
O O6 0.882705 0.000000 0.087137
O O7 0.750000 0.750000 0.000000
O O8 0.843533 0.500000 0.503127
O O9 0.750000 0.250000 0.500000
O O10 0.767895 0.261944 0.422031
O O11 0.002901 0.260469 0.579169
O O12 0.672329 0.500000 0.172023
O O13 0.797018 0.271091 0.266495
O O14 0.166896 0.500000 0.663033
O O15 0.270810 0.763201 0.680341
O O16 0.679769 0.000000 0.350538
#
# Coordination Sequence:
#
# PCOD9202240 Si02
#       6
#     8   8   8   8   8   8
#     4  10  21  40  64  90 120 159 204 247 293 355
#     4  11  23  41  65  91 121 156 195 246 302 364
#     4  11  23  37  56  82 117 159 205 256 300 354
#     4   9  19  38  64  87 116 160 203 239 293 363
#     4  10  20  38  60  83 115 159 208 247 293 358
#     4  11  22  36  58  87 121 156 199 253 303 353
#
# _framework density 19.691962
#
# number of rings (size 3 to 8) (size 9 to 14) (size 15 to 20)
#    0.000    1.667    1.667    3.000    0.000    7.333 
#    0.000    5.833    0.000    0.000    0.000    0.000 
#    0.000    0.000    0.000    0.000    0.000    0.000 
#
# Total GULP energy -134054.585553 kJ/mol
# GULP energy per Si atom -5585.607731 kJ/mol
# Density = 1.964714 g / cm^3
# Si number density = 19.691962 Si / 1000 Ang^3
#
#
#
# Elastic Constant Matrix: (Units=GPa)
#
#
# Indices 1 2 3 4 5 6 
#
# 1 168.1411 24.3286 63.6686 0.0000 4.4875 0.0000
# 2 24.3286 19.4184 26.8726 0.0000 3.2514 0.0001
# 3 63.6686 26.8726 123.2961 0.0000 8.6921 0.0000
# 4 0.0000 0.0000 0.0000 28.5216 0.0000 -6.0672
# 5 4.4875 3.2514 8.6921 0.0000 12.8102 0.0000
# 6 0.0000 0.0001 0.0000 -6.0672 0.0000 31.8524
#
#
#
# Elastic Compliance Matrix: (Units=1/GPa)
#
#
# Indices 1 2 3 4 5 6 
#
# 1 0.007867 -0.006131 -0.002774 0.000000 0.000683 0.000000
# 2 -0.006131 0.079347 -0.013505 0.000000 -0.008828 0.000000
# 3 -0.002774 -0.013505 0.012788 0.000000 -0.004277 0.000000
# 4 0.000000 0.000000 0.000000 0.036542 0.000000 0.006960
# 5 0.000683 -0.008828 -0.004277 0.000000 0.082967 0.000000
# 6 0.000000 0.000000 0.000000 0.006960 0.000000 0.032721
#
#
# Mechanical properties :
#
#
# Convention : Reuss Voigt Hill
#
# Bulk Modulus (GPa) = 18.12238 60.06613 39.09425
# Shear Modulus (GPa) = 15.85058 27.70255 21.77656
#
# Velocity S-wave (km/s) = 2.84020 3.75480 3.32906
# Velocity P-wave (km/s) = 4.46974 7.02617 5.88836
#
# Compressibility (1/GPa) = 0.05518040
#
# Stress axis : x y z
#
# Youngs Moduli (GPa) = 127.11721 12.60287 78.19740
#
# Poissons Ratio (x) = 0.07727 0.21693
# Poissons Ratio (y) = 0.77939 1.05609
# Poissons Ratio (z) = 0.35264 0.17021
#
# Static dielectric constant tensor:
#      x y z
#    x 1.694110 0.000000 0.018120 
#    y 0.000000 1.676740 0.000000 
#    z 0.018120 0.000000 1.656750 
# 
# From -- ./inp_files/274628.got.cif
#   From: 2010.05.17/outbox.cif.g08.bks.cpg/sg12_138_cif.got.tgz:274628.got - 2010.06.03 13:09:07.
