data_PCOD9202592
_publ_section_title
;
Structure prediction by ZEFSAII (Michael W. Deem and Ramdas Pophale) SiO2 
 PCOD9202592
Probable space group: C 2/M
;
_chemical_formula_sum "Si O2"
_cell_formula_units_Z 48
_cell_length_a 23.510384
_cell_length_b 8.641212
_cell_length_c 11.992523
_cell_angle_alpha 90.000000
_cell_angle_beta 119.513636
_cell_angle_gamma 90.000000
_cell_volume 2120.231217
_symmetry_space_group_name_H-M "C 2/M"
_symmetry_group_IT_number 12
_symmetry_cell_setting 'monoclinic'
loop_
_space_group_symop_operation_xyz
x,y,z
-x,y,-z
-x,-y,-z
x,-y,z
1/2+x,1/2+y,z
1/2-x,1/2+y,-z
1/2-x,1/2-y,-z
1/2+x,1/2-y,z
loop_
_atom_site_type_symbol
_atom_site_label
_atom_site_fract_x
_atom_site_fract_y
_atom_site_fract_z
Si Si1 0.021826 0.320149 0.696608
Si Si2 0.703351 0.820514 0.088129
Si Si3 0.844949 0.187272 0.272663
Si Si4 0.930756 0.822386 0.044930
Si Si5 0.119513 0.324121 0.213613
Si Si6 0.115108 0.182267 0.449618
O O1 0.011446 0.500000 0.664629
O O2 0.089739 0.263236 0.711206
O O3 0.960082 0.223940 0.594736
O O4 0.027741 0.286857 0.834766
O O5 0.777283 0.765413 0.148382
O O6 0.644853 0.711316 0.990476
O O7 0.685952 0.824485 0.204242
O O8 0.695484 0.000000 0.042062
O O9 0.843024 0.227370 0.402277
O O10 0.849696 0.000000 0.268576
O O11 0.927188 0.779473 0.910928
O O12 0.947951 0.000000 0.079731
O O13 0.095259 0.500000 0.190633
O O14 0.129696 0.266036 0.347568
O O15 0.121339 0.000000 0.437934
#
# Coordination Sequence:
#
# PCOD9202592 Si02
#       6
#     8   8   8   8   8   8
#     4  12  25  40  59  85 118 157 198 242 292 346
#     4   8  18  38  61  88 120 152 188 237 293 346
#     4  10  22  41  62  86 119 157 196 239 287 343
#     4  10  20  38  62  89 117 150 194 242 292 346
#     4   9  19  38  61  89 121 152 190 238 291 346
#     4  11  23  39  61  88 118 156 198 240 287 343
#
# _framework density 22.639040999999999
#
# number of rings (size 3 to 8) (size 9 to 14) (size 15 to 20)
#    1.000    1.000    0.000    4.000    0.000    6.000 
#    0.000    3.333    0.000    0.000    0.000    0.000 
#    0.000    0.000    0.000    0.000    0.000    0.000 
#
# Total GULP energy -134069.292156 kJ/mol
# GULP energy per Si atom -5586.220507 kJ/mol
# Density = 2.258751 g / cm^3
# Si number density = 22.639041 Si / 1000 Ang^3
#
#
#
# Elastic Constant Matrix: (Units=GPa)
#
#
# Indices 1 2 3 4 5 6 
#
# 1 54.7703 -11.5921 -5.9620 0.0000 -3.2573 0.0000
# 2 -11.5921 42.6613 -2.3201 0.0000 -8.4322 0.0000
# 3 -5.9620 -2.3201 76.6925 0.0000 -4.8293 0.0000
# 4 0.0000 0.0000 0.0000 25.0542 0.0000 -7.0018
# 5 -3.2573 -8.4322 -4.8293 0.0000 34.3104 0.0000
# 6 0.0000 0.0000 0.0000 -7.0018 0.0000 32.2579
#
#
#
# Elastic Compliance Matrix: (Units=1/GPa)
#
#
# Indices 1 2 3 4 5 6 
#
# 1 0.020026 0.006285 0.001981 0.000000 0.003725 0.000000
# 2 0.006285 0.026709 0.001763 0.000000 0.007409 0.000000
# 3 0.001981 0.001763 0.013404 0.000000 0.002508 0.000000
# 4 0.000000 0.000000 0.000000 0.042491 0.000000 0.009223
# 5 0.003725 0.007409 0.002508 0.000000 0.031673 0.000000
# 6 0.000000 0.000000 0.000000 0.009223 0.000000 0.033002
#
#
# Mechanical properties :
#
#
# Convention : Reuss Voigt Hill
#
# Bulk Modulus (GPa) = 12.46902 14.93061 13.69982
# Shear Modulus (GPa) = 28.73932 31.25772 29.99852
#
# Velocity S-wave (km/s) = 3.56681 3.71981 3.64411
# Velocity P-wave (km/s) = 4.74158 5.00587 4.87551
#
# Compressibility (1/GPa) = 0.08019876
#
# Stress axis : x y z
#
# Youngs Moduli (GPa) = 49.93612 37.44103 74.60240
#
# Poissons Ratio (x) = -0.23533 -0.14782
# Poissons Ratio (y) = -0.31387 -0.13154
# Poissons Ratio (z) = -0.09895 -0.06601
#
# Static dielectric constant tensor:
#      x y z
#    x 1.922780 0.000000 -0.044630 
#    y 0.000000 1.749060 0.000000 
#    z -0.044630 0.000000 1.857730 
# 
# From -- ./inp_files/180270.got.cif
#   From: 2010.05.17/outbox.cif.g08.bks.cpg/sg12_91_cif.got.tgz:180270.got - 2010.06.03 13:09:07.
