data_PCOD9202351
_publ_section_title
;
Structure prediction by ZEFSAII (Michael W. Deem and Ramdas Pophale) SiO2 
 PCOD9202351
Probable space group: C 2/M
;
_chemical_formula_sum "Si O2"
_cell_formula_units_Z 40
_cell_length_a 15.073927
_cell_length_b 7.414220
_cell_length_c 29.449698
_cell_angle_alpha 90.000000
_cell_angle_beta 27.556847
_cell_angle_gamma 90.000000
_cell_volume 1522.667428
_symmetry_space_group_name_H-M "C 2/M"
_symmetry_group_IT_number 12
_symmetry_cell_setting 'monoclinic'
loop_
_space_group_symop_operation_xyz
x,y,z
-x,y,-z
-x,-y,-z
x,-y,z
1/2+x,1/2+y,z
1/2-x,1/2+y,-z
1/2-x,1/2-y,-z
1/2+x,1/2-y,z
loop_
_atom_site_type_symbol
_atom_site_label
_atom_site_fract_x
_atom_site_fract_y
_atom_site_fract_z
Si Si1 0.747860 0.295303 0.145540
Si Si2 0.762311 0.288882 0.235364
Si Si3 0.007165 0.218932 0.568910
Si Si4 0.336009 0.713919 0.911630
Si Si5 0.189013 0.717875 0.636759
O O1 0.824745 0.500000 0.109596
O O2 0.815793 0.209192 0.162018
O O3 0.771396 0.214657 0.084579
O O4 0.517441 0.296715 0.258403
O O5 0.723211 0.500000 0.245149
O O6 0.579203 0.211576 0.344675
O O7 0.946109 0.280072 0.184317
O O8 0.843863 0.260822 0.605526
O O9 0.208589 0.279519 0.456494
O O10 0.015949 0.000000 0.567231
O O11 0.341590 0.500000 0.903004
O O12 0.250000 0.750000 0.000000
O O13 0.168386 0.500000 0.645116
#
# Coordination Sequence:
#
# PCOD9202351 Si02
#       5
#     8   8   8   8   8
#     4  10  22  37  56  85 117 144 180 231 283 325
#     4  10  20  38  61  83 112 151 186 222 273 331
#     4   8  15  29  53  82 111 149 191 223 259 317
#     4  11  24  42  61  83 110 141 181 232 285 336
#     4   9  16  30  54  82 112 151 193 224 257 318
#
# _framework density 26.269689
#
# number of rings (size 3 to 8) (size 9 to 14) (size 15 to 20)
#    0.000    2.400    2.000    1.800    0.000    3.200 
#    0.000    7.000    0.000    0.000    0.000    0.000 
#    0.000    0.000    0.000    0.000    0.000    0.000 
#
# Total GULP energy -111808.472311 kJ/mol
# GULP energy per Si atom -5590.423616 kJ/mol
# Density = 2.620990 g / cm^3
# Si number density = 26.269689 Si / 1000 Ang^3
#
#
#
# Elastic Constant Matrix: (Units=GPa)
#
#
# Indices 1 2 3 4 5 6 
#
# 1 143.2342 4.7940 26.0665 0.0008 38.0669 0.0085
# 2 4.7940 97.6973 -1.2744 0.0486 7.3984 0.0328
# 3 26.0665 -1.2744 133.2742 -0.0016 41.1120 -0.0030
# 4 0.0008 0.0486 -0.0016 9.7005 0.0017 -8.0547
# 5 38.0669 7.3984 41.1120 0.0017 63.1460 0.0021
# 6 0.0085 0.0328 -0.0030 -8.0547 0.0021 -1.6122
#
#
#
# Elastic Compliance Matrix: (Units=1/GPa)
#
#
# Indices 1 2 3 4 5 6 
#
# 1 0.008315 -0.000035 -0.000102 0.000006 -0.004942 0.000007
# 2 -0.000035 0.010365 0.000593 0.000023 -0.001579 0.000090
# 3 -0.000102 0.000593 0.009424 -0.000002 -0.006144 -0.000002
# 4 0.000006 0.000023 -0.000002 0.020023 -0.000002 -0.100036
# 5 -0.004942 -0.001579 -0.006144 -0.000002 0.023000 -0.000006
# 6 0.000007 0.000090 -0.000002 -0.100036 -0.000006 -0.120475
#
#
# Mechanical properties :
#
#
# Convention : Reuss Voigt Hill
#
# Bulk Modulus (GPa) = 34.46432 48.15308 41.30870
# Shear Modulus (GPa) = -123.19025 37.22149 -42.98438
#
# Velocity S-wave (km/s) = -6.85538 3.76825 -4.04948
# Velocity P-wave (km/s) = 7.03660 6.10762 2.47090
#
# Compressibility (1/GPa) = 0.02901551
#
# Stress axis : x y z
#
# Youngs Moduli (GPa) = 120.26883 96.48111 106.11031
#
# Poissons Ratio (x) = 0.00339 0.01084
# Poissons Ratio (y) = 0.00422 -0.06294
# Poissons Ratio (z) = 0.01228 -0.05723
#
# Static dielectric constant tensor:
#      x y z
#    x 2.093790 0.000000 0.092750 
#    y 0.000000 1.989860 -0.000010 
#    z 0.092750 -0.000010 2.026210 
# 
# From -- ./inp_files/211226.got.cif
#   From: 2010.05.17/outbox.cif.g08.bks.cpg/sg12_106_cif.got.tgz:211226.got - 2010.06.03 13:09:07.
