data_PCOD9202019
_publ_section_title
;
Structure prediction by ZEFSAII (Michael W. Deem and Ramdas Pophale) SiO2 
 PCOD9202019
Probable space group: C 2/M
;
_chemical_formula_sum "Si O2"
_cell_formula_units_Z 56
_cell_length_a 14.801847
_cell_length_b 9.009270
_cell_length_c 30.454117
_cell_angle_alpha 90.000000
_cell_angle_beta 126.932972
_cell_angle_gamma 90.000000
_cell_volume 3246.254236
_symmetry_space_group_name_H-M "C 2/M"
_symmetry_group_IT_number 12
_symmetry_cell_setting 'monoclinic'
loop_
_space_group_symop_operation_xyz
x,y,z
-x,y,-z
-x,-y,-z
x,-y,z
1/2+x,1/2+y,z
1/2-x,1/2+y,-z
1/2-x,1/2-y,-z
1/2+x,1/2-y,z
loop_
_atom_site_type_symbol
_atom_site_label
_atom_site_fract_x
_atom_site_fract_y
_atom_site_fract_z
Si Si1 0.793867 0.821565 0.737155
Si Si2 0.203643 0.676446 0.942085
Si Si3 0.965430 0.679364 0.350374
Si Si4 0.886094 0.325699 0.938796
Si Si5 0.078004 0.319443 0.562667
Si Si6 0.052401 0.323383 0.144218
Si Si7 0.663800 0.679318 0.350784
O O1 0.661495 0.778609 0.702189
O O2 0.869662 0.754656 0.797449
O O3 0.838726 0.779300 0.701666
O O4 0.797315 0.000000 0.740142
O O5 0.199655 0.500000 0.947576
O O6 0.288700 0.722772 0.928907
O O7 0.077658 0.727740 0.893337
O O8 0.250000 0.750000 0.000000
O O9 0.973951 0.500000 0.350751
O O10 0.968368 0.723686 0.402785
O O11 0.064215 0.749877 0.350223
O O12 0.857351 0.500000 0.936990
O O13 0.906588 0.299847 0.893582
O O14 0.000000 0.298674 0.000000
O O15 0.077486 0.500000 0.562214
O O16 0.209677 0.276153 0.596741
O O17 0.000000 0.266974 0.500000
O O18 0.054295 0.500000 0.153120
O O19 0.656132 0.500000 0.351278
#
# Coordination Sequence:
#
# PCOD9202019 Si02
#       7
#     8   8   8   8   8   8   8
#     4   9  20  37  53  72 102 137 175 214 256 312
#     4  11  22  37  56  80 106 135 170 208 255 312
#     4   9  18  33  53  76 103 137 175 217 260 304
#     4  10  20  38  57  76 106 137 165 207 259 310
#     4   8  15  30  51  75 106 143 178 211 254 309
#     4  10  22  38  56  78 106 136 169 214 264 309
#     4   9  18  33  53  76 103 138 177 216 259 307
#
# _framework density 17.250651000000001
#
# number of rings (size 3 to 8) (size 9 to 14) (size 15 to 20)
#    0.000    2.571    1.429    2.143    0.000    4.857 
#    0.000    7.857    0.000    0.857    0.000    0.000 
#    0.000    0.000    0.000    0.000    0.000    0.000 
#
# Total GULP energy -156137.274413 kJ/mol
# GULP energy per Si atom -5576.331229 kJ/mol
# Density = 1.721139 g / cm^3
# Si number density = 17.250651 Si / 1000 Ang^3
#
#
#
# Elastic Constant Matrix: (Units=GPa)
#
#
# Indices 1 2 3 4 5 6 
#
# 1 133.3528 40.6033 76.5217 0.0000 8.3118 0.0000
# 2 40.6033 21.5645 41.4068 0.0000 2.4227 0.0000
# 3 76.5217 41.4068 174.8083 0.0000 5.0298 0.0000
# 4 0.0000 0.0000 0.0000 20.6970 0.0000 -0.6677
# 5 8.3118 2.4227 5.0298 0.0000 11.8792 0.0000
# 6 0.0000 0.0000 0.0000 -0.6677 0.0000 36.1953
#
#
#
# Elastic Compliance Matrix: (Units=1/GPa)
#
#
# Indices 1 2 3 4 5 6 
#
# 1 0.017965 -0.033739 0.000295 0.000000 -0.005814 0.000000
# 2 -0.033739 0.149368 -0.020666 0.000000 0.001895 0.000000
# 3 0.000295 -0.020666 0.010499 0.000000 -0.000437 0.000000
# 4 0.000000 0.000000 0.000000 0.048345 0.000000 0.000892
# 5 -0.005814 0.001895 -0.000437 0.000000 0.088047 0.000000
# 6 0.000000 0.000000 0.000000 0.000892 0.000000 0.027644
#
#
# Mechanical properties :
#
#
# Convention : Reuss Voigt Hill
#
# Bulk Modulus (GPa) = 14.36539 71.86546 43.11542
# Shear Modulus (GPa) = 10.56429 25.16723 17.86576
#
# Velocity S-wave (km/s) = 2.47736 3.82372 3.22165
# Velocity P-wave (km/s) = 4.06554 7.82588 6.23590
#
# Compressibility (1/GPa) = 0.06961178
#
# Stress axis : x y z
#
# Youngs Moduli (GPa) = 55.66434 6.69488 95.24516
#
# Poissons Ratio (x) = 0.22588 -0.02809
# Poissons Ratio (y) = 1.87805 1.96836
# Poissons Ratio (z) = -0.01642 0.13836
#
# Static dielectric constant tensor:
#      x y z
#    x 1.575190 0.000000 -0.001610 
#    y 0.000000 1.580150 0.000000 
#    z -0.001610 0.000000 1.577020 
# 
# From -- ./inp_files/337887.got.cif
#   From: 2010.05.17/outbox.cif.g08.bks.cpg/sg12_169_cif.got.tgz:337887.got - 2010.06.03 13:09:07.
