data_PCOD9202018
_publ_section_title
;
Structure prediction by ZEFSAII (Michael W. Deem and Ramdas Pophale) SiO2 
 PCOD9202018
Probable space group: C 2/M
;
_chemical_formula_sum "Si O2"
_cell_formula_units_Z 56
_cell_length_a 30.956288
_cell_length_b 8.830668
_cell_length_c 12.818601
_cell_angle_alpha 90.000000
_cell_angle_beta 105.464214
_cell_angle_gamma 90.000000
_cell_volume 3377.292811
_symmetry_space_group_name_H-M "C 2/M"
_symmetry_group_IT_number 12
_symmetry_cell_setting 'monoclinic'
loop_
_space_group_symop_operation_xyz
x,y,z
-x,y,-z
-x,-y,-z
x,-y,z
1/2+x,1/2+y,z
1/2-x,1/2+y,-z
1/2-x,1/2-y,-z
1/2+x,1/2-y,z
loop_
_atom_site_type_symbol
_atom_site_label
_atom_site_fract_x
_atom_site_fract_y
_atom_site_fract_z
Si Si1 0.950510 0.682325 0.010221
Si Si2 0.047929 0.318031 0.745630
Si Si3 0.298647 0.318113 0.412794
Si Si4 0.891138 0.818135 0.793929
Si Si5 0.555162 0.818133 0.367427
Si Si6 0.204726 0.181855 0.345773
Si Si7 0.104395 0.181713 0.599567
O O1 0.946628 0.500000 0.997997
O O2 0.946839 0.722317 0.129457
O O3 0.913759 0.759693 0.913875
O O4 0.000000 0.723737 0.000000
O O5 0.052651 0.500000 0.739429
O O6 0.083132 0.238133 0.693165
O O7 0.997341 0.279583 0.677451
O O8 0.295781 0.500000 0.407960
O O9 0.252076 0.250523 0.342515
O O10 0.303027 0.273131 0.537842
O O11 0.343748 0.271658 0.382630
O O12 0.918500 0.748648 0.714563
O O13 0.839114 0.772855 0.747065
O O14 0.893624 0.000000 0.789265
O O15 0.576142 0.751956 0.486160
O O16 0.559053 0.000000 0.369424
O O17 0.208043 0.000000 0.345456
O O18 0.102253 0.000000 0.590898
#
# Coordination Sequence:
#
# PCOD9202018 Si02
#       7
#     8   8   8   8   8   8   8
#     4  10  20  38  57  76 105 142 183 224 261 307
#     4  10  22  38  54  75 106 144 186 221 254 312
#     4   9  18  33  51  75 107 138 171 212 262 318
#     4  11  21  34  54  82 113 138 173 223 272 315
#     4  11  21  35  54  77 108 147 183 214 259 317
#     4   9  18  33  51  76 108 136 169 216 265 314
#     4  11  22  36  53  79 113 142 174 221 269 316
#
# _framework density 16.581327999999999
#
# number of rings (size 3 to 8) (size 9 to 14) (size 15 to 20)
#    0.000    1.857    2.857    1.714    0.000    6.000 
#    0.000    0.000    0.000    0.857    0.000    0.000 
#    0.000    0.000    0.000    0.000    0.000    0.000 
#
# Total GULP energy -156314.122254 kJ/mol
# GULP energy per Si atom -5582.647223 kJ/mol
# Density = 1.654359 g / cm^3
# Si number density = 16.581328 Si / 1000 Ang^3
#
#
#
# Elastic Constant Matrix: (Units=GPa)
#
#
# Indices 1 2 3 4 5 6 
#
# 1 165.8024 54.3559 98.8224 0.0000 12.0229 0.0000
# 2 54.3559 32.2787 40.1763 0.0000 1.8529 0.0000
# 3 98.8224 40.1763 101.3579 0.0000 2.3985 0.0000
# 4 0.0000 0.0000 0.0000 28.9741 0.0000 0.6908
# 5 12.0229 1.8529 2.3985 0.0000 28.9710 0.0000
# 6 0.0000 0.0000 0.0000 0.6908 0.0000 31.3360
#
#
#
# Elastic Compliance Matrix: (Units=1/GPa)
#
#
# Indices 1 2 3 4 5 6 
#
# 1 0.018996 -0.017317 -0.011519 0.000000 -0.005822 0.000000
# 2 -0.017317 0.077040 -0.013734 0.000000 0.003396 0.000000
# 3 -0.011519 -0.013734 0.026459 0.000000 0.003468 0.000000
# 4 0.000000 0.000000 0.000000 0.034532 0.000000 -0.000761
# 5 -0.005822 0.003396 0.003468 0.000000 0.036429 0.000000
# 6 0.000000 0.000000 0.000000 -0.000761 0.000000 0.031929
#
#
# Mechanical properties :
#
#
# Convention : Reuss Voigt Hill
#
# Bulk Modulus (GPa) = 26.76988 76.23868 51.50428
# Shear Modulus (GPa) = 15.48096 24.92854 20.20475
#
# Velocity S-wave (km/s) = 3.05886 3.88159 3.49452
# Velocity P-wave (km/s) = 5.35305 8.13434 6.88559
#
# Compressibility (1/GPa) = 0.03735542
#
# Stress axis : x y z
#
# Youngs Moduli (GPa) = 52.64151 12.98020 37.79470
#
# Poissons Ratio (x) = 0.22478 0.43537
# Poissons Ratio (y) = 0.91161 0.51906
# Poissons Ratio (z) = 0.60639 0.17826
#
# Static dielectric constant tensor:
#      x y z
#    x 1.550520 0.000000 0.006910 
#    y 0.000000 1.558440 0.000000 
#    z 0.006910 0.000000 1.535300 
# 
# From -- ./inp_files/181111.got.cif
#   From: 2010.05.17/outbox.cif.g08.bks.cpg/sg12_91_cif.got.tgz:181111.got - 2010.06.03 13:09:07.
