data_PCOD9202937
_publ_section_title
;
Structure prediction by ZEFSAII (Michael W. Deem and Ramdas Pophale) SiO2 
 PCOD9202937
Probable space group: C 2/M
;
_chemical_formula_sum "Si O2"
_cell_formula_units_Z 46
_cell_length_a 26.177089
_cell_length_b 12.406862
_cell_length_c 20.522312
_cell_angle_alpha 90.000000
_cell_angle_beta 159.023797
_cell_angle_gamma 90.000000
_cell_volume 2385.989653
_symmetry_space_group_name_H-M "C 2/M"
_symmetry_group_IT_number 12
_symmetry_cell_setting 'monoclinic'
loop_
_space_group_symop_operation_xyz
x,y,z
-x,y,-z
-x,-y,-z
x,-y,z
1/2+x,1/2+y,z
1/2-x,1/2+y,-z
1/2-x,1/2-y,-z
1/2+x,1/2-y,z
loop_
_atom_site_type_symbol
_atom_site_label
_atom_site_fract_x
_atom_site_fract_y
_atom_site_fract_z
Si Si1 0.000000 0.284455 0.000000
Si Si2 0.954162 0.743362 0.601279
Si Si3 0.686991 0.186498 0.777451
Si Si4 0.016024 0.874000 0.804232
Si Si5 0.290199 0.374889 0.295468
Si Si6 0.671012 0.624800 0.297623
Si Si7 0.500000 0.000000 0.500000
O O1 0.124372 0.355354 0.116238
O O2 0.075257 0.205829 0.141451
O O3 0.880687 0.827071 0.463533
O O4 0.833690 0.656833 0.477294
O O5 0.084778 0.689570 0.718630
O O6 0.003764 0.804098 0.724950
O O7 0.679772 0.299361 0.730827
O O8 0.622941 0.094586 0.654777
O O9 0.846405 0.160230 0.989873
O O10 0.877587 0.861289 0.685488
O O11 0.030132 0.000000 0.804465
O O12 0.319950 0.500000 0.319878
O O13 0.644989 0.500000 0.249093
#
# Coordination Sequence:
#
# PCOD9202937 Si02
#       7
#     4   8   8   8   8   8   2
#     4  10  20  38  64  94 128 163 217 270 324 378
#     4  11  24  40  62  94 130 171 210 259 330 385
#     4  12  24  42  68  96 130 166 216 273 319 382
#     4  11  23  42  64  90 128 171 214 267 318 389
#     4  11  23  41  64  94 128 168 216 262 318 387
#     4  10  22  38  65  95 128 166 217 271 320 384
#     4  12  24  44  66 102 132 164 214 276 332 360
#
# _framework density 19.279212000000001
#
# number of rings (size 3 to 8) (size 9 to 14) (size 15 to 20)
#    0.000    1.043    4.348    2.087    1.217    2.087 
#    0.000    0.870    0.000    0.000    0.000    0.000 
#    0.000    0.000    0.000    0.000    0.000    0.000 
#
# Total GULP energy -128315.381167 kJ/mol
# GULP energy per Si atom -5578.929616 kJ/mol
# Density = 1.923533 g / cm^3
# Si number density = 19.279212 Si / 1000 Ang^3
#
#
#
# Elastic Constant Matrix: (Units=GPa)
#
#
# Indices 1 2 3 4 5 6 
#
# 1 63.6471 6.0842 17.5127 -0.0003 21.6236 -0.0003
# 2 6.0842 81.9774 -6.2769 -0.0005 8.7646 -0.0008
# 3 17.5127 -6.2769 46.3264 -0.0005 12.7712 -0.0008
# 4 -0.0003 -0.0005 -0.0005 18.4814 -0.0002 8.6362
# 5 21.6236 8.7646 12.7712 -0.0002 36.2440 -0.0003
# 6 -0.0003 -0.0008 -0.0008 8.6362 -0.0003 -2.8513
#
#
#
# Elastic Compliance Matrix: (Units=1/GPa)
#
#
# Indices 1 2 3 4 5 6 
#
# 1 0.020710 -0.000818 -0.005082 0.000000 -0.010368 0.000000
# 2 -0.000818 0.012892 0.003080 0.000001 -0.003715 -0.000001
# 3 -0.005082 0.003080 0.025800 0.000001 -0.006804 -0.000002
# 4 0.000000 0.000001 0.000001 0.022402 0.000000 0.067852
# 5 -0.010368 -0.003715 -0.006804 0.000000 0.037072 0.000000
# 6 0.000000 -0.000001 -0.000002 0.067852 0.000000 -0.145202
#
#
# Mechanical properties :
#
#
# Convention : Reuss Voigt Hill
#
# Bulk Modulus (GPa) = 18.59984 25.17677 21.88830
# Shear Modulus (GPa) = -1808.13433 22.01689 -893.05872
#
# Velocity S-wave (km/s) = -30.65784 3.38302 -21.54598
# Velocity P-wave (km/s) = 35.26381 5.32420 24.64943
#
# Compressibility (1/GPa) = 0.05376390
#
# Stress axis : x y z
#
# Youngs Moduli (GPa) = 48.28501 77.56624 38.75956
#
# Poissons Ratio (x) = 0.06343 0.19697
# Poissons Ratio (y) = 0.03948 -0.11938
# Poissons Ratio (z) = 0.24537 -0.23891
#
# Static dielectric constant tensor:
#      x y z
#    x 1.683160 0.000000 0.019200 
#    y 0.000000 1.624470 0.000000 
#    z 0.019200 0.000000 1.656370 
# 
# From -- ./inp_files/328031.got.cif
#   From: 2010.05.17/outbox.cif.g08.bks.cpg/sg12_165_cif.got.tgz:328031.got - 2010.06.03 13:09:07.
