data_PCOD9202397
_publ_section_title
;
Structure prediction by ZEFSAII (Michael W. Deem and Ramdas Pophale) SiO2 
 PCOD9202397
Probable space group: C 2/M
;
_chemical_formula_sum "Si O2"
_cell_formula_units_Z 40
_cell_length_a 24.581594
_cell_length_b 13.749947
_cell_length_c 22.302828
_cell_angle_alpha 90.000000
_cell_angle_beta 164.068067
_cell_angle_gamma 90.000000
_cell_volume 2069.215572
_symmetry_space_group_name_H-M "C 2/M"
_symmetry_group_IT_number 12
_symmetry_cell_setting 'monoclinic'
loop_
_space_group_symop_operation_xyz
x,y,z
-x,y,-z
-x,-y,-z
x,-y,z
1/2+x,1/2+y,z
1/2-x,1/2+y,-z
1/2-x,1/2-y,-z
1/2+x,1/2-y,z
loop_
_atom_site_type_symbol
_atom_site_label
_atom_site_fract_x
_atom_site_fract_y
_atom_site_fract_z
Si Si1 0.284463 0.193403 0.301209
Si Si2 0.401183 0.605937 0.460836
Si Si3 0.970521 0.221425 0.752342
Si Si4 0.529045 0.388132 0.122647
Si Si5 0.201555 0.884941 0.889759
O O1 0.500000 0.183874 0.500000
O O2 0.263903 0.300252 0.309024
O O3 0.232435 0.121322 0.300403
O O4 0.129717 0.171505 0.084751
O O5 0.500000 0.599859 0.500000
O O6 0.308720 0.500000 0.376093
O O7 0.568807 0.624361 0.688747
O O8 0.750000 0.250000 0.500000
O O9 0.958343 0.157326 0.799017
O O10 0.073874 0.158766 0.809329
O O11 0.104021 0.317209 0.906467
O O12 0.467738 0.500000 0.059759
O O13 0.243996 0.000000 0.942824
#
# Coordination Sequence:
#
# PCOD9202397 Si02
#       5
#     8   8   8   8   8
#     4  10  20  38  61  86 117 151 189 239 297 355
#     4   9  17  33  59  86 113 147 187 234 289 347
#     4  11  23  40  61  87 120 160 204 250 295 349
#     4  11  24  39  57  86 118 150 196 246 293 353
#     4  10  22  40  61  88 122 159 200 246 298 356
#
# _framework density 19.330997
#
# number of rings (size 3 to 8) (size 9 to 14) (size 15 to 20)
#    0.000    1.800    0.000    5.400    0.000    4.800 
#    0.000    3.000    0.000    0.000    0.000    0.000 
#    0.000    0.000    0.000    0.000    0.000    0.000 
#
# Total GULP energy -111598.919553 kJ/mol
# GULP energy per Si atom -5579.945978 kJ/mol
# Density = 1.928700 g / cm^3
# Si number density = 19.330997 Si / 1000 Ang^3
#
#
#
# Elastic Constant Matrix: (Units=GPa)
#
#
# Indices 1 2 3 4 5 6 
#
# 1 111.2220 31.4599 60.7617 -0.0014 -18.4125 -0.0037
# 2 31.4599 154.8911 87.6385 -0.0036 -17.3636 -0.0048
# 3 60.7617 87.6385 105.6951 0.0014 -11.9716 -0.0081
# 4 -0.0014 -0.0036 0.0014 40.5949 -0.0009 -9.4105
# 5 -18.4125 -17.3636 -11.9716 -0.0009 36.6440 -0.0040
# 6 -0.0037 -0.0048 -0.0081 -9.4105 -0.0040 31.2859
#
#
#
# Elastic Compliance Matrix: (Units=1/GPa)
#
#
# Indices 1 2 3 4 5 6 
#
# 1 0.014954 0.003959 -0.011231 0.000002 0.005720 0.000001
# 2 0.003959 0.013446 -0.012957 0.000002 0.004127 0.000000
# 3 -0.011231 -0.012957 0.026300 -0.000002 -0.003191 0.000002
# 4 0.000002 0.000002 -0.000002 0.026480 0.000003 0.007965
# 5 0.005720 0.004127 -0.003191 0.000003 0.031077 0.000005
# 6 0.000001 0.000000 0.000002 0.007965 0.000005 0.034359
#
#
# Mechanical properties :
#
#
# Convention : Reuss Voigt Hill
#
# Bulk Modulus (GPa) = 70.22201 81.28093 75.75147
# Shear Modulus (GPa) = 26.06575 34.50150 30.28362
#
# Velocity S-wave (km/s) = 3.67603 4.22924 3.96230
# Velocity P-wave (km/s) = 7.37716 8.12323 7.75917
#
# Compressibility (1/GPa) = 0.01424055
#
# Stress axis : x y z
#
# Youngs Moduli (GPa) = 66.87183 74.37105 38.02290
#
# Poissons Ratio (x) = -0.29441 0.42704
# Poissons Ratio (y) = -0.26472 0.49267
# Poissons Ratio (z) = 0.75104 0.96364
#
# Static dielectric constant tensor:
#      x y z
#    x 1.671720 0.000000 0.020250 
#    y 0.000000 1.725760 0.000000 
#    z 0.020250 0.000000 1.652730 
# 
# From -- ./inp_files/284635.got.cif
#   From: 2010.05.17/outbox.cif.g08.bks.cpg/sg12_143_cif.got.tgz:284635.got - 2010.06.03 13:09:07.
