data_PCOD9202527
_publ_section_title
;
Structure prediction by ZEFSAII (Michael W. Deem and Ramdas Pophale) SiO2 
 PCOD9202527
Probable space group: C 2/M
;
_chemical_formula_sum "Si O2"
_cell_formula_units_Z 64
_cell_length_a 17.459864
_cell_length_b 14.682970
_cell_length_c 16.307237
_cell_angle_alpha 90.000000
_cell_angle_beta 134.222048
_cell_angle_gamma 90.000000
_cell_volume 2995.970804
_symmetry_space_group_name_H-M "C 2/M"
_symmetry_group_IT_number 12
_symmetry_cell_setting 'monoclinic'
loop_
_space_group_symop_operation_xyz
x,y,z
-x,y,-z
-x,-y,-z
x,-y,z
1/2+x,1/2+y,z
1/2-x,1/2+y,-z
1/2-x,1/2-y,-z
1/2+x,1/2-y,z
loop_
_atom_site_type_symbol
_atom_site_label
_atom_site_fract_x
_atom_site_fract_y
_atom_site_fract_z
Si Si1 0.600529 0.778008 0.240105
Si Si2 0.115985 0.602223 0.680489
Si Si3 0.224322 0.218758 0.742093
Si Si4 0.877582 0.737819 0.009660
Si Si5 0.401695 0.892899 0.602649
Si Si6 0.736021 0.895525 0.947428
Si Si7 0.846212 0.892137 0.619858
Si Si8 0.519798 0.608244 0.610565
O O1 0.710022 0.819590 0.285715
O O2 0.503001 0.778149 0.104374
O O3 0.568788 0.833292 0.297004
O O4 0.618960 0.674286 0.281679
O O5 0.130185 0.500000 0.657145
O O6 0.174639 0.684155 0.679656
O O7 0.169901 0.603643 0.812125
O O8 0.990537 0.622494 0.599134
O O9 0.128818 0.161245 0.710203
O O10 0.314239 0.230430 0.878029
O O11 0.828948 0.662698 0.034949
O O12 0.845093 0.838480 0.017458
O O13 0.278811 0.873876 0.490013
O O14 0.410536 0.000000 0.629592
O O15 0.752878 0.000000 0.984358
O O16 0.921322 0.869305 0.597097
O O17 0.858340 0.000000 0.645688
O O18 0.500000 0.629384 0.500000
O O19 0.536944 0.500000 0.630075
#
# Coordination Sequence:
#
# PCOD9202527 Si02
#       8
#     8   8   8   8   8   8   8   8
#     4  12  23  38  59  86 122 161 195 241 297 353
#     4   9  18  36  60  83 111 152 199 244 293 349
#     4  11  24  38  57  86 124 161 195 241 295 352
#     4  10  22  37  56  87 120 153 200 242 289 357
#     4  10  20  38  62  86 113 149 198 251 299 350
#     4   9  18  35  59  84 111 149 195 246 295 342
#     4  10  23  40  62  90 117 152 203 250 293 352
#     4  10  22  42  64  88 120 156 196 244 299 354
#
# _framework density 21.362023000000001
#
# number of rings (size 3 to 8) (size 9 to 14) (size 15 to 20)
#    0.000    1.875    1.250    2.250    3.500    4.000 
#    0.000    0.000    0.000    8.625    0.000    0.000 
#    0.000    0.000    0.000    0.000    0.000    0.000 
#
# Total GULP energy -178792.224385 kJ/mol
# GULP energy per Si atom -5587.257012 kJ/mol
# Density = 2.131340 g / cm^3
# Si number density = 21.362023 Si / 1000 Ang^3
#
#
#
# Elastic Constant Matrix: (Units=GPa)
#
#
# Indices 1 2 3 4 5 6 
#
# 1 66.8576 16.6744 17.7714 0.0000 26.8198 0.0000
# 2 16.6744 51.2812 26.8809 0.0000 6.8152 0.0000
# 3 17.7714 26.8809 74.4449 0.0000 23.4684 0.0000
# 4 0.0000 0.0000 0.0000 24.2733 0.0000 1.7909
# 5 26.8198 6.8152 23.4684 0.0000 28.7052 0.0000
# 6 0.0000 0.0000 0.0000 1.7909 0.0000 18.8969
#
#
#
# Elastic Compliance Matrix: (Units=1/GPa)
#
#
# Indices 1 2 3 4 5 6 
#
# 1 0.026271 -0.007549 0.004887 0.000000 -0.026749 0.000000
# 2 -0.007549 0.026297 -0.010709 0.000000 0.009565 0.000000
# 3 0.004887 -0.010709 0.022594 0.000000 -0.020495 0.000000
# 4 0.000000 0.000000 0.000000 0.041488 0.000000 -0.003932
# 5 -0.026749 0.009565 -0.020495 0.000000 0.074314 0.000000
# 6 0.000000 0.000000 0.000000 -0.003932 0.000000 0.053291
#
#
# Mechanical properties :
#
#
# Convention : Reuss Voigt Hill
#
# Bulk Modulus (GPa) = 20.65239 35.02635 27.83937
# Shear Modulus (GPa) = 17.41330 23.12554 20.26942
#
# Velocity S-wave (km/s) = 2.85818 3.29379 3.08369
# Velocity P-wave (km/s) = 4.53664 5.55855 5.07339
#
# Compressibility (1/GPa) = 0.04842055
#
# Stress axis : x y z
#
# Youngs Moduli (GPa) = 38.06471 38.02708 44.25960
#
# Poissons Ratio (x) = 0.28706 -0.21628
# Poissons Ratio (y) = 0.28735 0.47396
# Poissons Ratio (z) = -0.18601 0.40722
#
# Static dielectric constant tensor:
#      x y z
#    x 1.781090 0.000000 0.006260 
#    y 0.000000 1.745120 0.000000 
#    z 0.006260 0.000000 1.778250 
# 
# From -- ./inp_files/278172.got.cif
#   From: 2010.05.17/outbox.cif.g08.bks.cpg/sg12_140_cif.got.tgz:278172.got - 2010.06.03 13:09:07.
