data_PCOD9202132
_publ_section_title
;
Structure prediction by ZEFSAII (Michael W. Deem and Ramdas Pophale) SiO2 
 PCOD9202132
Probable space group: C 2/M
;
_chemical_formula_sum "Si O2"
_cell_formula_units_Z 60
_cell_length_a 17.732376
_cell_length_b 15.884127
_cell_length_c 11.741265
_cell_angle_alpha 90.000000
_cell_angle_beta 106.556502
_cell_angle_gamma 90.000000
_cell_volume 3169.969221
_symmetry_space_group_name_H-M "C 2/M"
_symmetry_group_IT_number 12
_symmetry_cell_setting 'monoclinic'
loop_
_space_group_symop_operation_xyz
x,y,z
-x,y,-z
-x,-y,-z
x,-y,z
1/2+x,1/2+y,z
1/2-x,1/2+y,-z
1/2-x,1/2-y,-z
1/2+x,1/2-y,z
loop_
_atom_site_type_symbol
_atom_site_label
_atom_site_fract_x
_atom_site_fract_y
_atom_site_fract_z
Si Si1 0.790832 0.903923 0.196837
Si Si2 0.658437 0.760471 0.183363
Si Si3 0.236906 0.156707 0.045074
Si Si4 0.589675 0.097984 0.834417
Si Si5 0.342905 0.242522 0.552493
Si Si6 0.589969 0.096626 0.576610
Si Si7 0.405792 0.594546 0.454520
Si Si8 0.500000 0.185431 0.000000
O O1 0.720364 0.838205 0.193843
O O2 0.864187 0.891724 0.313488
O O3 0.762793 0.000000 0.198948
O O4 0.813062 0.889284 0.074021
O O5 0.700946 0.676299 0.153252
O O6 0.636963 0.762020 0.306027
O O7 0.579054 0.768329 0.075428
O O8 0.320815 0.111624 0.086854
O O9 0.250000 0.250000 0.000000
O O10 0.588756 0.132366 0.705057
O O11 0.571226 0.000000 0.816154
O O12 0.530524 0.135073 0.902068
O O13 0.250000 0.250000 0.500000
O O14 0.369093 0.161232 0.491507
O O15 0.378440 0.327886 0.517965
O O16 0.500000 0.091116 0.500000
O O17 0.622454 0.000000 0.589604
O O18 0.500000 0.595027 0.500000
O O19 0.380335 0.500000 0.480499
#
# Coordination Sequence:
#
# PCOD9202132 Si02
#       8
#     8   8   8   8   8   8   8   4
#     4  10  20  38  63  86 115 156 203 252 301 358
#     4  11  24  38  57  92 125 161 199 249 304 373
#     4  10  20  38  59  80 120 156 202 244 292 366
#     4  11  22  37  60  89 120 158 204 250 302 363
#     4  12  23  39  64  91 124 164 206 253 318 365
#     4  10  23  41  60  88 126 166 204 247 306 377
#     4  10  23  42  65  90 117 158 213 263 303 360
#     4  12  23  36  60  90 129 156 198 254 309 362
#
# _framework density 18.927627999999999
#
# number of rings (size 3 to 8) (size 9 to 14) (size 15 to 20)
#    0.000    1.333    4.000    2.600    1.867    2.667 
#    0.000    1.333    0.000    0.000    0.000    5.133 
#    0.000    0.000    0.000    0.000    0.000    0.000 
#
# Total GULP energy -167244.318975 kJ/mol
# GULP energy per Si atom -5574.810632 kJ/mol
# Density = 1.888455 g / cm^3
# Si number density = 18.927628 Si / 1000 Ang^3
#
#
#
# Elastic Constant Matrix: (Units=GPa)
#
#
# Indices 1 2 3 4 5 6 
#
# 1 84.5923 40.3937 29.0834 0.0000 -4.6241 0.0000
# 2 40.3937 83.2686 30.1360 0.0000 -16.2987 0.0000
# 3 29.0834 30.1360 125.8861 0.0000 -13.2027 0.0000
# 4 0.0000 0.0000 0.0000 15.9047 0.0000 16.6950
# 5 -4.6241 -16.2987 -13.2027 0.0000 44.2341 0.0000
# 6 0.0000 0.0000 0.0000 16.6950 0.0000 -48.6781
#
#
#
# Elastic Compliance Matrix: (Units=1/GPa)
#
#
# Indices 1 2 3 4 5 6 
#
# 1 0.015938 -0.007291 -0.002110 0.000000 -0.001650 0.000000
# 2 -0.007291 0.017219 -0.001912 0.000000 0.005012 0.000000
# 3 -0.002110 -0.001912 0.009076 0.000000 0.001784 0.000000
# 4 0.000000 0.000000 0.000000 0.046231 0.000000 0.015856
# 5 -0.001650 0.005012 0.001784 0.000000 0.024814 0.000000
# 6 0.000000 0.000000 0.000000 0.015856 0.000000 -0.015105
#
#
# Mechanical properties :
#
#
# Convention : Reuss Voigt Hill
#
# Bulk Modulus (GPa) = 51.00103 54.77482 52.88792
# Shear Modulus (GPa) = 39.26674 15.23440 27.25057
#
# Velocity S-wave (km/s) = 4.55969 2.84011 3.79849
# Velocity P-wave (km/s) = 7.39762 6.30531 6.87320
#
# Compressibility (1/GPa) = 0.01960745
#
# Stress axis : x y z
#
# Youngs Moduli (GPa) = 62.74269 58.07475 110.18144
#
# Poissons Ratio (x) = 0.42342 0.23246
# Poissons Ratio (y) = 0.45746 0.21067
# Poissons Ratio (z) = 0.13238 0.11104
#
# Static dielectric constant tensor:
#      x y z
#    x 1.649780 0.000000 -0.015020 
#    y 0.000000 1.670580 0.000000 
#    z -0.015020 0.000000 1.713530 
# 
# From -- ./inp_files/156694.got.cif
#   From: 2010.05.17/outbox.cif.g08.bks.cpg/sg12_79_cif.got.tgz:156694.got - 2010.06.03 13:09:07.
