data_PCOD9202508
_publ_section_title
;
Structure prediction by ZEFSAII (Michael W. Deem and Ramdas Pophale) SiO2 
 PCOD9202508
Probable space group: C 2/M
;
_chemical_formula_sum "Si O2"
_cell_formula_units_Z 48
_cell_length_a 16.217658
_cell_length_b 8.672115
_cell_length_c 17.246294
_cell_angle_alpha 90.000000
_cell_angle_beta 88.364046
_cell_angle_gamma 90.000000
_cell_volume 2424.554192
_symmetry_space_group_name_H-M "C 2/M"
_symmetry_group_IT_number 12
_symmetry_cell_setting 'monoclinic'
loop_
_space_group_symop_operation_xyz
x,y,z
-x,y,-z
-x,-y,-z
x,-y,z
1/2+x,1/2+y,z
1/2-x,1/2+y,-z
1/2-x,1/2-y,-z
1/2+x,1/2-y,z
loop_
_atom_site_type_symbol
_atom_site_label
_atom_site_fract_x
_atom_site_fract_y
_atom_site_fract_z
Si Si1 0.094826 0.680457 0.649725
Si Si2 0.599224 0.179148 0.332771
Si Si3 0.843679 0.311765 0.187733
Si Si4 0.161731 0.183003 0.175054
Si Si5 0.341227 0.682571 0.507959
Si Si6 0.005437 0.686202 0.089279
O O1 0.114506 0.500000 0.633460
O O2 0.147001 0.734828 0.722468
O O3 0.110342 0.774605 0.571587
O O4 0.999187 0.688323 0.676116
O O5 0.643152 0.276402 0.265026
O O6 0.619536 0.239680 0.417543
O O7 0.623535 0.000000 0.325116
O O8 0.844900 0.500000 0.188066
O O9 0.755429 0.263206 0.156194
O O10 0.924042 0.260157 0.138077
O O11 0.089610 0.258433 0.126604
O O12 0.158372 0.000000 0.164164
O O13 0.338555 0.500000 0.518736
O O14 0.250000 0.750000 0.500000
O O15 0.005203 0.500000 0.091829
O O16 0.000000 0.734937 0.000000
#
# Coordination Sequence:
#
# PCOD9202508 Si02
#       6
#     8   8   8   8   8   8
#     4  10  20  38  62  84 117 162 205 249 308 369
#     4  11  22  39  63  88 118 160 208 251 305 367
#     4   9  19  38  61  88 121 162 201 245 307 368
#     4  11  22  37  62  92 126 162 202 252 310 367
#     4  12  25  39  56  84 122 160 208 258 306 359
#     4  10  21  41  66  89 119 162 207 250 306 377
#
# _framework density 19.797452
#
# number of rings (size 3 to 8) (size 9 to 14) (size 15 to 20)
#    0.000    1.500    1.667    4.000    0.000    5.667 
#    0.000    2.500    0.000    0.000    0.000    0.000 
#    0.000    0.000    0.000    0.000    0.000    0.000 
#
# Total GULP energy -134140.580027 kJ/mol
# GULP energy per Si atom -5589.190834 kJ/mol
# Density = 1.975239 g / cm^3
# Si number density = 19.797452 Si / 1000 Ang^3
#
#
#
# Elastic Constant Matrix: (Units=GPa)
#
#
# Indices 1 2 3 4 5 6 
#
# 1 121.5596 10.1775 49.2594 0.0000 23.8694 0.0000
# 2 10.1775 16.6293 -3.5807 0.0000 3.7773 0.0000
# 3 49.2594 -3.5807 108.1824 0.0000 18.4644 0.0000
# 4 0.0000 0.0000 0.0000 20.9020 0.0000 4.3297
# 5 23.8694 3.7773 18.4644 0.0000 11.8127 0.0000
# 6 0.0000 0.0000 0.0000 4.3297 0.0000 28.5681
#
#
#
# Elastic Compliance Matrix: (Units=1/GPa)
#
#
# Indices 1 2 3 4 5 6 
#
# 1 0.014200 -0.003949 -0.002611 0.000000 -0.023348 0.000000
# 2 -0.003949 0.071091 0.009096 0.000000 -0.028970 0.000000
# 3 -0.002611 0.009096 0.014088 0.000000 -0.019653 0.000000
# 4 0.000000 0.000000 0.000000 0.049393 0.000000 -0.007486
# 5 -0.023348 -0.028970 -0.019653 0.000000 0.171817 0.000000
# 6 0.000000 0.000000 0.000000 -0.007486 0.000000 0.036139
#
#
# Mechanical properties :
#
#
# Convention : Reuss Voigt Hill
#
# Bulk Modulus (GPa) = 9.57402 39.78706 24.68054
# Shear Modulus (GPa) = 12.93749 24.95758 18.94753
#
# Velocity S-wave (km/s) = 2.55912 3.55441 3.09701
# Velocity P-wave (km/s) = 3.68492 6.08159 5.02814
#
# Compressibility (1/GPa) = 0.10444938
#
# Stress axis : x y z
#
# Youngs Moduli (GPa) = 70.42265 14.06647 70.98177
#
# Poissons Ratio (x) = 0.05555 0.18536
# Poissons Ratio (y) = 0.27813 -0.64564
# Poissons Ratio (z) = 0.18390 -0.12795
#
# Static dielectric constant tensor:
#      x y z
#    x 1.695190 0.000000 0.010330 
#    y 0.000000 1.680060 0.000000 
#    z 0.010330 0.000000 1.655420 
# 
# From -- ./inp_files/267708.got.cif
#   From: 2010.05.17/outbox.cif.g08.bks.cpg/sg12_134_cif.got.tgz:267708.got - 2010.06.03 13:09:07.
