data_PCOD9202440
_publ_section_title
;
Structure prediction by ZEFSAII (Michael W. Deem and Ramdas Pophale) SiO2 
 PCOD9202440
Probable space group: C 2/M
;
_chemical_formula_sum "Si O2"
_cell_formula_units_Z 60
_cell_length_a 23.185339
_cell_length_b 9.534485
_cell_length_c 14.104219
_cell_angle_alpha 90.000000
_cell_angle_beta 112.467824
_cell_angle_gamma 90.000000
_cell_volume 2881.217348
_symmetry_space_group_name_H-M "C 2/M"
_symmetry_group_IT_number 12
_symmetry_cell_setting 'monoclinic'
loop_
_space_group_symop_operation_xyz
x,y,z
-x,y,-z
-x,-y,-z
x,-y,z
1/2+x,1/2+y,z
1/2-x,1/2+y,-z
1/2-x,1/2-y,-z
1/2+x,1/2-y,z
loop_
_atom_site_type_symbol
_atom_site_label
_atom_site_fract_x
_atom_site_fract_y
_atom_site_fract_z
Si Si1 0.092237 0.834108 0.097504
Si Si2 0.730899 0.000000 0.963933
Si Si3 0.782026 0.834210 0.706951
Si Si4 0.158218 0.218128 0.953604
Si Si5 0.427063 0.339188 0.268891
Si Si6 0.356806 0.167445 0.375303
Si Si7 0.842913 0.340289 0.587865
Si Si8 0.027328 0.662444 0.213809
O O1 0.160385 0.804883 0.187594
O O2 0.044082 0.741303 0.126620
O O3 0.078383 0.000000 0.099651
O O4 0.102765 0.797936 0.994946
O O5 0.784603 0.878741 0.977758
O O6 0.680169 0.876335 0.956040
O O7 0.713731 0.798829 0.704022
O O8 0.796462 0.756557 0.617963
O O9 0.780901 0.000000 0.688757
O O10 0.133174 0.162942 0.837546
O O11 0.446486 0.500000 0.297018
O O12 0.406755 0.258912 0.351137
O O13 0.478272 0.249491 0.244813
O O14 0.355106 0.196801 0.486410
O O15 0.367596 0.000000 0.367496
O O16 0.819074 0.500000 0.574109
O O17 0.908406 0.337018 0.684984
O O18 0.008689 0.500000 0.188144
#
# Coordination Sequence:
#
# PCOD9202440 Si02
#       8
#     8   4   8   8   8   8   8   8
#     4  10  20  38  61  88 119 162 198 242 297 351
#     4  10  24  40  64  90 128 162 194 238 288 360
#     4   9  19  32  58  90 121 153 192 236 296 358
#     4  11  24  41  63  92 126 164 195 236 293 349
#     4  12  26  42  59  89 119 156 201 251 298 349
#     4  10  22  37  60  87 120 158 198 242 303 361
#     4   9  19  39  60  86 117 156 198 247 298 353
#     4  10  23  42  63  84 116 155 206 254 299 354
#
# _framework density 20.824529999999999
#
# number of rings (size 3 to 8) (size 9 to 14) (size 15 to 20)
#    0.000    1.867    1.333    1.200    6.533    2.667 
#    0.000    4.667    0.000    0.000    0.000    0.000 
#    0.000    0.000    0.000    0.000    0.000    0.000 
#
# Total GULP energy -167148.019705 kJ/mol
# GULP energy per Si atom -5571.600657 kJ/mol
# Density = 2.077713 g / cm^3
# Si number density = 20.824530 Si / 1000 Ang^3
#
#
#
# Elastic Constant Matrix: (Units=GPa)
#
#
# Indices 1 2 3 4 5 6 
#
# 1 67.3002 35.5620 -3.7478 0.0000 -12.4617 0.0000
# 2 35.5620 96.1717 -8.4971 0.0000 -4.0024 0.0000
# 3 -3.7478 -8.4971 38.1530 0.0000 -6.3960 0.0000
# 4 0.0000 0.0000 0.0000 4.3819 0.0000 -10.3649
# 5 -12.4617 -4.0024 -6.3960 0.0000 21.4350 0.0000
# 6 0.0000 0.0000 0.0000 -10.3649 0.0000 35.3185
#
#
#
# Elastic Compliance Matrix: (Units=1/GPa)
#
#
# Indices 1 2 3 4 5 6 
#
# 1 0.020831 -0.007010 0.002417 0.000000 0.011523 0.000000
# 2 -0.007010 0.013131 0.002067 0.000000 -0.001007 0.000000
# 3 0.002417 0.002067 0.028641 0.000000 0.010337 0.000000
# 4 0.000000 0.000000 0.000000 0.746169 0.000000 0.218977
# 5 0.011523 -0.001007 0.010337 0.000000 0.056248 0.000000
# 6 0.000000 0.000000 0.000000 0.218977 0.000000 0.092577
#
#
# Mechanical properties :
#
#
# Convention : Reuss Voigt Hill
#
# Bulk Modulus (GPa) = 17.37588 27.58434 22.48011
# Shear Modulus (GPa) = 5.09252 24.11427 14.60340
#
# Velocity S-wave (km/s) = 1.56549 3.40659 2.65100
# Velocity P-wave (km/s) = 3.41024 5.36172 4.49320
#
# Compressibility (1/GPa) = 0.05755105
#
# Stress axis : x y z
#
# Youngs Moduli (GPa) = 48.00544 76.15661 34.91501
#
# Poissons Ratio (x) = 0.53384 -0.08438
# Poissons Ratio (y) = 0.33650 -0.07217
# Poissons Ratio (z) = -0.11602 -0.15742
#
# Static dielectric constant tensor:
#      x y z
#    x 1.750000 0.000000 0.048980 
#    y 0.000000 1.708480 0.000000 
#    z 0.048980 0.000000 1.798980 
# 
# From -- ./inp_files/238852.got.cif
#   From: 2010.05.17/outbox.cif.g08.bks.cpg/sg12_120_cif.got.tgz:238852.got - 2010.06.03 13:09:07.
