data_PCOD9202705
_publ_section_title
;
Structure prediction by ZEFSAII (Michael W. Deem and Ramdas Pophale) SiO2 
 PCOD9202705
Probable space group: C 2/M
;
_chemical_formula_sum "Si O2"
_cell_formula_units_Z 40
_cell_length_a 13.167595
_cell_length_b 13.950066
_cell_length_c 20.793554
_cell_angle_alpha 90.000000
_cell_angle_beta 33.452505
_cell_angle_gamma 90.000000
_cell_volume 2105.506297
_symmetry_space_group_name_H-M "C 2/M"
_symmetry_group_IT_number 12
_symmetry_cell_setting 'monoclinic'
loop_
_space_group_symop_operation_xyz
x,y,z
-x,y,-z
-x,-y,-z
x,-y,z
1/2+x,1/2+y,z
1/2-x,1/2+y,-z
1/2-x,1/2-y,-z
1/2+x,1/2-y,z
loop_
_atom_site_type_symbol
_atom_site_label
_atom_site_fract_x
_atom_site_fract_y
_atom_site_fract_z
Si Si1 0.957766 0.113312 0.723007
Si Si2 0.183854 0.766250 0.323143
Si Si3 0.625927 0.112033 0.678392
Si Si4 0.876177 0.611546 0.474072
Si Si5 0.410679 0.736567 0.864459
O O1 0.873193 0.171040 0.708211
O O2 0.876282 0.150587 0.832991
O O3 0.177392 0.135116 0.608950
O O4 0.936268 0.000000 0.725070
O O5 0.208777 0.836685 0.370836
O O6 0.390623 0.724098 0.206089
O O7 0.037366 0.682318 0.409012
O O8 0.645119 0.122083 0.591953
O O9 0.449359 0.169859 0.799011
O O10 0.617026 0.000000 0.698591
O O11 0.918619 0.500000 0.465149
O O12 0.250000 0.750000 0.000000
#
# Coordination Sequence:
#
# PCOD9202705 Si02
#       5
#     8   8   8   8   8
#     4  11  23  39  61  92 122 156 197 248 304 356
#     4  10  20  38  63  87 120 156 199 241 303 350
#     4   9  20  38  59  86 118 155 197 245 295 351
#     4  10  21  38  61  91 126 153 191 247 307 365
#     4  10  24  40  58  85 119 157 203 251 292 344
#
# _framework density 18.997806000000001
#
# number of rings (size 3 to 8) (size 9 to 14) (size 15 to 20)
#    1.200    0.800    2.000    1.200    0.000    5.600 
#    0.000    6.000    0.000    2.400    0.000    0.000 
#    0.000    0.000    0.000    0.000    0.000    0.000 
#
# Total GULP energy -111653.039667 kJ/mol
# GULP energy per Si atom -5582.651983 kJ/mol
# Density = 1.895457 g / cm^3
# Si number density = 18.997806 Si / 1000 Ang^3
#
#
#
# Elastic Constant Matrix: (Units=GPa)
#
#
# Indices 1 2 3 4 5 6 
#
# 1 92.7732 45.0981 35.6210 0.0000 -4.1085 0.0000
# 2 45.0981 83.2980 19.9219 -0.0006 5.7455 0.0002
# 3 35.6210 19.9219 109.1327 -0.0023 18.9728 0.0009
# 4 0.0000 -0.0006 -0.0023 20.0777 0.0005 7.3206
# 5 -4.1085 5.7455 18.9728 0.0005 16.1487 -0.0001
# 6 0.0000 0.0002 0.0009 7.3206 -0.0001 18.0532
#
#
#
# Elastic Compliance Matrix: (Units=1/GPa)
#
#
# Indices 1 2 3 4 5 6 
#
# 1 0.019132 -0.009758 -0.007431 -0.000002 0.017070 0.000001
# 2 -0.009758 0.017595 0.001876 0.000001 -0.010947 -0.000001
# 3 -0.007431 0.001876 0.014692 0.000003 -0.019819 -0.000002
# 4 -0.000002 0.000001 0.000003 0.058448 -0.000006 -0.023701
# 5 0.017070 -0.010947 -0.019819 -0.000006 0.093447 0.000004
# 6 0.000001 -0.000001 -0.000002 -0.023701 0.000004 0.065002
#
#
# Mechanical properties :
#
#
# Convention : Reuss Voigt Hill
#
# Bulk Modulus (GPa) = 48.09404 54.05398 51.07401
# Shear Modulus (GPa) = 16.34676 23.16012 19.75344
#
# Velocity S-wave (km/s) = 2.93653 3.49534 3.22805
# Velocity P-wave (km/s) = 6.07192 6.69361 6.39033
#
# Compressibility (1/GPa) = 0.02079260
#
# Stress axis : x y z
#
# Youngs Moduli (GPa) = 52.26960 56.83576 68.06619
#
# Poissons Ratio (x) = 0.55461 0.50578
# Poissons Ratio (y) = 0.51006 -0.12772
# Poissons Ratio (z) = 0.38840 -0.10665
#
# Static dielectric constant tensor:
#      x y z
#    x 1.672480 0.000000 0.002710 
#    y 0.000000 1.668020 0.000000 
#    z 0.002710 0.000000 1.637330 
# 
# From -- ./inp_files/310481.got.cif
#   From: 2010.05.17/outbox.cif.g08.bks.cpg/sg12_156_cif.got.tgz:310481.got - 2010.06.03 13:09:07.
