data_PCOD9202192
_publ_section_title
;
Structure prediction by ZEFSAII (Michael W. Deem and Ramdas Pophale) SiO2 
 PCOD9202192
Probable space group: C 2/M
;
_chemical_formula_sum "Si O2"
_cell_formula_units_Z 64
_cell_length_a 14.710219
_cell_length_b 27.216783
_cell_length_c 7.932170
_cell_angle_alpha 90.000000
_cell_angle_beta 68.513180
_cell_angle_gamma 90.000000
_cell_volume 2955.052383
_symmetry_space_group_name_H-M "C 2/M"
_symmetry_group_IT_number 12
_symmetry_cell_setting 'monoclinic'
loop_
_space_group_symop_operation_xyz
x,y,z
-x,y,-z
-x,-y,-z
x,-y,z
1/2+x,1/2+y,z
1/2-x,1/2+y,-z
1/2-x,1/2-y,-z
1/2+x,1/2-y,z
loop_
_atom_site_type_symbol
_atom_site_label
_atom_site_fract_x
_atom_site_fract_y
_atom_site_fract_z
Si Si1 0.218828 0.803770 0.825595
Si Si2 0.608971 0.205270 0.847446
Si Si3 0.777899 0.055039 0.919474
Si Si4 0.764092 0.443771 0.447027
Si Si5 0.598792 0.645772 0.209237
Si Si6 0.565447 0.866680 0.620228
Si Si7 0.366842 0.132296 0.893855
Si Si8 0.628237 0.357852 0.576716
O O1 0.186935 0.747547 0.828656
O O2 0.326551 0.823495 0.801800
O O3 0.191909 0.827988 0.666142
O O4 0.151119 0.823976 0.025685
O O5 0.598756 0.186890 0.663177
O O6 0.500000 0.217276 0.000000
O O7 0.647206 0.156460 0.914456
O O8 0.735975 0.053772 0.757162
O O9 0.872708 0.089211 0.845242
O O10 0.794883 0.000000 0.965779
O O11 0.701339 0.085482 0.083533
O O12 0.769636 0.500000 0.505347
O O13 0.851494 0.407713 0.444786
O O14 0.665328 0.414193 0.560780
O O15 0.482869 0.650366 0.291311
O O16 0.635006 0.657423 0.375282
O O17 0.500000 0.863578 0.500000
O O18 0.479209 0.881554 0.807585
#
# Coordination Sequence:
#
# PCOD9202192 Si02
#       8
#     8   8   8   8   8   8   8   8
#     4  11  21  40  64  89 122 162 201 248 305 362
#     4  10  21  39  62  86 117 160 203 246 303 363
#     4   9  18  35  62  90 117 157 206 253 305 368
#     4  10  21  38  62  87 120 163 205 253 308 358
#     4   9  20  36  60  89 127 161 196 251 306 364
#     4  11  23  41  58  86 127 159 200 256 304 356
#     4  10  21  39  61  88 119 158 203 252 303 357
#     4  10  20  38  59  90 125 159 202 251 301 366
#
# _framework density 21.657824000000002
#
# number of rings (size 3 to 8) (size 9 to 14) (size 15 to 20)
#    0.000    2.000    1.250    2.250    0.000    1.250 
#    6.750   10.000    0.000    3.750    0.000    0.000 
#    0.000    0.000    0.000    0.000    0.000    0.000 
#
# Total GULP energy -178562.152113 kJ/mol
# GULP energy per Si atom -5580.067254 kJ/mol
# Density = 2.160853 g / cm^3
# Si number density = 21.657824 Si / 1000 Ang^3
#
#
#
# Elastic Constant Matrix: (Units=GPa)
#
#
# Indices 1 2 3 4 5 6 
#
# 1 67.1015 -10.4656 12.8290 0.0000 -0.7589 0.0000
# 2 -10.4656 79.8273 20.7244 0.0000 6.4813 0.0000
# 3 12.8290 20.7244 45.7252 0.0000 -6.5522 0.0000
# 4 0.0000 0.0000 0.0000 9.6744 0.0000 2.0821
# 5 -0.7589 6.4813 -6.5522 0.0000 36.9421 0.0000
# 6 0.0000 0.0000 0.0000 2.0821 0.0000 20.0142
#
#
#
# Elastic Compliance Matrix: (Units=1/GPa)
#
#
# Indices 1 2 3 4 5 6 
#
# 1 0.016826 0.004101 -0.006806 0.000000 -0.001581 0.000000
# 2 0.004101 0.015716 -0.008882 0.000000 -0.004248 0.000000
# 3 -0.006806 -0.008882 0.028739 0.000000 0.006516 0.000000
# 4 0.000000 0.000000 0.000000 0.105732 0.000000 -0.010999
# 5 -0.001581 -0.004248 0.006516 0.000000 0.028938 0.000000
# 6 0.000000 0.000000 0.000000 -0.010999 0.000000 0.051109
#
#
# Mechanical properties :
#
#
# Convention : Reuss Voigt Hill
#
# Bulk Modulus (GPa) = 26.24274 26.53663 26.38968
# Shear Modulus (GPa) = 17.67183 24.63054 21.15119
#
# Velocity S-wave (km/s) = 2.85959 3.37598 3.12846
# Velocity P-wave (km/s) = 4.80066 5.24172 5.02603
#
# Compressibility (1/GPa) = 0.03810577
#
# Stress axis : x y z
#
# Youngs Moduli (GPa) = 59.43232 63.63074 34.79604
#
# Poissons Ratio (x) = -0.26097 0.23683
# Poissons Ratio (y) = -0.24375 0.30907
# Poissons Ratio (z) = 0.40451 0.56519
#
# Static dielectric constant tensor:
#      x y z
#    x 1.801700 0.000000 0.022790 
#    y 0.000000 1.764870 0.000000 
#    z 0.022790 0.000000 1.943120 
# 
# From -- ./inp_files/66897.got.cif
#   From: 2010.05.17/outbox.cif.g08.bks.cpg/sg12_34_cif.got.tgz:66897.got - 2010.06.03 13:09:07.
