data_PCOD9202134
_publ_section_title
;
Structure prediction by ZEFSAII (Michael W. Deem and Ramdas Pophale) SiO2 
 PCOD9202134
Probable space group: C 2/M
;
_chemical_formula_sum "Si O2"
_cell_formula_units_Z 48
_cell_length_a 20.306296
_cell_length_b 8.827789
_cell_length_c 14.755548
_cell_angle_alpha 90.000000
_cell_angle_beta 105.733851
_cell_angle_gamma 90.000000
_cell_volume 2545.968602
_symmetry_space_group_name_H-M "C 2/M"
_symmetry_group_IT_number 12
_symmetry_cell_setting 'monoclinic'
loop_
_space_group_symop_operation_xyz
x,y,z
-x,y,-z
-x,-y,-z
x,-y,z
1/2+x,1/2+y,z
1/2-x,1/2+y,-z
1/2-x,1/2-y,-z
1/2+x,1/2-y,z
loop_
_atom_site_type_symbol
_atom_site_label
_atom_site_fract_x
_atom_site_fract_y
_atom_site_fract_z
Si Si1 0.645378 0.682105 0.423983
Si Si2 0.880646 0.318632 0.903702
Si Si3 0.211195 0.318617 0.616269
Si Si4 0.731089 0.817473 0.830674
Si Si5 0.904594 0.681906 0.115428
Si Si6 0.039169 0.818513 0.236679
O O1 0.644980 0.500000 0.428841
O O2 0.713372 0.727192 0.392210
O O3 0.656220 0.747300 0.527969
O O4 0.579394 0.731381 0.342286
O O5 0.885091 0.500000 0.896255
O O6 0.801940 0.266266 0.875284
O O7 0.918542 0.241723 0.833946
O O8 0.912437 0.275769 0.012939
O O9 0.206942 0.500000 0.607438
O O10 0.206353 0.278511 0.719716
O O11 0.671056 0.778058 0.877980
O O12 0.742563 0.000000 0.837916
O O13 0.911094 0.500000 0.124344
O O14 0.962972 0.756752 0.197526
O O15 0.039332 0.000000 0.234933
#
# Coordination Sequence:
#
# PCOD9202134 Si02
#       6
#     8   8   8   8   8   8
#     4   9  18  33  53  80 108 136 178 226 270 320
#     4  11  22  36  57  84 111 143 188 232 271 320
#     4   9  17  32  55  81 106 137 178 222 270 324
#     4  10  20  38  59  81 113 147 182 225 274 327
#     4  10  23  39  55  80 115 149 182 227 275 324
#     4  11  22  38  58  81 111 148 186 226 274 327
#
# _framework density 18.853335999999999
#
# number of rings (size 3 to 8) (size 9 to 14) (size 15 to 20)
#    0.000    2.000    1.667    2.000    0.000    6.000 
#    0.000    0.833    0.000    5.000    0.000    0.000 
#    0.000    0.000    0.000    0.000    0.000    0.000 
#
# Total GULP energy -134018.533796 kJ/mol
# GULP energy per Si atom -5584.105575 kJ/mol
# Density = 1.881042 g / cm^3
# Si number density = 18.853336 Si / 1000 Ang^3
#
#
#
# Elastic Constant Matrix: (Units=GPa)
#
#
# Indices 1 2 3 4 5 6 
#
# 1 36.7379 2.6215 -12.8120 0.0000 12.9126 0.0000
# 2 2.6215 5.6524 4.9206 0.0000 5.1887 0.0000
# 3 -12.8120 4.9206 68.7809 0.0000 15.1093 0.0000
# 4 0.0000 0.0000 0.0000 27.5063 0.0000 6.7632
# 5 12.9126 5.1887 15.1093 0.0000 26.0646 0.0000
# 6 0.0000 0.0000 0.0000 6.7632 0.0000 28.7642
#
#
#
# Elastic Compliance Matrix: (Units=1/GPa)
#
#
# Indices 1 2 3 4 5 6 
#
# 1 0.042789 -0.006550 0.014678 0.000000 -0.028403 0.000000
# 2 -0.006550 0.220373 -0.009238 0.000000 -0.035270 0.000000
# 3 0.014678 -0.009238 0.021919 0.000000 -0.018139 0.000000
# 4 0.000000 0.000000 0.000000 0.038586 0.000000 -0.009073
# 5 -0.028403 -0.035270 -0.018139 0.000000 0.069973 0.000000
# 6 0.000000 0.000000 0.000000 -0.009073 0.000000 0.036899
#
#
# Mechanical properties :
#
#
# Convention : Reuss Voigt Hill
#
# Bulk Modulus (GPa) = 3.53528 11.18125 7.35826
# Shear Modulus (GPa) = 9.48686 24.22977 16.85832
#
# Velocity S-wave (km/s) = 2.24563 3.58882 2.99353
# Velocity P-wave (km/s) = 2.93309 4.80795 3.98242
#
# Compressibility (1/GPa) = 0.28286341
#
# Stress axis : x y z
#
# Youngs Moduli (GPa) = 23.37027 4.53776 45.62337
#
# Poissons Ratio (x) = 0.02972 -0.66968
# Poissons Ratio (y) = 0.15307 0.42145
# Poissons Ratio (z) = -0.34304 0.04192
#
# Static dielectric constant tensor:
#      x y z
#    x 1.638590 0.000000 0.004760 
#    y 0.000000 1.631850 0.000000 
#    z 0.004760 0.000000 1.652710 
# 
# From -- ./inp_files/229858.got.cif
#   From: 2010.05.17/outbox.cif.g08.bks.cpg/sg12_115_cif.got.tgz:229858.got - 2010.06.03 13:09:07.
