data_PCOD9202821
_publ_section_title
;
Structure prediction by ZEFSAII (Michael W. Deem and Ramdas Pophale) SiO2 
 PCOD9202821
Probable space group: C 2/M
;
_chemical_formula_sum "Si O2"
_cell_formula_units_Z 60
_cell_length_a 11.105079
_cell_length_b 18.025686
_cell_length_c 16.580803
_cell_angle_alpha 90.000000
_cell_angle_beta 117.284593
_cell_angle_gamma 90.000000
_cell_volume 2949.809710
_symmetry_space_group_name_H-M "C 2/M"
_symmetry_group_IT_number 12
_symmetry_cell_setting 'monoclinic'
loop_
_space_group_symop_operation_xyz
x,y,z
-x,y,-z
-x,-y,-z
x,-y,z
1/2+x,1/2+y,z
1/2-x,1/2+y,-z
1/2-x,1/2-y,-z
1/2+x,1/2-y,z
loop_
_atom_site_type_symbol
_atom_site_label
_atom_site_fract_x
_atom_site_fract_y
_atom_site_fract_z
Si Si1 0.307134 0.741601 0.147597
Si Si2 0.152297 0.500000 0.277032
Si Si3 0.944323 0.626001 0.279810
Si Si4 0.331223 0.353191 0.312529
Si Si5 0.334009 0.583230 0.736068
Si Si6 0.475681 0.690126 0.906903
Si Si7 0.110944 0.086594 0.434527
Si Si8 0.304004 0.809967 0.579099
O O1 0.374955 0.819818 0.193610
O O2 0.345004 0.683025 0.229364
O O3 0.383686 0.719044 0.088793
O O4 0.143711 0.751088 0.105222
O O5 0.042295 0.565364 0.270581
O O6 0.259994 0.433283 0.285198
O O7 0.036768 0.676927 0.366746
O O8 0.823620 0.588707 0.291154
O O9 0.474444 0.366613 0.400085
O O10 0.245187 0.298548 0.344194
O O11 0.384878 0.500000 0.766687
O O12 0.411301 0.639482 0.817808
O O13 0.349681 0.598082 0.646450
O O14 0.500000 0.650124 0.000000
O O15 0.231517 0.114150 0.528173
O O16 0.086365 0.000000 0.441906
O O17 0.250000 0.750000 0.500000
#
# Coordination Sequence:
#
# PCOD9202821 Si02
#       8
#     8   4   8   8   8   8   8   8
#     4  11  23  43  68  99 133 173 213 266 333 407
#     4  10  20  38  63  95 119 173 221 268 315 385
#     4  10  22  39  63  87 131 169 217 261 323 377
#     4  11  22  39  65  87 127 171 217 268 318 383
#     4  10  22  41  63  87 122 166 208 261 320 392
#     4  11  23  41  70 100 128 161 207 269 331 403
#     4  11  23  38  58  88 120 164 218 264 309 364
#     4  11  25  37  57  91 128 167 217 270 318 374
#
# _framework density 20.340295000000001
#
# number of rings (size 3 to 8) (size 9 to 14) (size 15 to 20)
#    0.000    1.333    2.667    3.200    7.467    1.333 
#    0.000    1.333    0.000    0.000    0.000    3.733 
#    0.000    0.000    0.000    0.000    0.000    0.000 
#
# Total GULP energy -167014.091764 kJ/mol
# GULP energy per Si atom -5567.136392 kJ/mol
# Density = 2.029400 g / cm^3
# Si number density = 20.340295 Si / 1000 Ang^3
#
#
#
# Elastic Constant Matrix: (Units=GPa)
#
#
# Indices 1 2 3 4 5 6 
#
# 1 105.7647 20.8843 25.5081 0.0000 -12.8173 0.0000
# 2 20.8843 47.7080 -0.7933 0.0000 -17.3213 0.0000
# 3 25.5081 -0.7933 52.5654 0.0000 -22.3923 0.0000
# 4 0.0000 0.0000 0.0000 10.3239 0.0000 -2.3411
# 5 -12.8173 -17.3213 -22.3923 0.0000 34.9275 0.0000
# 6 0.0000 0.0000 0.0000 -2.3411 0.0000 34.7683
#
#
#
# Elastic Compliance Matrix: (Units=1/GPa)
#
#
# Indices 1 2 3 4 5 6 
#
# 1 0.012189 -0.006854 -0.007650 0.000000 -0.003830 0.000000
# 2 -0.006854 0.032092 0.013095 0.000000 0.021795 0.000000
# 3 -0.007650 0.013095 0.033711 0.000000 0.025299 0.000000
# 4 0.000000 0.000000 0.000000 0.098365 0.000000 0.006623
# 5 -0.003830 0.021795 0.025299 0.000000 0.054253 0.000000
# 6 0.000000 0.000000 0.000000 0.006623 0.000000 0.029208
#
#
# Mechanical properties :
#
#
# Convention : Reuss Voigt Hill
#
# Bulk Modulus (GPa) = 13.30251 33.02625 23.16438
# Shear Modulus (GPa) = 17.37957 26.69986 22.03972
#
# Velocity S-wave (km/s) = 2.92625 3.62699 3.29530
# Velocity P-wave (km/s) = 4.23927 5.81483 5.08840
#
# Compressibility (1/GPa) = 0.07517378
#
# Stress axis : x y z
#
# Youngs Moduli (GPa) = 82.04030 31.16041 29.66395
#
# Poissons Ratio (x) = 0.21357 0.22693
# Poissons Ratio (y) = 0.56228 -0.38844
# Poissons Ratio (z) = 0.62762 -0.40804
#
# Static dielectric constant tensor:
#      x y z
#    x 1.778690 0.000000 0.010850 
#    y 0.000000 1.743200 0.000000 
#    z 0.010850 0.000000 1.748400 
# 
# From -- ./inp_files/264281.got.cif
#   From: 2010.05.17/outbox.cif.g08.bks.cpg/sg12_133_cif.got.tgz:264281.got - 2010.06.03 13:09:07.
