data_PCOD9202197
_publ_section_title
;
Structure prediction by ZEFSAII (Michael W. Deem and Ramdas Pophale) SiO2 
 PCOD9202197
Probable space group: C 2/M
;
_chemical_formula_sum "Si O2"
_cell_formula_units_Z 48
_cell_length_a 13.786458
_cell_length_b 28.081519
_cell_length_c 8.687931
_cell_angle_alpha 90.000000
_cell_angle_beta 47.043194
_cell_angle_gamma 90.000000
_cell_volume 2461.626761
_symmetry_space_group_name_H-M "C 2/M"
_symmetry_group_IT_number 12
_symmetry_cell_setting 'monoclinic'
loop_
_space_group_symop_operation_xyz
x,y,z
-x,y,-z
-x,-y,-z
x,-y,z
1/2+x,1/2+y,z
1/2-x,1/2+y,-z
1/2-x,1/2-y,-z
1/2+x,1/2-y,z
loop_
_atom_site_type_symbol
_atom_site_label
_atom_site_fract_x
_atom_site_fract_y
_atom_site_fract_z
Si Si1 0.381461 0.292148 0.906922
Si Si2 0.153856 0.000000 0.384609
Si Si3 0.176675 0.096497 0.544761
Si Si4 0.000000 0.128597 0.000000
Si Si5 0.575890 0.199196 0.256471
Si Si6 0.000000 0.158578 0.500000
Si Si7 0.483913 0.896232 0.202411
Si Si8 0.921900 0.500000 0.921057
O O1 0.460878 0.242071 0.822570
O O2 0.403228 0.309954 0.708999
O O3 0.433310 0.334965 0.954187
O O4 0.229235 0.288427 0.118161
O O5 0.180550 0.954496 0.460513
O O6 0.000000 0.000000 0.500000
O O7 0.264491 0.000000 0.129463
O O8 0.101087 0.098074 0.788886
O O9 0.328447 0.111563 0.403722
O O10 0.092753 0.128146 0.514049
O O11 0.500000 0.200979 0.500000
O O12 0.560845 0.147191 0.198582
O O13 0.534410 0.949140 0.198384
O O14 0.500000 0.894028 0.000000
O O15 0.000000 0.500000 0.000000
#
# Coordination Sequence:
#
# PCOD9202197 Si02
#       8
#     8   4   8   4   8   4   8   4
#     4  10  22  41  58  84 124 161 198 255 307 360
#     4  12  22  37  64  96 121 161 213 251 305 374
#     4  11  21  38  62  92 121 163 201 257 301 370
#     4  10  24  39  58  86 126 159 200 252 312 362
#     4  11  23  39  60  88 121 160 204 251 305 370
#     4  10  20  39  60  86 124 157 200 250 306 352
#     4  11  21  38  65  91 118 160 209 252 307 361
#     4  10  20  38  59  91 123 152 197 258 303 353
#
# _framework density 19.499300999999999
#
# number of rings (size 3 to 8) (size 9 to 14) (size 15 to 20)
#    0.000    1.333    5.000    2.000    1.167    0.333 
#    0.000    2.917    0.000    1.000    0.000    0.000 
#    0.000    0.000    0.000    0.000    0.000    0.000 
#
# Total GULP energy -133805.502869 kJ/mol
# GULP energy per Si atom -5575.229286 kJ/mol
# Density = 1.945492 g / cm^3
# Si number density = 19.499301 Si / 1000 Ang^3
#
#
#
# Elastic Constant Matrix: (Units=GPa)
#
#
# Indices 1 2 3 4 5 6 
#
# 1 28.9622 15.1778 23.3751 0.0000 -7.7773 0.0000
# 2 15.1778 126.8570 33.0299 0.0000 -1.0133 0.0000
# 3 23.3751 33.0299 150.1148 0.0000 -6.7783 0.0000
# 4 0.0000 0.0000 0.0000 30.8466 0.0000 -6.2722
# 5 -7.7773 -1.0133 -6.7783 0.0000 27.8214 0.0000
# 6 0.0000 0.0000 0.0000 -6.2722 0.0000 4.8509
#
#
#
# Elastic Compliance Matrix: (Units=1/GPa)
#
#
# Indices 1 2 3 4 5 6 
#
# 1 0.043824 -0.003720 -0.005519 0.000000 0.010771 0.000000
# 2 -0.003720 0.008678 -0.001378 0.000000 -0.001060 0.000000
# 3 -0.005519 -0.001378 0.007838 0.000000 0.000317 0.000000
# 4 0.000000 0.000000 0.000000 0.043982 0.000000 0.056868
# 5 0.010771 -0.001060 0.000317 0.000000 0.038993 0.000000
# 6 0.000000 0.000000 0.000000 0.056868 0.000000 0.279678
#
#
# Mechanical properties :
#
#
# Convention : Reuss Voigt Hill
#
# Bulk Modulus (GPa) = 25.57153 49.89997 37.73575
# Shear Modulus (GPa) = 10.93460 28.32720 19.63090
#
# Velocity S-wave (km/s) = 2.37062 3.81560 3.17637
# Velocity P-wave (km/s) = 4.54265 6.71252 5.73122
#
# Compressibility (1/GPa) = 0.03910599
#
# Stress axis : x y z
#
# Youngs Moduli (GPa) = 22.81848 115.22932 127.57549
#
# Poissons Ratio (x) = 0.42869 0.70411
# Poissons Ratio (y) = 0.08489 0.17581
# Poissons Ratio (z) = 0.12594 0.15879
#
# Static dielectric constant tensor:
#      x y z
#    x 1.737580 0.000000 -0.013650 
#    y 0.000000 1.790300 0.000000 
#    z -0.013650 0.000000 1.697020 
# 
# From -- ./inp_files/68097.got.cif
#   From: 2010.05.17/outbox.cif.g08.bks.cpg/sg12_35_cif.got.tgz:68097.got - 2010.06.03 13:09:07.
