data_PCOD9202531
_publ_section_title
;
Structure prediction by ZEFSAII (Michael W. Deem and Ramdas Pophale) SiO2 
 PCOD9202531
Probable space group: C 2/M
;
_chemical_formula_sum "Si O2"
_cell_formula_units_Z 40
_cell_length_a 11.306727
_cell_length_b 25.727945
_cell_length_c 9.714756
_cell_angle_alpha 90.000000
_cell_angle_beta 51.206426
_cell_angle_gamma 90.000000
_cell_volume 2202.616525
_symmetry_space_group_name_H-M "C 2/M"
_symmetry_group_IT_number 12
_symmetry_cell_setting 'monoclinic'
loop_
_space_group_symop_operation_xyz
x,y,z
-x,y,-z
-x,-y,-z
x,-y,z
1/2+x,1/2+y,z
1/2-x,1/2+y,-z
1/2-x,1/2-y,-z
1/2+x,1/2-y,z
loop_
_atom_site_type_symbol
_atom_site_label
_atom_site_fract_x
_atom_site_fract_y
_atom_site_fract_z
Si Si1 0.850824 0.631730 0.034114
Si Si2 0.321451 0.247140 0.102512
Si Si3 0.933058 0.060559 0.692753
Si Si4 0.640786 0.846353 0.294629
Si Si5 0.855256 0.942319 0.205686
O O1 0.808947 0.685822 0.142443
O O2 0.707808 0.593765 0.149065
O O3 0.890558 0.645818 0.846342
O O4 0.000000 0.609894 0.000000
O O5 0.227993 0.291499 0.248782
O O6 0.500000 0.259281 0.000000
O O7 0.250000 0.250000 0.000000
O O8 0.000000 0.079853 0.500000
O O9 0.071582 0.062013 0.697935
O O10 0.886483 0.000000 0.711598
O O11 0.500000 0.846647 0.500000
O O12 0.745286 0.895184 0.256512
O O13 0.785787 0.000000 0.238275
O O14 0.000000 0.939337 0.000000
#
# Coordination Sequence:
#
# PCOD9202531 Si02
#       5
#     8   8   8   8   8
#     4  10  22  40  58  85 122 154 192 242 297 353
#     4   9  20  39  60  83 117 159 197 241 295 353
#     4  10  22  39  61  87 116 156 201 239 291 355
#     4  11  23  37  60  90 119 154 197 245 298 350
#     4  10  20  38  62  86 115 156 201 244 290 349
#
# _framework density 18.160219999999999
#
# number of rings (size 3 to 8) (size 9 to 14) (size 15 to 20)
#    0.000    2.000    2.000    0.600    5.600    1.600 
#    0.000    9.000    0.000    0.000    0.000    0.000 
#    0.000    0.000    0.000    0.000    0.000    0.000 
#
# Total GULP energy -111419.803885 kJ/mol
# GULP energy per Si atom -5570.990194 kJ/mol
# Density = 1.811889 g / cm^3
# Si number density = 18.160220 Si / 1000 Ang^3
#
#
#
# Elastic Constant Matrix: (Units=GPa)
#
#
# Indices 1 2 3 4 5 6 
#
# 1 79.1358 33.2309 29.4530 0.0000 -5.4311 0.0000
# 2 33.2309 106.9310 47.4687 0.0000 -21.6204 0.0000
# 3 29.4530 47.4687 104.3274 0.0000 1.9920 0.0000
# 4 0.0000 0.0000 0.0000 6.7412 0.0000 7.9762
# 5 -5.4311 -21.6204 1.9920 0.0000 24.5545 0.0000
# 6 0.0000 0.0000 0.0000 7.9762 0.0000 27.0524
#
#
#
# Elastic Compliance Matrix: (Units=1/GPa)
#
#
# Indices 1 2 3 4 5 6 
#
# 1 0.015110 -0.003348 -0.002754 0.000000 0.000617 0.000000
# 2 -0.003348 0.016214 -0.006701 0.000000 0.014079 0.000000
# 3 -0.002754 -0.006701 0.013557 0.000000 -0.007609 0.000000
# 4 0.000000 0.000000 0.000000 0.227818 0.000000 -0.067170
# 5 0.000617 0.014079 -0.007609 0.000000 0.053876 0.000000
# 6 0.000000 0.000000 0.000000 -0.067170 0.000000 0.056770
#
#
# Mechanical properties :
#
#
# Convention : Reuss Voigt Hill
#
# Bulk Modulus (GPa) = 51.88280 56.74438 54.31359
# Shear Modulus (GPa) = 12.03731 23.68571 17.86151
#
# Velocity S-wave (km/s) = 2.57736 3.61538 3.13956
# Velocity P-wave (km/s) = 6.12279 6.98157 6.56623
#
# Compressibility (1/GPa) = 0.01927421
#
# Stress axis : x y z
#
# Youngs Moduli (GPa) = 66.18176 61.67656 73.76371
#
# Poissons Ratio (x) = 0.20651 0.20315
# Poissons Ratio (y) = 0.22160 0.49427
# Poissons Ratio (z) = 0.18227 0.41328
#
# Static dielectric constant tensor:
#      x y z
#    x 2.043340 0.000000 0.423650 
#    y 0.000000 1.638110 0.000000 
#    z 0.423650 0.000000 2.005050 
# 
# From -- ./inp_files/8517.got.cif
#   From: 2010.05.17/outbox.cif.g08.bks.cpg/sg12_5_cif.got.tgz:8517.got - 2010.06.03 13:09:07.
