data_PCOD9202294
_publ_section_title
;
Structure prediction by ZEFSAII (Michael W. Deem and Ramdas Pophale) SiO2 
 PCOD9202294
Probable space group: C 2/M
;
_chemical_formula_sum "Si O2"
_cell_formula_units_Z 40
_cell_length_a 18.459277
_cell_length_b 13.542736
_cell_length_c 24.915115
_cell_angle_alpha 90.000000
_cell_angle_beta 16.613251
_cell_angle_gamma 90.000000
_cell_volume 1780.792560
_symmetry_space_group_name_H-M "C 2/M"
_symmetry_group_IT_number 12
_symmetry_cell_setting 'monoclinic'
loop_
_space_group_symop_operation_xyz
x,y,z
-x,y,-z
-x,-y,-z
x,-y,z
1/2+x,1/2+y,z
1/2-x,1/2+y,-z
1/2-x,1/2-y,-z
1/2+x,1/2-y,z
loop_
_atom_site_type_symbol
_atom_site_label
_atom_site_fract_x
_atom_site_fract_y
_atom_site_fract_z
Si Si1 0.579979 0.610054 0.380982
Si Si2 0.599148 0.611149 0.109049
Si Si3 0.206837 0.315370 0.306230
Si Si4 0.952943 0.694425 0.272738
Si Si5 0.205653 0.385929 0.196967
O O1 0.500000 0.600893 0.500000
O O2 0.654572 0.500000 0.309531
O O3 0.773047 0.702455 0.242837
O O4 0.330924 0.652441 0.527774
O O5 0.573247 0.500000 0.146780
O O6 0.439004 0.627189 0.167859
O O7 0.496547 0.693527 0.222555
O O8 0.884768 0.634033 0.887246
O O9 0.091568 0.369735 0.336888
O O10 0.000000 0.310063 0.500000
O O11 0.072776 0.677430 0.245834
O O12 0.190303 0.500000 0.191334
O O13 0.500000 0.361316 0.000000
#
# Coordination Sequence:
#
# PCOD9202294 Si02
#       5
#     8   8   8   8   8
#     4  10  20  38  60  88 126 170 209 248 308 378
#     4  11  22  39  66  94 126 167 213 264 318 368
#     4  11  22  42  62  97 129 160 206 268 316 369
#     4  11  22  41  63  94 125 168 218 258 303 385
#     4  11  23  40  66  94 126 167 210 262 317 374
#
# _framework density 22.46191
#
# number of rings (size 3 to 8) (size 9 to 14) (size 15 to 20)
#    0.000    1.200    6.000    2.400    0.000    2.400 
#    0.000    1.000    0.000    1.200    0.000    0.000 
#    0.000    0.000    0.000    0.000    0.000    0.000 
#
# Total GULP energy -111762.822400 kJ/mol
# GULP energy per Si atom -5588.141120 kJ/mol
# Density = 2.241079 g / cm^3
# Si number density = 22.461910 Si / 1000 Ang^3
#
#
#
# Elastic Constant Matrix: (Units=GPa)
#
#
# Indices 1 2 3 4 5 6 
#
# 1 146.7071 42.2856 5.0949 -0.0451 -2.4854 0.0376
# 2 42.2856 166.9480 9.5216 -0.0726 -0.6928 -0.0795
# 3 5.0949 9.5216 30.6465 0.0453 -0.1502 -0.1229
# 4 -0.0451 -0.0726 0.0453 17.5557 0.0220 -1.6311
# 5 -2.4854 -0.6928 -0.1502 0.0220 20.2629 -0.0479
# 6 0.0376 -0.0795 -0.1229 -1.6311 -0.0479 14.7501
#
#
#
# Elastic Compliance Matrix: (Units=1/GPa)
#
#
# Indices 1 2 3 4 5 6 
#
# 1 0.007380 -0.001829 -0.000655 0.000009 0.000838 -0.000030
# 2 -0.001829 0.006552 -0.001732 0.000030 -0.000013 0.000029
# 3 -0.000655 -0.001732 0.033279 -0.000071 0.000108 0.000262
# 4 0.000009 0.000030 -0.000071 0.057553 -0.000046 0.006364
# 5 0.000838 -0.000013 0.000108 -0.000046 0.049455 0.000154
# 6 -0.000030 0.000029 0.000262 0.006364 0.000154 0.068503
#
#
# Mechanical properties :
#
#
# Convention : Reuss Voigt Hill
#
# Bulk Modulus (GPa) = 25.78599 50.90065 38.34332
# Shear Modulus (GPa) = 20.48523 29.67371 25.07947
#
# Velocity S-wave (km/s) = 3.02321 3.63859 3.34508
# Velocity P-wave (km/s) = 4.86736 6.35315 5.65923
#
# Compressibility (1/GPa) = 0.03878075
#
# Stress axis : x y z
#
# Youngs Moduli (GPa) = 135.49614 152.63089 30.04929
#
# Poissons Ratio (x) = 0.27909 0.01968
# Poissons Ratio (y) = 0.24776 0.05203
# Poissons Ratio (z) = 0.08873 0.26429
#
# Static dielectric constant tensor:
#      x y z
#    x 1.832790 -0.000010 0.014740 
#    y -0.000010 1.863720 0.000050 
#    z 0.014740 0.000050 1.937670 
# 
# From -- ./inp_files/73345.got.cif
#   From: 2010.05.17/outbox.cif.g08.bks.cpg/sg12_37_cif.got.tgz:73345.got - 2010.06.03 13:09:07.
