data_PCOD9202203
_publ_section_title
;
Structure prediction by ZEFSAII (Michael W. Deem and Ramdas Pophale) SiO2 
 PCOD9202203
Probable space group: C 2/M
;
_chemical_formula_sum "Si O2"
_cell_formula_units_Z 64
_cell_length_a 19.270048
_cell_length_b 29.773991
_cell_length_c 13.064445
_cell_angle_alpha 90.000000
_cell_angle_beta 155.948238
_cell_angle_gamma 90.000000
_cell_volume 3054.951183
_symmetry_space_group_name_H-M "C 2/M"
_symmetry_group_IT_number 12
_symmetry_cell_setting 'monoclinic'
loop_
_space_group_symop_operation_xyz
x,y,z
-x,y,-z
-x,-y,-z
x,-y,z
1/2+x,1/2+y,z
1/2-x,1/2+y,-z
1/2-x,1/2-y,-z
1/2+x,1/2-y,z
loop_
_atom_site_type_symbol
_atom_site_label
_atom_site_fract_x
_atom_site_fract_y
_atom_site_fract_z
Si Si1 0.239658 0.823274 0.904441
Si Si2 0.156534 0.577044 0.912724
Si Si3 0.937316 0.707861 0.528361
Si Si4 0.715942 0.886574 0.649082
Si Si5 0.357261 0.301834 0.454431
Si Si6 0.306244 0.619706 0.545100
Si Si7 0.602321 0.551609 0.940546
Si Si8 0.030740 0.452935 0.160173
O O1 0.234904 0.815298 0.776043
O O2 0.060988 0.806503 0.709804
O O3 0.251846 0.876045 0.942171
O O4 0.401942 0.802148 0.181203
O O5 0.259914 0.552140 0.964629
O O6 0.964974 0.588931 0.617080
O O7 0.132187 0.551500 0.986587
O O8 0.834412 0.661667 0.371961
O O9 0.830137 0.748632 0.432226
O O10 0.000000 0.722345 0.500000
O O11 0.818453 0.874438 0.683799
O O12 0.817092 0.920630 0.856907
O O13 0.311848 0.335572 0.485113
O O14 0.129005 0.593638 0.300110
O O15 0.443424 0.582697 0.693972
O O16 0.558678 0.500000 0.907026
O O17 0.119862 0.500000 0.313621
O O18 0.000000 0.456836 0.000000
#
# Coordination Sequence:
#
# PCOD9202203 Si02
#       8
#     8   8   8   8   8   8   8   8
#     4  10  20  38  59  96 123 163 211 270 325 382
#     4  10  20  39  63  87 123 161 217 265 314 384
#     4  11  22  38  65  94 127 167 220 271 325 397
#     4  10  24  40  60  88 126 169 208 265 323 390
#     4  11  22  36  65  91 126 169 211 270 333 390
#     4  11  24  41  59  89 128 165 208 264 334 393
#     4  12  24  40  64  95 129 169 219 274 331 394
#     4  10  21  39  61  85 117 163 209 258 318 387
#
# _framework density 20.949598000000002
#
# number of rings (size 3 to 8) (size 9 to 14) (size 15 to 20)
#    0.000    1.375    2.500    4.125    0.000    4.500 
#    0.000    0.000    0.000    4.500    0.000    0.000 
#    0.000    0.000    0.000    0.000    0.000    0.000 
#
# Total GULP energy -178559.484495 kJ/mol
# GULP energy per Si atom -5579.983890 kJ/mol
# Density = 2.090192 g / cm^3
# Si number density = 20.949598 Si / 1000 Ang^3
#
#
#
# Elastic Constant Matrix: (Units=GPa)
#
#
# Indices 1 2 3 4 5 6 
#
# 1 117.5342 34.3932 3.7022 0.0000 -10.4247 0.0000
# 2 34.3932 130.4188 13.4286 0.0000 -12.7265 0.0000
# 3 3.7022 13.4286 29.2814 0.0000 -13.0580 0.0000
# 4 0.0000 0.0000 0.0000 -8.0600 0.0000 -35.6443
# 5 -10.4247 -12.7265 -13.0580 0.0000 25.5845 0.0000
# 6 0.0000 0.0000 0.0000 -35.6443 0.0000 97.7518
#
#
#
# Elastic Compliance Matrix: (Units=1/GPa)
#
#
# Indices 1 2 3 4 5 6 
#
# 1 0.009440 -0.002299 0.001380 0.000000 0.003407 0.000000
# 2 -0.002299 0.008759 -0.002850 0.000000 0.001966 0.000000
# 3 0.001380 -0.002850 0.045187 0.000000 0.022208 0.000000
# 4 0.000000 0.000000 0.000000 -0.047489 0.000000 -0.017317
# 5 0.003407 0.001966 0.022208 0.000000 0.052787 0.000000
# 6 0.000000 0.000000 0.000000 -0.017317 0.000000 0.003916
#
#
# Mechanical properties :
#
#
# Convention : Reuss Voigt Hill
#
# Bulk Modulus (GPa) = 17.90530 42.25361 30.07945
# Shear Modulus (GPa) = 50.63151 38.10262 44.36707
#
# Velocity S-wave (km/s) = 4.92145 4.26934 4.60695
# Velocity P-wave (km/s) = 6.39216 6.67203 6.53359
#
# Compressibility (1/GPa) = 0.05584939
#
# Stress axis : x y z
#
# Youngs Moduli (GPa) = 105.93642 114.16657 22.13007
#
# Poissons Ratio (x) = 0.26247 -0.03055
# Poissons Ratio (y) = 0.24355 0.06306
# Poissons Ratio (z) = -0.14622 0.32533
#
# Static dielectric constant tensor:
#      x y z
#    x 1.808140 0.000000 0.003330 
#    y 0.000000 1.787410 0.000000 
#    z 0.003330 0.000000 1.784110 
# 
# From -- ./inp_files/161261.got.cif
#   From: 2010.05.17/outbox.cif.g08.bks.cpg/sg12_81_cif.got.tgz:161261.got - 2010.06.03 13:09:07.
