data_PCOD9202029
_publ_section_title
;
Structure prediction by ZEFSAII (Michael W. Deem and Ramdas Pophale) SiO2 
 PCOD9202029
Probable space group: C 2/M
;
_chemical_formula_sum "Si O2"
_cell_formula_units_Z 42
_cell_length_a 16.051753
_cell_length_b 25.949071
_cell_length_c 6.370952
_cell_angle_alpha 90.000000
_cell_angle_beta 50.666995
_cell_angle_gamma 90.000000
_cell_volume 2052.556039
_symmetry_space_group_name_H-M "C 2/M"
_symmetry_group_IT_number 12
_symmetry_cell_setting 'monoclinic'
loop_
_space_group_symop_operation_xyz
x,y,z
-x,y,-z
-x,-y,-z
x,-y,z
1/2+x,1/2+y,z
1/2-x,1/2+y,-z
1/2-x,1/2-y,-z
1/2+x,1/2-y,z
loop_
_atom_site_type_symbol
_atom_site_label
_atom_site_fract_x
_atom_site_fract_y
_atom_site_fract_z
Si Si1 0.726059 0.846147 0.069700
Si Si2 0.383379 0.114574 0.139294
Si Si3 0.414433 0.677242 0.465150
Si Si4 0.354842 0.778823 0.427910
Si Si5 0.170400 0.906290 0.718532
Si Si6 0.500000 0.500000 0.000000
O O1 0.672513 0.804354 0.305064
O O2 0.795088 0.882929 0.112672
O O3 0.641572 0.878278 0.066307
O O4 0.804822 0.820023 0.775505
O O5 0.383800 0.172452 0.238555
O O6 0.282583 0.086267 0.411002
O O7 0.500000 0.091511 0.000000
O O8 0.500000 0.659634 0.500000
O O9 0.440097 0.733341 0.330375
O O10 0.392312 0.637293 0.315624
O O11 0.250000 0.750000 0.500000
O O12 0.094453 0.955076 0.855616
#
# Coordination Sequence:
#
# PCOD9202029 Si02
#       6
#     8   8   8   8   8   2
#     4  10  20  38  57  81 129 169 198 262 291 364
#     4  10  23  39  60  91 129 170 206 253 303 376
#     4  11  22  34  55  89 128 167 211 253 302 364
#     4  11  20  34  53  86 128 172 220 237 294 364
#     4  10  23  43  63  92 118 159 210 263 329 375
#     4  12  24  48  76  90 118 152 204 288 330 384
#
# _framework density 20.462292000000001
#
# number of rings (size 3 to 8) (size 9 to 14) (size 15 to 20)
#    0.000    1.524    5.714    1.714    2.667    2.286 
#    1.714   12.381    0.000    1.143    0.000    0.000 
#    0.000    0.000    0.000    0.000    0.000    0.000 
#
# Total GULP energy -117027.012676 kJ/mol
# GULP energy per Si atom -5572.714889 kJ/mol
# Density = 2.041572 g / cm^3
# Si number density = 20.462292 Si / 1000 Ang^3
#
#
#
# Elastic Constant Matrix: (Units=GPa)
#
#
# Indices 1 2 3 4 5 6 
#
# 1 143.4370 39.3004 49.5544 0.0000 11.1862 0.0000
# 2 39.3004 116.3494 38.8618 0.0000 3.2663 0.0000
# 3 49.5544 38.8618 74.8559 0.0000 11.3271 0.0000
# 4 0.0000 0.0000 0.0000 7.3791 0.0000 -16.6312
# 5 11.1862 3.2663 11.3271 0.0000 43.0936 0.0000
# 6 0.0000 0.0000 0.0000 -16.6312 0.0000 19.9161
#
#
#
# Elastic Compliance Matrix: (Units=1/GPa)
#
#
# Indices 1 2 3 4 5 6 
#
# 1 0.009232 -0.001328 -0.005285 0.000000 -0.000907 0.000000
# 2 -0.001328 0.010607 -0.004747 0.000000 0.000788 0.000000
# 3 -0.005285 -0.004747 0.019850 0.000000 -0.003486 0.000000
# 4 0.000000 0.000000 0.000000 -0.153632 0.000000 -0.128293
# 5 -0.000907 0.000788 -0.003486 0.000000 0.024297 0.000000
# 6 0.000000 0.000000 0.000000 -0.128293 0.000000 -0.056922
#
#
# Mechanical properties :
#
#
# Convention : Reuss Voigt Hill
#
# Bulk Modulus (GPa) = 58.93134 65.56393 62.24764
# Shear Modulus (GPa) = -42.30367 27.87279 -7.21544
#
# Velocity S-wave (km/s) = -4.55180 3.69474 -1.87986
# Velocity P-wave (km/s) = 1.11237 7.09312 5.07690
#
# Compressibility (1/GPa) = 0.01696890
#
# Stress axis : x y z
#
# Youngs Moduli (GPa) = 108.31779 94.28075 50.37888
#
# Poissons Ratio (x) = 0.12517 0.26626
# Poissons Ratio (y) = 0.14381 0.23914
# Poissons Ratio (z) = 0.57248 0.44754
#
# Static dielectric constant tensor:
#      x y z
#    x 1.782460 0.000000 -0.037990 
#    y 0.000000 1.678900 0.000000 
#    z -0.037990 0.000000 1.761570 
# 
# From -- ./inp_files/12310.got.cif
#   From: 2010.05.17/outbox.cif.g08.bks.cpg/sg12_7_cif.got.tgz:12310.got - 2010.06.03 13:09:07.
