data_PCOD9202990
_publ_section_title
;
Structure prediction by ZEFSAII (Michael W. Deem and Ramdas Pophale) SiO2 
 PCOD9202990
Probable space group: C 2/M
;
_chemical_formula_sum "Si O2"
_cell_formula_units_Z 32
_cell_length_a 13.731178
_cell_length_b 20.672083
_cell_length_c 8.359589
_cell_angle_alpha 90.000000
_cell_angle_beta 142.152490
_cell_angle_gamma 90.000000
_cell_volume 1455.913083
_symmetry_space_group_name_H-M "C 2/M"
_symmetry_group_IT_number 12
_symmetry_cell_setting 'monoclinic'
loop_
_space_group_symop_operation_xyz
x,y,z
-x,y,-z
-x,-y,-z
x,-y,z
1/2+x,1/2+y,z
1/2-x,1/2+y,-z
1/2-x,1/2-y,-z
1/2+x,1/2-y,z
loop_
_atom_site_type_symbol
_atom_site_label
_atom_site_fract_x
_atom_site_fract_y
_atom_site_fract_z
Si Si1 0.684251 0.428360 0.677426
Si Si2 0.879854 0.801806 0.994244
Si Si3 0.678033 0.927096 0.796888
Si Si4 0.318281 0.707844 0.442145
O O1 0.500000 0.422789 0.500000
O O2 0.699608 0.500000 0.624665
O O3 0.721925 0.368124 0.612811
O O4 0.798460 0.424757 0.980352
O O5 0.993255 0.790500 0.292402
O O6 0.785759 0.868614 0.876728
O O7 0.762793 0.742305 0.812704
O O8 0.000000 0.805392 0.000000
O O9 0.500000 0.918646 0.500000
O O10 0.730683 0.000000 0.817857
O O11 0.250000 0.750000 0.500000
#
# Coordination Sequence:
#
# PCOD9202990 Si02
#       4
#     8   8   8   8
#     4  10  20  38  65  90 120 164 214 259 310 376
#     4  10  22  39  59  86 124 169 207 259 313 376
#     4  10  22  39  61  93 126 159 209 265 315 369
#     4  10  22  39  59  89 125 162 208 257 310 375
#
# _framework density 21.979334000000001
#
# number of rings (size 3 to 8) (size 9 to 14) (size 15 to 20)
#    0.000    2.000    2.500    0.000    3.500    2.500 
#    0.000    3.750    0.000    6.750    0.000    0.000 
#    0.000    0.000    0.000    0.000    0.000    0.000 
#
# Total GULP energy -89316.380131 kJ/mol
# GULP energy per Si atom -5582.273758 kJ/mol
# Density = 2.192931 g / cm^3
# Si number density = 21.979334 Si / 1000 Ang^3
#
#
#
# Elastic Constant Matrix: (Units=GPa)
#
#
# Indices 1 2 3 4 5 6 
#
# 1 49.3878 55.7384 4.0130 0.0000 10.7136 0.0000
# 2 55.7384 228.1738 74.8171 0.0000 17.0035 0.0000
# 3 4.0130 74.8171 182.7609 0.0000 16.6420 0.0000
# 4 0.0000 0.0000 0.0000 49.7294 0.0000 15.5170
# 5 10.7136 17.0035 16.6420 0.0000 19.7250 0.0000
# 6 0.0000 0.0000 0.0000 15.5170 0.0000 64.3518
#
#
#
# Elastic Compliance Matrix: (Units=1/GPa)
#
#
# Indices 1 2 3 4 5 6 
#
# 1 0.031994 -0.008056 0.003840 0.000000 -0.013673 0.000000
# 2 -0.008056 0.007241 -0.002835 0.000000 0.000526 0.000000
# 3 0.003840 -0.002835 0.007058 0.000000 -0.005596 0.000000
# 4 0.000000 0.000000 0.000000 0.021745 0.000000 -0.005243
# 5 -0.013673 0.000526 -0.005596 0.000000 0.062392 0.000000
# 6 0.000000 0.000000 0.000000 -0.005243 0.000000 0.016804
#
#
# Mechanical properties :
#
#
# Convention : Reuss Voigt Hill
#
# Bulk Modulus (GPa) = 31.06472 81.05105 56.05788
# Shear Modulus (GPa) = 29.05890 48.47817 38.76853
#
# Velocity S-wave (km/s) = 3.64002 4.70150 4.20439
# Velocity P-wave (km/s) = 5.64186 8.15035 7.00924
#
# Compressibility (1/GPa) = 0.03219086
#
# Stress axis : x y z
#
# Youngs Moduli (GPa) = 31.25631 138.10331 141.69214
#
# Poissons Ratio (x) = 1.11252 -0.54414
# Poissons Ratio (y) = 0.25179 0.40173
# Poissons Ratio (z) = -0.12003 0.39155
#
# Static dielectric constant tensor:
#      x y z
#    x 1.855120 0.000000 -0.069210 
#    y 0.000000 1.798040 0.000000 
#    z -0.069210 0.000000 1.893450 
# 
# From -- ./inp_files/63025.got.cif
#   From: 2010.05.17/outbox.cif.g08.bks.cpg/sg12_32_cif.got.tgz:63025.got - 2010.06.03 13:09:07.
