data_PCOD9202671
_publ_section_title
;
Structure prediction by ZEFSAII (Michael W. Deem and Ramdas Pophale) SiO2 
 PCOD9202671
Probable space group: C 2/M
;
_chemical_formula_sum "Si O2"
_cell_formula_units_Z 64
_cell_length_a 20.338887
_cell_length_b 7.545863
_cell_length_c 32.152760
_cell_angle_alpha 90.000000
_cell_angle_beta 142.803447
_cell_angle_gamma 90.000000
_cell_volume 2983.234831
_symmetry_space_group_name_H-M "C 2/M"
_symmetry_group_IT_number 12
_symmetry_cell_setting 'monoclinic'
loop_
_space_group_symop_operation_xyz
x,y,z
-x,y,-z
-x,-y,-z
x,-y,z
1/2+x,1/2+y,z
1/2-x,1/2+y,-z
1/2-x,1/2-y,-z
1/2+x,1/2-y,z
loop_
_atom_site_type_symbol
_atom_site_label
_atom_site_fract_x
_atom_site_fract_y
_atom_site_fract_z
Si Si1 0.523571 0.283902 0.716168
Si Si2 0.993932 0.215295 0.795068
Si Si3 0.885584 0.298784 0.454426
Si Si4 0.251263 0.704284 0.309510
Si Si5 0.033152 0.708528 0.061912
Si Si6 0.713798 0.712891 0.434687
Si Si7 0.755191 0.782620 0.216921
Si Si8 0.623041 0.710457 0.941108
O O1 0.522149 0.500000 0.713938
O O2 0.533538 0.231951 0.769417
O O3 0.407909 0.223582 0.638590
O O4 0.632102 0.226972 0.747209
O O5 0.063643 0.277388 0.869501
O O6 0.873199 0.285309 0.739738
O O7 0.991001 0.000000 0.794365
O O8 0.910404 0.500000 0.481490
O O9 0.819255 0.303868 0.378322
O O10 0.805830 0.218381 0.449029
O O11 0.000000 0.212062 0.500000
O O12 0.288365 0.500000 0.328098
O O13 0.256383 0.774734 0.265371
O O14 0.053821 0.500000 0.065726
O O15 0.145715 0.779476 0.138379
O O16 0.937202 0.723069 0.047707
O O17 0.000000 0.783086 0.000000
O O18 0.710164 0.500000 0.427262
O O19 0.750000 0.750000 0.500000
O O20 0.751642 0.000000 0.215386
O O21 0.609678 0.500000 0.935525
O O22 0.750000 0.750000 0.000000
#
# Coordination Sequence:
#
# PCOD9202671 Si02
#       8
#     8   8   8   8   8   8   8   8
#     4   9  18  35  58  81 108 145 191 233 278 341
#     4  10  20  38  63  84 110 152 197 236 285 347
#     4  10  22  40  59  81 113 155 196 234 283 344
#     4  11  21  35  59  87 116 145 185 243 294 336
#     4  10  21  38  61  86 118 158 199 239 290 357
#     4  10  21  37  57  80 111 149 187 233 282 335
#     4   9  19  34  55  85 115 145 184 237 289 336
#     4  11  24  39  61  89 120 157 199 247 297 351
#
# _framework density 21.453220999999999
#
# number of rings (size 3 to 8) (size 9 to 14) (size 15 to 20)
#    0.000    2.000    2.500    0.750    3.500    1.500 
#    0.000    0.000    0.000    2.250    0.000    0.000 
#    0.000    0.000    0.000    0.000    0.000    0.000 
#
# Total GULP energy -178704.193638 kJ/mol
# GULP energy per Si atom -5584.506051 kJ/mol
# Density = 2.140439 g / cm^3
# Si number density = 21.453221 Si / 1000 Ang^3
#
#
#
# Elastic Constant Matrix: (Units=GPa)
#
#
# Indices 1 2 3 4 5 6 
#
# 1 155.7864 -5.6519 67.6977 -0.0006 2.0682 0.0000
# 2 -5.6519 51.1648 -4.2880 -0.0003 -3.5393 -0.0012
# 3 67.6977 -4.2880 141.3593 -0.0003 0.5901 0.0002
# 4 -0.0006 -0.0003 -0.0003 8.4997 0.0001 -4.1901
# 5 2.0682 -3.5393 0.5901 0.0001 44.4211 0.0000
# 6 0.0000 -0.0012 0.0002 -4.1901 0.0000 5.5454
#
#
#
# Elastic Compliance Matrix: (Units=1/GPa)
#
#
# Indices 1 2 3 4 5 6 
#
# 1 0.008126 0.000553 -0.003874 0.000001 -0.000283 0.000001
# 2 0.000553 0.019740 0.000327 0.000005 0.001543 0.000008
# 3 -0.003874 0.000327 0.008939 0.000000 0.000088 0.000000
# 4 0.000001 0.000005 0.000000 0.187490 0.000000 0.141668
# 5 -0.000283 0.001543 0.000088 0.000000 0.022647 0.000001
# 6 0.000001 0.000008 0.000000 0.141668 0.000001 0.287376
#
#
# Mechanical properties :
#
#
# Convention : Reuss Voigt Hill
#
# Bulk Modulus (GPa) = 32.44737 51.53624 41.99180
# Shear Modulus (GPa) = 9.08140 31.06342 20.07241
#
# Velocity S-wave (km/s) = 2.05969 3.80934 3.06214
# Velocity P-wave (km/s) = 4.56223 6.58960 5.66731
#
# Compressibility (1/GPa) = 0.03081914
#
# Stress axis : x y z
#
# Youngs Moduli (GPa) = 123.05840 50.65863 111.87089
#
# Poissons Ratio (x) = -0.02804 0.43336
# Poissons Ratio (y) = -0.06811 -0.03662
# Poissons Ratio (z) = 0.47669 -0.01658
#
# Static dielectric constant tensor:
#      x y z
#    x 1.814610 0.000000 -0.003250 
#    y 0.000000 1.797330 0.000000 
#    z -0.003250 0.000000 1.734740 
# 
# From -- ./inp_files/378342.got.cif
#   From: 2010.05.17/outbox.cif.g08.bks.cpg/sg12_190_cif.got.tgz:378342.got - 2010.06.03 13:09:07.
