data_PCOD9202723
_publ_section_title
;
Structure prediction by ZEFSAII (Michael W. Deem and Ramdas Pophale) SiO2 
 PCOD9202723
Probable space group: C 2/M
;
_chemical_formula_sum "Si O2"
_cell_formula_units_Z 56
_cell_length_a 23.197867
_cell_length_b 14.572120
_cell_length_c 15.878714
_cell_angle_alpha 90.000000
_cell_angle_beta 30.362430
_cell_angle_gamma 90.000000
_cell_volume 2713.187838
_symmetry_space_group_name_H-M "C 2/M"
_symmetry_group_IT_number 12
_symmetry_cell_setting 'monoclinic'
loop_
_space_group_symop_operation_xyz
x,y,z
-x,y,-z
-x,-y,-z
x,-y,z
1/2+x,1/2+y,z
1/2-x,1/2+y,-z
1/2-x,1/2-y,-z
1/2+x,1/2-y,z
loop_
_atom_site_type_symbol
_atom_site_label
_atom_site_fract_x
_atom_site_fract_y
_atom_site_fract_z
Si Si1 0.980280 0.892591 0.864504
Si Si2 0.025556 0.601646 0.068721
Si Si3 0.235056 0.816874 0.758203
Si Si4 0.578331 0.280597 0.218385
Si Si5 0.347418 0.742039 0.308647
Si Si6 0.746778 0.821934 0.876883
Si Si7 0.035217 0.601383 0.553821
O O1 0.093945 0.857535 0.765956
O O2 0.987852 0.845405 0.763110
O O3 0.970793 0.000000 0.868606
O O4 0.874397 0.856822 0.054785
O O5 0.990560 0.500000 0.141581
O O6 0.945741 0.683327 0.202854
O O7 0.155467 0.617457 0.938684
O O8 0.000000 0.604308 0.000000
O O9 0.199764 0.751663 0.725870
O O10 0.295095 0.751558 0.750358
O O11 0.327960 0.890159 0.612835
O O12 0.644393 0.345651 0.202523
O O13 0.513872 0.193562 0.340828
O O14 0.667657 0.231058 0.043370
O O15 0.250000 0.750000 0.500000
O O16 0.997809 0.500000 0.634661
O O17 0.000000 0.602104 0.500000
#
# Coordination Sequence:
#
# PCOD9202723 Si02
#       7
#     8   8   8   8   8   8   8
#     4  11  24  43  66  91 125 170 219 264 316 381
#     4  11  22  41  66  92 121 164 217 263 310 379
#     4  11  21  40  65  91 131 166 212 262 321 378
#     4  10  21  40  61  91 130 170 207 260 313 373
#     4  12  24  42  64  93 130 166 206 269 328 383
#     4  10  20  38  63  88 124 173 211 252 309 375
#     4  11  23  38  61  99 134 166 208 263 322 378
#
# _framework density 20.639927
#
# number of rings (size 3 to 8) (size 9 to 14) (size 15 to 20)
#    0.000    1.143    5.714    1.714    0.000    3.429 
#    0.000    0.000    0.000    0.429    0.000    0.000 
#    0.000    0.000    0.000    0.000    0.000    0.000 
#
# Total GULP energy -155970.497042 kJ/mol
# GULP energy per Si atom -5570.374894 kJ/mol
# Density = 2.059295 g / cm^3
# Si number density = 20.639927 Si / 1000 Ang^3
#
#
#
# Elastic Constant Matrix: (Units=GPa)
#
#
# Indices 1 2 3 4 5 6 
#
# 1 80.8420 16.8579 43.0327 0.0000 5.2910 0.0000
# 2 16.8579 87.2266 34.0903 0.0000 8.9839 0.0000
# 3 43.0327 34.0903 42.9567 0.0000 5.6235 0.0000
# 4 0.0000 0.0000 0.0000 18.2773 0.0000 4.8219
# 5 5.2910 8.9839 5.6235 0.0000 26.1021 0.0000
# 6 0.0000 0.0000 0.0000 4.8219 0.0000 17.4054
#
#
#
# Elastic Compliance Matrix: (Units=1/GPa)
#
#
# Indices 1 2 3 4 5 6 
#
# 1 0.030556 0.008869 -0.037495 0.000000 -0.001168 0.000000
# 2 0.008869 0.019419 -0.023858 0.000000 -0.003341 0.000000
# 3 -0.037495 -0.023858 0.079960 0.000000 -0.001415 0.000000
# 4 0.000000 0.000000 0.000000 0.059027 0.000000 -0.016352
# 5 -0.001168 -0.003341 -0.001415 0.000000 0.040003 0.000000
# 6 0.000000 0.000000 0.000000 -0.016352 0.000000 0.061983
#
#
# Mechanical properties :
#
#
# Convention : Reuss Voigt Hill
#
# Bulk Modulus (GPa) = 40.05493 44.33193 42.19343
# Shear Modulus (GPa) = 12.36894 20.15992 16.26443
#
# Velocity S-wave (km/s) = 2.45066 3.12868 2.81019
# Velocity P-wave (km/s) = 5.23988 5.88021 5.56925
#
# Compressibility (1/GPa) = 0.02496571
#
# Stress axis : x y z
#
# Youngs Moduli (GPa) = 32.72694 51.49657 12.50627
#
# Poissons Ratio (x) = -0.45673 0.46893
# Poissons Ratio (y) = -0.29026 0.29838
# Poissons Ratio (z) = 1.22711 1.22861
#
# Static dielectric constant tensor:
#      x y z
#    x 1.779350 0.000000 -0.015930 
#    y 0.000000 1.774120 0.000000 
#    z -0.015930 0.000000 1.750050 
# 
# From -- ./inp_files/240902.got.cif
#   From: 2010.05.17/outbox.cif.g08.bks.cpg/sg12_121_cif.got.tgz:240902.got - 2010.06.03 13:09:07.
