data_PCOD9202478
_publ_section_title
;
Structure prediction by ZEFSAII (Michael W. Deem and Ramdas Pophale) SiO2 
 PCOD9202478
Probable space group: C 2/M
;
_chemical_formula_sum "Si O2"
_cell_formula_units_Z 64
_cell_length_a 11.312595
_cell_length_b 26.733947
_cell_length_c 21.868483
_cell_angle_alpha 90.000000
_cell_angle_beta 29.044926
_cell_angle_gamma 90.000000
_cell_volume 3210.916258
_symmetry_space_group_name_H-M "C 2/M"
_symmetry_group_IT_number 12
_symmetry_cell_setting 'monoclinic'
loop_
_space_group_symop_operation_xyz
x,y,z
-x,y,-z
-x,-y,-z
x,-y,z
1/2+x,1/2+y,z
1/2-x,1/2+y,-z
1/2-x,1/2-y,-z
1/2+x,1/2-y,z
loop_
_atom_site_type_symbol
_atom_site_label
_atom_site_fract_x
_atom_site_fract_y
_atom_site_fract_z
Si Si1 0.706557 0.556352 0.635204
Si Si2 0.581458 0.205093 0.335775
Si Si3 0.231289 0.654305 0.146763
Si Si4 0.584955 0.054795 0.698651
Si Si5 0.960571 0.187765 0.399554
Si Si6 0.518095 0.423333 0.584441
Si Si7 0.101273 0.837850 0.714484
Si Si8 0.744645 0.746920 0.076189
O O1 0.663658 0.500000 0.677828
O O2 0.599212 0.560991 0.615247
O O3 0.584713 0.602178 0.726878
O O4 0.000000 0.563988 0.500000
O O5 0.728732 0.178576 0.215513
O O6 0.294654 0.200825 0.452127
O O7 0.629260 0.263675 0.323656
O O8 0.645834 0.176984 0.368549
O O9 0.131747 0.700400 0.150871
O O10 0.085405 0.602653 0.215282
O O11 0.500000 0.644078 0.000000
O O12 0.756773 0.064617 0.561998
O O13 0.775538 0.052358 0.668242
O O14 0.465592 0.000000 0.746004
O O15 0.041636 0.135754 0.390936
O O16 0.910528 0.176456 0.351041
O O17 0.906137 0.802269 0.836201
O O18 0.750000 0.750000 0.000000
O O19 0.000000 0.744056 0.000000
#
# Coordination Sequence:
#
# PCOD9202478 Si02
#       8
#     8   8   8   8   8   8   8   8
#     4  10  21  37  59  91 129 164 202 251 312 378
#     4  11  21  38  56  92 131 160 200 262 314 382
#     4  11  24  43  62  89 127 172 218 262 315 381
#     4  11  23  39  63  90 125 168 214 266 316 374
#     4  10  21  34  59  91 129 156 200 252 329 380
#     4  10  20  38  61  94 127 164 204 259 326 387
#     4  11  21  36  62  89 122 163 209 251 316 380
#     4  11  25  44  65  89 124 168 214 267 321 383
#
# _framework density 19.932005
#
# number of rings (size 3 to 8) (size 9 to 14) (size 15 to 20)
#    0.000    1.375    2.500    4.875    1.750    1.250 
#    2.250    0.000    0.000    2.625    0.000    0.000 
#    0.000    0.000    0.000    0.000    0.000    0.000 
#
# Total GULP energy -178578.580825 kJ/mol
# GULP energy per Si atom -5580.580651 kJ/mol
# Density = 1.988664 g / cm^3
# Si number density = 19.932005 Si / 1000 Ang^3
#
#
#
# Elastic Constant Matrix: (Units=GPa)
#
#
# Indices 1 2 3 4 5 6 
#
# 1 65.5557 39.9388 19.8693 -0.0020 5.1695 -0.0019
# 2 39.9388 225.3005 55.9843 -0.0160 -4.5872 -0.0016
# 3 19.8693 55.9843 79.5051 -0.0393 -4.5767 -0.0047
# 4 -0.0020 -0.0160 -0.0393 1.4102 0.0016 0.1894
# 5 5.1695 -4.5872 -4.5767 0.0016 23.1725 0.0009
# 6 -0.0019 -0.0016 -0.0047 0.1894 0.0009 21.4410
#
#
#
# Elastic Compliance Matrix: (Units=1/GPa)
#
#
# Indices 1 2 3 4 5 6 
#
# 1 0.018142 -0.002570 -0.003021 -0.000082 -0.005153 0.000002
# 2 -0.002570 0.005746 -0.003344 -0.000033 0.001051 0.000000
# 3 -0.003021 -0.003344 0.015868 0.000397 0.003146 -0.000001
# 4 -0.000082 -0.000033 0.000397 0.709985 0.000040 -0.006273
# 5 -0.005153 0.001051 0.003146 0.000040 0.045133 -0.000002
# 6 0.000002 0.000000 -0.000001 -0.006273 -0.000002 0.046695
#
#
# Mechanical properties :
#
#
# Convention : Reuss Voigt Hill
#
# Bulk Modulus (GPa) = 45.68770 66.88291 56.28530
# Shear Modulus (GPa) = 5.76877 26.17599 15.97238
#
# Velocity S-wave (km/s) = 1.70309 3.62783 2.83387
# Velocity P-wave (km/s) = 5.18063 7.15378 6.24562
#
# Compressibility (1/GPa) = 0.02188773
#
# Stress axis : x y z
#
# Youngs Moduli (GPa) = 55.12072 174.02273 63.01832
#
# Poissons Ratio (x) = 0.44730 0.19036
# Poissons Ratio (y) = 0.14168 0.21070
# Poissons Ratio (z) = 0.16650 0.58185
#
# Static dielectric constant tensor:
#      x y z
#    x 1.723640 -0.000140 -0.021890 
#    y -0.000140 3.026790 -0.000200 
#    z -0.021890 -0.000200 1.710850 
# 
# From -- ./inp_files/307465.got.cif
#   From: 2010.05.17/outbox.cif.g08.bks.cpg/sg12_154_cif.got.tgz:307465.got - 2010.06.03 13:09:07.
