data_PCOD9202060
_publ_section_title
;
Structure prediction by ZEFSAII (Michael W. Deem and Ramdas Pophale) SiO2 
 PCOD9202060
Probable space group: C 2/M
;
_chemical_formula_sum "Si O2"
_cell_formula_units_Z 32
_cell_length_a 5.059072
_cell_length_b 30.497740
_cell_length_c 12.899536
_cell_angle_alpha 90.000000
_cell_angle_beta 76.978169
_cell_angle_gamma 90.000000
_cell_volume 1939.091503
_symmetry_space_group_name_H-M "C 2/M"
_symmetry_group_IT_number 12
_symmetry_cell_setting 'monoclinic'
loop_
_space_group_symop_operation_xyz
x,y,z
-x,y,-z
-x,-y,-z
x,-y,z
1/2+x,1/2+y,z
1/2-x,1/2+y,-z
1/2-x,1/2-y,-z
1/2+x,1/2-y,z
loop_
_atom_site_type_symbol
_atom_site_label
_atom_site_fract_x
_atom_site_fract_y
_atom_site_fract_z
Si Si1 0.301430 0.949154 0.427320
Si Si2 0.837357 0.868195 0.115034
Si Si3 0.237193 0.588321 0.795185
Si Si4 0.709182 0.500000 0.077474
Si Si5 0.500000 0.718374 0.000000
O O1 0.500000 0.932949 0.500000
O O2 0.308937 0.922546 0.320577
O O3 0.000000 0.949056 0.500000
O O4 0.378479 0.000000 0.397395
O O5 0.532366 0.886481 0.140469
O O6 0.998863 0.883073 0.202146
O O7 0.883807 0.816264 0.095237
O O8 0.000000 0.887134 0.000000
O O9 0.299492 0.542894 0.849480
O O10 0.500000 0.500000 0.000000
O O11 0.000000 0.500000 0.000000
O O12 0.750000 0.750000 0.000000
#
# Coordination Sequence:
#
# PCOD9202060 Si02
#       5
#     8   8   8   4   4
#     4  10  21  36  53  71  99 144 199 239 262 296
#     4  10  22  33  56  79 113 141 169 227 256 325
#     4  12  20  37  50  78 109 148 187 225 268 297
#     4  12  24  32  48  72 108 156 190 210 245 326
#     4  10  20  38  58  79 110 145 172 208 272 340
#
# _framework density 16.502575
#
# number of rings (size 3 to 8) (size 9 to 14) (size 15 to 20)
#    0.750    0.500    1.250    7.500    0.000    0.000 
#    0.000    0.000    0.000    0.000    0.000    0.000 
#    0.000   70.000    0.000    0.000    0.000    0.000 
#
# Total GULP energy -89198.130571 kJ/mol
# GULP energy per Si atom -5574.883161 kJ/mol
# Density = 1.646501 g / cm^3
# Si number density = 16.502575 Si / 1000 Ang^3
#
#
#
# Elastic Constant Matrix: (Units=GPa)
#
#
# Indices 1 2 3 4 5 6 
#
# 1 123.0562 48.1057 23.7031 0.0000 25.7490 0.0000
# 2 48.1057 121.0080 34.4670 0.0000 14.6196 0.0000
# 3 23.7031 34.4670 77.7929 0.0000 26.4305 0.0000
# 4 0.0000 0.0000 0.0000 25.7718 0.0000 0.8723
# 5 25.7490 14.6196 26.4305 0.0000 32.8044 0.0000
# 6 0.0000 0.0000 0.0000 0.8723 0.0000 25.9991
#
#
#
# Elastic Compliance Matrix: (Units=1/GPa)
#
#
# Indices 1 2 3 4 5 6 
#
# 1 0.011017 -0.003705 0.000911 0.000000 -0.007730 0.000000
# 2 -0.003705 0.010736 -0.004117 0.000000 0.001441 0.000000
# 3 0.000911 -0.004117 0.019305 0.000000 -0.014435 0.000000
# 4 0.000000 0.000000 0.000000 0.038846 0.000000 -0.001303
# 5 -0.007730 0.001441 -0.014435 0.000000 0.047539 0.000000
# 6 0.000000 0.000000 0.000000 -0.001303 0.000000 0.038507
#
#
# Mechanical properties :
#
#
# Convention : Reuss Voigt Hill
#
# Bulk Modulus (GPa) = 36.71676 59.37877 48.04776
# Shear Modulus (GPa) = 26.47594 31.28714 28.88154
#
# Velocity S-wave (km/s) = 4.00978 4.35891 4.18799
# Velocity P-wave (km/s) = 6.61326 7.83537 7.25011
#
# Compressibility (1/GPa) = 0.02723552
#
# Stress axis : x y z
#
# Youngs Moduli (GPa) = 90.76994 93.14889 51.79899
#
# Poissons Ratio (x) = 0.34514 -0.04720
# Poissons Ratio (y) = 0.33633 0.21326
# Poissons Ratio (z) = -0.08272 0.38351
#
# Static dielectric constant tensor:
#      x y z
#    x 1.558040 0.000000 0.016300 
#    y 0.000000 1.490910 0.000000 
#    z 0.016300 0.000000 1.548430 
# 
# From -- ./inp_files/115631.got.cif
#   From: 2010.05.17/outbox.cif.g08.bks.cpg/sg12_58_cif.got.tgz:115631.got - 2010.06.03 13:09:07.
