data_PCOD9202766
_publ_section_title
;
Structure prediction by ZEFSAII (Michael W. Deem and Ramdas Pophale) SiO2 
 PCOD9202766
Probable space group: C 2/M
;
_chemical_formula_sum "Si O2"
_cell_formula_units_Z 32
_cell_length_a 8.488338
_cell_length_b 19.162736
_cell_length_c 9.690033
_cell_angle_alpha 90.000000
_cell_angle_beta 62.038699
_cell_angle_gamma 90.000000
_cell_volume 1392.182611
_symmetry_space_group_name_H-M "C 2/M"
_symmetry_group_IT_number 12
_symmetry_cell_setting 'monoclinic'
loop_
_space_group_symop_operation_xyz
x,y,z
-x,y,-z
-x,-y,-z
x,-y,z
1/2+x,1/2+y,z
1/2-x,1/2+y,-z
1/2-x,1/2-y,-z
1/2+x,1/2-y,z
loop_
_atom_site_type_symbol
_atom_site_label
_atom_site_fract_x
_atom_site_fract_y
_atom_site_fract_z
Si Si1 0.266230 0.652106 0.243691
Si Si2 0.500079 0.766893 0.156554
Si Si3 0.670206 0.000000 0.319506
Si Si4 0.713985 0.650690 0.438732
Si Si5 0.797743 0.000000 0.548680
O O1 0.468823 0.682904 0.162001
O O2 0.205850 0.573260 0.229296
O O3 0.227774 0.655572 0.424599
O O4 0.160293 0.703001 0.182449
O O5 0.325783 0.794810 0.307059
O O6 0.500000 0.793134 0.000000
O O7 0.500000 0.000000 0.500000
O O8 0.818523 0.000000 0.375643
O O9 0.500000 0.657935 0.500000
O O10 0.778093 0.572895 0.369452
O O11 0.000000 0.000000 0.500000
#
# Coordination Sequence:
#
# PCOD9202766 Si02
#       5
#     8   8   4   8   4
#     4  11  23  42  66  92 124 166 212 256 307 369
#     4  12  25  41  62  94 130 165 204 258 314 369
#     4  10  20  38  63  91 120 157 208 261 303 356
#     4  10  20  38  65  94 122 164 213 258 306 370
#     4   8  16  32  58  91 124 155 204 261 306 356
#
# _framework density 22.985489999999999
#
# number of rings (size 3 to 8) (size 9 to 14) (size 15 to 20)
#    0.000    1.500    0.000    6.750    0.000    1.000 
#    0.000    3.125    0.000    3.000    0.000    0.000 
#    0.000    0.000    0.000    0.000    0.000    0.000 
#
# Total GULP energy -89072.795004 kJ/mol
# GULP energy per Si atom -5567.049688 kJ/mol
# Density = 2.293317 g / cm^3
# Si number density = 22.985490 Si / 1000 Ang^3
#
#
#
# Elastic Constant Matrix: (Units=GPa)
#
#
# Indices 1 2 3 4 5 6 
#
# 1 109.5225 25.9829 15.2745 0.0000 26.9586 0.0000
# 2 25.9829 158.9264 14.8546 0.0000 1.2524 0.0000
# 3 15.2745 14.8546 79.1431 0.0000 24.6544 0.0000
# 4 0.0000 0.0000 0.0000 11.6180 0.0000 3.8155
# 5 26.9586 1.2524 24.6544 0.0000 34.0474 0.0000
# 6 0.0000 0.0000 0.0000 3.8155 0.0000 27.8653
#
#
#
# Elastic Compliance Matrix: (Units=1/GPa)
#
#
# Indices 1 2 3 4 5 6 
#
# 1 0.011968 -0.001995 0.001283 0.000000 -0.010332 0.000000
# 2 -0.001995 0.006755 -0.001675 0.000000 0.002545 0.000000
# 3 0.001283 -0.001675 0.016786 0.000000 -0.013110 0.000000
# 4 0.000000 0.000000 0.000000 0.090127 0.000000 -0.012341
# 5 -0.010332 0.002545 -0.013110 0.000000 0.046951 0.000000
# 6 0.000000 0.000000 0.000000 -0.012341 0.000000 0.037577
#
#
# Mechanical properties :
#
#
# Convention : Reuss Voigt Hill
#
# Bulk Modulus (GPa) = 32.53684 51.09066 41.81375
# Shear Modulus (GPa) = 22.20415 34.13811 28.17113
#
# Velocity S-wave (km/s) = 3.11144 3.85801 3.50466
# Velocity P-wave (km/s) = 5.20521 6.49009 5.88283
#
# Compressibility (1/GPa) = 0.03073439
#
# Stress axis : x y z
#
# Youngs Moduli (GPa) = 83.55503 148.03923 59.57359
#
# Poissons Ratio (x) = 0.29537 -0.07645
# Poissons Ratio (y) = 0.16671 0.09981
# Poissons Ratio (z) = -0.10723 0.24803
#
# Static dielectric constant tensor:
#      x y z
#    x 1.743820 0.000000 -0.091780 
#    y 0.000000 2.086570 0.000000 
#    z -0.091780 0.000000 1.805960 
# 
# From -- ./inp_files/37562.got.cif
#   From: 2010.05.17/outbox.cif.g08.bks.cpg/sg12_19_cif.got.tgz:37562.got - 2010.06.03 13:09:07.
