data_PCOD9202001
_publ_section_title
;
Structure prediction by ZEFSAII (Michael W. Deem and Ramdas Pophale) SiO2 
 PCOD9202001
Probable space group: C 2/M
;
_chemical_formula_sum "Si O2"
_cell_formula_units_Z 36
_cell_length_a 9.400456
_cell_length_b 15.069836
_cell_length_c 20.406556
_cell_angle_alpha 90.000000
_cell_angle_beta 38.376038
_cell_angle_gamma 90.000000
_cell_volume 1794.704050
_symmetry_space_group_name_H-M "C 2/M"
_symmetry_group_IT_number 12
_symmetry_cell_setting 'monoclinic'
loop_
_space_group_symop_operation_xyz
x,y,z
-x,y,-z
-x,-y,-z
x,-y,z
1/2+x,1/2+y,z
1/2-x,1/2+y,-z
1/2-x,1/2-y,-z
1/2+x,1/2-y,z
loop_
_atom_site_type_symbol
_atom_site_label
_atom_site_fract_x
_atom_site_fract_y
_atom_site_fract_z
Si Si1 0.664806 0.500000 0.287595
Si Si2 0.973132 0.308445 0.431743
Si Si3 0.228664 0.195635 0.108312
Si Si4 0.865689 0.500000 0.479242
Si Si5 0.318346 0.192569 0.226821
Si Si6 0.775317 0.000000 0.890430
O O1 0.405608 0.500000 0.407842
O O2 0.788831 0.591623 0.261648
O O3 0.664407 0.500000 0.208373
O O4 0.750000 0.250000 0.500000
O O5 0.935488 0.408430 0.419779
O O6 0.000000 0.313472 0.500000
O O7 0.184993 0.259660 0.322150
O O8 0.204741 0.197558 0.195947
O O9 0.150555 0.097352 0.111532
O O10 0.077795 0.272719 0.131316
O O11 0.500000 0.204800 0.000000
O O12 0.000000 0.500000 0.500000
O O13 0.500000 0.000000 0.000000
#
# Coordination Sequence:
#
# PCOD9202001 Si02
#       6
#     4   8   8   4   8   4
#     4  10  20  38  56  82 120 159 187 234 299 346
#     4  11  22  38  58  86 116 153 193 236 287 344
#     4  10  21  39  62  89 116 150 195 244 292 346
#     4  10  22  36  60  84 115 153 200 242 280 340
#     4  11  22  38  61  84 119 156 193 237 294 346
#     4   8  18  34  59  84 109 146 195 238 281 338
#
# _framework density 20.059017000000001
#
# number of rings (size 3 to 8) (size 9 to 14) (size 15 to 20)
#    0.000    1.778    2.222    2.000    9.333    0.000 
#    0.000    7.222    0.000    0.000    0.000    0.000 
#    0.000    0.000    0.000    0.000    0.000    0.000 
#
# Total GULP energy -100441.108664 kJ/mol
# GULP energy per Si atom -5580.061592 kJ/mol
# Density = 2.001336 g / cm^3
# Si number density = 20.059017 Si / 1000 Ang^3
#
#
#
# Elastic Constant Matrix: (Units=GPa)
#
#
# Indices 1 2 3 4 5 6 
#
# 1 46.0206 34.9457 -2.5911 -0.0007 -13.3207 0.0005
# 2 34.9457 200.8913 37.2230 0.0011 -27.1646 0.0005
# 3 -2.5911 37.2230 69.6261 0.0013 -6.6917 0.0013
# 4 -0.0007 0.0011 0.0013 29.4457 0.0012 -5.4235
# 5 -13.3207 -27.1646 -6.6917 0.0012 31.5158 -0.0008
# 6 0.0005 0.0005 0.0013 -5.4235 -0.0008 23.4363
#
#
#
# Elastic Compliance Matrix: (Units=1/GPa)
#
#
# Indices 1 2 3 4 5 6 
#
# 1 0.027915 -0.004447 0.004269 0.000000 0.008872 0.000000
# 2 -0.004447 0.006845 -0.003510 0.000000 0.003275 0.000000
# 3 0.004269 -0.003510 0.016620 -0.000001 0.002308 -0.000001
# 4 0.000000 0.000000 -0.000001 0.035473 -0.000001 0.008209
# 5 0.008872 0.003275 0.002308 -0.000001 0.038793 0.000001
# 6 0.000000 0.000000 -0.000001 0.008209 0.000001 0.044568
#
#
# Mechanical properties :
#
#
# Convention : Reuss Voigt Hill
#
# Bulk Modulus (GPa) = 22.72596 50.63257 36.67927
# Shear Modulus (GPa) = 26.00695 33.34360 29.67527
#
# Velocity S-wave (km/s) = 3.60463 4.08152 3.85047
# Velocity P-wave (km/s) = 5.35524 6.89263 6.17199
#
# Compressibility (1/GPa) = 0.04400254
#
# Stress axis : x y z
#
# Youngs Moduli (GPa) = 35.82342 146.10110 60.17005
#
# Poissons Ratio (x) = 0.64974 -0.25687
# Poissons Ratio (y) = 0.15931 0.21120
# Poissons Ratio (z) = -0.15293 0.51281
#
# Static dielectric constant tensor:
#      x y z
#    x 1.623960 0.000000 0.031000 
#    y 0.000000 1.754380 0.000000 
#    z 0.031000 0.000000 1.728100 
# 
# From -- ./inp_files/176311.got.cif
#   From: 2010.05.17/outbox.cif.g08.bks.cpg/sg12_89_cif.got.tgz:176311.got - 2010.06.03 13:09:07.
