data_PCOD9202248
_publ_section_title
;
Structure prediction by ZEFSAII (Michael W. Deem and Ramdas Pophale) SiO2 
 PCOD9202248
Probable space group: C 2/M
;
_chemical_formula_sum "Si O2"
_cell_formula_units_Z 52
_cell_length_a 10.510178
_cell_length_b 26.558805
_cell_length_c 19.101655
_cell_angle_alpha 90.000000
_cell_angle_beta 32.891049
_cell_angle_gamma 90.000000
_cell_volume 2895.503123
_symmetry_space_group_name_H-M "C 2/M"
_symmetry_group_IT_number 12
_symmetry_cell_setting 'monoclinic'
loop_
_space_group_symop_operation_xyz
x,y,z
-x,y,-z
-x,-y,-z
x,-y,z
1/2+x,1/2+y,z
1/2-x,1/2+y,-z
1/2-x,1/2-y,-z
1/2+x,1/2-y,z
loop_
_atom_site_type_symbol
_atom_site_label
_atom_site_fract_x
_atom_site_fract_y
_atom_site_fract_z
Si Si1 0.267575 0.138557 0.353485
Si Si2 0.602948 0.404010 0.290591
Si Si3 0.500000 0.186798 0.500000
Si Si4 0.771930 0.000000 0.852483
Si Si5 0.813244 0.500000 0.651395
Si Si6 0.878785 0.255205 0.244348
Si Si7 0.577880 0.902585 0.573804
Si Si8 0.262309 0.800944 0.148163
O O1 0.236227 0.102453 0.302081
O O2 0.388318 0.189201 0.272378
O O3 0.398984 0.113663 0.356903
O O4 0.000000 0.151306 0.500000
O O5 0.711157 0.448151 0.196963
O O6 0.335921 0.419688 0.429759
O O7 0.624571 0.349814 0.241951
O O8 0.690364 0.223823 0.377222
O O9 0.455569 0.147577 0.457173
O O10 0.500000 0.000000 0.000000
O O11 0.030166 0.000000 0.772860
O O12 0.000000 0.500000 0.500000
O O13 0.890449 0.446967 0.650981
O O14 0.811910 0.264883 0.193430
O O15 0.116558 0.226944 0.154806
O O16 0.500000 0.817523 0.000000
#
# Coordination Sequence:
#
# PCOD9202248 Si02
#       8
#     8   8   4   4   4   8   8   8
#     4   9  20  34  57  89 119 150 188 246 295 358
#     4  10  20  38  60  84 116 153 198 241 295 351
#     4  12  20  31  60  88 116 151 188 248 304 342
#     4  12  24  41  63  89 115 153 198 242 293 356
#     4  12  22  39  61  89 117 148 189 249 293 354
#     4  11  22  36  58  85 118 156 201 243 296 350
#     4  11  20  36  59  90 120 145 192 243 307 348
#     4  11  23  39  56  82 118 163 205 242 284 354
#
# _framework density 17.958883
#
# number of rings (size 3 to 8) (size 9 to 14) (size 15 to 20)
#    0.000    1.231    4.615    1.846    0.000    1.846 
#    0.000    2.308    0.000    0.923    0.000    0.000 
#    0.000    0.000    0.000    0.000    0.000    0.000 
#
# Total GULP energy -144770.903319 kJ/mol
# GULP energy per Si atom -5568.111666 kJ/mol
# Density = 1.791801 g / cm^3
# Si number density = 17.958883 Si / 1000 Ang^3
#
#
#
# Elastic Constant Matrix: (Units=GPa)
#
#
# Indices 1 2 3 4 5 6 
#
# 1 71.3293 44.4067 33.8178 0.0018 -8.2136 -0.0061
# 2 44.4067 76.3619 33.1556 0.0049 -8.4964 -0.0066
# 3 33.8178 33.1556 64.6970 -0.0163 -15.3612 -0.0058
# 4 0.0018 0.0049 -0.0163 13.8195 0.0025 6.6484
# 5 -8.2136 -8.4964 -15.3612 0.0025 16.4658 0.0026
# 6 -0.0061 -0.0066 -0.0058 6.6484 0.0026 10.8208
#
#
#
# Elastic Compliance Matrix: (Units=1/GPa)
#
#
# Indices 1 2 3 4 5 6 
#
# 1 0.024211 -0.011043 -0.007041 -0.000013 -0.000190 0.000011
# 2 -0.011043 0.021889 -0.005230 -0.000021 0.000907 0.000017
# 3 -0.007041 -0.005230 0.026131 0.000041 0.018167 -0.000023
# 4 -0.000013 -0.000021 0.000041 0.102725 0.000016 -0.063115
# 5 -0.000190 0.000907 0.018167 0.000016 0.078054 -0.000019
# 6 0.000011 0.000017 -0.000023 -0.063115 -0.000019 0.131192
#
#
# Mechanical properties :
#
#
# Convention : Reuss Voigt Hill
#
# Bulk Modulus (GPa) = 39.05860 48.34980 43.70420
# Shear Modulus (GPa) = 11.38007 14.95510 13.16759
#
# Velocity S-wave (km/s) = 2.52002 2.88886 2.71072
# Velocity P-wave (km/s) = 5.50122 6.17319 5.84687
#
# Compressibility (1/GPa) = 0.02560256
#
# Stress axis : x y z
#
# Youngs Moduli (GPa) = 41.30357 45.68450 38.26930
#
# Poissons Ratio (x) = 0.50451 0.26945
# Poissons Ratio (y) = 0.45613 0.20014
# Poissons Ratio (z) = 0.29082 0.23892
#
# Static dielectric constant tensor:
#      x y z
#    x 1.668540 0.000050 -0.038500 
#    y 0.000050 1.600230 -0.000030 
#    z -0.038500 -0.000030 1.654190 
# 
# From -- ./inp_files/306917.got.cif
#   From: 2010.05.17/outbox.cif.g08.bks.cpg/sg12_154_cif.got.tgz:306917.got - 2010.06.03 13:09:07.
