data_PCOD9202688
_publ_section_title
;
Structure prediction by ZEFSAII (Michael W. Deem and Ramdas Pophale) SiO2 
 PCOD9202688
Probable space group: C 2/M
;
_chemical_formula_sum "Si O2"
_cell_formula_units_Z 36
_cell_length_a 13.634558
_cell_length_b 23.253672
_cell_length_c 5.546760
_cell_angle_alpha 90.000000
_cell_angle_beta 102.168260
_cell_angle_gamma 90.000000
_cell_volume 1719.108646
_symmetry_space_group_name_H-M "C 2/M"
_symmetry_group_IT_number 12
_symmetry_cell_setting 'monoclinic'
loop_
_space_group_symop_operation_xyz
x,y,z
-x,y,-z
-x,-y,-z
x,-y,z
1/2+x,1/2+y,z
1/2-x,1/2+y,-z
1/2-x,1/2-y,-z
1/2+x,1/2-y,z
loop_
_atom_site_type_symbol
_atom_site_label
_atom_site_fract_x
_atom_site_fract_y
_atom_site_fract_z
Si Si1 0.000000 0.745894 0.000000
Si Si2 0.614592 0.430505 0.058300
Si Si3 0.662887 0.174579 0.381418
Si Si4 0.336113 0.738291 0.236711
Si Si5 0.771860 0.930994 0.380950
O O1 0.937048 0.782236 0.161268
O O2 0.082700 0.705943 0.170372
O O3 0.611551 0.500000 0.048333
O O4 0.667267 0.416682 0.340773
O O5 0.500000 0.410126 0.000000
O O6 0.673196 0.414218 0.842789
O O7 0.638375 0.200689 0.628187
O O8 0.777658 0.197196 0.390820
O O9 0.671317 0.106979 0.350004
O O10 0.250000 0.750000 0.000000
O O11 0.757076 0.000000 0.369362
#
# Coordination Sequence:
#
# PCOD9202688 Si02
#       5
#     4   8   8   8   8
#     4  10  20  38  63  86 115 160 202 248 310 364
#     4   9  18  35  55  80 116 161 206 247 295 355
#     4  10  21  38  61  86 123 157 200 252 304 364
#     4   9  20  38  60  84 112 153 200 254 305 358
#     4  10  21  36  60  89 124 164 202 247 303 361
#
# _framework density 20.941085000000001
#
# number of rings (size 3 to 8) (size 9 to 14) (size 15 to 20)
#    0.000    2.444    0.000    1.333    6.222    2.667 
#    2.000    7.222    0.000    2.667    0.000    0.000 
#    0.000    0.000    0.000    0.000    0.000    0.000 
#
# Total GULP energy -100307.118051 kJ/mol
# GULP energy per Si atom -5572.617669 kJ/mol
# Density = 2.089342 g / cm^3
# Si number density = 20.941085 Si / 1000 Ang^3
#
#
#
# Elastic Constant Matrix: (Units=GPa)
#
#
# Indices 1 2 3 4 5 6 
#
# 1 94.2922 21.8591 25.0776 0.0000 -12.9952 0.0000
# 2 21.8591 67.4952 21.9195 0.0000 -1.5031 0.0000
# 3 25.0776 21.9195 113.3440 0.0000 -10.4804 0.0000
# 4 0.0000 0.0000 0.0000 12.5925 0.0000 -2.6542
# 5 -12.9952 -1.5031 -10.4804 0.0000 33.1535 0.0000
# 6 0.0000 0.0000 0.0000 -2.6542 0.0000 27.2766
#
#
#
# Elastic Compliance Matrix: (Units=1/GPa)
#
#
# Indices 1 2 3 4 5 6 
#
# 1 0.012417 -0.003373 -0.001709 0.000000 0.004174 0.000000
# 2 -0.003373 0.016727 -0.002617 0.000000 -0.001391 0.000000
# 3 -0.001709 -0.002617 0.009924 0.000000 0.002349 0.000000
# 4 0.000000 0.000000 0.000000 0.081075 0.000000 0.007889
# 5 0.004174 -0.001391 0.002349 0.000000 0.032478 0.000000
# 6 0.000000 0.000000 0.000000 0.007889 0.000000 0.037429
#
#
# Mechanical properties :
#
#
# Convention : Reuss Voigt Hill
#
# Bulk Modulus (GPa) = 42.24864 45.87156 44.06010
# Shear Modulus (GPa) = 23.43676 28.35620 25.89648
#
# Velocity S-wave (km/s) = 3.34904 3.68379 3.52040
# Velocity P-wave (km/s) = 5.93073 6.32822 6.13270
#
# Compressibility (1/GPa) = 0.02366940
#
# Stress axis : x y z
#
# Youngs Moduli (GPa) = 80.53383 59.78231 100.76468
#
# Poissons Ratio (x) = 0.20167 0.17221
# Poissons Ratio (y) = 0.27168 0.26372
# Poissons Ratio (z) = 0.13763 0.15646
#
# Static dielectric constant tensor:
#      x y z
#    x 1.770830 0.000000 -0.038720 
#    y 0.000000 1.808030 0.000000 
#    z -0.038720 0.000000 1.822230 
# 
# From -- ./inp_files/7066.got.cif
#   From: 2010.05.17/outbox.cif.g08.bks.cpg/sg12_4_cif.got.tgz:7066.got - 2010.06.03 13:09:07.
