data_PCOD9202907
_publ_section_title
;
Structure prediction by ZEFSAII (Michael W. Deem and Ramdas Pophale) SiO2 
 PCOD9202907
Probable space group: C 2/M
;
_chemical_formula_sum "Si O2"
_cell_formula_units_Z 32
_cell_length_a 10.576227
_cell_length_b 19.436185
_cell_length_c 7.410055
_cell_angle_alpha 90.000000
_cell_angle_beta 113.135977
_cell_angle_gamma 90.000000
_cell_volume 1400.716861
_symmetry_space_group_name_H-M "C 2/M"
_symmetry_group_IT_number 12
_symmetry_cell_setting 'monoclinic'
loop_
_space_group_symop_operation_xyz
x,y,z
-x,y,-z
-x,-y,-z
x,-y,z
1/2+x,1/2+y,z
1/2-x,1/2+y,-z
1/2-x,1/2-y,-z
1/2+x,1/2-y,z
loop_
_atom_site_type_symbol
_atom_site_label
_atom_site_fract_x
_atom_site_fract_y
_atom_site_fract_z
Si Si1 0.833525 0.704339 0.784941
Si Si2 0.125610 0.418841 0.432990
Si Si3 0.938080 0.216404 0.197629
Si Si4 0.447063 0.577920 0.679686
O O1 0.874253 0.627930 0.746597
O O2 0.672245 0.714344 0.708495
O O3 0.913107 0.751816 0.689312
O O4 0.880455 0.733751 0.007199
O O5 0.110913 0.500000 0.384748
O O6 0.281750 0.409508 0.597217
O O7 0.000000 0.400308 0.500000
O O8 0.966864 0.136651 0.171295
O O9 0.500000 0.581198 0.500000
O O10 0.473386 0.500000 0.756312
#
# Coordination Sequence:
#
# PCOD9202907 Si02
#       4
#     8   8   8   8
#     4  10  22  40  59  88 128 166 209 255 310 376
#     4  10  22  40  64  94 126 162 207 261 317 372
#     4  10  22  39  60  89 125 167 211 254 310 376
#     4  10  20  38  64  92 121 161 212 262 312 366
#
# _framework density 22.845444000000001
#
# number of rings (size 3 to 8) (size 9 to 14) (size 15 to 20)
#    0.000    2.000    2.500    0.000    3.500    2.000 
#    0.000    5.000    0.000    3.000    0.000    0.000 
#    0.000    0.000    0.000    0.000    0.000    0.000 
#
# Total GULP energy -89124.677657 kJ/mol
# GULP energy per Si atom -5570.292354 kJ/mol
# Density = 2.279345 g / cm^3
# Si number density = 22.845444 Si / 1000 Ang^3
#
#
#
# Elastic Constant Matrix: (Units=GPa)
#
#
# Indices 1 2 3 4 5 6 
#
# 1 246.8927 54.2466 31.3033 0.0000 -40.7636 0.0000
# 2 54.2466 123.6407 57.3273 0.0000 -14.7535 0.0000
# 3 31.3033 57.3273 109.2855 0.0000 -16.3373 0.0000
# 4 0.0000 0.0000 0.0000 37.8693 0.0000 -6.3126
# 5 -40.7636 -14.7535 -16.3373 0.0000 10.9974 0.0000
# 6 0.0000 0.0000 0.0000 -6.3126 0.0000 36.7882
#
#
#
# Elastic Compliance Matrix: (Units=1/GPa)
#
#
# Indices 1 2 3 4 5 6 
#
# 1 0.011879 -0.001566 0.004740 0.000000 0.048971 0.000000
# 2 -0.001566 0.011430 -0.005300 0.000000 0.001657 0.000000
# 3 0.004740 -0.005300 0.015601 0.000000 0.033634 0.000000
# 4 0.000000 0.000000 0.000000 0.027184 0.000000 0.004665
# 5 0.048971 0.001657 0.033634 0.000000 0.324638 0.000000
# 6 0.000000 0.000000 0.000000 0.004665 0.000000 0.027983
#
#
# Mechanical properties :
#
#
# Convention : Reuss Voigt Hill
#
# Bulk Modulus (GPa) = 28.85331 85.06372 56.95851
# Shear Modulus (GPa) = 11.50698 39.59378 25.55038
#
# Velocity S-wave (km/s) = 2.24673 4.16759 3.34788
# Velocity P-wave (km/s) = 4.40314 7.77648 6.31907
#
# Compressibility (1/GPa) = 0.03465807
#
# Stress axis : x y z
#
# Youngs Moduli (GPa) = 84.18236 87.49041 64.09954
#
# Poissons Ratio (x) = 0.13700 -0.30381
# Poissons Ratio (y) = 0.13182 0.33970
# Poissons Ratio (z) = -0.39900 0.46366
#
# Static dielectric constant tensor:
#      x y z
#    x 1.955490 0.000000 0.061510 
#    y 0.000000 1.866930 0.000000 
#    z 0.061510 0.000000 1.958820 
# 
# From -- ./inp_files/46208.got.cif
#   From: 2010.05.17/outbox.cif.g08.bks.cpg/sg12_24_cif.got.tgz:46208.got - 2010.06.03 13:09:07.
