data_PCOD9202444
_publ_section_title
;
Structure prediction by ZEFSAII (Michael W. Deem and Ramdas Pophale) SiO2 
 PCOD9202444
Probable space group: C 2/M
;
_chemical_formula_sum "Si O2"
_cell_formula_units_Z 36
_cell_length_a 5.174216
_cell_length_b 18.097466
_cell_length_c 17.133133
_cell_angle_alpha 90.000000
_cell_angle_beta 90.910692
_cell_angle_gamma 90.000000
_cell_volume 1604.147314
_symmetry_space_group_name_H-M "C 2/M"
_symmetry_group_IT_number 12
_symmetry_cell_setting 'monoclinic'
loop_
_space_group_symop_operation_xyz
x,y,z
-x,y,-z
-x,-y,-z
x,-y,z
1/2+x,1/2+y,z
1/2-x,1/2+y,-z
1/2-x,1/2-y,-z
1/2+x,1/2-y,z
loop_
_atom_site_type_symbol
_atom_site_label
_atom_site_fract_x
_atom_site_fract_y
_atom_site_fract_z
Si Si1 0.673436 0.086699 0.079181
Si Si2 0.609428 0.085548 0.770897
Si Si3 0.287761 0.720256 0.412426
Si Si4 0.000000 0.196535 0.000000
Si Si5 0.582827 0.415875 0.669600
O O1 0.498552 0.117135 0.148850
O O2 0.743395 0.000000 0.094028
O O3 0.500000 0.088528 0.000000
O O4 0.923669 0.138001 0.067989
O O5 0.358847 0.084493 0.713796
O O6 0.861704 0.113811 0.727131
O O7 0.677759 0.000000 0.789870
O O8 0.250000 0.750000 0.500000
O O9 0.506906 0.770143 0.374338
O O10 0.388192 0.637745 0.403807
O O11 0.250000 0.250000 0.000000
O O12 0.516006 0.500000 0.648043
#
# Coordination Sequence:
#
# PCOD9202444 Si02
#       5
#     8   8   8   4   8
#     4  10  22  41  67  92 118 165 221 270 320 377
#     4   9  20  36  61  92 120 154 207 261 307 360
#     4  10  21  39  61  88 122 157 193 244 296 361
#     4  12  25  42  57  82 126 164 200 264 325 374
#     4  10  20  38  61  88 122 159 199 252 305 361
#
# _framework density 22.441831000000001
#
# number of rings (size 3 to 8) (size 9 to 14) (size 15 to 20)
#    0.000    2.000    1.111    1.667    3.111    0.000 
#    0.000   11.111    0.000    0.000    0.000    0.000 
#    0.000    0.000    0.000    0.000    0.000    0.000 
#
# Total GULP energy -100340.867837 kJ/mol
# GULP energy per Si atom -5574.492658 kJ/mol
# Density = 2.239075 g / cm^3
# Si number density = 22.441831 Si / 1000 Ang^3
#
#
#
# Elastic Constant Matrix: (Units=GPa)
#
#
# Indices 1 2 3 4 5 6 
#
# 1 148.3312 39.6767 23.5042 0.0000 -41.0227 0.0000
# 2 39.6767 109.3151 54.2407 0.0000 -30.9738 0.0000
# 3 23.5042 54.2407 87.3786 0.0000 -24.6723 0.0000
# 4 0.0000 0.0000 0.0000 22.2406 0.0000 -21.4825
# 5 -41.0227 -30.9738 -24.6723 0.0000 34.6876 0.0000
# 6 0.0000 0.0000 0.0000 -21.4825 0.0000 34.9446
#
#
#
# Elastic Compliance Matrix: (Units=1/GPa)
#
#
# Indices 1 2 3 4 5 6 
#
# 1 0.010114 -0.000857 0.001217 0.000000 0.012061 0.000000
# 2 -0.000857 0.015043 -0.007008 0.000000 0.007433 0.000000
# 3 0.001217 -0.007008 0.017652 0.000000 0.007737 0.000000
# 4 0.000000 0.000000 0.000000 0.110692 0.000000 0.068049
# 5 0.012061 0.007433 0.007737 0.000000 0.055233 0.000000
# 6 0.000000 0.000000 0.000000 0.068049 0.000000 0.070451
#
#
# Mechanical properties :
#
#
# Convention : Reuss Voigt Hill
#
# Bulk Modulus (GPa) = 33.88493 64.42978 49.15736
# Shear Modulus (GPa) = 16.53883 33.54813 25.04348
#
# Velocity S-wave (km/s) = 2.71765 3.87058 3.34418
# Velocity P-wave (km/s) = 4.99793 6.98192 6.07151
#
# Compressibility (1/GPa) = 0.02951164
#
# Stress axis : x y z
#
# Youngs Moduli (GPa) = 98.87528 66.47747 56.65046
#
# Poissons Ratio (x) = 0.05700 -0.06896
# Poissons Ratio (y) = 0.08478 0.39702
# Poissons Ratio (z) = -0.12036 0.46590
#
# Static dielectric constant tensor:
#      x y z
#    x 1.845330 0.000000 -0.059220 
#    y 0.000000 1.879340 0.000000 
#    z -0.059220 0.000000 1.762280 
# 
# From -- ./inp_files/252486.got.cif
#   From: 2010.05.17/outbox.cif.g08.bks.cpg/sg12_127_cif.got.tgz:252486.got - 2010.06.03 13:09:07.
