data_PCOD9202048
_publ_section_title
;
Structure prediction by ZEFSAII (Michael W. Deem and Ramdas Pophale) SiO2 
 PCOD9202048
Probable space group: C 2/M
;
_chemical_formula_sum "Si O2"
_cell_formula_units_Z 56
_cell_length_a 9.958078
_cell_length_b 22.679964
_cell_length_c 13.841057
_cell_angle_alpha 90.000000
_cell_angle_beta 90.750035
_cell_angle_gamma 90.000000
_cell_volume 3125.718978
_symmetry_space_group_name_H-M "C 2/M"
_symmetry_group_IT_number 12
_symmetry_cell_setting 'monoclinic'
loop_
_space_group_symop_operation_xyz
x,y,z
-x,y,-z
-x,-y,-z
x,-y,z
1/2+x,1/2+y,z
1/2-x,1/2+y,-z
1/2-x,1/2-y,-z
1/2+x,1/2-y,z
loop_
_atom_site_type_symbol
_atom_site_label
_atom_site_fract_x
_atom_site_fract_y
_atom_site_fract_z
Si Si1 0.876487 0.247702 0.071280
Si Si2 0.704769 0.624416 0.876121
Si Si3 0.681112 0.122291 0.905309
Si Si4 0.904714 0.928504 0.585214
Si Si5 0.903283 0.571716 0.412562
Si Si6 0.561607 0.569446 0.193942
Si Si7 0.044221 0.431028 0.213281
O O1 0.851547 0.190847 0.136810
O O2 0.877869 0.312426 0.117457
O O3 0.750000 0.250000 0.000000
O O4 0.000000 0.238239 0.000000
O O5 0.575031 0.583104 0.864114
O O6 0.821267 0.605635 0.804164
O O7 0.772717 0.619514 0.982778
O O8 0.813933 0.106359 0.846392
O O9 0.562052 0.078672 0.874113
O O10 0.750196 0.908054 0.577115
O O11 0.957640 0.915458 0.693246
O O12 0.000000 0.906763 0.500000
O O13 0.901655 0.000000 0.577893
O O14 0.899543 0.500000 0.414256
O O15 0.000000 0.591122 0.500000
O O16 0.966757 0.587487 0.309934
O O17 0.595518 0.500000 0.187433
O O18 0.079612 0.500000 0.221058
#
# Coordination Sequence:
#
# PCOD9202048 Si02
#       7
#     8   8   8   8   8   8   8
#     4  10  20  38  58  76  99 138 199 244 258 290
#     4  11  23  35  53  80 110 149 186 222 266 317
#     4  11  21  37  57  76 108 149 186 228 268 312
#     4   9  18  33  53  76 105 142 181 222 266 315
#     4   9  18  33  53  76 105 141 181 225 265 311
#     4  11  22  35  52  82 119 146 176 218 273 341
#     4  11  22  35  52  82 117 144 178 218 271 338
#
# _framework density 17.915876999999998
#
# number of rings (size 3 to 8) (size 9 to 14) (size 15 to 20)
#    0.000    1.714    1.429    5.143    2.000    3.429 
#    0.000    0.000    0.000    0.000    0.000    6.000 
#    0.000    0.000    0.000    0.000    0.000    0.000 
#
# Total GULP energy -156178.665394 kJ/mol
# GULP energy per Si atom -5577.809478 kJ/mol
# Density = 1.787510 g / cm^3
# Si number density = 17.915877 Si / 1000 Ang^3
#
#
#
# Elastic Constant Matrix: (Units=GPa)
#
#
# Indices 1 2 3 4 5 6 
#
# 1 127.0490 31.3810 36.4850 0.0000 -26.6865 0.0000
# 2 31.3810 55.1829 33.1785 0.0000 -17.4492 0.0000
# 3 36.4850 33.1785 74.4878 0.0000 -16.1663 0.0000
# 4 0.0000 0.0000 0.0000 -3.6497 0.0000 -8.0746
# 5 -26.6865 -17.4492 -16.1663 0.0000 38.2725 0.0000
# 6 0.0000 0.0000 0.0000 -8.0746 0.0000 24.7187
#
#
#
# Elastic Compliance Matrix: (Units=1/GPa)
#
#
# Indices 1 2 3 4 5 6 
#
# 1 0.010354 -0.002658 -0.002844 0.000000 0.004806 0.000000
# 2 -0.002658 0.027432 -0.009473 0.000000 0.006652 0.000000
# 3 -0.002844 -0.009473 0.019453 0.000000 0.001915 0.000000
# 4 0.000000 0.000000 0.000000 -0.159051 0.000000 -0.051955
# 5 0.004806 0.006652 0.001915 0.000000 0.033321 0.000000
# 6 0.000000 0.000000 0.000000 -0.051955 0.000000 0.023484
#
#
# Mechanical properties :
#
#
# Convention : Reuss Voigt Hill
#
# Bulk Modulus (GPa) = 36.64601 50.97876 43.81239
# Shear Modulus (GPa) = -839.04302 22.24665 -408.39818
#
# Velocity S-wave (km/s) = -21.66427 3.52764 -15.11450
# Velocity P-wave (km/s) = 24.60261 6.71629 16.73589
#
# Compressibility (1/GPa) = 0.02728810
#
# Stress axis : x y z
#
# Youngs Moduli (GPa) = 96.58218 36.45330 51.40481
#
# Poissons Ratio (x) = 0.09689 0.14622
# Poissons Ratio (y) = 0.25672 0.48698
# Poissons Ratio (z) = 0.27472 0.34533
#
# Static dielectric constant tensor:
#      x y z
#    x 1.609540 0.000000 0.002510 
#    y 0.000000 1.665530 0.000000 
#    z 0.002510 0.000000 1.616470 
# 
# From -- ./inp_files/197524.got.cif
#   From: 2010.05.17/outbox.cif.g08.bks.cpg/sg12_99_cif.got.tgz:197524.got - 2010.06.03 13:09:07.
