data_PCOD9202970
_publ_section_title
;
Structure prediction by ZEFSAII (Michael W. Deem and Ramdas Pophale) SiO2 
 PCOD9202970
Probable space group: C 2/M
;
_chemical_formula_sum "Si O2"
_cell_formula_units_Z 48
_cell_length_a 21.841288
_cell_length_b 19.310953
_cell_length_c 9.578789
_cell_angle_alpha 90.000000
_cell_angle_beta 41.747339
_cell_angle_gamma 90.000000
_cell_volume 2690.091281
_symmetry_space_group_name_H-M "C 2/M"
_symmetry_group_IT_number 12
_symmetry_cell_setting 'monoclinic'
loop_
_space_group_symop_operation_xyz
x,y,z
-x,y,-z
-x,-y,-z
x,-y,z
1/2+x,1/2+y,z
1/2-x,1/2+y,-z
1/2-x,1/2-y,-z
1/2+x,1/2-y,z
loop_
_atom_site_type_symbol
_atom_site_label
_atom_site_fract_x
_atom_site_fract_y
_atom_site_fract_z
Si Si1 0.107211 0.817556 0.442050
Si Si2 0.755643 0.327790 0.426990
Si Si3 0.436989 0.846167 0.474705
Si Si4 0.939255 0.296374 0.973849
Si Si5 0.251128 0.582086 0.286819
Si Si6 0.599111 0.660937 0.141212
O O1 0.180204 0.834071 0.435569
O O2 0.090585 0.734803 0.464920
O O3 0.136653 0.835594 0.235177
O O4 0.009790 0.851836 0.650458
O O5 0.750000 0.250000 0.500000
O O6 0.854682 0.335163 0.187715
O O7 0.742333 0.381253 0.574062
O O8 0.500000 0.864928 0.500000
O O9 0.344189 0.889801 0.618023
O O10 0.498194 0.844992 0.229922
O O11 0.900214 0.234165 0.943678
O O12 0.000000 0.267588 0.000000
O O13 0.249173 0.500000 0.300199
O O14 0.338994 0.608039 0.049461
#
# Coordination Sequence:
#
# PCOD9202970 Si02
#       6
#     8   8   8   8   8   8
#     4  10  20  38  65 100 121 152 211 279 316 356
#     4  12  21  37  64  93 123 166 214 263 308 365
#     4  11  21  38  64  97 125 160 207 263 317 366
#     4  11  19  34  63  99 121 152 206 269 312 356
#     4  12  27  43  59  91 135 173 208 253 318 387
#     4  10  21  38  62  94 127 154 207 267 316 368
#
# _framework density 17.843260999999998
#
# number of rings (size 3 to 8) (size 9 to 14) (size 15 to 20)
#    0.000    1.000    8.333    1.000    2.333    1.667 
#    0.000    5.833    0.000    0.000    0.000    0.000 
#    0.000    0.000    0.000    0.000    0.000    0.000 
#
# Total GULP energy -133977.643764 kJ/mol
# GULP energy per Si atom -5582.401823 kJ/mol
# Density = 1.780265 g / cm^3
# Si number density = 17.843261 Si / 1000 Ang^3
#
#
#
# Elastic Constant Matrix: (Units=GPa)
#
#
# Indices 1 2 3 4 5 6 
#
# 1 164.9170 42.9276 39.6179 0.0000 19.0409 0.0000
# 2 42.9276 86.7446 48.6129 0.0000 -5.5932 0.0000
# 3 39.6179 48.6129 111.8512 0.0000 15.8443 0.0000
# 4 0.0000 0.0000 0.0000 13.2878 0.0000 -1.2088
# 5 19.0409 -5.5932 15.8443 0.0000 24.0057 0.0000
# 6 0.0000 0.0000 0.0000 -1.2088 0.0000 -3.7347
#
#
#
# Elastic Compliance Matrix: (Units=1/GPa)
#
#
# Indices 1 2 3 4 5 6 
#
# 1 0.008097 -0.004627 0.000227 0.000000 -0.007650 0.000000
# 2 -0.004627 0.019750 -0.008954 0.000000 0.014182 0.000000
# 3 0.000227 -0.008954 0.014421 0.000000 -0.011784 0.000000
# 4 0.000000 0.000000 0.000000 0.073105 0.000000 -0.023661
# 5 -0.007650 0.014182 -0.011784 0.000000 0.058807 0.000000
# 6 0.000000 0.000000 0.000000 -0.023661 0.000000 -0.260103
#
#
# Mechanical properties :
#
#
# Convention : Reuss Voigt Hill
#
# Bulk Modulus (GPa) = 64.26910 69.53663 66.90286
# Shear Modulus (GPa) = -92.54396 22.20206 -35.17095
#
# Velocity S-wave (km/s) = -7.20954 3.53127 -4.44453
# Velocity P-wave (km/s) = 5.76251 7.46203 3.35227
#
# Compressibility (1/GPa) = 0.01555958
#
# Stress axis : x y z
#
# Youngs Moduli (GPa) = 123.50367 50.63211 69.34390
#
# Poissons Ratio (x) = 0.23429 -0.01573
# Poissons Ratio (y) = 0.57150 0.62089
# Poissons Ratio (z) = -0.02802 0.45335
#
# Static dielectric constant tensor:
#      x y z
#    x 1.626490 0.000000 -0.003570 
#    y 0.000000 1.564850 0.000000 
#    z -0.003570 0.000000 1.625920 
# 
# From -- ./inp_files/98758.got.cif
#   From: 2010.05.17/outbox.cif.g08.bks.cpg/sg12_50_cif.got.tgz:98758.got - 2010.06.03 13:09:07.
