data_PCOD9202569
_publ_section_title
;
Structure prediction by ZEFSAII (Michael W. Deem and Ramdas Pophale) SiO2 
 PCOD9202569
Probable space group: C 2/M
;
_chemical_formula_sum "Si O2"
_cell_formula_units_Z 56
_cell_length_a 24.365147
_cell_length_b 22.492768
_cell_length_c 11.442329
_cell_angle_alpha 90.000000
_cell_angle_beta 151.625167
_cell_angle_gamma 90.000000
_cell_volume 2980.144546
_symmetry_space_group_name_H-M "C 2/M"
_symmetry_group_IT_number 12
_symmetry_cell_setting 'monoclinic'
loop_
_space_group_symop_operation_xyz
x,y,z
-x,y,-z
-x,-y,-z
x,-y,z
1/2+x,1/2+y,z
1/2-x,1/2+y,-z
1/2-x,1/2-y,-z
1/2+x,1/2-y,z
loop_
_atom_site_type_symbol
_atom_site_label
_atom_site_fract_x
_atom_site_fract_y
_atom_site_fract_z
Si Si1 0.564473 0.643061 0.495297
Si Si2 0.926486 0.625574 0.191728
Si Si3 0.164414 0.141752 0.073183
Si Si4 0.138977 0.930816 0.254486
Si Si5 0.270827 0.765656 0.904559
Si Si6 0.260918 0.430578 0.304979
Si Si7 0.151300 0.428816 0.707139
O O1 0.500000 0.643486 0.500000
O O2 0.660021 0.694844 0.664102
O O3 0.642261 0.585994 0.609991
O O4 0.467116 0.647857 0.214645
O O5 0.872833 0.594204 0.207174
O O6 0.058974 0.606168 0.451893
O O7 0.887647 0.694340 0.121279
O O8 0.858571 0.600144 0.953918
O O9 0.175973 0.114298 0.222814
O O10 0.219119 0.206259 0.152216
O O11 0.224716 0.094038 0.100344
O O12 0.191676 0.914062 0.478586
O O13 0.171664 0.000000 0.289099
O O14 0.000000 0.929632 0.000000
O O15 0.250000 0.750000 0.000000
O O16 0.241864 0.500000 0.268162
O O17 0.136825 0.500000 0.672991
#
# Coordination Sequence:
#
# PCOD9202569 Si02
#       7
#     8   8   8   8   8   8   8
#     4  11  22  35  58  91 120 155 204 248 315 370
#     4  10  21  38  59  87 123 165 205 246 313 375
#     4  12  23  37  61  89 123 156 207 259 295 374
#     4  10  21  40  64  87 118 163 204 252 316 369
#     4  11  22  38  58  86 120 165 203 252 306 368
#     4  10  20  38  62  87 121 159 203 256 311 371
#     4  11  22  36  60  93 128 162 200 255 316 376
#
# _framework density 18.791035999999998
#
# number of rings (size 3 to 8) (size 9 to 14) (size 15 to 20)
#    0.000    1.286    4.286    3.000    2.000    0.857 
#    0.000    3.571    0.000    2.571    0.000    0.000 
#    0.000    0.000    0.000    0.000    0.000    0.000 
#
# Total GULP energy -156240.820937 kJ/mol
# GULP energy per Si atom -5580.029319 kJ/mol
# Density = 1.874827 g / cm^3
# Si number density = 18.791036 Si / 1000 Ang^3
#
#
#
# Elastic Constant Matrix: (Units=GPa)
#
#
# Indices 1 2 3 4 5 6 
#
# 1 40.3742 39.4894 4.1063 0.0000 -8.3214 0.0000
# 2 39.4894 104.7627 24.4611 0.0000 -11.5188 0.0000
# 3 4.1063 24.4611 98.5087 0.0000 -14.3414 0.0000
# 4 0.0000 0.0000 0.0000 12.9921 0.0000 -2.3807
# 5 -8.3214 -11.5188 -14.3414 0.0000 23.9165 0.0000
# 6 0.0000 0.0000 0.0000 -2.3807 0.0000 32.7712
#
#
#
# Elastic Compliance Matrix: (Units=1/GPa)
#
#
# Indices 1 2 3 4 5 6 
#
# 1 0.041324 -0.015382 0.003409 0.000000 0.009014 0.000000
# 2 -0.015382 0.016165 -0.003307 0.000000 0.000451 0.000000
# 3 0.003409 -0.003307 0.011802 0.000000 0.006670 0.000000
# 4 0.000000 0.000000 0.000000 0.078008 0.000000 0.005667
# 5 0.009014 0.000451 0.006670 0.000000 0.049165 0.000000
# 6 0.000000 0.000000 0.000000 0.005667 0.000000 0.030926
#
#
# Mechanical properties :
#
#
# Convention : Reuss Voigt Hill
#
# Bulk Modulus (GPa) = 25.81884 42.19546 34.00715
# Shear Modulus (GPa) = 18.45969 25.64188 22.05079
#
# Velocity S-wave (km/s) = 3.13767 3.69803 3.42932
# Velocity P-wave (km/s) = 5.18618 6.38261 5.81525
#
# Compressibility (1/GPa) = 0.03873141
#
# Stress axis : x y z
#
# Youngs Moduli (GPa) = 24.19901 61.86163 84.73442
#
# Poissons Ratio (x) = 0.95153 -0.28888
# Poissons Ratio (y) = 0.37222 0.28024
# Poissons Ratio (z) = -0.08250 0.20459
#
# Static dielectric constant tensor:
#      x y z
#    x 1.650030 0.000000 0.018340 
#    y 0.000000 1.668180 0.000000 
#    z 0.018340 0.000000 1.668470 
# 
# From -- ./inp_files/184614.got.cif
#   From: 2010.05.17/outbox.cif.g08.bks.cpg/sg12_93_cif.got.tgz:184614.got - 2010.06.03 13:09:07.
