data_PCOD9202963
_publ_section_title
;
Structure prediction by ZEFSAII (Michael W. Deem and Ramdas Pophale) SiO2 
 PCOD9202963
Probable space group: C 2/M
;
_chemical_formula_sum "Si O2"
_cell_formula_units_Z 56
_cell_length_a 8.193530
_cell_length_b 16.861569
_cell_length_c 25.047645
_cell_angle_alpha 90.000000
_cell_angle_beta 45.746102
_cell_angle_gamma 90.000000
_cell_volume 2478.581914
_symmetry_space_group_name_H-M "C 2/M"
_symmetry_group_IT_number 12
_symmetry_cell_setting 'monoclinic'
loop_
_space_group_symop_operation_xyz
x,y,z
-x,y,-z
-x,-y,-z
x,-y,z
1/2+x,1/2+y,z
1/2-x,1/2+y,-z
1/2-x,1/2-y,-z
1/2+x,1/2-y,z
loop_
_atom_site_type_symbol
_atom_site_label
_atom_site_fract_x
_atom_site_fract_y
_atom_site_fract_z
Si Si1 0.419877 0.586961 0.763319
Si Si2 0.352085 0.693876 0.143841
Si Si3 0.743166 0.684186 0.547347
Si Si4 0.938537 0.750750 0.298987
Si Si5 0.836274 0.912223 0.655450
Si Si6 0.748218 0.908465 0.958292
Si Si7 0.419745 0.148357 0.900324
O O1 0.503556 0.500000 0.762467
O O2 0.578810 0.665771 0.730444
O O3 0.385619 0.581985 0.707130
O O4 0.161370 0.602030 0.843100
O O5 0.532990 0.628382 0.119507
O O6 0.513743 0.766504 0.090502
O O7 0.191429 0.663710 0.132411
O O8 0.198712 0.729522 0.225772
O O9 0.750000 0.750000 0.500000
O O10 0.639154 0.726164 0.623924
O O11 0.573423 0.612255 0.573175
O O12 0.000000 0.657626 0.500000
O O13 0.815878 0.666918 0.315673
O O14 0.751742 0.000000 0.657667
O O15 0.745520 0.000000 0.946341
O O16 0.500000 0.875157 0.000000
O O17 0.755453 0.894170 0.020215
#
# Coordination Sequence:
#
# PCOD9202963 Si02
#       7
#     8   8   8   8   8   8   8
#     4   9  19  35  61  94 128 167 222 274 327 389
#     4  11  23  38  63  93 122 172 217 276 328 406
#     4  11  22  40  67  94 131 175 217 267 332 400
#     4  10  21  39  64  96 132 172 219 269 341 392
#     4  10  20  38  64  97 132 173 217 270 324 393
#     4  11  25  43  60  86 129 172 219 281 342 394
#     4  11  21  38  63  91 125 165 225 272 340 392
#
# _framework density 22.593563
#
# number of rings (size 3 to 8) (size 9 to 14) (size 15 to 20)
#    0.000    1.571    2.857    2.143    0.000    2.571 
#    0.000    1.429    0.000    3.429    0.000    0.000 
#    0.000    0.000    0.000    0.000    0.000    0.000 
#
# Total GULP energy -156200.834744 kJ/mol
# GULP energy per Si atom -5578.601241 kJ/mol
# Density = 2.254214 g / cm^3
# Si number density = 22.593563 Si / 1000 Ang^3
#
#
#
# Elastic Constant Matrix: (Units=GPa)
#
#
# Indices 1 2 3 4 5 6 
#
# 1 53.9503 33.6390 7.4773 -0.0029 -2.2455 -0.0007
# 2 33.6390 170.1231 32.2505 -0.0018 -16.1511 -0.0009
# 3 7.4773 32.2505 114.9860 -0.0084 -3.4448 -0.0014
# 4 -0.0029 -0.0018 -0.0084 21.5512 0.0004 -10.7004
# 5 -2.2455 -16.1511 -3.4448 0.0004 30.3447 0.0008
# 6 -0.0007 -0.0009 -0.0014 -10.7004 0.0008 23.9504
#
#
#
# Elastic Compliance Matrix: (Units=1/GPa)
#
#
# Indices 1 2 3 4 5 6 
#
# 1 0.021161 -0.004210 -0.000216 0.000003 -0.000699 0.000002
# 2 -0.004210 0.007354 -0.001687 -0.000001 0.003411 0.000000
# 3 -0.000216 -0.001687 0.009188 0.000005 0.000129 0.000003
# 4 0.000003 -0.000001 0.000005 0.059629 -0.000001 0.026641
# 5 -0.000699 0.003411 0.000129 -0.000001 0.034733 -0.000002
# 6 0.000002 0.000000 0.000003 0.026641 -0.000002 0.053655
#
#
# Mechanical properties :
#
#
# Convention : Reuss Voigt Hill
#
# Bulk Modulus (GPa) = 39.24997 53.97698 46.61348
# Shear Modulus (GPa) = 24.22032 32.88210 28.55121
#
# Velocity S-wave (km/s) = 3.27769 3.81908 3.55870
# Velocity P-wave (km/s) = 5.63332 6.58706 6.12877
#
# Compressibility (1/GPa) = 0.02547773
#
# Stress axis : x y z
#
# Youngs Moduli (GPa) = 47.25624 135.97883 108.84094
#
# Poissons Ratio (x) = 0.57242 0.02354
# Poissons Ratio (y) = 0.19893 0.18358
# Poissons Ratio (z) = 0.01022 0.22935
#
# Static dielectric constant tensor:
#      x y z
#    x 1.930360 0.000000 0.017050 
#    y 0.000000 1.878510 0.000000 
#    z 0.017050 0.000000 1.873690 
# 
# From -- ./inp_files/356682.got.cif
#   From: 2010.05.17/outbox.cif.g08.bks.cpg/sg12_179_cif.got.tgz:356682.got - 2010.06.03 13:09:07.
