data_PCOD9202145
_publ_section_title
;
Structure prediction by ZEFSAII (Michael W. Deem and Ramdas Pophale) SiO2 
 PCOD9202145
Probable space group: C 2/M
;
_chemical_formula_sum "Si O2"
_cell_formula_units_Z 56
_cell_length_a 11.357796
_cell_length_b 15.240767
_cell_length_c 15.397342
_cell_angle_alpha 90.000000
_cell_angle_beta 112.988778
_cell_angle_gamma 90.000000
_cell_volume 2453.628588
_symmetry_space_group_name_H-M "C 2/M"
_symmetry_group_IT_number 12
_symmetry_cell_setting 'monoclinic'
loop_
_space_group_symop_operation_xyz
x,y,z
-x,y,-z
-x,-y,-z
x,-y,z
1/2+x,1/2+y,z
1/2-x,1/2+y,-z
1/2-x,1/2-y,-z
1/2+x,1/2-y,z
loop_
_atom_site_type_symbol
_atom_site_label
_atom_site_fract_x
_atom_site_fract_y
_atom_site_fract_z
Si Si1 0.967016 0.394625 0.085929
Si Si2 0.308277 0.343957 0.754097
Si Si3 0.149882 0.857591 0.546542
Si Si4 0.434118 0.397727 0.157801
Si Si5 0.730389 0.142755 0.238101
Si Si6 0.149586 0.357179 0.547582
Si Si7 0.809714 0.104027 0.950028
O O1 0.955169 0.500000 0.076333
O O2 0.081233 0.376974 0.184612
O O3 0.830945 0.358379 0.074345
O O4 0.000000 0.360000 0.000000
O O5 0.454103 0.344492 0.761270
O O6 0.258565 0.247286 0.758126
O O7 0.213289 0.385407 0.657214
O O8 0.328822 0.386878 0.853546
O O9 0.208441 0.888757 0.654804
O O10 0.149598 0.750180 0.545498
O O11 0.249946 0.884352 0.499266
O O12 0.000000 0.884463 0.500000
O O13 0.472600 0.500000 0.167023
O O14 0.304733 0.393020 0.176163
O O15 0.403500 0.361871 0.052246
O O16 0.000000 0.384371 0.500000
O O17 0.811150 0.000000 0.968779
#
# Coordination Sequence:
#
# PCOD9202145 Si02
#       7
#     8   8   8   8   8   8   8
#     4  10  20  38  59  82 116 161 202 239 295 368
#     4  11  24  36  61  94 121 150 203 257 303 345
#     4   9  18  35  57  84 118 156 200 246 307 372
#     4  11  23  43  63  85 124 171 204 236 301 381
#     4  11  23  35  63  93 120 149 203 260 305 344
#     4   9  19  35  56  83 121 160 194 244 309 378
#     4  10  22  40  61  81 116 168 207 232 291 380
#
# _framework density 22.823340999999999
#
# number of rings (size 3 to 8) (size 9 to 14) (size 15 to 20)
#    0.000    1.857    1.429    2.143    4.000    5.143 
#    0.000    0.000    0.000   11.143    0.000    0.000 
#    0.000    0.000    0.000    0.000    0.000    0.000 
#
# Total GULP energy -156349.843654 kJ/mol
# GULP energy per Si atom -5583.922988 kJ/mol
# Density = 2.277139 g / cm^3
# Si number density = 22.823341 Si / 1000 Ang^3
#
#
#
# Elastic Constant Matrix: (Units=GPa)
#
#
# Indices 1 2 3 4 5 6 
#
# 1 137.3254 2.6807 78.4567 0.0000 22.4079 0.0000
# 2 2.6807 39.8847 7.2771 0.0000 -4.8746 0.0000
# 3 78.4567 7.2771 179.9631 0.0000 30.9264 0.0000
# 4 0.0000 0.0000 0.0000 20.6236 0.0000 2.9872
# 5 22.4079 -4.8746 30.9264 0.0000 44.5285 0.0000
# 6 0.0000 0.0000 0.0000 2.9872 0.0000 16.1335
#
#
#
# Elastic Compliance Matrix: (Units=1/GPa)
#
#
# Indices 1 2 3 4 5 6 
#
# 1 0.009894 -0.000231 -0.003911 0.000000 -0.002288 0.000000
# 2 -0.000231 0.025890 -0.001650 0.000000 0.004097 0.000000
# 3 -0.003911 -0.001650 0.007973 0.000000 -0.003750 0.000000
# 4 0.000000 0.000000 0.000000 0.049824 0.000000 -0.009225
# 5 -0.002288 0.004097 -0.003750 0.000000 0.026662 0.000000
# 6 0.000000 0.000000 0.000000 -0.009225 0.000000 0.063691
#
#
# Mechanical properties :
#
#
# Convention : Reuss Voigt Hill
#
# Bulk Modulus (GPa) = 31.08259 59.33357 45.20808
# Shear Modulus (GPa) = 24.24335 34.17437 29.20886
#
# Velocity S-wave (km/s) = 3.26270 3.87375 3.58128
# Velocity P-wave (km/s) = 5.27655 6.78684 6.07878
#
# Compressibility (1/GPa) = 0.03217235
#
# Stress axis : x y z
#
# Youngs Moduli (GPa) = 101.06893 38.62560 125.42551
#
# Poissons Ratio (x) = 0.00893 0.49053
# Poissons Ratio (y) = 0.02336 0.20697
# Poissons Ratio (z) = 0.39528 0.06374
#
# Static dielectric constant tensor:
#      x y z
#    x 1.908850 0.000000 -0.014610 
#    y 0.000000 1.849870 0.000000 
#    z -0.014610 0.000000 1.825250 
# 
# From -- ./inp_files/206069.got.cif
#   From: 2010.05.17/outbox.cif.g08.bks.cpg/sg12_104_cif.got.tgz:206069.got - 2010.06.03 13:09:07.
