data_PCOD9202997
_publ_section_title
;
Structure prediction by ZEFSAII (Michael W. Deem and Ramdas Pophale) SiO2 
 PCOD9202997
Probable space group: C 2/M
;
_chemical_formula_sum "Si O2"
_cell_formula_units_Z 40
_cell_length_a 22.879518
_cell_length_b 9.227836
_cell_length_c 9.991220
_cell_angle_alpha 90.000000
_cell_angle_beta 89.570978
_cell_angle_gamma 90.000000
_cell_volume 2109.371556
_symmetry_space_group_name_H-M "C 2/M"
_symmetry_group_IT_number 12
_symmetry_cell_setting 'monoclinic'
loop_
_space_group_symop_operation_xyz
x,y,z
-x,y,-z
-x,-y,-z
x,-y,z
1/2+x,1/2+y,z
1/2-x,1/2+y,-z
1/2-x,1/2-y,-z
1/2+x,1/2-y,z
loop_
_atom_site_type_symbol
_atom_site_label
_atom_site_fract_x
_atom_site_fract_y
_atom_site_fract_z
Si Si1 0.310175 0.330753 0.024812
Si Si2 0.509083 0.171304 0.841978
Si Si3 0.118609 0.170973 0.709369
Si Si4 0.812276 0.673396 0.522428
Si Si5 0.122384 0.669960 0.201705
O O1 0.302670 0.500000 0.998786
O O2 0.357330 0.264890 0.922970
O O3 0.250000 0.250000 0.000000
O O4 0.332808 0.312857 0.175125
O O5 0.559139 0.264941 0.772021
O O6 0.446351 0.193139 0.772736
O O7 0.524437 0.000000 0.834388
O O8 0.500000 0.205555 0.000000
O O9 0.141509 0.260025 0.582470
O O10 0.112692 0.000000 0.679408
O O11 0.806644 0.500000 0.504804
O O12 0.750000 0.750000 0.500000
O O13 0.837503 0.699822 0.670659
O O14 0.129356 0.500000 0.166253
#
# Coordination Sequence:
#
# PCOD9202997 Si02
#       5
#     8   8   8   8   8
#     4  11  23  37  58  87 118 155 200 249 298 353
#     4  10  20  38  65  91 119 157 200 247 301 357
#     4  11  24  40  60  89 124 160 200 246 298 356
#     4  11  24  42  63  88 123 161 201 249 300 356
#     4  10  22  40  62  89 119 154 199 250 299 352
#
# _framework density 18.962994999999999
#
# number of rings (size 3 to 8) (size 9 to 14) (size 15 to 20)
#    0.000    1.400    2.000    3.000    0.000   10.800 
#    0.000    4.000    0.000    0.000    0.000    0.000 
#    0.000    0.000    0.000    0.000    0.000    0.000 
#
# Total GULP energy -111803.994436 kJ/mol
# GULP energy per Si atom -5590.199722 kJ/mol
# Density = 1.891983 g / cm^3
# Si number density = 18.962995 Si / 1000 Ang^3
#
#
#
# Elastic Constant Matrix: (Units=GPa)
#
#
# Indices 1 2 3 4 5 6 
#
# 1 53.8116 4.5466 -15.1379 0.0000 10.7227 0.0000
# 2 4.5466 36.8846 17.9866 0.0000 10.1090 0.0000
# 3 -15.1379 17.9866 41.7733 0.0000 -0.1808 0.0000
# 4 0.0000 0.0000 0.0000 31.1327 0.0000 -4.9900
# 5 10.7227 10.1090 -0.1808 0.0000 29.9664 0.0000
# 6 0.0000 0.0000 0.0000 -4.9900 0.0000 35.0618
#
#
#
# Elastic Compliance Matrix: (Units=1/GPa)
#
#
# Indices 1 2 3 4 5 6 
#
# 1 0.023597 -0.006839 0.011469 0.000000 -0.006067 0.000000
# 2 -0.006839 0.040927 -0.020150 0.000000 -0.011481 0.000000
# 3 0.011469 -0.020150 0.036784 0.000000 0.002915 0.000000
# 4 0.000000 0.000000 0.000000 0.032870 0.000000 0.004678
# 5 -0.006067 -0.011481 0.002915 0.000000 0.039432 0.000000
# 6 0.000000 0.000000 0.000000 0.004678 0.000000 0.029187
#
#
# Mechanical properties :
#
#
# Convention : Reuss Voigt Hill
#
# Bulk Modulus (GPa) = 14.23111 16.36221 15.29666
# Shear Modulus (GPa) = 19.43562 27.57048 23.50305
#
# Velocity S-wave (km/s) = 3.20492 3.81715 3.52435
# Velocity P-wave (km/s) = 4.60611 5.29856 4.96443
#
# Compressibility (1/GPa) = 0.07026861
#
# Stress axis : x y z
#
# Youngs Moduli (GPa) = 42.37894 24.43355 27.18580
#
# Poissons Ratio (x) = 0.16709 -0.31180
# Poissons Ratio (y) = 0.28982 0.54780
# Poissons Ratio (z) = -0.48606 0.49234
#
# Static dielectric constant tensor:
#      x y z
#    x 1.657830 0.000000 0.008550 
#    y 0.000000 1.613960 0.000000 
#    z 0.008550 0.000000 1.643630 
# 
# From -- ./inp_files/92784.got.cif
#   From: 2010.05.17/outbox.cif.g08.bks.cpg/sg12_47_cif.got.tgz:92784.got - 2010.06.03 13:09:07.
