data_PCOD9202905
_publ_section_title
;
Structure prediction by ZEFSAII (Michael W. Deem and Ramdas Pophale) SiO2 
 PCOD9202905
Probable space group: C 2/M
;
_chemical_formula_sum "Si O2"
_cell_formula_units_Z 64
_cell_length_a 22.764505
_cell_length_b 26.233856
_cell_length_c 12.395068
_cell_angle_alpha 90.000000
_cell_angle_beta 153.403286
_cell_angle_gamma 90.000000
_cell_volume 3314.087128
_symmetry_space_group_name_H-M "C 2/M"
_symmetry_group_IT_number 12
_symmetry_cell_setting 'monoclinic'
loop_
_space_group_symop_operation_xyz
x,y,z
-x,y,-z
-x,-y,-z
x,-y,z
1/2+x,1/2+y,z
1/2-x,1/2+y,-z
1/2-x,1/2-y,-z
1/2+x,1/2-y,z
loop_
_atom_site_type_symbol
_atom_site_label
_atom_site_fract_x
_atom_site_fract_y
_atom_site_fract_z
Si Si1 0.354815 0.440851 0.206473
Si Si2 0.225161 0.139329 0.769364
Si Si3 0.663277 0.557148 0.081993
Si Si4 0.513577 0.186837 0.893557
Si Si5 0.257059 0.360236 0.613876
Si Si6 0.920184 0.111489 0.675222
Si Si7 0.844744 0.250167 0.261461
Si Si8 0.615451 0.295542 0.020117
O O1 0.500000 0.433156 0.500000
O O2 0.320772 0.500000 0.172995
O O3 0.264681 0.398361 0.113505
O O4 0.340512 0.433754 0.053828
O O5 0.148256 0.108250 0.551550
O O6 0.157006 0.192506 0.693407
O O7 0.359884 0.155928 0.936204
O O8 0.710514 0.500000 0.179268
O O9 0.733473 0.598045 0.274753
O O10 0.509588 0.564313 0.856442
O O11 0.387280 0.159812 0.639369
O O12 0.500000 0.189405 0.000000
O O13 0.535701 0.243489 0.884413
O O14 0.317545 0.379093 0.601414
O O15 0.346471 0.312493 0.797140
O O16 0.021610 0.159001 0.827388
O O17 0.756425 0.286429 0.193876
O O18 0.000000 0.264093 0.500000
O O19 0.750000 0.250000 0.000000
#
# Coordination Sequence:
#
# PCOD9202905 Si02
#       8
#     8   8   8   8   8   8   8   8
#     4  10  20  38  64  92 119 152 200 254 314 378
#     4  11  23  37  62  89 127 161 204 259 313 368
#     4  10  22  41  67  95 121 156 204 263 324 375
#     4  11  23  40  61  88 125 175 210 250 305 380
#     4  11  24  40  62  92 130 162 213 258 316 377
#     4  11  21  39  62  95 124 162 205 264 315 370
#     4  11  25  39  57  87 127 172 213 258 314 374
#     4  10  24  37  60  89 122 166 214 253 307 366
#
# _framework density 19.311502000000001
#
# number of rings (size 3 to 8) (size 9 to 14) (size 15 to 20)
#    0.000    1.375    2.500    3.375   10.500    2.000 
#    0.000    1.250    0.000    2.250    0.000    0.000 
#    0.000    0.000    0.000    0.000    0.000    0.000 
#
# Total GULP energy -178449.589878 kJ/mol
# GULP energy per Si atom -5576.549684 kJ/mol
# Density = 1.926755 g / cm^3
# Si number density = 19.311502 Si / 1000 Ang^3
#
#
#
# Elastic Constant Matrix: (Units=GPa)
#
#
# Indices 1 2 3 4 5 6 
#
# 1 88.7004 39.4851 28.1424 0.0000 9.8158 0.0000
# 2 39.4851 75.3332 19.5723 0.0000 3.5914 0.0000
# 3 28.1424 19.5723 77.4164 0.0000 -1.5059 0.0000
# 4 0.0000 0.0000 0.0000 -220.0151 0.0000 10.8012
# 5 9.8158 3.5914 -1.5059 0.0000 32.3081 0.0000
# 6 0.0000 0.0000 0.0000 10.8012 0.0000 21.6239
#
#
#
# Elastic Compliance Matrix: (Units=1/GPa)
#
#
# Indices 1 2 3 4 5 6 
#
# 1 0.016311 -0.007256 -0.004179 0.000000 -0.004344 0.000000
# 2 -0.007256 0.017535 -0.001792 0.000000 0.000172 0.000000
# 3 -0.004179 -0.001792 0.014932 0.000000 0.002165 0.000000
# 4 0.000000 0.000000 0.000000 -0.004436 0.000000 0.002216
# 5 -0.004344 0.000172 0.002165 0.000000 0.032354 0.000000
# 6 0.000000 0.000000 0.000000 0.002216 0.000000 0.045138
#
#
# Mechanical properties :
#
#
# Convention : Reuss Voigt Hill
#
# Bulk Modulus (GPa) = 44.79831 46.20551 45.50191
# Shear Modulus (GPa) = 32.10716 -22.93330 4.58693
#
# Velocity S-wave (km/s) = 4.08191 -3.44982 1.54285
# Velocity P-wave (km/s) = 6.74271 2.84781 5.17562
#
# Compressibility (1/GPa) = 0.02232227
#
# Stress axis : x y z
#
# Youngs Moduli (GPa) = 61.30961 57.02882 66.97210
#
# Poissons Ratio (x) = 0.41381 0.27989
# Poissons Ratio (y) = 0.44487 0.12002
# Poissons Ratio (z) = 0.25623 0.10220
#
# Static dielectric constant tensor:
#      x y z
#    x 1.727400 0.000000 -0.001980 
#    y 0.000000 1.687130 0.000000 
#    z -0.001980 0.000000 1.697130 
# 
# From -- ./inp_files/170631.got.cif
#   From: 2010.05.17/outbox.cif.g08.bks.cpg/sg12_86_cif.got.tgz:170631.got - 2010.06.03 13:09:07.
