data_PCOD9202722
_publ_section_title
;
Structure prediction by ZEFSAII (Michael W. Deem and Ramdas Pophale) SiO2 
 PCOD9202722
Probable space group: C 2/M
;
_chemical_formula_sum "Si O2"
_cell_formula_units_Z 48
_cell_length_a 25.831947
_cell_length_b 8.162719
_cell_length_c 14.614773
_cell_angle_alpha 90.000000
_cell_angle_beta 139.690509
_cell_angle_gamma 90.000000
_cell_volume 1993.572458
_symmetry_space_group_name_H-M "C 2/M"
_symmetry_group_IT_number 12
_symmetry_cell_setting 'monoclinic'
loop_
_space_group_symop_operation_xyz
x,y,z
-x,y,-z
-x,-y,-z
x,-y,z
1/2+x,1/2+y,z
1/2-x,1/2+y,-z
1/2-x,1/2-y,-z
1/2+x,1/2-y,z
loop_
_atom_site_type_symbol
_atom_site_label
_atom_site_fract_x
_atom_site_fract_y
_atom_site_fract_z
Si Si1 0.844943 0.698247 0.511097
Si Si2 0.831514 0.804596 0.158039
Si Si3 0.425413 0.685561 0.007907
Si Si4 0.908159 0.689695 0.782617
Si Si5 0.002491 0.695533 0.398921
Si Si6 0.755423 0.305534 0.785024
O O1 0.845664 0.500000 0.513752
O O2 0.852015 0.751720 0.625716
O O3 0.769899 0.756236 0.350985
O O4 0.924020 0.758447 0.562919
O O5 0.915412 0.731547 0.239452
O O6 0.814790 0.752090 0.240878
O O7 0.837716 0.000000 0.161371
O O8 0.750000 0.750000 0.000000
O O9 0.447011 0.500000 0.059075
O O10 0.411010 0.707848 0.879177
O O11 0.338881 0.729543 0.929920
O O12 0.500403 0.799847 0.131920
O O13 0.890552 0.500000 0.781814
O O14 0.012664 0.500000 0.418237
O O15 0.000000 0.762147 0.500000
O O16 0.763408 0.500000 0.800982
#
# Coordination Sequence:
#
# PCOD9202722 Si02
#       6
#     8   8   8   8   8   8
#     4  10  22  39  62  91 120 157 199 241 295 356
#     4  11  25  41  60  88 121 159 202 246 295 351
#     4  11  23  40  63  89 120 156 200 247 297 354
#     4  10  21  40  64  90 122 156 196 243 298 359
#     4  10  20  38  63  88 121 159 195 240 292 350
#     4  11  24  41  61  87 121 158 199 247 298 351
#
# _framework density 24.077380000000002
#
# number of rings (size 3 to 8) (size 9 to 14) (size 15 to 20)
#    0.000    1.500    1.667    4.000    2.333    5.000 
#    0.000    0.000    0.000    0.000    0.000    0.000 
#    0.000    0.000    0.000    0.000    0.000    0.000 
#
# Total GULP energy -134300.177079 kJ/mol
# GULP energy per Si atom -5595.840712 kJ/mol
# Density = 2.402258 g / cm^3
# Si number density = 24.077380 Si / 1000 Ang^3
#
#
#
# Elastic Constant Matrix: (Units=GPa)
#
#
# Indices 1 2 3 4 5 6 
#
# 1 53.3332 -3.9952 -1.7420 0.0000 14.1683 0.0000
# 2 -3.9952 24.0585 -18.1399 0.0000 -7.4922 0.0000
# 3 -1.7420 -18.1399 93.9476 0.0000 -2.2947 0.0000
# 4 0.0000 0.0000 0.0000 30.4666 0.0000 5.6928
# 5 14.1683 -7.4922 -2.2947 0.0000 42.7994 0.0000
# 6 0.0000 0.0000 0.0000 5.6928 0.0000 20.5107
#
#
#
# Elastic Compliance Matrix: (Units=1/GPa)
#
#
# Indices 1 2 3 4 5 6 
#
# 1 0.020627 0.001847 0.000581 0.000000 -0.006474 0.000000
# 2 0.001847 0.052569 0.010408 0.000000 0.009149 0.000000
# 3 0.000581 0.010408 0.012721 0.000000 0.002312 0.000000
# 4 0.000000 0.000000 0.000000 0.034618 0.000000 -0.009608
# 5 -0.006474 0.009149 0.002312 0.000000 0.027233 0.000000
# 6 0.000000 0.000000 0.000000 -0.009608 0.000000 0.051422
#
#
# Mechanical properties :
#
#
# Convention : Reuss Voigt Hill
#
# Bulk Modulus (GPa) = 8.96138 13.73169 11.34654
# Shear Modulus (GPa) = 23.72879 31.76977 27.74928
#
# Velocity S-wave (km/s) = 3.14271 3.63641 3.39854
# Velocity P-wave (km/s) = 4.11082 4.83186 4.48585
#
# Compressibility (1/GPa) = 0.11158991
#
# Stress axis : x y z
#
# Youngs Moduli (GPa) = 48.47958 19.02271 78.60960
#
# Poissons Ratio (x) = -0.03514 -0.04568
# Poissons Ratio (y) = -0.08956 -0.81817
# Poissons Ratio (z) = -0.02817 -0.19799
#
# Static dielectric constant tensor:
#      x y z
#    x 2.012980 0.000000 -0.037420 
#    y 0.000000 1.808820 0.000000 
#    z -0.037420 0.000000 1.910460 
# 
# From -- ./inp_files/244896.got.cif
#   From: 2010.05.17/outbox.cif.g08.bks.cpg/sg12_123_cif.got.tgz:244896.got - 2010.06.03 13:09:07.
