data_PCOD9202837
_publ_section_title
;
Structure prediction by ZEFSAII (Michael W. Deem and Ramdas Pophale) SiO2 
 PCOD9202837
Probable space group: C 2/M
;
_chemical_formula_sum "Si O2"
_cell_formula_units_Z 64
_cell_length_a 20.057841
_cell_length_b 7.611974
_cell_length_c 32.537252
_cell_angle_alpha 90.000000
_cell_angle_beta 144.391355
_cell_angle_gamma 90.000000
_cell_volume 2892.468259
_symmetry_space_group_name_H-M "C 2/M"
_symmetry_group_IT_number 12
_symmetry_cell_setting 'monoclinic'
loop_
_space_group_symop_operation_xyz
x,y,z
-x,y,-z
-x,-y,-z
x,-y,z
1/2+x,1/2+y,z
1/2-x,1/2+y,-z
1/2-x,1/2-y,-z
1/2+x,1/2-y,z
loop_
_atom_site_type_symbol
_atom_site_label
_atom_site_fract_x
_atom_site_fract_y
_atom_site_fract_z
Si Si1 0.900294 0.297960 0.813237
Si Si2 0.001473 0.704912 0.372068
Si Si3 0.329639 0.293273 0.611683
Si Si4 0.786286 0.298151 0.216614
Si Si5 0.239980 0.285509 0.887001
Si Si6 0.860716 0.209912 0.027811
Si Si7 0.428643 0.784416 0.504053
Si Si8 0.477770 0.212054 0.765625
O O1 0.862201 0.500000 0.791513
O O2 0.812528 0.204453 0.799285
O O3 0.911349 0.223948 0.772754
O O4 0.026586 0.291597 0.896074
O O5 0.972131 0.500000 0.363360
O O6 0.116064 0.714115 0.402312
O O7 0.017429 0.776760 0.425729
O O8 0.899246 0.784734 0.293506
O O9 0.319912 0.500000 0.599037
O O10 0.204085 0.227953 0.561576
O O11 0.416419 0.263546 0.692881
O O12 0.818292 0.500000 0.222612
O O13 0.743585 0.225127 0.151646
O O14 0.245143 0.500000 0.891410
O O15 0.329303 0.226339 0.966212
O O16 0.110236 0.231919 0.833384
O O17 0.878679 0.000000 0.036141
O O18 0.750000 0.250000 0.000000
O O19 0.500000 0.727428 0.500000
O O20 0.428934 0.000000 0.503796
O O21 0.479118 0.000000 0.768206
#
# Coordination Sequence:
#
# PCOD9202837 Si02
#       8
#     8   8   8   8   8   8   8   8
#     4  11  24  40  58  85 121 154 189 243 301 348
#     4  10  20  38  64  84 113 162 199 232 288 357
#     4  11  22  35  59  91 119 149 194 250 290 333
#     4  10  21  38  61  86 111 150 200 239 283 347
#     4   9  18  37  61  83 111 150 195 237 280 344
#     4  11  21  37  61  87 117 154 197 243 293 348
#     4   9  20  37  57  86 121 155 194 241 289 342
#     4  10  20  39  61  82 114 156 196 234 289 355
#
# _framework density 22.126432000000001
#
# number of rings (size 3 to 8) (size 9 to 14) (size 15 to 20)
#    0.000    1.875    2.500    1.500    1.750    2.000 
#    0.000    4.375    0.000    1.875    0.000    0.000 
#    0.000    0.000    0.000    0.000    0.000    0.000 
#
# Total GULP energy -178795.745406 kJ/mol
# GULP energy per Si atom -5587.367044 kJ/mol
# Density = 2.207607 g / cm^3
# Si number density = 22.126432 Si / 1000 Ang^3
#
#
#
# Elastic Constant Matrix: (Units=GPa)
#
#
# Indices 1 2 3 4 5 6 
#
# 1 143.9447 -13.0686 42.3338 0.0006 -24.3901 -0.0003
# 2 -13.0686 46.7246 -8.0507 0.0022 -4.2485 -0.0018
# 3 42.3338 -8.0507 85.5943 0.0003 -23.2651 -0.0003
# 4 0.0006 0.0022 0.0003 -1.7692 -0.0002 5.0414
# 5 -24.3901 -4.2485 -23.2651 -0.0002 42.8463 0.0002
# 6 -0.0003 -0.0018 -0.0003 5.0414 0.0002 21.9983
#
#
#
# Elastic Compliance Matrix: (Units=1/GPa)
#
#
# Indices 1 2 3 4 5 6 
#
# 1 0.008652 0.002192 -0.003138 0.000003 0.003438 -0.000001
# 2 0.002192 0.022860 0.002371 0.000021 0.004802 -0.000003
# 3 -0.003138 0.002371 0.015294 0.000003 0.006753 0.000000
# 4 0.000003 0.000021 0.000003 -0.341936 0.000003 0.078362
# 5 0.003438 0.004802 0.006753 0.000003 0.029439 -0.000001
# 6 -0.000001 -0.000003 0.000000 0.078362 -0.000001 0.027500
#
#
# Mechanical properties :
#
#
# Convention : Reuss Voigt Hill
#
# Bulk Modulus (GPa) = 20.13890 35.41028 27.77459
# Shear Modulus (GPa) = -22.27283 29.61836 3.67276
#
# Velocity S-wave (km/s) = -3.17616 3.66265 1.28977
# Velocity P-wave (km/s) = 2.08067 5.82452 3.84681
#
# Compressibility (1/GPa) = 0.04965514
#
# Stress axis : x y z
#
# Youngs Moduli (GPa) = 115.58501 43.74405 65.38614
#
# Poissons Ratio (x) = -0.09587 0.20520
# Poissons Ratio (y) = -0.25333 -0.15505
# Poissons Ratio (z) = 0.36274 -0.10373
#
# Static dielectric constant tensor:
#      x y z
#    x 1.783550 0.000000 -0.019880 
#    y 0.000000 1.873290 0.000000 
#    z -0.019880 0.000000 1.809920 
# 
# From -- ./inp_files/378407.got.cif
#   From: 2010.05.17/outbox.cif.g08.bks.cpg/sg12_190_cif.got.tgz:378407.got - 2010.06.03 13:09:07.
