data_PCOD9202661
_publ_section_title
;
Structure prediction by ZEFSAII (Michael W. Deem and Ramdas Pophale) SiO2 
 PCOD9202661
Probable space group: C 2/M
;
_chemical_formula_sum "Si O2"
_cell_formula_units_Z 26
_cell_length_a 7.601676
_cell_length_b 12.607274
_cell_length_c 11.834957
_cell_angle_alpha 90.000000
_cell_angle_beta 104.363816
_cell_angle_gamma 90.000000
_cell_volume 1098.764132
_symmetry_space_group_name_H-M "C 2/M"
_symmetry_group_IT_number 12
_symmetry_cell_setting 'monoclinic'
loop_
_space_group_symop_operation_xyz
x,y,z
-x,y,-z
-x,-y,-z
x,-y,z
1/2+x,1/2+y,z
1/2-x,1/2+y,-z
1/2-x,1/2-y,-z
1/2+x,1/2-y,z
loop_
_atom_site_type_symbol
_atom_site_label
_atom_site_fract_x
_atom_site_fract_y
_atom_site_fract_z
Si Si1 0.514148 0.500000 0.638312
Si Si2 0.595418 0.000000 0.633207
Si Si3 0.186066 0.148609 0.843022
Si Si4 0.500000 0.500000 0.000000
Si Si5 0.586653 0.886174 0.845125
O O1 0.500000 0.500000 0.500000
O O2 0.309281 0.500000 0.650279
O O3 0.611551 0.602406 0.711349
O O4 0.500000 0.000000 0.500000
O O5 0.542267 0.902562 0.705237
O O6 0.065972 0.092129 0.917722
O O7 0.397021 0.116397 0.879688
O O8 0.180394 0.273943 0.863463
O O9 0.689992 0.000000 0.888324
#
# Coordination Sequence:
#
# PCOD9202661 Si02
#       5
#     4   4   8   2   8
#     4  11  21  38  66  97 130 177 214 265 328 386
#     4  10  20  38  62  96 133 167 215 262 317 386
#     4  11  22  43  65  94 133 170 219 270 323 379
#     4  10  22  42  68  94 130 170 218 274 316 388
#     4  10  22  41  63  93 129 167 216 267 316 389
#
# _framework density 23.662949999999999
#
# number of rings (size 3 to 8) (size 9 to 14) (size 15 to 20)
#    0.923    0.615    3.077    3.692    0.000    2.462 
#    0.000    6.923    0.000    0.000    0.000    0.000 
#    0.000    0.000    0.000    0.000    0.000    0.000 
#
# Total GULP energy -72496.390246 kJ/mol
# GULP energy per Si atom -5576.645404 kJ/mol
# Density = 2.360909 g / cm^3
# Si number density = 23.662950 Si / 1000 Ang^3
#
#
#
# Elastic Constant Matrix: (Units=GPa)
#
#
# Indices 1 2 3 4 5 6 
#
# 1 110.9407 45.1925 50.6083 0.0000 -18.9016 0.0000
# 2 45.1925 245.0058 56.7805 0.0000 -2.0369 0.0000
# 3 50.6083 56.7805 190.3724 0.0000 1.4133 0.0000
# 4 0.0000 0.0000 0.0000 -6.8631 0.0000 -10.7801
# 5 -18.9016 -2.0369 1.4133 0.0000 53.7414 0.0000
# 6 0.0000 0.0000 0.0000 -10.7801 0.0000 37.5641
#
#
#
# Elastic Compliance Matrix: (Units=1/GPa)
#
#
# Indices 1 2 3 4 5 6 
#
# 1 0.011517 -0.001476 -0.002652 0.000000 0.004065 0.000000
# 2 -0.001476 0.004576 -0.000970 0.000000 -0.000320 0.000000
# 3 -0.002652 -0.000970 0.006256 0.000000 -0.001134 0.000000
# 4 0.000000 0.000000 0.000000 -0.100434 0.000000 -0.028822
# 5 0.004065 -0.000320 -0.001134 0.000000 0.020055 0.000000
# 6 0.000000 0.000000 0.000000 -0.028822 0.000000 0.018350
#
#
# Mechanical properties :
#
#
# Convention : Reuss Voigt Hill
#
# Bulk Modulus (GPa) = 82.28324 94.60906 88.44615
# Shear Modulus (GPa) = -196.58481 43.13766 -76.72357
#
# Velocity S-wave (km/s) = -9.12455 4.27430 -5.70034
# Velocity P-wave (km/s) = 8.72705 8.02672 2.42210
#
# Compressibility (1/GPa) = 0.01215314
#
# Stress axis : x y z
#
# Youngs Moduli (GPa) = 86.82650 218.53357 159.85905
#
# Poissons Ratio (x) = 0.32258 0.42389
# Poissons Ratio (y) = 0.12816 0.15507
# Poissons Ratio (z) = 0.23023 0.21199
#
# Static dielectric constant tensor:
#      x y z
#    x 1.522230 0.000000 0.053610 
#    y 0.000000 1.772040 0.000000 
#    z 0.053610 0.000000 1.901330 
# 
# From -- ./inp_files/116883.got.cif
#   From: 2010.05.17/outbox.cif.g08.bks.cpg/sg12_59_cif.got.tgz:116883.got - 2010.06.03 13:09:07.
