data_PCOD9202427
_publ_section_title
;
Structure prediction by ZEFSAII (Michael W. Deem and Ramdas Pophale) SiO2 
 PCOD9202427
Probable space group: C 2/M
;
_chemical_formula_sum "Si O2"
_cell_formula_units_Z 64
_cell_length_a 9.666467
_cell_length_b 16.213691
_cell_length_c 26.443725
_cell_angle_alpha 90.000000
_cell_angle_beta 53.674906
_cell_angle_gamma 90.000000
_cell_volume 3339.096010
_symmetry_space_group_name_H-M "C 2/M"
_symmetry_group_IT_number 12
_symmetry_cell_setting 'monoclinic'
loop_
_space_group_symop_operation_xyz
x,y,z
-x,y,-z
-x,-y,-z
x,-y,z
1/2+x,1/2+y,z
1/2-x,1/2+y,-z
1/2-x,1/2-y,-z
1/2+x,1/2-y,z
loop_
_atom_site_type_symbol
_atom_site_label
_atom_site_fract_x
_atom_site_fract_y
_atom_site_fract_z
Si Si1 0.618087 0.096734 0.428441
Si Si2 0.991073 0.127667 0.663321
Si Si3 0.380266 0.091066 0.287002
Si Si4 0.953096 0.403203 0.856980
Si Si5 0.921095 0.093596 0.239925
Si Si6 0.079242 0.680993 0.328199
Si Si7 0.191821 0.233383 0.955675
Si Si8 0.278744 0.906223 0.108605
O O1 0.500000 0.126593 0.500000
O O2 0.580555 0.143005 0.384071
O O3 0.819993 0.105747 0.397648
O O4 0.582747 0.000000 0.428004
O O5 0.823598 0.086806 0.676103
O O6 0.952450 0.222983 0.663345
O O7 0.003882 0.107457 0.720143
O O8 0.464068 0.117452 0.215455
O O9 0.436614 0.146187 0.321358
O O10 0.448592 0.000000 0.282898
O O11 0.891952 0.500000 0.868504
O O12 0.814175 0.333680 0.901974
O O13 0.101391 0.401689 0.867617
O O14 0.765871 0.156494 0.265337
O O15 0.079477 0.099843 0.167773
O O16 0.851905 0.000000 0.253193
O O17 0.184990 0.324030 0.931193
O O18 0.250000 0.250000 0.000000
O O19 0.000000 0.198748 0.000000
O O20 0.305482 0.000000 0.081070
#
# Coordination Sequence:
#
# PCOD9202427 Si02
#       8
#     8   8   8   8   8   8   8   8
#     4  10  22  43  64  80 115 172 217 244 285 362
#     4  11  21  35  59  92 119 157 196 243 305 365
#     4  11  21  36  60  91 124 151 189 254 315 360
#     4  10  23  41  64  92 125 165 203 254 319 378
#     4  10  20  38  61  87 121 161 203 241 294 377
#     4  11  23  35  57  94 127 154 191 255 313 350
#     4  12  26  43  64  93 122 164 211 260 308 364
#     4  10  22  41  67  91 119 166 212 252 305 377
#
# _framework density 19.166862999999999
#
# number of rings (size 3 to 8) (size 9 to 14) (size 15 to 20)
#    0.000    1.375    2.500    4.500    3.500    2.500 
#    0.000    1.875    0.000    2.250    0.000    0.000 
#    0.000    0.000    0.000    0.000    0.000    0.000 
#
# Total GULP energy -178637.027823 kJ/mol
# GULP energy per Si atom -5582.407119 kJ/mol
# Density = 1.912324 g / cm^3
# Si number density = 19.166863 Si / 1000 Ang^3
#
#
#
# Elastic Constant Matrix: (Units=GPa)
#
#
# Indices 1 2 3 4 5 6 
#
# 1 88.3473 24.4469 31.3094 0.0000 -7.2082 0.0000
# 2 24.4469 107.8514 45.7617 0.0001 8.6570 0.0000
# 3 31.3094 45.7617 102.1307 0.0002 -10.2514 0.0001
# 4 0.0000 0.0001 0.0002 49.3300 -0.0001 16.4091
# 5 -7.2082 8.6570 -10.2514 -0.0001 19.4443 0.0001
# 6 0.0000 0.0000 0.0001 16.4091 0.0001 62.5962
#
#
#
# Elastic Compliance Matrix: (Units=1/GPa)
#
#
# Indices 1 2 3 4 5 6 
#
# 1 0.013234 -0.002269 -0.002583 0.000000 0.004554 0.000000
# 2 -0.002269 0.013240 -0.006244 0.000000 -0.010028 0.000000
# 3 -0.002583 -0.006244 0.014322 0.000000 0.009373 0.000000
# 4 0.000000 0.000000 0.000000 0.022208 0.000000 -0.005822
# 5 0.004554 -0.010028 0.009373 0.000000 0.062523 0.000000
# 6 0.000000 0.000000 0.000000 -0.005822 0.000000 0.017502
#
#
# Mechanical properties :
#
#
# Convention : Reuss Voigt Hill
#
# Bulk Modulus (GPa) = 53.75143 55.70728 54.72935
# Shear Modulus (GPa) = 29.16774 39.39486 34.28130
#
# Velocity S-wave (km/s) = 3.90523 4.53853 4.23374
# Velocity P-wave (km/s) = 6.95983 7.52275 7.24676
#
# Compressibility (1/GPa) = 0.01860416
#
# Stress axis : x y z
#
# Youngs Moduli (GPa) = 75.56335 75.52602 69.82479
#
# Poissons Ratio (x) = 0.17140 0.18036
# Poissons Ratio (y) = 0.17148 0.43595
# Poissons Ratio (z) = 0.19518 0.47155
#
# Static dielectric constant tensor:
#      x y z
#    x 1.641410 0.000000 -0.011630 
#    y 0.000000 1.662960 0.000000 
#    z -0.011630 0.000000 1.662800 
# 
# From -- ./inp_files/372576.got.cif
#   From: 2010.05.17/outbox.cif.g08.bks.cpg/sg12_187_cif.got.tgz:372576.got - 2010.06.03 13:09:07.
