data_PCOD9202381
_publ_section_title
;
Structure prediction by ZEFSAII (Michael W. Deem and Ramdas Pophale) SiO2 
 PCOD9202381
Probable space group: C 2/M
;
_chemical_formula_sum "Si O2"
_cell_formula_units_Z 36
_cell_length_a 9.341577
_cell_length_b 12.860882
_cell_length_c 17.553361
_cell_angle_alpha 90.000000
_cell_angle_beta 121.239391
_cell_angle_gamma 90.000000
_cell_volume 1803.106464
_symmetry_space_group_name_H-M "C 2/M"
_symmetry_group_IT_number 12
_symmetry_cell_setting 'monoclinic'
loop_
_space_group_symop_operation_xyz
x,y,z
-x,y,-z
-x,-y,-z
x,-y,z
1/2+x,1/2+y,z
1/2-x,1/2+y,-z
1/2-x,1/2-y,-z
1/2+x,1/2-y,z
loop_
_atom_site_type_symbol
_atom_site_label
_atom_site_fract_x
_atom_site_fract_y
_atom_site_fract_z
Si Si1 0.516172 0.125055 0.698227
Si Si2 0.500000 0.746172 0.000000
Si Si3 0.824773 0.125501 0.481386
Si Si4 0.676808 0.117411 0.593454
Si Si5 0.853222 0.373407 0.101193
O O1 0.326637 0.141301 0.618865
O O2 0.637682 0.166563 0.664404
O O3 0.559853 0.158371 0.794950
O O4 0.538469 0.000000 0.703210
O O5 0.664812 0.673368 0.053385
O O6 0.454162 0.819867 0.059514
O O7 0.791063 0.162195 0.558203
O O8 0.000000 0.167253 0.500000
O O9 0.837177 0.000000 0.491185
O O10 0.500000 0.106834 0.500000
O O11 0.739389 0.000000 0.625858
O O12 0.851045 0.500000 0.093520
#
# Coordination Sequence:
#
# PCOD9202381 Si02
#       5
#     8   4   8   8   8
#     4   8  14  25  44  69  99 140 181 217 263 321
#     4  10  22  38  60  88 112 146 186 232 296 348
#     4   8  12  19  34  63 103 137 172 220 262 306
#     4   7  10  18  33  57  91 129 170 211 252 307
#     4  10  20  38  61  85 115 147 186 234 284 342
#
# _framework density 19.965544000000001
#
# number of rings (size 3 to 8) (size 9 to 14) (size 15 to 20)
#    0.000    3.556    0.000    3.333    0.000    0.000 
#    0.000    4.444    0.000   13.333    0.000   20.222 
#    0.000    0.000    0.000    0.000    0.000   76.444 
#
# Total GULP energy -100288.795925 kJ/mol
# GULP energy per Si atom -5571.599774 kJ/mol
# Density = 1.992010 g / cm^3
# Si number density = 19.965544 Si / 1000 Ang^3
#
#
#
# Elastic Constant Matrix: (Units=GPa)
#
#
# Indices 1 2 3 4 5 6 
#
# 1 156.3116 21.0885 88.1683 0.0000 -39.7930 0.0000
# 2 21.0885 89.6881 38.0238 0.0000 -11.9097 0.0000
# 3 88.1683 38.0238 168.9557 0.0000 -39.4657 0.0000
# 4 0.0000 0.0000 0.0000 20.0594 0.0000 -9.4823
# 5 -39.7930 -11.9097 -39.4657 0.0000 27.0681 0.0000
# 6 0.0000 0.0000 0.0000 -9.4823 0.0000 -15.5960
#
#
#
# Elastic Compliance Matrix: (Units=1/GPa)
#
#
# Indices 1 2 3 4 5 6 
#
# 1 0.011160 0.000278 -0.003072 0.000000 0.012051 0.000000
# 2 0.000278 0.012411 -0.002377 0.000000 0.002405 0.000000
# 3 -0.003072 -0.002377 0.010247 0.000000 0.009379 0.000000
# 4 0.000000 0.000000 0.000000 0.038723 0.000000 -0.023543
# 5 0.012051 0.002405 0.009379 0.000000 0.069393 0.000000
# 6 0.000000 0.000000 0.000000 -0.023543 0.000000 -0.049805
#
#
# Mechanical properties :
#
#
# Convention : Reuss Voigt Hill
#
# Bulk Modulus (GPa) = 42.59133 78.83519 60.71326
# Shear Modulus (GPa) = 45.33221 24.15128 34.74175
#
# Velocity S-wave (km/s) = 4.77017 3.48177 4.17596
# Velocity P-wave (km/s) = 7.19153 7.46559 7.32984
#
# Compressibility (1/GPa) = 0.02347896
#
# Stress axis : x y z
#
# Youngs Moduli (GPa) = 89.60275 80.57204 97.58523
#
# Poissons Ratio (x) = -0.02243 0.29975
# Poissons Ratio (y) = -0.02494 0.23193
# Poissons Ratio (z) = 0.27523 0.19150
#
# Static dielectric constant tensor:
#      x y z
#    x 1.739790 0.000000 -0.037670 
#    y 0.000000 1.759370 0.000000 
#    z -0.037670 0.000000 1.684550 
# 
# From -- ./inp_files/194188.got.cif
#   From: 2010.05.17/outbox.cif.g08.bks.cpg/sg12_98_cif.got.tgz:194188.got - 2010.06.03 13:09:07.
