data_PCOD9202547
_publ_section_title
;
Structure prediction by ZEFSAII (Michael W. Deem and Ramdas Pophale) SiO2 
 PCOD9202547
Probable space group: C 2/M
;
_chemical_formula_sum "Si O2"
_cell_formula_units_Z 48
_cell_length_a 15.785551
_cell_length_b 14.511992
_cell_length_c 9.737552
_cell_angle_alpha 90.000000
_cell_angle_beta 68.408847
_cell_angle_gamma 90.000000
_cell_volume 2074.157203
_symmetry_space_group_name_H-M "C 2/M"
_symmetry_group_IT_number 12
_symmetry_cell_setting 'monoclinic'
loop_
_space_group_symop_operation_xyz
x,y,z
-x,y,-z
-x,-y,-z
x,-y,z
1/2+x,1/2+y,z
1/2-x,1/2+y,-z
1/2-x,1/2-y,-z
1/2+x,1/2-y,z
loop_
_atom_site_type_symbol
_atom_site_label
_atom_site_fract_x
_atom_site_fract_y
_atom_site_fract_z
Si Si1 0.080252 0.855153 0.049207
Si Si2 0.892208 0.389140 0.582385
Si Si3 0.776244 0.654988 0.905453
Si Si4 0.595814 0.145943 0.957406
Si Si5 0.089698 0.109891 0.370163
Si Si6 0.287495 0.888576 0.363081
O O1 0.177813 0.884823 0.929172
O O2 0.073659 0.744161 0.040322
O O3 0.081584 0.876602 0.210559
O O4 0.000000 0.892014 0.000000
O O5 0.887912 0.500000 0.611085
O O6 0.843807 0.338384 0.737874
O O7 0.829066 0.370018 0.487755
O O8 0.000000 0.367615 0.500000
O O9 0.750000 0.750000 0.000000
O O10 0.830707 0.599870 0.988329
O O11 0.644234 0.158999 0.784198
O O12 0.500000 0.097518 0.000000
O O13 0.184939 0.141007 0.383427
O O14 0.000000 0.147951 0.500000
O O15 0.090190 0.000000 0.391429
O O16 0.293430 0.000000 0.339638
#
# Coordination Sequence:
#
# PCOD9202547 Si02
#       6
#     8   8   8   8   8   8
#     4  10  22  39  61  89 122 162 211 253 304 370
#     4  10  22  40  64  94 126 162 207 260 316 374
#     4  10  21  39  60  88 127 160 202 257 307 373
#     4  10  20  38  62  86 123 159 198 250 304 373
#     4  10  22  40  61  87 122 161 205 257 308 363
#     4  10  21  38  62  92 122 158 201 248 312 373
#
# _framework density 23.141929000000001
#
# number of rings (size 3 to 8) (size 9 to 14) (size 15 to 20)
#    0.000    2.000    1.667    1.000    2.333    2.000 
#    0.000   13.333    0.000    0.000    0.000    0.000 
#    0.000    0.000    0.000    0.000    0.000    0.000 
#
# Total GULP energy -133984.328254 kJ/mol
# GULP energy per Si atom -5582.680344 kJ/mol
# Density = 2.308926 g / cm^3
# Si number density = 23.141929 Si / 1000 Ang^3
#
#
#
# Elastic Constant Matrix: (Units=GPa)
#
#
# Indices 1 2 3 4 5 6 
#
# 1 250.1603 25.0252 94.8129 0.0000 -13.5066 0.0000
# 2 25.0252 83.0849 15.1895 0.0000 0.5658 0.0000
# 3 94.8129 15.1895 177.6725 0.0000 -12.1873 0.0000
# 4 0.0000 0.0000 0.0000 33.3464 0.0000 10.6777
# 5 -13.5066 0.5658 -12.1873 0.0000 46.5341 0.0000
# 6 0.0000 0.0000 0.0000 10.6777 0.0000 -19.3011
#
#
#
# Elastic Compliance Matrix: (Units=1/GPa)
#
#
# Indices 1 2 3 4 5 6 
#
# 1 0.005131 -0.001078 -0.002590 0.000000 0.000824 0.000000
# 2 -0.001078 0.012462 -0.000532 0.000000 -0.000604 0.000000
# 3 -0.002590 -0.000532 0.007133 0.000000 0.001123 0.000000
# 4 0.000000 0.000000 0.000000 0.025475 0.000000 0.014094
# 5 0.000824 -0.000604 0.001123 0.000000 0.022030 0.000000
# 6 0.000000 0.000000 0.000000 0.014094 0.000000 -0.044014
#
#
# Mechanical properties :
#
#
# Convention : Reuss Voigt Hill
#
# Bulk Modulus (GPa) = 61.24506 86.77476 74.00991
# Shear Modulus (GPa) = 118.88325 37.17522 78.02924
#
# Velocity S-wave (km/s) = 7.17516 4.01234 5.81299
# Velocity P-wave (km/s) = 9.75532 7.68397 8.78093
#
# Compressibility (1/GPa) = 0.01632785
#
# Stress axis : x y z
#
# Youngs Moduli (GPa) = 194.88589 80.24525 140.19962
#
# Poissons Ratio (x) = 0.08648 0.36305
# Poissons Ratio (y) = 0.21003 0.07454
# Poissons Ratio (z) = 0.50466 0.04266
#
# Static dielectric constant tensor:
#      x y z
#    x 1.996770 0.000000 -0.005590 
#    y 0.000000 1.817020 0.000000 
#    z -0.005590 0.000000 1.832810 
# 
# From -- ./inp_files/75070.got.cif
#   From: 2010.05.17/outbox.cif.g08.bks.cpg/sg12_38_cif.got.tgz:75070.got - 2010.06.03 13:09:07.
