data_PCOD9202652
_publ_section_title
;
Structure prediction by ZEFSAII (Michael W. Deem and Ramdas Pophale) SiO2 
 PCOD9202652
Probable space group: C 2/M
;
_chemical_formula_sum "Si O2"
_cell_formula_units_Z 28
_cell_length_a 13.177199
_cell_length_b 20.136625
_cell_length_c 5.106928
_cell_angle_alpha 90.000000
_cell_angle_beta 78.142418
_cell_angle_gamma 90.000000
_cell_volume 1326.178464
_symmetry_space_group_name_H-M "C 2/M"
_symmetry_group_IT_number 12
_symmetry_cell_setting 'monoclinic'
loop_
_space_group_symop_operation_xyz
x,y,z
-x,y,-z
-x,-y,-z
x,-y,z
1/2+x,1/2+y,z
1/2-x,1/2+y,-z
1/2-x,1/2-y,-z
1/2+x,1/2-y,z
loop_
_atom_site_type_symbol
_atom_site_label
_atom_site_fract_x
_atom_site_fract_y
_atom_site_fract_z
Si Si1 0.925787 0.075992 0.290006
Si Si2 0.425015 0.000000 0.791147
Si Si3 0.265156 0.176003 0.596261
Si Si4 0.378061 0.863853 0.019428
O O1 0.838601 0.132457 0.313945
O O2 0.000000 0.087067 0.500000
O O3 0.882434 0.000000 0.333778
O O4 0.000000 0.078115 0.000000
O O5 0.500000 0.000000 0.500000
O O6 0.500000 0.000000 0.000000
O O7 0.361760 0.933342 0.872096
O O8 0.250000 0.250000 0.500000
O O9 0.328003 0.138602 0.331131
O O10 0.326397 0.184311 0.836893
O O11 0.500000 0.852505 0.000000
#
# Coordination Sequence:
#
# PCOD9202652 Si02
#       4
#     8   4   8   8
#     4  10  23  44  68  93 126 173 231 282 325 379
#     4  10  20  38  62  94 126 164 216 256 320 400
#     4  12  26  42  66 101 134 177 226 275 342 408
#     4  11  24  42  66  97 137 174 212 268 338 406
#
# _framework density 21.113296999999999
#
# number of rings (size 3 to 8) (size 9 to 14) (size 15 to 20)
#    0.000    1.143    0.000    6.857    4.000    3.429 
#    0.000    0.000    0.000    0.000    0.000    0.000 
#    0.000    0.000    0.000    0.000    0.000    0.000 
#
# Total GULP energy -78197.908669 kJ/mol
# GULP energy per Si atom -5585.564905 kJ/mol
# Density = 2.106524 g / cm^3
# Si number density = 21.113297 Si / 1000 Ang^3
#
#
#
# Elastic Constant Matrix: (Units=GPa)
#
#
# Indices 1 2 3 4 5 6 
#
# 1 117.7830 54.3217 40.5786 0.0000 14.6001 0.0000
# 2 54.3217 95.4489 5.3054 0.0000 -8.3455 0.0000
# 3 40.5786 5.3054 146.2139 0.0000 7.3679 0.0000
# 4 0.0000 0.0000 0.0000 30.9598 0.0000 11.1610
# 5 14.6001 -8.3455 7.3679 0.0000 47.2263 0.0000
# 6 0.0000 0.0000 0.0000 11.1610 0.0000 12.3341
#
#
#
# Elastic Compliance Matrix: (Units=1/GPa)
#
#
# Indices 1 2 3 4 5 6 
#
# 1 0.014148 -0.008331 -0.003356 0.000000 -0.005323 0.000000
# 2 -0.008331 0.015581 0.001490 0.000000 0.005096 0.000000
# 3 -0.003356 0.001490 0.007712 0.000000 0.000098 0.000000
# 4 0.000000 0.000000 0.000000 0.047938 0.000000 -0.043378
# 5 -0.005323 0.005096 0.000098 0.000000 0.023705 0.000000
# 6 0.000000 0.000000 0.000000 -0.043378 0.000000 0.120328
#
#
# Mechanical properties :
#
#
# Convention : Reuss Voigt Hill
#
# Bulk Modulus (GPa) = 58.66217 62.20637 60.43427
# Shear Modulus (GPa) = 19.57032 35.38673 27.47852
#
# Velocity S-wave (km/s) = 3.04784 4.09839 3.61152
# Velocity P-wave (km/s) = 6.34275 7.20575 6.78798
#
# Compressibility (1/GPa) = 0.01704676
#
# Stress axis : x y z
#
# Youngs Moduli (GPa) = 70.67902 64.18107 129.67269
#
# Poissons Ratio (x) = 0.53469 0.43520
# Poissons Ratio (y) = 0.58883 -0.19320
# Poissons Ratio (z) = 0.23721 -0.09562
#
# Static dielectric constant tensor:
#      x y z
#    x 1.732980 0.000000 -0.008720 
#    y 0.000000 2.155020 0.000000 
#    z -0.008720 0.000000 1.706580 
# 
# From -- ./inp_files/5959.got.cif
#   From: 2010.05.17/outbox.cif.g08.bks.cpg/sg12_3_cif.got.tgz:5959.got - 2010.06.03 13:09:07.
