data_PCOD9202929
_publ_section_title
;
Structure prediction by ZEFSAII (Michael W. Deem and Ramdas Pophale) SiO2 
 PCOD9202929
Probable space group: C 2/M
;
_chemical_formula_sum "Si O2"
_cell_formula_units_Z 56
_cell_length_a 19.934676
_cell_length_b 14.726256
_cell_length_c 14.604286
_cell_angle_alpha 90.000000
_cell_angle_beta 33.915218
_cell_angle_gamma 90.000000
_cell_volume 2392.154565
_symmetry_space_group_name_H-M "C 2/M"
_symmetry_group_IT_number 12
_symmetry_cell_setting 'monoclinic'
loop_
_space_group_symop_operation_xyz
x,y,z
-x,y,-z
-x,-y,-z
x,-y,z
1/2+x,1/2+y,z
1/2-x,1/2+y,-z
1/2-x,1/2-y,-z
1/2+x,1/2-y,z
loop_
_atom_site_type_symbol
_atom_site_label
_atom_site_fract_x
_atom_site_fract_y
_atom_site_fract_z
Si Si1 0.220195 0.895957 0.486288
Si Si2 0.799328 0.310480 0.081959
Si Si3 0.150649 0.610040 0.482536
Si Si4 0.410940 0.786540 0.767679
Si Si5 0.625233 0.348398 0.903445
Si Si6 0.376553 0.395569 0.595539
Si Si7 0.950907 0.903907 0.820811
O O1 0.312974 0.857216 0.455037
O O2 0.182114 0.854307 0.431112
O O3 0.092543 0.901378 0.683094
O O4 0.260414 0.000000 0.421934
O O5 0.697369 0.232794 0.178431
O O6 0.884651 0.257856 0.055605
O O7 0.727158 0.389211 0.212170
O O8 0.860739 0.334698 0.916737
O O9 0.136476 0.500000 0.499562
O O10 0.260410 0.632950 0.290030
O O11 0.026473 0.661148 0.600217
O O12 0.433139 0.684126 0.779437
O O13 0.500000 0.376173 0.000000
O O14 0.624592 0.398610 0.001747
O O15 0.500000 0.356611 0.500000
O O16 0.403780 0.500000 0.541927
O O17 0.925027 0.000000 0.803157
#
# Coordination Sequence:
#
# PCOD9202929 Si02
#       7
#     8   8   8   8   8   8   8
#     4   9  19  35  59  94 126 159 210 265 322 383
#     4  10  24  43  62  91 131 171 217 272 323 389
#     4  11  24  42  68  97 132 173 215 271 331 390
#     4  10  24  44  63  95 130 170 221 267 330 391
#     4  11  23  40  66  97 130 172 217 267 328 389
#     4  10  21  37  63  95 125 168 218 268 330 387
#     4  10  20  38  64  93 128 167 215 270 323 385
#
# _framework density 23.409859000000001
#
# number of rings (size 3 to 8) (size 9 to 14) (size 15 to 20)
#    0.000    1.857    1.429    1.286    4.000    5.714 
#    0.000    7.143    0.000    3.000    0.000    0.000 
#    0.000    0.000    0.000    0.000    0.000    0.000 
#
# Total GULP energy -156253.390609 kJ/mol
# GULP energy per Si atom -5580.478236 kJ/mol
# Density = 2.335658 g / cm^3
# Si number density = 23.409859 Si / 1000 Ang^3
#
#
#
# Elastic Constant Matrix: (Units=GPa)
#
#
# Indices 1 2 3 4 5 6 
#
# 1 81.1330 17.3673 21.4925 0.0000 6.9216 0.0000
# 2 17.3673 57.8359 23.2258 0.0000 4.2086 0.0000
# 3 21.4925 23.2258 139.3152 0.0000 14.4990 0.0000
# 4 0.0000 0.0000 0.0000 23.9756 0.0000 -5.0824
# 5 6.9216 4.2086 14.4990 0.0000 34.0273 0.0000
# 6 0.0000 0.0000 0.0000 -5.0824 0.0000 11.2533
#
#
#
# Elastic Compliance Matrix: (Units=1/GPa)
#
#
# Indices 1 2 3 4 5 6 
#
# 1 0.013560 -0.003405 -0.001340 0.000000 -0.001766 0.000000
# 2 -0.003405 0.019420 -0.002652 0.000000 -0.000579 0.000000
# 3 -0.001340 -0.002652 0.008125 0.000000 -0.002861 0.000000
# 4 0.000000 0.000000 0.000000 0.046125 0.000000 0.020832
# 5 -0.001766 -0.000579 -0.002861 0.000000 0.031038 0.000000
# 6 0.000000 0.000000 0.000000 0.020832 0.000000 0.098271
#
#
# Mechanical properties :
#
#
# Convention : Reuss Voigt Hill
#
# Bulk Modulus (GPa) = 38.00890 44.71725 41.36308
# Shear Modulus (GPa) = 20.82432 28.26446 24.54439
#
# Velocity S-wave (km/s) = 2.98577 3.47850 3.24151
# Velocity P-wave (km/s) = 5.30641 5.93941 5.63181
#
# Compressibility (1/GPa) = 0.02630963
#
# Stress axis : x y z
#
# Youngs Moduli (GPa) = 73.74581 51.49345 123.08197
#
# Poissons Ratio (x) = 0.17534 0.16499
# Poissons Ratio (y) = 0.25111 0.32641
# Poissons Ratio (z) = 0.09885 0.13656
#
# Static dielectric constant tensor:
#      x y z
#    x 1.942930 0.000000 0.002440 
#    y 0.000000 1.931180 0.000000 
#    z 0.002440 0.000000 1.890770 
# 
# From -- ./inp_files/234668.got.cif
#   From: 2010.05.17/outbox.cif.g08.bks.cpg/sg12_118_cif.got.tgz:234668.got - 2010.06.03 13:09:07.
