data_PCOD9202460
_publ_section_title
;
Structure prediction by ZEFSAII (Michael W. Deem and Ramdas Pophale) SiO2 
 PCOD9202460
Probable space group: C 2/M
;
_chemical_formula_sum "Si O2"
_cell_formula_units_Z 52
_cell_length_a 20.933905
_cell_length_b 25.653878
_cell_length_c 6.122998
_cell_angle_alpha 90.000000
_cell_angle_beta 131.992169
_cell_angle_gamma 90.000000
_cell_volume 2443.961097
_symmetry_space_group_name_H-M "C 2/M"
_symmetry_group_IT_number 12
_symmetry_cell_setting 'monoclinic'
loop_
_space_group_symop_operation_xyz
x,y,z
-x,y,-z
-x,-y,-z
x,-y,z
1/2+x,1/2+y,z
1/2-x,1/2+y,-z
1/2-x,1/2-y,-z
1/2+x,1/2-y,z
loop_
_atom_site_type_symbol
_atom_site_label
_atom_site_fract_x
_atom_site_fract_y
_atom_site_fract_z
Si Si1 0.870573 0.690742 0.389556
Si Si2 0.261324 0.442417 0.311296
Si Si3 0.206318 0.849945 0.276656
Si Si4 0.410219 0.398345 0.365656
Si Si5 0.585070 0.296764 0.331310
Si Si6 0.590659 0.900063 0.820703
Si Si7 0.000000 0.632941 0.000000
O O1 0.782582 0.674802 0.308037
O O2 0.885038 0.752289 0.430840
O O3 0.881223 0.658464 0.190241
O O4 0.947609 0.667512 0.711426
O O5 0.263158 0.500000 0.412913
O O6 0.262909 0.396595 0.494311
O O7 0.343115 0.433739 0.342683
O O8 0.173836 0.434805 0.971784
O O9 0.160338 0.808109 0.328858
O O10 0.137754 0.874502 0.953516
O O11 0.500000 0.423413 0.500000
O O12 0.431494 0.349837 0.574745
O O13 0.500000 0.282346 0.000000
O O14 0.500000 0.914166 0.500000
O O15 0.567666 0.900752 0.021768
#
# Coordination Sequence:
#
# PCOD9202460 Si02
#       7
#     8   8   8   8   8   8   4
#     4  11  21  38  64  95 132 173 214 252 319 397
#     4  11  25  45  69  95 125 172 228 276 338 394
#     4  11  23  43  63  93 132 172 216 278 328 379
#     4  11  24  44  67  95 135 168 220 282 328 385
#     4  11  23  38  64  97 131 175 215 255 321 401
#     4  10  22  40  65  97 134 173 210 267 324 385
#     4  10  20  38  61  90 134 166 209 260 312 378
#
# _framework density 21.276933
#
# number of rings (size 3 to 8) (size 9 to 14) (size 15 to 20)
#    0.000    1.231    5.385    0.462    0.000    4.923 
#    0.000    1.154    0.000    0.000    0.000    0.000 
#    0.000    0.000    0.000    0.000    0.000    0.000 
#
# Total GULP energy -145234.613574 kJ/mol
# GULP energy per Si atom -5585.946676 kJ/mol
# Density = 2.122851 g / cm^3
# Si number density = 21.276933 Si / 1000 Ang^3
#
#
#
# Elastic Constant Matrix: (Units=GPa)
#
#
# Indices 1 2 3 4 5 6 
#
# 1 141.4326 22.4661 24.5283 0.0000 27.7776 0.0000
# 2 22.4661 67.0816 11.8343 0.0000 15.1894 0.0000
# 3 24.5283 11.8343 53.2422 0.0000 13.4258 0.0000
# 4 0.0000 0.0000 0.0000 0.0357 0.0000 0.5444
# 5 27.7776 15.1894 13.4258 0.0000 37.5241 0.0000
# 6 0.0000 0.0000 0.0000 0.5444 0.0000 -19.7373
#
#
#
# Elastic Compliance Matrix: (Units=1/GPa)
#
#
# Indices 1 2 3 4 5 6 
#
# 1 0.008693 -0.001345 -0.002441 0.000000 -0.005017 0.000000
# 2 -0.001345 0.016850 -0.001821 0.000000 -0.005174 0.000000
# 3 -0.002441 -0.001821 0.021620 0.000000 -0.005192 0.000000
# 4 0.000000 0.000000 0.000000 19.716473 0.000000 0.543812
# 5 -0.005017 -0.005174 -0.005192 0.000000 0.034316 0.000000
# 6 0.000000 0.000000 0.000000 0.543812 0.000000 -0.035666
#
#
# Mechanical properties :
#
#
# Convention : Reuss Voigt Hill
#
# Bulk Modulus (GPa) = 27.81594 42.15708 34.98651
# Shear Modulus (GPa) = 0.25271 17.09302 8.67286
#
# Velocity S-wave (km/s) = 0.34501 2.83743 2.02115
# Velocity P-wave (km/s) = 3.64148 5.53093 4.68250
#
# Compressibility (1/GPa) = 0.03595060
#
# Stress axis : x y z
#
# Youngs Moduli (GPa) = 115.03783 59.34583 46.25252
#
# Poissons Ratio (x) = 0.07980 0.11289
# Poissons Ratio (y) = 0.15468 0.08424
# Poissons Ratio (z) = 0.28076 0.10808
#
# Static dielectric constant tensor:
#      x y z
#    x 1.786950 0.000000 0.002880 
#    y 0.000000 1.745870 0.000000 
#    z 0.002880 0.000000 1.790630 
# 
# From -- ./inp_files/22490.got.cif
#   From: 2010.05.17/outbox.cif.g08.bks.cpg/sg12_12_cif.got.tgz:22490.got - 2010.06.03 13:09:07.
