data_PCOD9202810
_publ_section_title
;
Structure prediction by ZEFSAII (Michael W. Deem and Ramdas Pophale) SiO2 
 PCOD9202810
Probable space group: C 2/M
;
_chemical_formula_sum "Si O2"
_cell_formula_units_Z 48
_cell_length_a 9.991792
_cell_length_b 27.897798
_cell_length_c 14.644946
_cell_angle_alpha 90.000000
_cell_angle_beta 35.495935
_cell_angle_gamma 90.000000
_cell_volume 2370.346962
_symmetry_space_group_name_H-M "C 2/M"
_symmetry_group_IT_number 12
_symmetry_cell_setting 'monoclinic'
loop_
_space_group_symop_operation_xyz
x,y,z
-x,y,-z
-x,-y,-z
x,-y,z
1/2+x,1/2+y,z
1/2-x,1/2+y,-z
1/2-x,1/2-y,-z
1/2+x,1/2-y,z
loop_
_atom_site_type_symbol
_atom_site_label
_atom_site_fract_x
_atom_site_fract_y
_atom_site_fract_z
Si Si1 0.724230 0.603441 0.149172
Si Si2 0.386392 0.555276 0.467172
Si Si3 0.062045 0.396623 0.361972
Si Si4 0.524209 0.204387 0.377819
Si Si5 0.987314 0.054836 0.899831
Si Si6 0.004481 0.190609 0.387503
O O1 0.584794 0.562302 0.281470
O O2 0.649309 0.592783 0.086351
O O3 0.625332 0.650373 0.257210
O O4 0.000000 0.601649 0.000000
O O5 0.500000 0.569073 0.500000
O O6 0.315935 0.500000 0.511046
O O7 0.161914 0.586239 0.568055
O O8 0.245027 0.438692 0.271749
O O9 0.000000 0.385671 0.500000
O O10 0.153926 0.344614 0.277272
O O11 0.500000 0.209353 0.500000
O O12 0.610865 0.257148 0.303005
O O13 0.264656 0.195478 0.487453
O O14 0.905694 0.000000 0.931982
O O15 0.000000 0.065587 0.000000
O O16 0.000000 0.181616 0.500000
#
# Coordination Sequence:
#
# PCOD9202810 Si02
#       6
#     8   8   8   8   8   8
#     4  12  25  41  61  90 133 169 206 257 319 376
#     4  11  24  39  61  94 125 162 213 260 310 374
#     4  11  20  39  68  93 120 157 209 270 311 361
#     4   9  18  34  64  94 122 154 204 261 308 366
#     4  11  26  44  63  89 123 168 214 258 320 378
#     4  10  20  38  63  94 123 162 209 251 311 376
#
# _framework density 20.2502
#
# number of rings (size 3 to 8) (size 9 to 14) (size 15 to 20)
#    0.000    1.333    3.333    2.500    2.333    2.000 
#    0.000    0.833    0.000   11.000    0.000    0.000 
#    0.000    0.000    0.000    0.000    0.000    0.000 
#
# Total GULP energy -133662.081398 kJ/mol
# GULP energy per Si atom -5569.253392 kJ/mol
# Density = 2.020411 g / cm^3
# Si number density = 20.250200 Si / 1000 Ang^3
#
#
#
# Elastic Constant Matrix: (Units=GPa)
#
#
# Indices 1 2 3 4 5 6 
#
# 1 155.4316 61.8409 25.9243 0.0000 -2.3243 0.0000
# 2 61.8409 138.3645 14.9355 0.0000 2.0144 0.0000
# 3 25.9243 14.9355 35.1888 0.0000 -5.7593 0.0000
# 4 0.0000 0.0000 0.0000 8.6667 0.0000 6.1826
# 5 -2.3243 2.0144 -5.7593 0.0000 25.0929 0.0000
# 6 0.0000 0.0000 0.0000 6.1826 0.0000 28.5258
#
#
#
# Elastic Compliance Matrix: (Units=1/GPa)
#
#
# Indices 1 2 3 4 5 6 
#
# 1 0.008565 -0.003296 -0.004923 0.000000 -0.000072 0.000000
# 2 -0.003296 0.008890 -0.001571 0.000000 -0.001380 0.000000
# 3 -0.004923 -0.001571 0.033933 0.000000 0.007458 0.000000
# 4 0.000000 0.000000 0.000000 0.136487 0.000000 -0.029582
# 5 -0.000072 -0.001380 0.007458 0.000000 0.041668 0.000000
# 6 0.000000 0.000000 0.000000 -0.029582 0.000000 0.041467
#
#
# Mechanical properties :
#
#
# Convention : Reuss Voigt Hill
#
# Bulk Modulus (GPa) = 31.43856 59.37626 45.40741
# Shear Modulus (GPa) = 16.60073 27.54268 22.07170
#
# Velocity S-wave (km/s) = 2.86629 3.69198 3.30502
# Velocity P-wave (km/s) = 5.14907 6.89632 6.08573
#
# Compressibility (1/GPa) = 0.03180807
#
# Stress axis : x y z
#
# Youngs Moduli (GPa) = 116.75546 112.48731 29.47025
#
# Poissons Ratio (x) = 0.37071 0.14508
# Poissons Ratio (y) = 0.38478 0.04630
# Poissons Ratio (z) = 0.57478 0.17673
#
# Static dielectric constant tensor:
#      x y z
#    x 1.764690 0.000000 0.020870 
#    y 0.000000 1.813460 0.000000 
#    z 0.020870 0.000000 1.688840 
# 
# From -- ./inp_files/200769.got.cif
#   From: 2010.05.17/outbox.cif.g08.bks.cpg/sg12_101_cif.got.tgz:200769.got - 2010.06.03 13:09:07.
