data_PCOD9202391
_publ_section_title
;
Structure prediction by ZEFSAII (Michael W. Deem and Ramdas Pophale) SiO2 
 PCOD9202391
Probable space group: C 2/M
;
_chemical_formula_sum "Si O2"
_cell_formula_units_Z 58
_cell_length_a 17.750099
_cell_length_b 13.963565
_cell_length_c 25.195717
_cell_angle_alpha 90.000000
_cell_angle_beta 31.049748
_cell_angle_gamma 90.000000
_cell_volume 3220.995394
_symmetry_space_group_name_H-M "C 2/M"
_symmetry_group_IT_number 12
_symmetry_cell_setting 'monoclinic'
loop_
_space_group_symop_operation_xyz
x,y,z
-x,y,-z
-x,-y,-z
x,-y,z
1/2+x,1/2+y,z
1/2-x,1/2+y,-z
1/2-x,1/2-y,-z
1/2+x,1/2-y,z
loop_
_atom_site_type_symbol
_atom_site_label
_atom_site_fract_x
_atom_site_fract_y
_atom_site_fract_z
Si Si1 0.353661 0.767239 0.059831
Si Si2 0.853663 0.802522 0.613565
Si Si3 0.168340 0.233578 0.630481
Si Si4 0.204683 0.321438 0.252319
Si Si5 0.401041 0.611740 0.829751
Si Si6 0.617007 0.888779 0.570951
Si Si7 0.500000 0.500000 0.500000
Si Si8 0.484133 0.391766 0.903064
O O1 0.257429 0.717366 0.163759
O O2 0.256779 0.846090 0.089150
O O3 0.500000 0.805627 0.000000
O O4 0.406161 0.686237 0.986937
O O5 0.723226 0.770815 0.654086
O O6 0.829102 0.766133 0.687495
O O7 0.000000 0.755084 0.500000
O O8 0.889032 0.914523 0.587923
O O9 0.288058 0.163295 0.531842
O O10 0.148878 0.325049 0.603943
O O11 0.020419 0.174187 0.726392
O O12 0.341876 0.377704 0.194471
O O13 0.055029 0.379748 0.337368
O O14 0.412271 0.500000 0.808918
O O15 0.437435 0.620916 0.870255
O O16 0.658108 0.000000 0.552396
O O17 0.445569 0.500000 0.942881
#
# Coordination Sequence:
#
# PCOD9202391 Si02
#       8
#     8   8   8   8   8   8   2   8
#     4  10  23  41  62  86 122 152 198 258 311 358
#     4  10  20  38  61  85 127 163 207 242 289 355
#     4  11  22  40  57  88 126 159 198 251 296 356
#     4  11  20  39  60  90 123 158 193 247 300 358
#     4  11  22  41  64  88 116 158 205 245 311 371
#     4  11  23  36  59  89 124 158 198 241 298 360
#     4   8  20  36  60  88 120 172 214 234 288 348
#     4  10  22  39  67  89 116 155 199 255 311 364
#
# _framework density 18.006855000000002
#
# number of rings (size 3 to 8) (size 9 to 14) (size 15 to 20)
#    0.414    1.103    4.138    1.241    0.966    3.310 
#    1.241    0.690    1.517    0.000    0.000    0.000 
#    0.000    0.000    0.000    0.000    0.000    0.000 
#
# Total GULP energy -161521.958543 kJ/mol
# GULP energy per Si atom -5569.722708 kJ/mol
# Density = 1.796587 g / cm^3
# Si number density = 18.006855 Si / 1000 Ang^3
#
#
#
# Elastic Constant Matrix: (Units=GPa)
#
#
# Indices 1 2 3 4 5 6 
#
# 1 54.8078 34.6337 14.7783 0.0000 -14.5203 0.0000
# 2 34.6337 127.2803 34.2069 0.0004 -3.7379 0.0000
# 3 14.7783 34.2069 76.1059 0.0006 -7.2473 -0.0001
# 4 0.0000 0.0004 0.0006 20.2313 0.0001 -0.4977
# 5 -14.5203 -3.7379 -7.2473 0.0001 27.6835 0.0000
# 6 0.0000 0.0000 -0.0001 -0.4977 0.0000 13.6963
#
#
#
# Elastic Compliance Matrix: (Units=1/GPa)
#
#
# Indices 1 2 3 4 5 6 
#
# 1 0.025852 -0.006413 -0.000953 0.000000 0.012444 0.000000
# 2 -0.006413 0.010528 -0.003765 0.000000 -0.002928 0.000000
# 3 -0.000953 -0.003765 0.015302 0.000000 0.002998 0.000000
# 4 0.000000 0.000000 0.000000 0.049473 0.000000 0.001798
# 5 0.012444 -0.002928 0.002998 0.000000 0.043039 0.000000
# 6 0.000000 0.000000 0.000000 0.001798 0.000000 0.073078
#
#
# Mechanical properties :
#
#
# Convention : Reuss Voigt Hill
#
# Bulk Modulus (GPa) = 33.99029 47.27020 40.63025
# Shear Modulus (GPa) = 20.05298 23.96056 22.00677
#
# Velocity S-wave (km/s) = 3.34073 3.65175 3.49969
# Velocity P-wave (km/s) = 5.81360 6.63992 6.24045
#
# Compressibility (1/GPa) = 0.02942016
#
# Stress axis : x y z
#
# Youngs Moduli (GPa) = 38.68217 94.98806 65.34916
#
# Poissons Ratio (x) = 0.60915 0.06225
# Poissons Ratio (y) = 0.24807 0.24606
# Poissons Ratio (z) = 0.03684 0.35766
#
# Static dielectric constant tensor:
#      x y z
#    x 1.622650 0.000000 -0.014030 
#    y 0.000000 1.577980 0.000000 
#    z -0.014030 0.000000 1.617280 
# 
# From -- ./inp_files/363775.got.cif
#   From: 2010.05.17/outbox.cif.g08.bks.cpg/sg12_182_cif.got.tgz:363775.got - 2010.06.03 13:09:07.
