data_PCOD9202798
_publ_section_title
;
Structure prediction by ZEFSAII (Michael W. Deem and Ramdas Pophale) SiO2 
 PCOD9202798
Probable space group: C 2/M
;
_chemical_formula_sum "Si O2"
_cell_formula_units_Z 52
_cell_length_a 9.300316
_cell_length_b 29.700648
_cell_length_c 12.902414
_cell_angle_alpha 90.000000
_cell_angle_beta 35.264917
_cell_angle_gamma 90.000000
_cell_volume 2057.688488
_symmetry_space_group_name_H-M "C 2/M"
_symmetry_group_IT_number 12
_symmetry_cell_setting 'monoclinic'
loop_
_space_group_symop_operation_xyz
x,y,z
-x,y,-z
-x,-y,-z
x,-y,z
1/2+x,1/2+y,z
1/2-x,1/2+y,-z
1/2-x,1/2-y,-z
1/2+x,1/2-y,z
loop_
_atom_site_type_symbol
_atom_site_label
_atom_site_fract_x
_atom_site_fract_y
_atom_site_fract_z
Si Si1 0.591040 0.500000 0.651677
Si Si2 0.866693 0.842681 0.359050
Si Si3 0.666473 0.586550 0.299656
Si Si4 0.274868 0.425825 0.277069
Si Si5 0.727838 0.742189 0.713412
Si Si6 0.560582 0.186943 0.226760
Si Si7 0.178724 0.410015 0.109927
O O1 0.423314 0.540090 0.696737
O O2 0.753758 0.461147 0.616175
O O3 0.906135 0.795754 0.278198
O O4 0.666838 0.832067 0.567446
O O5 0.098644 0.870463 0.268451
O O6 0.757000 0.876454 0.337243
O O7 0.500000 0.593210 0.500000
O O8 0.950958 0.583076 0.167394
O O9 0.129949 0.428505 0.254224
O O10 0.566831 0.432258 0.075583
O O11 0.564762 0.786583 0.794577
O O12 0.000000 0.750084 0.500000
O O13 0.784375 0.720719 0.791456
O O14 0.714532 0.143559 0.101583
#
# Coordination Sequence:
#
# PCOD9202798 Si02
#       7
#     4   8   8   8   8   8   8
#     4  10  25  46  67  97 131 162 215 269 325 388
#     4  10  20  38  63  92 132 164 214 261 323 369
#     4  11  23  39  68  99 132 162 212 275 322 379
#     4  10  24  46  66  91 128 177 214 258 324 396
#     4  10  21  34  60  97 129 168 216 270 311 371
#     4  11  22  37  64  96 130 169 221 269 311 377
#     4  11  24  41  69  92 129 176 213 261 325 383
#
# _framework density 25.271076000000001
#
# number of rings (size 3 to 8) (size 9 to 14) (size 15 to 20)
#    0.000    1.538    3.077    2.077    4.308    5.538 
#    0.000    1.538    0.000    0.000    0.000    0.000 
#    0.000    0.000    0.000    0.000    0.000    0.000 
#
# Total GULP energy -145169.648078 kJ/mol
# GULP energy per Si atom -5583.448003 kJ/mol
# Density = 2.521356 g / cm^3
# Si number density = 25.271076 Si / 1000 Ang^3
#
#
#
# Elastic Constant Matrix: (Units=GPa)
#
#
# Indices 1 2 3 4 5 6 
#
# 1 182.4276 32.9151 32.4537 0.0000 -33.6245 0.0000
# 2 32.9151 58.6398 1.5766 0.0000 0.5585 0.0000
# 3 32.4537 1.5766 71.8421 0.0000 -13.0385 0.0000
# 4 0.0000 0.0000 0.0000 46.5001 0.0000 17.8471
# 5 -33.6245 0.5585 -13.0385 0.0000 30.0156 0.0000
# 6 0.0000 0.0000 0.0000 17.8471 0.0000 -8.3229
#
#
#
# Elastic Compliance Matrix: (Units=1/GPa)
#
#
# Indices 1 2 3 4 5 6 
#
# 1 0.008244 -0.004651 -0.002095 0.000000 0.008411 0.000000
# 2 -0.004651 0.019695 0.000713 0.000000 -0.005267 0.000000
# 3 -0.002095 0.000713 0.015656 0.000000 0.004440 0.000000
# 4 0.000000 0.000000 0.000000 0.011797 0.000000 0.025296
# 5 0.008411 -0.005267 0.004440 0.000000 0.044766 0.000000
# 6 0.000000 0.000000 0.000000 0.025296 0.000000 -0.065907
#
#
# Mechanical properties :
#
#
# Convention : Reuss Voigt Hill
#
# Bulk Modulus (GPa) = 31.71797 49.64448 40.68123
# Shear Modulus (GPa) = 87.98671 30.03615 59.01143
#
# Velocity S-wave (km/s) = 5.90701 3.45129 4.83757
# Velocity P-wave (km/s) = 7.68778 5.96400 6.88009
#
# Compressibility (1/GPa) = 0.03152787
#
# Stress axis : x y z
#
# Youngs Moduli (GPa) = 121.30039 50.77426 63.87236
#
# Poissons Ratio (x) = 0.23616 0.13384
# Poissons Ratio (y) = 0.56419 -0.04554
# Poissons Ratio (z) = 0.25418 -0.03620
#
# Static dielectric constant tensor:
#      x y z
#    x 2.006270 0.000000 0.025750 
#    y 0.000000 1.935160 0.000000 
#    z 0.025750 0.000000 2.097920 
# 
# From -- ./inp_files/201178.got.cif
#   From: 2010.05.17/outbox.cif.g08.bks.cpg/sg12_101_cif.got.tgz:201178.got - 2010.06.03 13:09:07.
