data_PCOD9202398
_publ_section_title
;
Structure prediction by ZEFSAII (Michael W. Deem and Ramdas Pophale) SiO2 
 PCOD9202398
Probable space group: C 2/M
;
_chemical_formula_sum "Si O2"
_cell_formula_units_Z 36
_cell_length_a 9.266514
_cell_length_b 15.493850
_cell_length_c 20.527380
_cell_angle_alpha 90.000000
_cell_angle_beta 142.718219
_cell_angle_gamma 90.000000
_cell_volume 1785.221989
_symmetry_space_group_name_H-M "C 2/M"
_symmetry_group_IT_number 12
_symmetry_cell_setting 'monoclinic'
loop_
_space_group_symop_operation_xyz
x,y,z
-x,y,-z
-x,-y,-z
x,-y,z
1/2+x,1/2+y,z
1/2-x,1/2+y,-z
1/2-x,1/2-y,-z
1/2+x,1/2-y,z
loop_
_atom_site_type_symbol
_atom_site_label
_atom_site_fract_x
_atom_site_fract_y
_atom_site_fract_z
Si Si1 0.236169 0.831447 0.541759
Si Si2 0.737521 0.500000 0.216905
Si Si3 0.240940 0.314180 0.793099
Si Si4 0.394602 0.000000 0.534251
Si Si5 0.211958 0.500000 0.908666
Si Si6 0.124965 0.691579 0.899876
O O1 0.250000 0.750000 0.500000
O O2 0.472828 0.828825 0.671830
O O3 0.000000 0.830956 0.500000
O O4 0.247323 0.915484 0.500061
O O5 0.621096 0.404771 0.172361
O O6 0.884143 0.500000 0.200797
O O7 0.887357 0.500000 0.336362
O O8 0.241966 0.299018 0.870742
O O9 0.362906 0.233239 0.802486
O O10 0.500000 0.000000 0.500000
O O11 0.134236 0.588695 0.914666
O O12 0.500000 0.500000 0.000000
O O13 0.250000 0.750000 0.000000
#
# Coordination Sequence:
#
# PCOD9202398 Si02
#       6
#     8   4   8   4   4   8
#     4  11  22  39  61  87 121 165 208 253 305 364
#     4   8  18  37  58  78 112 157 191 232 291 352
#     4  10  21  38  59  85 116 153 199 245 293 353
#     4  10  21  37  60  90 122 156 203 261 312 358
#     4  10  20  38  61  86 117 157 194 233 293 364
#     4  11  21  37  61  88 116 152 193 241 295 355
#
# _framework density 20.165558999999998
#
# number of rings (size 3 to 8) (size 9 to 14) (size 15 to 20)
#    0.000    1.778    0.000    5.667    0.000    1.778 
#    0.000    6.667    0.000    0.000    0.000    0.000 
#    0.000    0.000    0.000    0.000    0.000    0.000 
#
# Total GULP energy -100397.191198 kJ/mol
# GULP energy per Si atom -5577.621733 kJ/mol
# Density = 2.011966 g / cm^3
# Si number density = 20.165559 Si / 1000 Ang^3
#
#
#
# Elastic Constant Matrix: (Units=GPa)
#
#
# Indices 1 2 3 4 5 6 
#
# 1 128.1718 90.0279 38.6963 0.0000 -2.8041 0.0000
# 2 90.0279 230.0287 37.5462 0.0000 1.6895 0.0000
# 3 38.6963 37.5462 82.3996 0.0003 -7.7835 0.0001
# 4 0.0000 0.0000 0.0003 29.9927 0.0000 -5.0552
# 5 -2.8041 1.6895 -7.7835 0.0000 41.9295 0.0000
# 6 0.0000 0.0000 0.0001 -5.0552 0.0000 40.9529
#
#
#
# Elastic Compliance Matrix: (Units=1/GPa)
#
#
# Indices 1 2 3 4 5 6 
#
# 1 0.011715 -0.003990 -0.003658 0.000000 0.000265 0.000000
# 2 -0.003990 0.006070 -0.000957 0.000000 -0.000689 0.000000
# 3 -0.003658 -0.000957 0.014526 0.000000 0.002490 0.000000
# 4 0.000000 0.000000 0.000000 0.034050 0.000000 0.004203
# 5 0.000265 -0.000689 0.002490 0.000000 0.024357 0.000000
# 6 0.000000 0.000000 0.000000 0.004203 0.000000 0.024937
#
#
# Mechanical properties :
#
#
# Convention : Reuss Voigt Hill
#
# Bulk Modulus (GPa) = 66.22816 85.90456 76.06636
# Shear Modulus (GPa) = 36.25851 40.86366 38.56109
#
# Velocity S-wave (km/s) = 4.24493 4.50645 4.37764
# Velocity P-wave (km/s) = 7.54582 8.35282 7.95955
#
# Compressibility (1/GPa) = 0.01509932
#
# Stress axis : x y z
#
# Youngs Moduli (GPa) = 85.36295 164.74267 68.84433
#
# Poissons Ratio (x) = 0.65727 0.25186
# Poissons Ratio (y) = 0.34057 0.06591
# Poissons Ratio (z) = 0.31230 0.15772
#
# Static dielectric constant tensor:
#      x y z
#    x 1.667400 0.000000 0.024760 
#    y 0.000000 1.746710 0.000000 
#    z 0.024760 0.000000 1.823570 
# 
# From -- ./inp_files/194206.got.cif
#   From: 2010.05.17/outbox.cif.g08.bks.cpg/sg12_98_cif.got.tgz:194206.got - 2010.06.03 13:09:07.
