data_PCOD9202009
_publ_section_title
;
Structure prediction by ZEFSAII (Michael W. Deem and Ramdas Pophale) SiO2 
 PCOD9202009
Probable space group: C 2/M
;
_chemical_formula_sum "Si O2"
_cell_formula_units_Z 40
_cell_length_a 26.227896
_cell_length_b 8.183254
_cell_length_c 27.526907
_cell_angle_alpha 90.000000
_cell_angle_beta 20.789239
_cell_angle_gamma 90.000000
_cell_volume 2096.965571
_symmetry_space_group_name_H-M "C 2/M"
_symmetry_group_IT_number 12
_symmetry_cell_setting 'monoclinic'
loop_
_space_group_symop_operation_xyz
x,y,z
-x,y,-z
-x,-y,-z
x,-y,z
1/2+x,1/2+y,z
1/2-x,1/2+y,-z
1/2-x,1/2-y,-z
1/2+x,1/2-y,z
loop_
_atom_site_type_symbol
_atom_site_label
_atom_site_fract_x
_atom_site_fract_y
_atom_site_fract_z
Si Si1 0.672260 0.678247 0.681859
Si Si2 0.388068 0.500000 0.171617
Si Si3 0.717550 0.500000 0.842690
Si Si4 0.368524 0.187795 0.931645
Si Si5 0.331958 0.694474 0.797774
Si Si6 0.636221 0.316228 0.562569
O O1 0.724583 0.500000 0.617815
O O2 0.652820 0.652971 0.756912
O O3 0.514992 0.711913 0.800766
O O4 0.783709 0.804280 0.560744
O O5 0.305848 0.500000 0.194251
O O6 0.557685 0.500000 0.009141
O O7 0.795385 0.332815 0.790634
O O8 0.403963 0.000000 0.889214
O O9 0.250000 0.250000 0.000000
O O10 0.296466 0.196992 0.048806
O O11 0.348661 0.500000 0.767889
O O12 0.477224 0.752969 0.695987
O O13 0.608846 0.500000 0.602076
O O14 0.750000 0.250000 0.500000
#
# Coordination Sequence:
#
# PCOD9202009 Si02
#       6
#     8   4   4   8   8   8
#     4  10  20  38  56  85 120 151 200 250 299 366
#     4   9  22  39  67  95 115 157 213 263 312 371
#     4  11  20  43  71  89 121 165 207 265 332 339
#     4  11  21  34  56  84 118 159 200 251 306 365
#     4  10  23  39  58  91 122 157 208 257 302 375
#     4  11  23  38  58  88 125 168 203 243 304 370
#
# _framework density 19.075182000000002
#
# number of rings (size 3 to 8) (size 9 to 14) (size 15 to 20)
#    0.600    1.000    2.000    3.000    4.200    1.600 
#    0.000    6.000    0.000    2.400    0.000    0.000 
#    0.000    0.000    0.000    0.000    0.000    0.000 
#
# Total GULP energy -111425.918032 kJ/mol
# GULP energy per Si atom -5571.295902 kJ/mol
# Density = 1.903177 g / cm^3
# Si number density = 19.075182 Si / 1000 Ang^3
#
#
#
# Elastic Constant Matrix: (Units=GPa)
#
#
# Indices 1 2 3 4 5 6 
#
# 1 86.6016 40.9482 -0.9301 -0.0048 -7.5931 -0.0013
# 2 40.9482 71.4990 -0.8646 -0.0126 -15.0716 0.0004
# 3 -0.9301 -0.8646 54.2208 -0.0127 -5.8417 0.0004
# 4 -0.0048 -0.0126 -0.0127 25.9652 0.0018 -0.6568
# 5 -7.5931 -15.0716 -5.8417 0.0018 29.2870 0.0011
# 6 -0.0013 0.0004 0.0004 -0.6568 0.0011 25.3867
#
#
#
# Elastic Compliance Matrix: (Units=1/GPa)
#
#
# Indices 1 2 3 4 5 6 
#
# 1 0.015846 -0.009204 0.000059 -0.000001 -0.000617 0.000001
# 2 -0.009204 0.021104 0.001116 0.000008 0.008697 -0.000001
# 3 0.000059 0.001116 0.018932 0.000009 0.004366 0.000000
# 4 -0.000001 0.000008 0.000009 0.038538 0.000003 0.000997
# 5 -0.000617 0.008697 0.004366 0.000003 0.039331 -0.000002
# 6 0.000001 -0.000001 0.000000 0.000997 -0.000002 0.039417
#
#
# Mechanical properties :
#
#
# Convention : Reuss Voigt Hill
#
# Bulk Modulus (GPa) = 25.11163 32.29204 28.70184
# Shear Modulus (GPa) = 24.69101 27.67231 26.18166
#
# Velocity S-wave (km/s) = 3.60169 3.81293 3.70881
# Velocity P-wave (km/s) = 5.52171 6.02911 5.78098
#
# Compressibility (1/GPa) = 0.03982219
#
# Stress axis : x y z
#
# Youngs Moduli (GPa) = 63.10818 47.38357 52.81990
#
# Poissons Ratio (x) = 0.43613 -0.00309
# Poissons Ratio (y) = 0.58087 -0.05893
# Poissons Ratio (z) = -0.00370 -0.05286
#
# Static dielectric constant tensor:
#      x y z
#    x 1.665020 0.000000 0.008970 
#    y 0.000000 1.681360 0.000000 
#    z 0.008970 0.000000 1.668360 
# 
# From -- ./inp_files/383525.got.cif
#   From: 2010.05.17/outbox.cif.g08.bks.cpg/sg12_192_cif.got.tgz:383525.got - 2010.06.03 13:09:07.
