data_PCOD9202238
_publ_section_title
;
Structure prediction by ZEFSAII (Michael W. Deem and Ramdas Pophale) SiO2 
 PCOD9202238
Probable space group: C 2/M
;
_chemical_formula_sum "Si O2"
_cell_formula_units_Z 48
_cell_length_a 20.606747
_cell_length_b 8.740540
_cell_length_c 27.546660
_cell_angle_alpha 90.000000
_cell_angle_beta 147.053108
_cell_angle_gamma 90.000000
_cell_volume 2698.391202
_symmetry_space_group_name_H-M "C 2/M"
_symmetry_group_IT_number 12
_symmetry_cell_setting 'monoclinic'
loop_
_space_group_symop_operation_xyz
x,y,z
-x,y,-z
-x,-y,-z
x,-y,z
1/2+x,1/2+y,z
1/2-x,1/2+y,-z
1/2-x,1/2-y,-z
1/2+x,1/2-y,z
loop_
_atom_site_type_symbol
_atom_site_label
_atom_site_fract_x
_atom_site_fract_y
_atom_site_fract_z
Si Si1 0.888211 0.683915 0.225944
Si Si2 0.744945 0.817880 0.050516
Si Si3 0.462531 0.815299 0.421837
Si Si4 0.378981 0.183268 0.570151
Si Si5 0.505901 0.318481 0.945672
Si Si6 0.246816 0.682714 0.228738
O O1 0.876269 0.500000 0.218840
O O2 0.848726 0.749659 0.149763
O O3 0.800808 0.751838 0.212251
O O4 0.021663 0.724651 0.327090
O O5 0.753430 0.000000 0.054662
O O6 0.750000 0.750000 0.000000
O O7 0.620573 0.765985 0.996514
O O8 0.500000 0.777166 0.500000
O O9 0.563031 0.770627 0.445212
O O10 0.340046 0.737220 0.328110
O O11 0.447751 0.000000 0.409091
O O12 0.250000 0.250000 0.500000
O O13 0.369793 0.000000 0.563965
O O14 0.516287 0.500000 0.943349
O O15 0.383800 0.253581 0.846870
O O16 0.500000 0.294750 0.000000
O O17 0.240711 0.500000 0.222667
#
# Coordination Sequence:
#
# PCOD9202238 Si02
#       6
#     8   8   8   8   8   8
#     4  10  20  38  60  83 114 155 196 237 286 345
#     4  12  25  41  61  87 120 155 193 240 293 348
#     4   9  19  38  60  81 112 152 191 236 288 345
#     4   9  19  35  58  84 110 145 187 234 284 338
#     4  11  22  38  63  88 116 154 195 240 286 344
#     4  11  21  34  58  90 118 149 192 243 290 343
#
# _framework density 17.788377000000001
#
# number of rings (size 3 to 8) (size 9 to 14) (size 15 to 20)
#    0.000    1.667    1.667    5.000    0.000    4.333 
#    3.000    0.000    0.000    0.000    0.000    0.000 
#    0.000    0.000    0.000    0.000    0.000    0.000 
#
# Total GULP energy -134071.487866 kJ/mol
# GULP energy per Si atom -5586.311994 kJ/mol
# Density = 1.774789 g / cm^3
# Si number density = 17.788377 Si / 1000 Ang^3
#
#
#
# Elastic Constant Matrix: (Units=GPa)
#
#
# Indices 1 2 3 4 5 6 
#
# 1 76.0719 41.7756 76.9705 0.0000 -8.5375 0.0000
# 2 41.7756 85.5142 55.2737 0.0000 -9.6216 0.0001
# 3 76.9705 55.2737 156.1853 0.0000 -7.1458 0.0000
# 4 0.0000 0.0000 0.0000 34.1518 0.0000 4.7377
# 5 -8.5375 -9.6216 -7.1458 0.0000 37.7232 0.0000
# 6 0.0000 0.0001 0.0000 4.7377 0.0000 28.9399
#
#
#
# Elastic Compliance Matrix: (Units=1/GPa)
#
#
# Indices 1 2 3 4 5 6 
#
# 1 0.028893 -0.006075 -0.011964 0.000000 0.002723 0.000000
# 2 -0.006075 0.016755 -0.002828 0.000000 0.002363 0.000000
# 3 -0.011964 -0.002828 0.013258 0.000000 -0.000918 0.000000
# 4 0.000000 0.000000 0.000000 0.029961 0.000000 -0.004905
# 5 0.002723 0.002363 -0.000918 0.000000 0.027554 0.000000
# 6 0.000000 0.000000 0.000000 -0.004905 0.000000 0.035357
#
#
# Mechanical properties :
#
#
# Convention : Reuss Voigt Hill
#
# Bulk Modulus (GPa) = 58.23541 73.97900 66.10721
# Shear Modulus (GPa) = 25.09577 29.74644 27.42110
#
# Velocity S-wave (km/s) = 3.76013 4.09374 3.93048
# Velocity P-wave (km/s) = 7.18752 8.00148 7.60539
#
# Compressibility (1/GPa) = 0.01717168
#
# Stress axis : x y z
#
# Youngs Moduli (GPa) = 34.61057 59.68232 75.42854
#
# Poissons Ratio (x) = 0.36258 0.90245
# Poissons Ratio (y) = 0.21026 0.21329
# Poissons Ratio (z) = 0.41409 0.16876
#
# Static dielectric constant tensor:
#      x y z
#    x 1.591650 0.000000 -0.004540 
#    y 0.000000 1.592910 0.000000 
#    z -0.004540 0.000000 1.605050 
# 
# From -- ./inp_files/365568.got.cif
#   From: 2010.05.17/outbox.cif.g08.bks.cpg/sg12_183_cif.got.tgz:365568.got - 2010.06.03 13:09:07.
