data_PCOD9202172
_publ_section_title
;
Structure prediction by ZEFSAII (Michael W. Deem and Ramdas Pophale) SiO2 
 PCOD9202172
Probable space group: C 2/M
;
_chemical_formula_sum "Si O2"
_cell_formula_units_Z 58
_cell_length_a 30.423710
_cell_length_b 7.360192
_cell_length_c 11.563623
_cell_angle_alpha 90.000000
_cell_angle_beta 92.690099
_cell_angle_gamma 90.000000
_cell_volume 2586.523236
_symmetry_space_group_name_H-M "C 2/M"
_symmetry_group_IT_number 12
_symmetry_cell_setting 'monoclinic'
loop_
_space_group_symop_operation_xyz
x,y,z
-x,y,-z
-x,-y,-z
x,-y,z
1/2+x,1/2+y,z
1/2-x,1/2+y,-z
1/2-x,1/2-y,-z
1/2+x,1/2-y,z
loop_
_atom_site_type_symbol
_atom_site_label
_atom_site_fract_x
_atom_site_fract_y
_atom_site_fract_z
Si Si1 0.445412 0.723369 0.331479
Si Si2 0.167180 0.717571 0.309580
Si Si3 0.734858 0.295020 0.654738
Si Si4 0.131969 0.719590 0.057490
Si Si5 0.000000 0.500000 0.500000
Si Si6 0.144082 0.214636 0.554119
Si Si7 0.210379 0.715313 0.907114
Si Si8 0.540026 0.711473 0.931606
O O1 0.449866 0.500000 0.343695
O O2 0.479165 0.839226 0.411932
O O3 0.396671 0.774953 0.373265
O O4 0.450812 0.776726 0.197422
O O5 0.171420 0.500000 0.298168
O O6 0.216493 0.789479 0.340906
O O7 0.147685 0.783858 0.185752
O O8 0.137072 0.755036 0.416910
O O9 0.739620 0.500000 0.608055
O O10 0.692349 0.207200 0.589620
O O11 0.721488 0.303170 0.787140
O O12 0.133730 0.500000 0.059644
O O13 0.166309 0.781018 0.963995
O O14 0.083606 0.773940 0.014040
O O15 0.147625 0.000000 0.575817
O O16 0.206696 0.500000 0.886388
O O17 0.250000 0.750000 0.000000
O O18 0.529289 0.500000 0.912784
O O19 0.500000 0.793815 0.000000
#
# Coordination Sequence:
#
# PCOD9202172 Si02
#       8
#     8   8   8   8   2   8   8   8
#     4  10  24  47  70 103 138 167 225 283 329 410
#     4  10  21  37  57  88 132 171 217 270 314 385
#     4  10  20  38  59  85 126 171 212 264 327 376
#     4  10  22  39  59  90 129 167 211 269 325 384
#     4  12  26  44  78 102 128 184 218 270 356 398
#     4  10  22  39  62  89 126 173 215 268 325 384
#     4  11  21  35  57  85 120 161 208 258 313 381
#     4  10  23  45  71  98 130 168 211 270 343 403
#
# _framework density 22.423924
#
# number of rings (size 3 to 8) (size 9 to 14) (size 15 to 20)
#    0.000    1.793    1.379    1.862    1.931    5.241 
#    2.483    2.759    0.000    0.000    0.000    0.000 
#    0.000    0.000    0.000    0.000    0.000    0.000 
#
# Total GULP energy -161760.636894 kJ/mol
# GULP energy per Si atom -5577.952996 kJ/mol
# Density = 2.237289 g / cm^3
# Si number density = 22.423924 Si / 1000 Ang^3
#
#
#
# Elastic Constant Matrix: (Units=GPa)
#
#
# Indices 1 2 3 4 5 6 
#
# 1 129.3409 12.9105 88.5156 0.0000 -20.0142 0.0000
# 2 12.9105 102.7315 12.7981 0.0000 1.7524 0.0000
# 3 88.5156 12.7981 174.7395 0.0000 -16.3118 0.0000
# 4 0.0000 0.0000 0.0000 -9.7202 0.0000 -31.8147
# 5 -20.0142 1.7524 -16.3118 0.0000 38.8803 0.0000
# 6 0.0000 0.0000 0.0000 -31.8147 0.0000 -31.1013
#
#
#
# Elastic Compliance Matrix: (Units=1/GPa)
#
#
# Indices 1 2 3 4 5 6 
#
# 1 0.012457 -0.000902 -0.005872 0.000000 0.003990 0.000000
# 2 -0.000902 0.009912 -0.000368 0.000000 -0.001066 0.000000
# 3 -0.005872 -0.000368 0.008788 0.000000 0.000681 0.000000
# 4 0.000000 0.000000 0.000000 0.043813 0.000000 -0.044818
# 5 0.003990 -0.001066 0.000681 0.000000 0.028107 0.000000
# 6 0.000000 0.000000 0.000000 -0.044818 0.000000 0.013693
#
#
# Mechanical properties :
#
#
# Convention : Reuss Voigt Hill
#
# Bulk Modulus (GPa) = 59.27015 70.58449 64.92732
# Shear Modulus (GPa) = 36.58216 19.11762 27.84989
#
# Velocity S-wave (km/s) = 4.04343 2.92302 3.52799
# Velocity P-wave (km/s) = 6.94897 6.55269 6.75373
#
# Compressibility (1/GPa) = 0.01687190
#
# Stress axis : x y z
#
# Youngs Moduli (GPa) = 80.27353 100.89231 113.79433
#
# Poissons Ratio (x) = 0.09102 0.66819
# Poissons Ratio (y) = 0.07242 0.04193
# Poissons Ratio (z) = 0.47136 0.03717
#
# Static dielectric constant tensor:
#      x y z
#    x 1.818350 0.000000 -0.017760 
#    y 0.000000 1.829920 0.000000 
#    z -0.017760 0.000000 1.802560 
# 
# From -- ./inp_files/180922.got.cif
#   From: 2010.05.17/outbox.cif.g08.bks.cpg/sg12_91_cif.got.tgz:180922.got - 2010.06.03 13:09:07.
