data_PCOD9202947
_publ_section_title
;
Structure prediction by ZEFSAII (Michael W. Deem and Ramdas Pophale) SiO2 
 PCOD9202947
Probable space group: C 2/M
;
_chemical_formula_sum "Si O2"
_cell_formula_units_Z 56
_cell_length_a 22.790226
_cell_length_b 14.821560
_cell_length_c 8.337498
_cell_angle_alpha 90.000000
_cell_angle_beta 58.897954
_cell_angle_gamma 90.000000
_cell_volume 2411.449577
_symmetry_space_group_name_H-M "C 2/M"
_symmetry_group_IT_number 12
_symmetry_cell_setting 'monoclinic'
loop_
_space_group_symop_operation_xyz
x,y,z
-x,y,-z
-x,-y,-z
x,-y,z
1/2+x,1/2+y,z
1/2-x,1/2+y,-z
1/2-x,1/2-y,-z
1/2+x,1/2-y,z
loop_
_atom_site_type_symbol
_atom_site_label
_atom_site_fract_x
_atom_site_fract_y
_atom_site_fract_z
Si Si1 0.968706 0.599372 0.805281
Si Si2 0.866847 0.100671 0.921037
Si Si3 0.480650 0.396394 0.217091
Si Si4 0.765392 0.896450 0.763507
Si Si5 0.140010 0.284642 0.898269
Si Si6 0.608611 0.900528 0.426481
Si Si7 0.355141 0.266757 0.461742
O O1 0.956324 0.500000 0.895400
O O2 0.929135 0.601740 0.690918
O O3 0.048008 0.606098 0.645344
O O4 0.935490 0.678184 0.955302
O O5 0.948828 0.109440 0.782036
O O6 0.821633 0.107901 0.825648
O O7 0.855989 0.000000 0.005077
O O8 0.849123 0.182771 0.060855
O O9 0.454395 0.500000 0.269911
O O10 0.426148 0.322974 0.351893
O O11 0.500000 0.384169 0.000000
O O12 0.694364 0.849093 0.908776
O O13 0.797686 0.840933 0.572684
O O14 0.752721 0.000000 0.742467
O O15 0.152150 0.285480 0.693321
O O16 0.650114 0.809121 0.393063
O O17 0.641932 0.000000 0.394454
#
# Coordination Sequence:
#
# PCOD9202947 Si02
#       7
#     8   8   8   8   8   8   8
#     4   9  19  38  62  88 121 162 206 260 312 368
#     4  10  22  40  65  94 123 160 211 260 313 373
#     4  10  20  38  64  95 126 156 197 257 321 377
#     4  11  26  45  61  87 125 171 220 262 303 364
#     4  12  23  40  64  90 124 168 211 255 309 368
#     4   9  20  37  59  90 125 158 201 256 320 378
#     4  12  24  38  62  92 127 165 205 258 322 372
#
# _framework density 23.222546000000001
#
# number of rings (size 3 to 8) (size 9 to 14) (size 15 to 20)
#    0.000    1.571    1.429    4.286    0.000    3.429 
#    0.000    5.714    0.000    0.000    0.000    0.000 
#    0.000    0.000    0.000    0.000    0.000    0.000 
#
# Total GULP energy -156626.750511 kJ/mol
# GULP energy per Si atom -5593.812518 kJ/mol
# Density = 2.316969 g / cm^3
# Si number density = 23.222546 Si / 1000 Ang^3
#
#
#
# Elastic Constant Matrix: (Units=GPa)
#
#
# Indices 1 2 3 4 5 6 
#
# 1 77.4055 37.6792 10.3726 0.0000 -6.1740 0.0000
# 2 37.6792 155.1758 11.4578 0.0000 -1.2058 0.0000
# 3 10.3726 11.4578 25.8620 0.0000 0.0988 0.0000
# 4 0.0000 0.0000 0.0000 24.7767 0.0000 -8.3043
# 5 -6.1740 -1.2058 0.0988 0.0000 22.2218 0.0000
# 6 0.0000 0.0000 0.0000 -8.3043 0.0000 -0.0630
#
#
#
# Elastic Compliance Matrix: (Units=1/GPa)
#
#
# Indices 1 2 3 4 5 6 
#
# 1 0.015536 -0.003390 -0.004745 0.000000 0.004154 0.000000
# 2 -0.003390 0.007405 -0.001919 0.000000 -0.000531 0.000000
# 3 -0.004745 -0.001919 0.041426 0.000000 -0.001607 0.000000
# 4 0.000000 0.000000 0.000000 0.000893 0.000000 -0.117754
# 5 0.004154 -0.000531 -0.001607 0.000000 0.046133 0.000000
# 6 0.000000 0.000000 0.000000 -0.117754 0.000000 -0.351329
#
#
# Mechanical properties :
#
#
# Convention : Reuss Voigt Hill
#
# Bulk Modulus (GPa) = 22.59414 41.94027 32.26721
# Shear Modulus (GPa) = -24.38146 22.64935 -0.86606
#
# Velocity S-wave (km/s) = -3.24374 3.12639 -0.61135
# Velocity P-wave (km/s) = 2.06848 5.57959 3.66423
#
# Compressibility (1/GPa) = 0.04425927
#
# Stress axis : x y z
#
# Youngs Moduli (GPa) = 64.36562 135.04451 24.13921
#
# Poissons Ratio (x) = 0.45777 0.11455
# Poissons Ratio (y) = 0.21819 0.04632
# Poissons Ratio (z) = 0.30543 0.25916
#
# Static dielectric constant tensor:
#      x y z
#    x 1.899310 0.000000 -0.009120 
#    y 0.000000 1.874740 0.000000 
#    z -0.009120 0.000000 1.865500 
# 
# From -- ./inp_files/96739.got.cif
#   From: 2010.05.17/outbox.cif.g08.bks.cpg/sg12_49_cif.got.tgz:96739.got - 2010.06.03 13:09:07.
