data_PCOD9202222
_publ_section_title
;
Structure prediction by ZEFSAII (Michael W. Deem and Ramdas Pophale) SiO2 
 PCOD9202222
Probable space group: C 2/M
;
_chemical_formula_sum "Si O2"
_cell_formula_units_Z 48
_cell_length_a 25.519520
_cell_length_b 8.465313
_cell_length_c 12.980686
_cell_angle_alpha 90.000000
_cell_angle_beta 70.633066
_cell_angle_gamma 90.000000
_cell_volume 2645.547557
_symmetry_space_group_name_H-M "C 2/M"
_symmetry_group_IT_number 12
_symmetry_cell_setting 'monoclinic'
loop_
_space_group_symop_operation_xyz
x,y,z
-x,y,-z
-x,-y,-z
x,-y,z
1/2+x,1/2+y,z
1/2-x,1/2+y,-z
1/2-x,1/2-y,-z
1/2+x,1/2-y,z
loop_
_atom_site_type_symbol
_atom_site_label
_atom_site_fract_x
_atom_site_fract_y
_atom_site_fract_z
Si Si1 0.562136 0.188170 0.627360
Si Si2 0.938360 0.192600 0.004357
Si Si3 0.123212 0.191119 0.388764
Si Si4 0.559215 0.691059 0.230443
Si Si5 0.744082 0.310517 0.387053
Si Si6 0.640381 0.310192 0.759028
O O1 0.581312 0.247605 0.503166
O O2 0.501955 0.253116 0.697409
O O3 0.606531 0.249814 0.681900
O O4 0.561394 0.000000 0.629221
O O5 0.892846 0.243056 0.117499
O O6 0.938371 0.000000 0.004806
O O7 0.928115 0.245032 0.894036
O O8 0.000000 0.242251 0.000000
O O9 0.102500 0.242383 0.289785
O O10 0.185330 0.242978 0.378039
O O11 0.122288 0.000000 0.392436
O O12 0.558673 0.500000 0.229482
O O13 0.744474 0.500000 0.388885
O O14 0.750000 0.250000 0.500000
O O15 0.797029 0.250516 0.289346
O O16 0.640381 0.500000 0.756043
#
# Coordination Sequence:
#
# PCOD9202222 Si02
#       6
#     8   8   8   8   8   8
#     4  12  23  34  54  85 119 148 179 231 288 335
#     4   9  17  33  59  85 108 141 187 233 271 323
#     4  10  22  38  58  81 111 151 189 226 275 338
#     4  10  20  38  60  82 111 149 190 227 273 336
#     4  11  22  37  57  83 113 148 188 232 278 327
#     4  11  21  36  59  85 112 145 189 234 277 328
#
# _framework density 18.143692000000001
#
# number of rings (size 3 to 8) (size 9 to 14) (size 15 to 20)
#    0.000    1.500    3.333    3.000    0.000    3.333 
#    0.000    3.333    0.000    0.000    0.000    0.000 
#    0.000    0.000    0.000    0.000    0.000    0.000 
#
# Total GULP energy -134083.750214 kJ/mol
# GULP energy per Si atom -5586.822926 kJ/mol
# Density = 1.810240 g / cm^3
# Si number density = 18.143692 Si / 1000 Ang^3
#
#
#
# Elastic Constant Matrix: (Units=GPa)
#
#
# Indices 1 2 3 4 5 6 
#
# 1 59.6580 8.8512 47.4889 0.0000 5.9694 0.0000
# 2 8.8512 14.5912 16.3767 0.0000 6.6899 0.0000
# 3 47.4889 16.3767 157.7907 0.0000 5.7511 0.0000
# 4 0.0000 0.0000 0.0000 5.4575 0.0000 -11.4894
# 5 5.9694 6.6899 5.7511 0.0000 36.1540 0.0000
# 6 0.0000 0.0000 0.0000 -11.4894 0.0000 23.2615
#
#
#
# Elastic Compliance Matrix: (Units=1/GPa)
#
#
# Indices 1 2 3 4 5 6 
#
# 1 0.022727 -0.006140 -0.006143 0.000000 -0.001639 0.000000
# 2 -0.006140 0.085985 -0.006571 0.000000 -0.013851 0.000000
# 3 -0.006143 -0.006571 0.008838 0.000000 0.000824 0.000000
# 4 0.000000 0.000000 0.000000 -4.599296 0.000000 -2.271703
# 5 -0.001639 -0.013851 0.000824 0.000000 0.030362 0.000000
# 6 0.000000 0.000000 0.000000 -2.271703 0.000000 -1.079060
#
#
# Mechanical properties :
#
#
# Convention : Reuss Voigt Hill
#
# Bulk Modulus (GPa) = 12.52483 41.94152 27.23318
# Shear Modulus (GPa) = -0.91473 23.59614 11.34071
#
# Velocity S-wave (km/s) = -0.71081 3.61018 2.50281
# Velocity P-wave (km/s) = 2.49889 6.36744 4.83678
#
# Compressibility (1/GPa) = 0.07984139
#
# Stress axis : x y z
#
# Youngs Moduli (GPa) = 44.00024 11.62989 113.14416
#
# Poissons Ratio (x) = 0.07141 0.69504
# Poissons Ratio (y) = 0.27018 0.74351
# Poissons Ratio (z) = 0.27029 0.07642
#
# Static dielectric constant tensor:
#      x y z
#    x 1.607140 0.000000 0.011540 
#    y 0.000000 1.619300 0.000000 
#    z 0.011540 0.000000 1.607670 
# 
# From -- ./inp_files/172066.got.cif
#   From: 2010.05.17/outbox.cif.g08.bks.cpg/sg12_87_cif.got.tgz:172066.got - 2010.06.03 13:09:07.
