data_PCOD9202373
_publ_section_title
;
Structure prediction by ZEFSAII (Michael W. Deem and Ramdas Pophale) SiO2 
 PCOD9202373
Probable space group: C 2/M
;
_chemical_formula_sum "Si O2"
_cell_formula_units_Z 48
_cell_length_a 20.537931
_cell_length_b 9.001606
_cell_length_c 14.378698
_cell_angle_alpha 90.000000
_cell_angle_beta 90.050144
_cell_angle_gamma 90.000000
_cell_volume 2658.251614
_symmetry_space_group_name_H-M "C 2/M"
_symmetry_group_IT_number 12
_symmetry_cell_setting 'monoclinic'
loop_
_space_group_symop_operation_xyz
x,y,z
-x,y,-z
-x,-y,-z
x,-y,z
1/2+x,1/2+y,z
1/2-x,1/2+y,-z
1/2-x,1/2-y,-z
1/2+x,1/2-y,z
loop_
_atom_site_type_symbol
_atom_site_label
_atom_site_fract_x
_atom_site_fract_y
_atom_site_fract_z
Si Si1 0.560511 0.172342 0.070409
Si Si2 0.067165 0.174627 0.443490
Si Si3 0.812974 0.677579 0.453014
Si Si4 0.637481 0.179469 0.749669
Si Si5 0.994053 0.822930 0.750474
Si Si6 0.812368 0.321199 0.048141
O O1 0.543450 0.273087 0.157585
O O2 0.567390 0.000000 0.100509
O O3 0.500000 0.178680 0.000000
O O4 0.624470 0.216344 0.013627
O O5 0.123562 0.268824 0.490775
O O6 0.048996 0.219565 0.338928
O O7 0.000000 0.188710 0.500000
O O8 0.086053 0.000000 0.444840
O O9 0.807232 0.500000 0.456464
O O10 0.750000 0.750000 0.500000
O O11 0.824556 0.720796 0.344756
O O12 0.564961 0.246923 0.747614
O O13 0.673607 0.225080 0.845098
O O14 0.631225 0.000000 0.751603
O O15 0.003359 0.000000 0.747407
O O16 0.805813 0.500000 0.048346
O O17 0.750000 0.250000 0.000000
#
# Coordination Sequence:
#
# PCOD9202373 Si02
#       6
#     8   8   8   8   8   8
#     4  10  20  38  61  84 117 157 196 240 291 350
#     4  10  21  39  60  86 122 157 195 247 299 349
#     4  11  24  40  63  90 121 160 201 249 300 360
#     4  10  21  40  62  84 115 158 200 240 298 360
#     4  11  22  35  60  93 121 153 196 251 298 343
#     4  10  22  40  61  85 117 156 194 241 294 348
#
# _framework density 18.056982000000001
#
# number of rings (size 3 to 8) (size 9 to 14) (size 15 to 20)
#    0.000    1.667    3.333    1.000    0.000    5.333 
#    0.000    5.000    0.000    0.000    0.000    0.000 
#    0.000    0.000    0.000    0.000    0.000    0.000 
#
# Total GULP energy -134035.322428 kJ/mol
# GULP energy per Si atom -5584.805101 kJ/mol
# Density = 1.801588 g / cm^3
# Si number density = 18.056982 Si / 1000 Ang^3
#
#
#
# Elastic Constant Matrix: (Units=GPa)
#
#
# Indices 1 2 3 4 5 6 
#
# 1 134.3924 40.2534 78.2998 0.0000 -4.2921 0.0000
# 2 40.2534 28.8129 50.0125 0.0000 -1.6217 0.0000
# 3 78.2998 50.0125 170.0415 0.0000 -1.9667 0.0000
# 4 0.0000 0.0000 0.0000 29.7539 0.0000 1.1871
# 5 -4.2921 -1.6217 -1.9667 0.0000 24.2451 0.0000
# 6 0.0000 0.0000 0.0000 1.1871 0.0000 36.3144
#
#
#
# Elastic Compliance Matrix: (Units=1/GPa)
#
#
# Indices 1 2 3 4 5 6 
#
# 1 0.012967 -0.015753 -0.001325 0.000000 0.001134 0.000000
# 2 -0.015753 0.090269 -0.019277 0.000000 0.001685 0.000000
# 3 -0.001325 -0.019277 0.012154 0.000000 -0.000538 0.000000
# 4 0.000000 0.000000 0.000000 0.033653 0.000000 -0.001100
# 5 0.001134 0.001685 -0.000538 0.000000 0.041515 0.000000
# 6 0.000000 0.000000 0.000000 -0.001100 0.000000 0.027573
#
#
# Mechanical properties :
#
#
# Convention : Reuss Voigt Hill
#
# Bulk Modulus (GPa) = 23.42893 74.48648 48.95770
# Shear Modulus (GPa) = 16.38980 29.04142 22.71561
#
# Velocity S-wave (km/s) = 3.01603 4.01474 3.55067
# Velocity P-wave (km/s) = 5.01315 7.92661 6.63185
#
# Compressibility (1/GPa) = 0.04268227
#
# Stress axis : x y z
#
# Youngs Moduli (GPa) = 77.11727 11.07801 82.27496
#
# Poissons Ratio (x) = 0.17451 0.10900
# Poissons Ratio (y) = 1.21481 1.58598
# Poissons Ratio (z) = 0.10216 0.21355
#
# Static dielectric constant tensor:
#      x y z
#    x 21.528540 0.000000 -40.691390 
#    y 0.000000 1.611130 0.000000 
#    z -40.691390 0.000000 84.586660 
# 
# From -- ./inp_files/221679.got.cif
#   From: 2010.05.17/outbox.cif.g08.bks.cpg/sg12_111_cif.got.tgz:221679.got - 2010.06.03 13:09:07.
