data_PCOD9202607
_publ_section_title
;
Structure prediction by ZEFSAII (Michael W. Deem and Ramdas Pophale) SiO2 
 PCOD9202607
Probable space group: C 2/M
;
_chemical_formula_sum "Si O2"
_cell_formula_units_Z 38
_cell_length_a 13.648119
_cell_length_b 10.070791
_cell_length_c 22.783229
_cell_angle_alpha 90.000000
_cell_angle_beta 37.272573
_cell_angle_gamma 90.000000
_cell_volume 1896.456720
_symmetry_space_group_name_H-M "C 2/M"
_symmetry_group_IT_number 12
_symmetry_cell_setting 'monoclinic'
loop_
_space_group_symop_operation_xyz
x,y,z
-x,y,-z
-x,-y,-z
x,-y,z
1/2+x,1/2+y,z
1/2-x,1/2+y,-z
1/2-x,1/2-y,-z
1/2+x,1/2-y,z
loop_
_atom_site_type_symbol
_atom_site_label
_atom_site_fract_x
_atom_site_fract_y
_atom_site_fract_z
Si Si1 0.367661 0.500000 0.815684
Si Si2 0.047680 0.794206 0.813052
Si Si3 0.500000 0.000000 0.000000
Si Si4 0.822238 0.000000 0.556726
Si Si5 0.852732 0.000000 0.404102
Si Si6 0.955022 0.000000 0.953183
Si Si7 0.923433 0.500000 0.898711
Si Si8 0.693905 0.218379 0.401391
O O1 0.426637 0.372361 0.825915
O O2 0.468472 0.500000 0.707432
O O3 0.182574 0.500000 0.886979
O O4 0.224896 0.817749 0.699603
O O5 0.025088 0.871135 0.885403
O O6 0.004952 0.639274 0.840054
O O7 0.578535 0.000000 0.029737
O O8 0.742818 0.865673 0.615767
O O9 0.000000 0.000000 0.500000
O O10 0.843077 0.000000 0.477605
O O11 0.763698 0.124729 0.418053
O O12 0.000000 0.000000 0.000000
O O13 0.761551 0.000000 0.036417
O O14 0.500000 0.212968 0.500000
#
# Coordination Sequence:
#
# PCOD9202607 Si02
#       8
#     4   8   2   4   4   4   4   8
#     4   9  22  41  63  88 124 167 215 263 317 375
#     4  10  22  44  63  94 129 165 215 264 320 386
#     4  12  24  36  64  90 120 170 208 262 320 372
#     4  10  21  37  58  88 128 161 204 254 310 366
#     4  10  20  38  62  89 124 166 213 254 309 374
#     4  11  25  44  68  91 129 168 214 276 321 375
#     4  12  25  40  66  92 129 165 218 261 329 374
#     4  10  21  39  66  92 127 168 206 261 313 375
#
# _framework density 20.037369000000002
#
# number of rings (size 3 to 8) (size 9 to 14) (size 15 to 20)
#    0.000    1.684    2.105    2.842    1.474    3.368 
#    0.000    8.421    0.000    0.000    0.000    0.000 
#    0.000    0.000    0.000    0.000    0.000    0.000 
#
# Total GULP energy -105802.890070 kJ/mol
# GULP energy per Si atom -5568.573162 kJ/mol
# Density = 1.999176 g / cm^3
# Si number density = 20.037369 Si / 1000 Ang^3
#
#
#
# Elastic Constant Matrix: (Units=GPa)
#
#
# Indices 1 2 3 4 5 6 
#
# 1 96.6361 21.7217 68.9226 0.0000 6.2139 0.0000
# 2 21.7217 135.2431 30.6366 0.0000 -1.2821 0.0000
# 3 68.9226 30.6366 145.9312 0.0000 -2.2538 0.0000
# 4 0.0000 0.0000 0.0000 41.2158 0.0000 -0.3580
# 5 6.2139 -1.2821 -2.2538 0.0000 41.4355 0.0000
# 6 0.0000 0.0000 0.0000 -0.3580 0.0000 6.4294
#
#
#
# Elastic Compliance Matrix: (Units=1/GPa)
#
#
# Indices 1 2 3 4 5 6 
#
# 1 0.016031 -0.000920 -0.007422 0.000000 -0.002836 0.000000
# 2 -0.000920 0.007817 -0.001202 0.000000 0.000315 0.000000
# 3 -0.007422 -0.001202 0.010636 0.000000 0.001654 0.000000
# 4 0.000000 0.000000 0.000000 0.024274 0.000000 0.001352
# 5 -0.002836 0.000315 0.001654 0.000000 0.024659 0.000000
# 6 0.000000 0.000000 0.000000 0.001352 0.000000 0.155610
#
#
# Mechanical properties :
#
#
# Convention : Reuss Voigt Hill
#
# Bulk Modulus (GPa) = 64.95209 68.93023 66.94116
# Shear Modulus (GPa) = 18.99363 34.91810 26.95586
#
# Velocity S-wave (km/s) = 3.08216 4.17903 3.67178
# Velocity P-wave (km/s) = 6.71953 7.60008 7.17333
#
# Compressibility (1/GPa) = 0.01539596
#
# Stress axis : x y z
#
# Youngs Moduli (GPa) = 62.38019 127.92485 94.02342
#
# Poissons Ratio (x) = 0.11774 0.69783
# Poissons Ratio (y) = 0.05741 0.11298
# Poissons Ratio (z) = 0.46297 0.15371
#
# Static dielectric constant tensor:
#      x y z
#    x 1.658900 0.000000 -0.008280 
#    y 0.000000 1.733770 0.000000 
#    z -0.008280 0.000000 1.716350 
# 
# From -- ./inp_files/337714.got.cif
#   From: 2010.05.17/outbox.cif.g08.bks.cpg/sg12_169_cif.got.tgz:337714.got - 2010.06.03 13:09:07.
