data_PCOD9202280
_publ_section_title
;
Structure prediction by ZEFSAII (Michael W. Deem and Ramdas Pophale) SiO2 
 PCOD9202280
Probable space group: C 2/M
;
_chemical_formula_sum "Si O2"
_cell_formula_units_Z 48
_cell_length_a 11.008815
_cell_length_b 14.888831
_cell_length_c 14.356231
_cell_angle_alpha 90.000000
_cell_angle_beta 79.469517
_cell_angle_gamma 90.000000
_cell_volume 2313.475193
_symmetry_space_group_name_H-M "C 2/M"
_symmetry_group_IT_number 12
_symmetry_cell_setting 'monoclinic'
loop_
_space_group_symop_operation_xyz
x,y,z
-x,y,-z
-x,-y,-z
x,-y,z
1/2+x,1/2+y,z
1/2-x,1/2+y,-z
1/2-x,1/2-y,-z
1/2+x,1/2-y,z
loop_
_atom_site_type_symbol
_atom_site_label
_atom_site_fract_x
_atom_site_fract_y
_atom_site_fract_z
Si Si1 0.627016 0.152397 0.450186
Si Si2 0.894708 0.150954 0.453591
Si Si3 0.117098 0.357207 0.041118
Si Si4 0.676703 0.893837 0.238796
Si Si5 0.611576 0.643564 0.048097
Si Si6 0.452544 0.606789 0.241739
O O1 0.500000 0.107276 0.500000
O O2 0.757393 0.110241 0.463968
O O3 0.623306 0.251549 0.496431
O O4 0.631058 0.155859 0.337743
O O5 0.944986 0.156366 0.341365
O O6 0.000000 0.104230 0.500000
O O7 0.107738 0.373444 0.152833
O O8 0.118525 0.249756 0.026765
O O9 0.251464 0.392920 0.990452
O O10 0.000000 0.392455 0.000000
O O11 0.822876 0.872103 0.207609
O O12 0.667288 0.000000 0.259349
O O13 0.566176 0.630780 0.159998
O O14 0.500000 0.605638 0.000000
O O15 0.454105 0.500000 0.259969
#
# Coordination Sequence:
#
# PCOD9202280 Si02
#       6
#     8   8   8   8   8   8
#     4   9  19  36  57  84 109 154 195 229 283 353
#     4   9  19  36  56  86 113 146 188 245 289 332
#     4  10  22  38  57  90 122 154 191 242 289 338
#     4  10  21  38  61  86 119 158 195 237 291 352
#     4  10  20  38  60  87 115 154 202 233 281 356
#     4  10  21  37  62  89 116 155 198 238 289 353
#
# _framework density 20.748007999999999
#
# number of rings (size 3 to 8) (size 9 to 14) (size 15 to 20)
#    0.000    2.333    1.667    0.000    4.667    2.000 
#    3.000    0.000    0.000    0.000    0.000    0.000 
#    0.000    0.000    0.000    0.000    0.000    0.000 
#
# Total GULP energy -133844.491275 kJ/mol
# GULP energy per Si atom -5576.853803 kJ/mol
# Density = 2.070078 g / cm^3
# Si number density = 20.748008 Si / 1000 Ang^3
#
#
#
# Elastic Constant Matrix: (Units=GPa)
#
#
# Indices 1 2 3 4 5 6 
#
# 1 185.0027 21.3172 101.0169 0.0000 5.4083 0.0000
# 2 21.3172 59.5004 9.0055 0.0000 0.8779 0.0000
# 3 101.0169 9.0055 147.9682 0.0000 3.6553 0.0000
# 4 0.0000 0.0000 0.0000 -392.0857 0.0000 17.8007
# 5 5.4083 0.8779 3.6553 0.0000 43.4224 0.0000
# 6 0.0000 0.0000 0.0000 17.8007 0.0000 -12.6652
#
#
#
# Elastic Compliance Matrix: (Units=1/GPa)
#
#
# Indices 1 2 3 4 5 6 
#
# 1 0.008932 -0.002292 -0.005944 0.000000 -0.000566 0.000000
# 2 -0.002292 0.017554 0.000499 0.000000 -0.000111 0.000000
# 3 -0.005944 0.000499 0.010790 0.000000 -0.000178 0.000000
# 4 0.000000 0.000000 0.000000 -0.002724 0.000000 -0.003829
# 5 -0.000566 -0.000111 -0.000178 0.000000 0.023117 0.000000
# 6 0.000000 0.000000 0.000000 -0.003829 0.000000 -0.084338
#
#
# Mechanical properties :
#
#
# Convention : Reuss Voigt Hill
#
# Bulk Modulus (GPa) = 45.86770 72.79450 59.33110
# Shear Modulus (GPa) = -1272.90277 -54.85693 -663.87985
#
# Velocity S-wave (km/s) = -24.79592 -5.14752 -17.90719
# Velocity P-wave (km/s) = 28.24232 0.41003 19.97244
#
# Compressibility (1/GPa) = 0.02180183
#
# Stress axis : x y z
#
# Youngs Moduli (GPa) = 111.96212 56.96759 92.67658
#
# Poissons Ratio (x) = 0.13057 0.55088
# Poissons Ratio (y) = 0.25661 -0.04625
# Poissons Ratio (z) = 0.66551 -0.02843
#
# Static dielectric constant tensor:
#      x y z
#    x 1.812540 0.000000 0.003910 
#    y 0.000000 1.737540 0.000000 
#    z 0.003910 0.000000 1.719240 
# 
# From -- ./inp_files/131047.got.cif
#   From: 2010.05.17/outbox.cif.g08.bks.cpg/sg12_66_cif.got.tgz:131047.got - 2010.06.03 13:09:07.
