data_PCOD9202200
_publ_section_title
;
Structure prediction by ZEFSAII (Michael W. Deem and Ramdas Pophale) SiO2 
 PCOD9202200
Probable space group: C 2/M
;
_chemical_formula_sum "Si O2"
_cell_formula_units_Z 48
_cell_length_a 23.046426
_cell_length_b 18.051947
_cell_length_c 5.218899
_cell_angle_alpha 90.000000
_cell_angle_beta 72.065332
_cell_angle_gamma 90.000000
_cell_volume 2065.729462
_symmetry_space_group_name_H-M "C 2/M"
_symmetry_group_IT_number 12
_symmetry_cell_setting 'monoclinic'
loop_
_space_group_symop_operation_xyz
x,y,z
-x,y,-z
-x,-y,-z
x,-y,z
1/2+x,1/2+y,z
1/2-x,1/2+y,-z
1/2-x,1/2-y,-z
1/2+x,1/2-y,z
loop_
_atom_site_type_symbol
_atom_site_label
_atom_site_fract_x
_atom_site_fract_y
_atom_site_fract_z
Si Si1 0.906573 0.083841 0.072128
Si Si2 0.658614 0.690665 0.466423
Si Si3 0.349715 0.913570 0.719791
Si Si4 0.876866 0.676623 0.195343
Si Si5 0.720862 0.418128 0.062470
Si Si6 0.946920 0.776920 0.767400
O O1 0.884721 0.127004 0.354187
O O2 0.843840 0.081064 0.992692
O O3 0.926996 0.000000 0.086805
O O4 0.951848 0.138758 0.861437
O O5 0.667896 0.755432 0.659959
O O6 0.617529 0.725838 0.297684
O O7 0.715801 0.648116 0.271528
O O8 0.382318 0.873475 0.440009
O O9 0.276196 0.907466 0.791114
O O10 0.365843 0.000000 0.706016
O O11 0.360674 0.875500 0.979282
O O12 0.935799 0.722658 0.020581
O O13 0.729779 0.500000 0.171182
O O14 0.000000 0.757888 0.500000
#
# Coordination Sequence:
#
# PCOD9202200 Si02
#       6
#     8   8   8   8   8   8
#     4   9  19  35  57  90 130 168 209 249 289 352
#     4  10  20  38  59  92 125 165 205 252 298 361
#     4  11  24  42  65  92 126 164 202 249 309 370
#     4  11  23  42  63  95 123 160 204 258 305 364
#     4   9  20  36  58  89 130 174 206 240 292 355
#     4  10  22  42  64  87 119 163 208 257 318 363
#
# _framework density 23.236345
#
# number of rings (size 3 to 8) (size 9 to 14) (size 15 to 20)
#    0.000    2.000    1.667    1.000    2.333    5.000 
#    0.000    0.833    0.000    3.000    0.000    0.000 
#    0.000    0.000    0.000    0.000    0.000    0.000 
#
# Total GULP energy -134095.816664 kJ/mol
# GULP energy per Si atom -5587.325694 kJ/mol
# Density = 2.318346 g / cm^3
# Si number density = 23.236345 Si / 1000 Ang^3
#
#
#
# Elastic Constant Matrix: (Units=GPa)
#
#
# Indices 1 2 3 4 5 6 
#
# 1 42.5680 29.9540 19.8192 0.0000 6.3468 0.0000
# 2 29.9540 184.8557 91.5924 0.0000 2.6457 0.0000
# 3 19.8192 91.5924 133.8027 0.0000 16.5649 0.0000
# 4 0.0000 0.0000 0.0000 16.0377 0.0000 39.4297
# 5 6.3468 2.6457 16.5649 0.0000 25.5679 0.0000
# 6 0.0000 0.0000 0.0000 39.4297 0.0000 -24.6784
#
#
#
# Elastic Compliance Matrix: (Units=1/GPa)
#
#
# Indices 1 2 3 4 5 6 
#
# 1 0.027536 -0.004127 -0.000501 0.000000 -0.006084 0.000000
# 2 -0.004127 0.009026 -0.006065 0.000000 0.004020 0.000000
# 3 -0.000501 -0.006065 0.012618 0.000000 -0.007423 0.000000
# 4 0.000000 0.000000 0.000000 0.012652 0.000000 0.020215
# 5 -0.006084 0.004020 -0.007423 0.000000 0.045015 0.000000
# 6 0.000000 0.000000 0.000000 0.020215 0.000000 -0.008222
#
#
# Mechanical properties :
#
#
# Convention : Reuss Voigt Hill
#
# Bulk Modulus (GPa) = 35.97668 71.55084 53.76376
# Shear Modulus (GPa) = 38.67718 18.04282 28.36000
#
# Velocity S-wave (km/s) = 4.08427 2.78958 3.49736
# Velocity P-wave (km/s) = 6.14477 6.42146 6.28464
#
# Compressibility (1/GPa) = 0.02779578
#
# Stress axis : x y z
#
# Youngs Moduli (GPa) = 36.31615 110.79329 79.24914
#
# Poissons Ratio (x) = 0.45723 0.03967
# Poissons Ratio (y) = 0.14987 0.48063
# Poissons Ratio (z) = 0.01818 0.67194
#
# Static dielectric constant tensor:
#      x y z
#    x 1.914400 0.000000 0.049700 
#    y 0.000000 1.904910 0.000000 
#    z 0.049700 0.000000 1.894360 
# 
# From -- ./inp_files/28444.got.cif
#   From: 2010.05.17/outbox.cif.g08.bks.cpg/sg12_15_cif.got.tgz:28444.got - 2010.06.03 13:09:07.
