data_PCOD9202293
_publ_section_title
;
Structure prediction by ZEFSAII (Michael W. Deem and Ramdas Pophale) SiO2 
 PCOD9202293
Probable space group: C 2/M
;
_chemical_formula_sum "Si O2"
_cell_formula_units_Z 64
_cell_length_a 24.474622
_cell_length_b 18.319822
_cell_length_c 16.347446
_cell_angle_alpha 90.000000
_cell_angle_beta 154.062066
_cell_angle_gamma 90.000000
_cell_volume 3205.997785
_symmetry_space_group_name_H-M "C 2/M"
_symmetry_group_IT_number 12
_symmetry_cell_setting 'monoclinic'
loop_
_space_group_symop_operation_xyz
x,y,z
-x,y,-z
-x,-y,-z
x,-y,z
1/2+x,1/2+y,z
1/2-x,1/2+y,-z
1/2-x,1/2-y,-z
1/2+x,1/2-y,z
loop_
_atom_site_type_symbol
_atom_site_label
_atom_site_fract_x
_atom_site_fract_y
_atom_site_fract_z
Si Si1 0.870091 0.585558 0.449228
Si Si2 0.750858 0.586279 0.638645
Si Si3 0.405334 0.084667 0.684016
Si Si4 0.936471 0.290962 0.330383
Si Si5 0.977007 0.152566 0.273592
Si Si6 0.354067 0.162602 0.929912
Si Si7 0.634026 0.582578 0.724834
Si Si8 0.808646 0.175828 0.905455
O O1 0.887473 0.500000 0.454869
O O2 0.849797 0.594516 0.518966
O O3 0.758606 0.619659 0.245590
O O4 0.992152 0.633771 0.592616
O O5 0.735100 0.500000 0.633936
O O6 0.806009 0.595336 0.622440
O O7 0.619098 0.626604 0.471147
O O8 0.843945 0.620962 0.830266
O O9 0.449763 0.000000 0.749198
O O10 0.521304 0.137871 0.856089
O O11 0.793650 0.305118 0.161585
O O12 0.000000 0.261869 0.500000
O O13 0.959509 0.232843 0.289925
O O14 0.892830 0.100997 0.217571
O O15 0.928633 0.149088 0.116257
O O16 0.235224 0.135744 0.822461
O O17 0.341635 0.249114 0.904340
O O18 0.500000 0.589229 0.500000
O O19 0.678843 0.500000 0.774364
#
# Coordination Sequence:
#
# PCOD9202293 Si02
#       8
#     8   8   8   8   8   8   8   8
#     4  10  23  43  63  86 119 165 220 259 295 359
#     4  11  23  41  65  93 127 163 202 259 315 363
#     4  10  23  43  66  90 122 165 211 260 307 354
#     4  10  20  38  60  88 126 165 199 252 320 366
#     4  12  22  38  61  93 129 166 202 242 311 382
#     4  12  22  40  63  95 126 160 204 250 315 379
#     4  11  22  35  58  95 132 161 195 248 309 379
#     4  11  25  39  61  90 129 169 202 252 313 366
#
# _framework density 19.962584
#
# number of rings (size 3 to 8) (size 9 to 14) (size 15 to 20)
#    0.000    1.125    2.500    4.875    1.750    4.250 
#    0.000    7.500    0.000    2.250    0.000    0.000 
#    0.000    0.000    0.000    0.000    0.000    0.000 
#
# Total GULP energy -178962.486949 kJ/mol
# GULP energy per Si atom -5592.577717 kJ/mol
# Density = 1.991715 g / cm^3
# Si number density = 19.962584 Si / 1000 Ang^3
#
#
#
# Elastic Constant Matrix: (Units=GPa)
#
#
# Indices 1 2 3 4 5 6 
#
# 1 71.8896 37.1211 23.9530 0.0000 -13.5137 0.0000
# 2 37.1211 101.5910 38.5041 0.0000 -18.6734 0.0000
# 3 23.9530 38.5041 80.3358 0.0000 -17.9419 0.0000
# 4 0.0000 0.0000 0.0000 -2.2153 0.0000 6.0051
# 5 -13.5137 -18.6734 -17.9419 0.0000 22.2377 0.0000
# 6 0.0000 0.0000 0.0000 6.0051 0.0000 11.1296
#
#
#
# Elastic Compliance Matrix: (Units=1/GPa)
#
#
# Indices 1 2 3 4 5 6 
#
# 1 0.018071 -0.004922 -0.001829 0.000000 0.005373 0.000000
# 2 -0.004922 0.014232 -0.004090 0.000000 0.005660 0.000000
# 3 -0.001829 -0.004090 0.017002 0.000000 0.009172 0.000000
# 4 0.000000 0.000000 0.000000 -0.183301 0.000000 0.098903
# 5 0.005373 0.005660 0.009172 0.000000 0.060387 0.000000
# 6 0.000000 0.000000 0.000000 0.098903 0.000000 0.036486
#
#
# Mechanical properties :
#
#
# Convention : Reuss Voigt Hill
#
# Bulk Modulus (GPa) = 36.20141 50.33032 43.26587
# Shear Modulus (GPa) = -802.10598 16.51294 -392.79652
#
# Velocity S-wave (km/s) = -20.06681 2.87922 -14.04256
# Velocity P-wave (km/s) = 22.77561 6.02663 15.53075
#
# Compressibility (1/GPa) = 0.02762323
#
# Stress axis : x y z
#
# Youngs Moduli (GPa) = 55.33617 70.26175 58.81809
#
# Poissons Ratio (x) = 0.34586 0.10758
# Poissons Ratio (y) = 0.27239 0.24055
# Poissons Ratio (z) = 0.10121 0.28735
#
# Static dielectric constant tensor:
#      x y z
#    x 1.697480 0.000000 -0.024060 
#    y 0.000000 1.708080 0.000000 
#    z -0.024060 0.000000 1.697720 
# 
# From -- ./inp_files/241490.got.cif
#   From: 2010.05.17/outbox.cif.g08.bks.cpg/sg12_121_cif.got.tgz:241490.got - 2010.06.03 13:09:07.
