data_PCOD9202699
_publ_section_title
;
Structure prediction by ZEFSAII (Michael W. Deem and Ramdas Pophale) SiO2 
 PCOD9202699
Probable space group: C 2/M
;
_chemical_formula_sum "Si O2"
_cell_formula_units_Z 56
_cell_length_a 20.406767
_cell_length_b 7.700048
_cell_length_c 19.185778
_cell_angle_alpha 90.000000
_cell_angle_beta 61.220269
_cell_angle_gamma 90.000000
_cell_volume 2642.333327
_symmetry_space_group_name_H-M "C 2/M"
_symmetry_group_IT_number 12
_symmetry_cell_setting 'monoclinic'
loop_
_space_group_symop_operation_xyz
x,y,z
-x,y,-z
-x,-y,-z
x,-y,z
1/2+x,1/2+y,z
1/2-x,1/2+y,-z
1/2-x,1/2-y,-z
1/2+x,1/2-y,z
loop_
_atom_site_type_symbol
_atom_site_label
_atom_site_fract_x
_atom_site_fract_y
_atom_site_fract_z
Si Si1 0.918954 0.797474 0.558218
Si Si2 0.767706 0.791076 0.570319
Si Si3 0.800587 0.202198 0.144318
Si Si4 0.932133 0.787110 0.983966
Si Si5 0.862814 0.291889 0.259828
Si Si6 0.032244 0.206724 0.190942
Si Si7 0.137182 0.298036 0.263625
O O1 0.848220 0.721430 0.553148
O O2 0.898741 0.788191 0.650059
O O3 0.000000 0.719364 0.500000
O O4 0.923062 0.000000 0.535077
O O5 0.750000 0.750000 0.500000
O O6 0.702134 0.728691 0.655149
O O7 0.769122 0.000000 0.577314
O O8 0.847943 0.214393 0.191220
O O9 0.718667 0.277802 0.201841
O O10 0.788026 0.000000 0.133264
O O11 0.853666 0.274630 0.056620
O O12 0.945509 0.731084 0.897937
O O13 0.932043 0.000000 0.984676
O O14 0.000000 0.733310 0.000000
O O15 0.857970 0.500000 0.255858
O O16 0.944691 0.245136 0.245040
O O17 0.082696 0.284858 0.225758
O O18 0.043195 0.000000 0.187501
O O19 0.147888 0.500000 0.277104
#
# Coordination Sequence:
#
# PCOD9202699 Si02
#       7
#     8   8   8   8   8   8   8
#     4  10  22  42  64  87 117 158 202 241 288 353
#     4  10  23  40  60  89 122 153 193 243 292 348
#     4  10  20  38  63  87 116 160 201 238 292 356
#     4   9  17  34  60  88 116 151 202 248 287 345
#     4  11  22  38  60  89 123 154 194 248 296 347
#     4  11  23  39  62  87 118 161 203 245 294 352
#     4  11  24  40  60  89 124 157 196 247 298 354
#
# _framework density 21.193390000000001
#
# number of rings (size 3 to 8) (size 9 to 14) (size 15 to 20)
#    0.000    1.714    2.857    1.286    2.000    3.143 
#    0.000    2.143    0.000    0.000    0.000    0.000 
#    0.000    0.000    0.000    0.000    0.000    0.000 
#
# Total GULP energy -156468.377592 kJ/mol
# GULP energy per Si atom -5588.156343 kJ/mol
# Density = 2.114515 g / cm^3
# Si number density = 21.193390 Si / 1000 Ang^3
#
#
#
# Elastic Constant Matrix: (Units=GPa)
#
#
# Indices 1 2 3 4 5 6 
#
# 1 147.3383 -12.7890 67.8261 0.0003 -12.9743 -0.0002
# 2 -12.7890 38.0858 -7.2302 0.0007 -7.2080 0.0006
# 3 67.8261 -7.2302 123.7904 0.0003 -18.3782 -0.0004
# 4 0.0003 0.0007 0.0003 9.6599 -0.0001 11.0365
# 5 -12.9743 -7.2080 -18.3782 -0.0001 44.8112 0.0001
# 6 -0.0002 0.0006 -0.0004 11.0365 0.0001 14.1347
#
#
#
# Elastic Compliance Matrix: (Units=1/GPa)
#
#
# Indices 1 2 3 4 5 6 
#
# 1 0.009300 0.002426 -0.004788 -0.000002 0.001119 0.000001
# 2 0.002426 0.028384 0.001183 -0.000008 0.005753 0.000005
# 3 -0.004788 0.001183 0.011280 -0.000004 0.003430 0.000003
# 4 -0.000002 -0.000008 -0.000004 0.959171 0.000000 -0.748930
# 5 0.001119 0.005753 0.003430 0.000000 0.024972 -0.000001
# 6 0.000001 0.000005 0.000003 -0.748930 -0.000001 0.655519
#
#
# Mechanical properties :
#
#
# Convention : Reuss Voigt Hill
#
# Bulk Modulus (GPa) = 21.45638 44.98095 33.21866
# Shear Modulus (GPa) = 2.92994 31.14833 17.03913
#
# Velocity S-wave (km/s) = 1.17706 3.83785 2.83854
# Velocity P-wave (km/s) = 3.46315 6.39601 5.14307
#
# Compressibility (1/GPa) = 0.04660618
#
# Stress axis : x y z
#
# Youngs Moduli (GPa) = 107.52350 35.23058 88.65380
#
# Poissons Ratio (x) = -0.08547 0.42446
# Poissons Ratio (y) = -0.26084 -0.10486
# Poissons Ratio (z) = 0.51481 -0.04167
#
# Static dielectric constant tensor:
#      x y z
#    x 1.743080 0.000000 -0.037030 
#    y 0.000000 1.829350 0.000000 
#    z -0.037030 0.000000 1.740860 
# 
# From -- ./inp_files/275040.got.cif
#   From: 2010.05.17/outbox.cif.g08.bks.cpg/sg12_138_cif.got.tgz:275040.got - 2010.06.03 13:09:07.
