data_PCOD9202614
_publ_section_title
;
Structure prediction by ZEFSAII (Michael W. Deem and Ramdas Pophale) SiO2 
 PCOD9202614
Probable space group: C 2/M
;
_chemical_formula_sum "Si O2"
_cell_formula_units_Z 48
_cell_length_a 8.847859
_cell_length_b 11.872543
_cell_length_c 24.987673
_cell_angle_alpha 90.000000
_cell_angle_beta 118.156794
_cell_angle_gamma 90.000000
_cell_volume 2314.241473
_symmetry_space_group_name_H-M "C 2/M"
_symmetry_group_IT_number 12
_symmetry_cell_setting 'monoclinic'
loop_
_space_group_symop_operation_xyz
x,y,z
-x,y,-z
-x,-y,-z
x,-y,z
1/2+x,1/2+y,z
1/2-x,1/2+y,-z
1/2-x,1/2-y,-z
1/2+x,1/2-y,z
loop_
_atom_site_type_symbol
_atom_site_label
_atom_site_fract_x
_atom_site_fract_y
_atom_site_fract_z
Si Si1 0.879696 0.126440 0.073237
Si Si2 0.473061 0.869201 0.266934
Si Si3 0.955673 0.000000 0.292224
Si Si4 0.000000 0.709908 0.000000
Si Si5 0.341191 0.871518 0.433282
Si Si6 0.430207 0.670756 0.784769
Si Si7 0.008443 0.785057 0.630244
O O1 0.963096 0.212946 0.045547
O O2 0.952447 0.147157 0.144507
O O3 0.924417 0.000000 0.064210
O O4 0.674469 0.141526 0.038317
O O5 0.548905 0.800108 0.229889
O O6 0.265973 0.856491 0.233565
O O7 0.532374 0.806444 0.330532
O O8 0.516654 0.000000 0.272496
O O9 0.009164 0.096984 0.255690
O O10 0.918726 0.102526 0.329793
O O11 0.500000 0.873677 0.500000
O O12 0.163643 0.828512 0.427846
O O13 0.380380 0.786319 0.392207
O O14 0.311248 0.000000 0.407413
#
# Coordination Sequence:
#
# PCOD9202614 Si02
#       7
#     8   8   4   4   8   8   8
#     4  11  21  41  64  89 127 164 208 261 315 365
#     4  11  23  40  62  92 127 163 209 254 319 376
#     4  10  20  38  62  90 120 164 198 246 320 364
#     4  10  24  38  62  96 120 166 218 254 308 380
#     4  11  24  44  67  94 126 168 212 261 309 362
#     4  11  22  41  65  91 128 167 204 262 314 380
#     4  11  22  41  67  88 130 163 205 260 310 376
#
# _framework density 20.741136000000001
#
# number of rings (size 3 to 8) (size 9 to 14) (size 15 to 20)
#    0.000    1.167    2.500    4.500    0.000    0.000 
#   15.000    4.583    0.000    0.000    0.000    0.000 
#    0.000    0.000    0.000    0.000    0.000    0.000 
#
# Total GULP energy -133642.541355 kJ/mol
# GULP energy per Si atom -5568.439223 kJ/mol
# Density = 2.069393 g / cm^3
# Si number density = 20.741136 Si / 1000 Ang^3
#
#
#
# Elastic Constant Matrix: (Units=GPa)
#
#
# Indices 1 2 3 4 5 6 
#
# 1 51.1546 21.1155 21.3961 0.0000 4.5525 0.0000
# 2 21.1155 176.3201 28.9996 0.0000 -3.6627 0.0000
# 3 21.3961 28.9996 37.2277 0.0000 14.2675 0.0000
# 4 0.0000 0.0000 0.0000 19.6813 0.0000 -4.3724
# 5 4.5525 -3.6627 14.2675 0.0000 25.0374 0.0000
# 6 0.0000 0.0000 0.0000 -4.3724 0.0000 26.4651
#
#
#
# Elastic Compliance Matrix: (Units=1/GPa)
#
#
# Indices 1 2 3 4 5 6 
#
# 1 0.026207 -0.000311 -0.016602 0.000000 0.004650 0.000000
# 2 -0.000311 0.007018 -0.007296 0.000000 0.005241 0.000000
# 3 -0.016602 -0.007296 0.052890 0.000000 -0.028188 0.000000
# 4 0.000000 0.000000 0.000000 0.052746 0.000000 0.008714
# 5 0.004650 0.005241 -0.028188 0.000000 0.055925 0.000000
# 6 0.000000 0.000000 0.000000 0.008714 0.000000 0.039225
#
#
# Mechanical properties :
#
#
# Convention : Reuss Voigt Hill
#
# Bulk Modulus (GPa) = 26.52782 45.30275 35.91529
# Shear Modulus (GPa) = 16.94946 27.11616 22.03281
#
# Velocity S-wave (km/s) = 2.86176 3.61967 3.26279
# Velocity P-wave (km/s) = 4.87209 6.27365 5.61676
#
# Compressibility (1/GPa) = 0.03769627
#
# Stress axis : x y z
#
# Youngs Moduli (GPa) = 38.15751 142.49671 18.90715
#
# Poissons Ratio (x) = 0.04437 0.31389
# Poissons Ratio (y) = 0.01188 0.13795
# Poissons Ratio (z) = 0.63348 1.03970
#
# Static dielectric constant tensor:
#      x y z
#    x 1.833680 0.000000 0.074050 
#    y 0.000000 1.736750 0.000000 
#    z 0.074050 0.000000 1.731750 
# 
# From -- ./inp_files/332284.got.cif
#   From: 2010.05.17/outbox.cif.g08.bks.cpg/sg12_167_cif.got.tgz:332284.got - 2010.06.03 13:09:07.
