data_PCOD9202252
_publ_section_title
;
Structure prediction by ZEFSAII (Michael W. Deem and Ramdas Pophale) SiO2 
 PCOD9202252
Probable space group: C 2/M
;
_chemical_formula_sum "Si O2"
_cell_formula_units_Z 48
_cell_length_a 25.009640
_cell_length_b 7.541968
_cell_length_c 11.769800
_cell_angle_alpha 90.000000
_cell_angle_beta 109.561486
_cell_angle_gamma 90.000000
_cell_volume 2091.907322
_symmetry_space_group_name_H-M "C 2/M"
_symmetry_group_IT_number 12
_symmetry_cell_setting 'monoclinic'
loop_
_space_group_symop_operation_xyz
x,y,z
-x,y,-z
-x,-y,-z
x,-y,z
1/2+x,1/2+y,z
1/2-x,1/2+y,-z
1/2-x,1/2-y,-z
1/2+x,1/2-y,z
loop_
_atom_site_type_symbol
_atom_site_label
_atom_site_fract_x
_atom_site_fract_y
_atom_site_fract_z
Si Si1 0.860503 0.210692 0.384635
Si Si2 0.375710 0.785528 0.644086
Si Si3 0.734368 0.795840 0.319077
Si Si4 0.303409 0.711069 0.956454
Si Si5 0.977494 0.293810 0.866239
Si Si6 0.910311 0.215455 0.182660
O O1 0.890884 0.238847 0.526033
O O2 0.796764 0.286414 0.353093
O O3 0.892104 0.277230 0.295177
O O4 0.854196 0.000000 0.360790
O O5 0.312855 0.717410 0.630938
O O6 0.421532 0.717709 0.767342
O O7 0.374690 0.000000 0.650710
O O8 0.742187 0.000000 0.359895
O O9 0.707456 0.792945 0.174092
O O10 0.306878 0.500000 0.943722
O O11 0.360857 0.770568 0.059593
O O12 0.250000 0.750000 0.000000
O O13 0.964155 0.500000 0.881010
O O14 0.029254 0.283164 0.815238
O O15 0.000000 0.212791 0.000000
O O16 0.912525 0.000000 0.183139
#
# Coordination Sequence:
#
# PCOD9202252 Si02
#       6
#     8   8   8   8   8   8
#     4  10  21  38  58  83 119 154 190 237 290 346
#     4  10  22  38  59  86 115 151 197 241 285 341
#     4  10  20  38  60  84 119 155 191 241 289 338
#     4  11  21  35  57  86 118 149 189 235 285 343
#     4  10  22  41  62  85 113 149 192 238 289 342
#     4  10  22  39  58  85 118 152 191 235 284 342
#
# _framework density 22.945565999999999
#
# number of rings (size 3 to 8) (size 9 to 14) (size 15 to 20)
#    0.000    1.833    1.667    2.000    0.000    6.333 
#    0.000    3.333    0.000    0.000    0.000    0.000 
#    0.000    0.000    0.000    0.000    0.000    0.000 
#
# Total GULP energy -134200.721957 kJ/mol
# GULP energy per Si atom -5591.696748 kJ/mol
# Density = 2.289334 g / cm^3
# Si number density = 22.945566 Si / 1000 Ang^3
#
#
#
# Elastic Constant Matrix: (Units=GPa)
#
#
# Indices 1 2 3 4 5 6 
#
# 1 91.0139 -3.5068 27.3186 0.0000 -7.6679 0.0000
# 2 -3.5068 62.9272 -3.4571 0.0000 4.8416 0.0000
# 3 27.3186 -3.4571 128.2370 0.0000 -15.3540 0.0000
# 4 0.0000 0.0000 0.0000 23.9812 0.0000 -0.2352
# 5 -7.6679 4.8416 -15.3540 0.0000 30.2422 0.0000
# 6 0.0000 0.0000 0.0000 -0.2352 0.0000 15.4162
#
#
#
# Elastic Compliance Matrix: (Units=1/GPa)
#
#
# Indices 1 2 3 4 5 6 
#
# 1 0.011842 0.000397 -0.002300 0.000000 0.001771 0.000000
# 2 0.000397 0.016105 0.000056 0.000000 -0.002449 0.000000
# 3 -0.002300 0.000056 0.008751 0.000000 0.003851 0.000000
# 4 0.000000 0.000000 0.000000 0.041706 0.000000 0.000636
# 5 0.001771 -0.002449 0.003851 0.000000 0.035862 0.000000
# 6 0.000000 0.000000 0.000000 0.000636 0.000000 0.064877
#
#
# Mechanical properties :
#
#
# Convention : Reuss Voigt Hill
#
# Bulk Modulus (GPa) = 30.29833 35.87638 33.08736
# Shear Modulus (GPa) = 25.79487 31.38281 28.58884
#
# Velocity S-wave (km/s) = 3.35651 3.70226 3.53362
# Velocity P-wave (km/s) = 5.31551 5.82624 5.57672
#
# Compressibility (1/GPa) = 0.03300512
#
# Stress axis : x y z
#
# Youngs Moduli (GPa) = 84.44349 62.09236 114.27811
#
# Poissons Ratio (x) = -0.02467 0.26284
# Poissons Ratio (y) = -0.03355 -0.00643
# Poissons Ratio (z) = 0.19422 -0.00350
#
# Static dielectric constant tensor:
#      x y z
#    x 1.833830 0.000000 0.010350 
#    y 0.000000 1.976840 0.000000 
#    z 0.010350 0.000000 1.843360 
# 
# From -- ./inp_files/172896.got.cif
#   From: 2010.05.17/outbox.cif.g08.bks.cpg/sg12_87_cif.got.tgz:172896.got - 2010.06.03 13:09:07.
