data_PCOD9202534
_publ_section_title
;
Structure prediction by ZEFSAII (Michael W. Deem and Ramdas Pophale) SiO2 
 PCOD9202534
Probable space group: C 2/M
;
_chemical_formula_sum "Si O2"
_cell_formula_units_Z 42
_cell_length_a 20.110955
_cell_length_b 7.277348
_cell_length_c 12.116971
_cell_angle_alpha 90.000000
_cell_angle_beta 109.861434
_cell_angle_gamma 90.000000
_cell_volume 1667.886783
_symmetry_space_group_name_H-M "C 2/M"
_symmetry_group_IT_number 12
_symmetry_cell_setting 'monoclinic'
loop_
_space_group_symop_operation_xyz
x,y,z
-x,y,-z
-x,-y,-z
x,-y,z
1/2+x,1/2+y,z
1/2-x,1/2+y,-z
1/2-x,1/2-y,-z
1/2+x,1/2-y,z
loop_
_atom_site_type_symbol
_atom_site_label
_atom_site_fract_x
_atom_site_fract_y
_atom_site_fract_z
Si Si1 0.500000 0.500000 0.500000
Si Si2 0.134560 0.209871 0.071697
Si Si3 0.902802 0.293499 0.193429
Si Si4 0.945236 0.720490 0.763288
Si Si5 0.876527 0.722406 0.506793
Si Si6 0.725734 0.223040 0.730570
O O1 0.438479 0.338227 0.483676
O O2 0.071636 0.212809 0.124459
O O3 0.200951 0.289225 0.176839
O O4 0.150564 0.000000 0.050227
O O5 0.116731 0.301859 0.946511
O O6 0.911090 0.500000 0.242495
O O7 0.837453 0.215179 0.223609
O O8 0.980303 0.205915 0.241512
O O9 0.950826 0.500000 0.773823
O O10 0.884816 0.767252 0.641035
O O11 0.887150 0.500000 0.502015
O O12 0.802633 0.771104 0.406512
O O13 0.730560 0.000000 0.735891
#
# Coordination Sequence:
#
# PCOD9202534 Si02
#       6
#     2   8   8   8   8   8
#     4  12  22  36  64 102 126 160 212 250 308 382
#     4  11  23  38  59  89 126 163 208 258 314 373
#     4  10  20  38  62  86 116 161 215 257 307 380
#     4  10  22  40  64  88 120 168 208 253 316 380
#     4  10  22  42  64  93 132 166 202 262 318 370
#     4   9  20  41  64  87 122 168 205 254 318 378
#
# _framework density 25.181564000000002
#
# number of rings (size 3 to 8) (size 9 to 14) (size 15 to 20)
#    0.000    1.905    0.000    3.143    1.333    6.857 
#    8.571    0.000    0.000    0.000    0.000    0.000 
#    0.000    0.000    0.000    0.000    0.000    0.000 
#
# Total GULP energy -117193.320443 kJ/mol
# GULP energy per Si atom -5580.634307 kJ/mol
# Density = 2.512425 g / cm^3
# Si number density = 25.181564 Si / 1000 Ang^3
#
#
#
# Elastic Constant Matrix: (Units=GPa)
#
#
# Indices 1 2 3 4 5 6 
#
# 1 60.2297 -17.6633 17.6465 0.0000 8.2547 0.0000
# 2 -17.6633 126.0114 -10.2607 0.0000 6.3956 0.0000
# 3 17.6465 -10.2607 132.6308 0.0000 14.6531 0.0000
# 4 0.0000 0.0000 0.0000 -41.3818 0.0000 19.6932
# 5 8.2547 6.3956 14.6531 0.0000 40.8692 0.0000
# 6 0.0000 0.0000 0.0000 19.6932 0.0000 5.0515
#
#
#
# Elastic Compliance Matrix: (Units=1/GPa)
#
#
# Indices 1 2 3 4 5 6 
#
# 1 0.018385 0.002601 -0.001864 0.000000 -0.003452 0.000000
# 2 0.002601 0.008447 0.000533 0.000000 -0.002038 0.000000
# 3 -0.001864 0.000533 0.008118 0.000000 -0.002618 0.000000
# 4 0.000000 0.000000 0.000000 -0.008463 0.000000 0.032995
# 5 -0.003452 -0.002038 -0.002618 0.000000 0.026423 0.000000
# 6 0.000000 0.000000 0.000000 0.032995 0.000000 0.069332
#
#
# Mechanical properties :
#
#
# Convention : Reuss Voigt Hill
#
# Bulk Modulus (GPa) = 26.67423 33.14634 29.91028
# Shear Modulus (GPa) = 37.82178 22.85109 30.33643
#
# Velocity S-wave (km/s) = 3.87972 3.01566 3.47466
# Velocity P-wave (km/s) = 5.53944 5.03162 5.29162
#
# Compressibility (1/GPa) = 0.03748937
#
# Stress axis : x y z
#
# Youngs Moduli (GPa) = 54.39262 118.38348 123.18204
#
# Poissons Ratio (x) = -0.30786 0.22955
# Poissons Ratio (y) = -0.14145 -0.06561
# Poissons Ratio (z) = 0.10136 -0.06306
#
# Static dielectric constant tensor:
#      x y z
#    x 1.946590 0.000000 0.025330 
#    y 0.000000 2.019370 0.000000 
#    z 0.025330 0.000000 1.982140 
# 
# From -- ./inp_files/163323.got.cif
#   From: 2010.05.17/outbox.cif.g08.bks.cpg/sg12_82_cif.got.tgz:163323.got - 2010.06.03 13:09:07.
