data_PCOD9202518
_publ_section_title
;
Structure prediction by ZEFSAII (Michael W. Deem and Ramdas Pophale) SiO2 
 PCOD9202518
Probable space group: C 2/M
;
_chemical_formula_sum "Si O2"
_cell_formula_units_Z 56
_cell_length_a 25.568071
_cell_length_b 9.317640
_cell_length_c 11.777702
_cell_angle_alpha 90.000000
_cell_angle_beta 102.611602
_cell_angle_gamma 90.000000
_cell_volume 2738.152062
_symmetry_space_group_name_H-M "C 2/M"
_symmetry_group_IT_number 12
_symmetry_cell_setting 'monoclinic'
loop_
_space_group_symop_operation_xyz
x,y,z
-x,y,-z
-x,-y,-z
x,-y,z
1/2+x,1/2+y,z
1/2-x,1/2+y,-z
1/2-x,1/2-y,-z
1/2+x,1/2-y,z
loop_
_atom_site_type_symbol
_atom_site_label
_atom_site_fract_x
_atom_site_fract_y
_atom_site_fract_z
Si Si1 0.025613 0.166868 0.129547
Si Si2 0.935610 0.669312 0.459815
Si Si3 0.264958 0.833556 0.620068
Si Si4 0.918547 0.167425 0.220683
Si Si5 0.334944 0.164204 0.028490
Si Si6 0.760827 0.836859 0.833586
Si Si7 0.607124 0.833370 0.314717
O O1 0.076356 0.249202 0.202273
O O2 0.979250 0.174531 0.202711
O O3 0.039569 0.000000 0.116496
O O4 0.000000 0.222882 0.000000
O O5 0.922560 0.500000 0.436424
O O6 0.916034 0.759484 0.342699
O O7 0.910337 0.717243 0.567530
O O8 0.000000 0.681608 0.500000
O O9 0.250000 0.750000 0.500000
O O10 0.240896 0.752764 0.716765
O O11 0.329184 0.825528 0.664085
O O12 0.249165 0.000000 0.607758
O O13 0.882621 0.253961 0.113860
O O14 0.902520 0.000000 0.216809
O O15 0.286288 0.158016 0.096126
O O16 0.348475 0.000000 0.002664
O O17 0.310889 0.254848 0.913469
O O18 0.774727 0.000000 0.808206
O O19 0.590497 0.000000 0.300014
#
# Coordination Sequence:
#
# PCOD9202518 Si02
#       7
#     8   8   8   8   8   8   8
#     4  10  23  41  60  88 126 164 202 246 302 366
#     4  10  20  38  62  85 116 155 196 245 300 355
#     4  11  25  43  63  91 125 163 210 257 307 367
#     4  11  23  37  59  92 124 156 200 249 300 363
#     4  10  22  40  64  91 121 158 200 251 306 364
#     4  10  22  42  65  89 120 158 203 254 309 365
#     4  10  23  42  63  89 119 158 207 254 302 362
#
# _framework density 20.451747999999998
#
# number of rings (size 3 to 8) (size 9 to 14) (size 15 to 20)
#    0.000    1.714    1.429    1.714    4.000    4.571 
#    0.000    0.000    0.000    0.000    0.000    0.000 
#    0.000    0.000    0.000    0.000    0.000    0.000 
#
# Total GULP energy -156560.809418 kJ/mol
# GULP energy per Si atom -5591.457479 kJ/mol
# Density = 2.040520 g / cm^3
# Si number density = 20.451748 Si / 1000 Ang^3
#
#
#
# Elastic Constant Matrix: (Units=GPa)
#
#
# Indices 1 2 3 4 5 6 
#
# 1 18.8867 13.9342 -4.8438 0.0000 2.3167 0.0000
# 2 13.9342 139.3961 63.2927 0.0000 18.3080 0.0000
# 3 -4.8438 63.2927 116.9763 0.0000 5.9492 0.0000
# 4 0.0000 0.0000 0.0000 40.9218 0.0000 6.1768
# 5 2.3167 18.3080 5.9492 0.0000 35.9968 0.0000
# 6 0.0000 0.0000 0.0000 6.1768 0.0000 16.8237
#
#
#
# Elastic Compliance Matrix: (Units=1/GPa)
#
#
# Indices 1 2 3 4 5 6 
#
# 1 0.062194 -0.009742 0.007864 0.000000 -0.000348 0.000000
# 2 -0.009742 0.011650 -0.006492 0.000000 -0.004225 0.000000
# 3 0.007864 -0.006492 0.012349 0.000000 0.000755 0.000000
# 4 0.000000 0.000000 0.000000 0.025871 0.000000 -0.009498
# 5 -0.000348 -0.004225 0.000755 0.000000 0.029827 0.000000
# 6 0.000000 0.000000 0.000000 -0.009498 0.000000 0.062927
#
#
# Mechanical properties :
#
#
# Convention : Reuss Voigt Hill
#
# Bulk Modulus (GPa) = 14.39819 46.66947 30.53383
# Shear Modulus (GPa) = 20.43242 32.27353 26.35298
#
# Velocity S-wave (km/s) = 3.16421 3.97676 3.59352
# Velocity P-wave (km/s) = 4.51719 6.62985 5.67274
#
# Compressibility (1/GPa) = 0.06945319
#
# Stress axis : x y z
#
# Youngs Moduli (GPa) = 16.07866 85.83418 80.97991
#
# Poissons Ratio (x) = 0.83621 -0.63684
# Poissons Ratio (y) = 0.15664 0.52574
# Poissons Ratio (z) = -0.12645 0.55725
#
# Static dielectric constant tensor:
#      x y z
#    x 1.731750 0.000000 -0.026410 
#    y 0.000000 1.709440 0.000000 
#    z -0.026410 0.000000 1.712220 
# 
# From -- ./inp_files/180789.got.cif
#   From: 2010.05.17/outbox.cif.g08.bks.cpg/sg12_91_cif.got.tgz:180789.got - 2010.06.03 13:09:07.
