data_PCOD9202208
_publ_section_title
;
Structure prediction by ZEFSAII (Michael W. Deem and Ramdas Pophale) SiO2 
 PCOD9202208
Probable space group: C 2/M
;
_chemical_formula_sum "Si O2"
_cell_formula_units_Z 64
_cell_length_a 30.851052
_cell_length_b 7.632181
_cell_length_c 18.589627
_cell_angle_alpha 90.000000
_cell_angle_beta 140.540269
_cell_angle_gamma 90.000000
_cell_volume 2781.821739
_symmetry_space_group_name_H-M "C 2/M"
_symmetry_group_IT_number 12
_symmetry_cell_setting 'monoclinic'
loop_
_space_group_symop_operation_xyz
x,y,z
-x,y,-z
-x,-y,-z
x,-y,z
1/2+x,1/2+y,z
1/2-x,1/2+y,-z
1/2-x,1/2-y,-z
1/2+x,1/2-y,z
loop_
_atom_site_type_symbol
_atom_site_label
_atom_site_fract_x
_atom_site_fract_y
_atom_site_fract_z
Si Si1 0.991451 0.790962 0.903552
Si Si2 0.891752 0.785900 0.327615
Si Si3 0.656523 0.799821 0.331727
Si Si4 0.361726 0.210343 0.532962
Si Si5 0.747463 0.791483 0.080818
Si Si6 0.973126 0.790314 0.573304
Si Si7 0.764394 0.200295 0.705302
Si Si8 0.863125 0.205265 0.952010
O O1 0.923045 0.701238 0.789955
O O2 0.982222 0.000000 0.878922
O O3 0.060324 0.725139 0.953517
O O4 0.000000 0.766418 0.000000
O O5 0.816071 0.725553 0.209409
O O6 0.924018 0.726984 0.445084
O O7 0.949658 0.732120 0.343663
O O8 0.889431 0.000000 0.325851
O O9 0.659215 0.723517 0.415394
O O10 0.696174 0.700518 0.320009
O O11 0.681796 0.000000 0.364046
O O12 0.437654 0.245191 0.602829
O O13 0.308601 0.282219 0.405825
O O14 0.353786 0.000000 0.526133
O O15 0.678845 0.719129 0.028815
O O16 0.745794 0.000000 0.087609
O O17 0.750000 0.750000 0.000000
O O18 0.974486 0.000000 0.569667
O O19 0.813448 0.284265 0.827221
O O20 0.752017 0.000000 0.713128
O O21 0.871967 0.000000 0.944150
#
# Coordination Sequence:
#
# PCOD9202208 Si02
#       8
#     8   8   8   8   8   8   8   8
#     4  10  20  39  62  82 108 148 195 236 280 338
#     4   8  17  35  58  82 108 139 181 231 278 328
#     4  11  23  36  53  82 117 149 185 234 285 331
#     4  10  22  36  51  80 119 149 179 226 283 338
#     4  11  23  39  58  83 117 151 187 231 283 339
#     4   9  17  34  60  83 104 139 185 230 276 331
#     4  10  20  38  60  79 109 151 191 230 277 339
#     4  10  21  38  62  87 109 142 193 240 282 336
#
# _framework density 23.006505000000001
#
# number of rings (size 3 to 8) (size 9 to 14) (size 15 to 20)
#    0.000    2.125    1.250    2.625    0.000    3.750 
#    0.000    6.875    0.000    0.000    0.000    0.000 
#    0.000    0.000    0.000    0.000    0.000    0.000 
#
# Total GULP energy -178785.472211 kJ/mol
# GULP energy per Si atom -5587.046007 kJ/mol
# Density = 2.295414 g / cm^3
# Si number density = 23.006505 Si / 1000 Ang^3
#
#
#
# Elastic Constant Matrix: (Units=GPa)
#
#
# Indices 1 2 3 4 5 6 
#
# 1 118.9682 -11.1378 2.9865 0.0000 17.7391 0.0000
# 2 -11.1378 51.2193 2.8020 0.0000 1.8155 0.0000
# 3 2.9865 2.8020 43.1688 0.0000 19.6249 0.0000
# 4 0.0000 0.0000 0.0000 8.6035 0.0000 -0.4853
# 5 17.7391 1.8155 19.6249 0.0000 34.9617 0.0000
# 6 0.0000 0.0000 0.0000 -0.4853 0.0000 21.8806
#
#
#
# Elastic Compliance Matrix: (Units=1/GPa)
#
#
# Indices 1 2 3 4 5 6 
#
# 1 0.009453 0.002162 0.001930 0.000000 -0.005992 0.000000
# 2 0.002162 0.020092 -0.000645 0.000000 -0.001778 0.000000
# 3 0.001930 -0.000645 0.031556 0.000000 -0.018658 0.000000
# 4 0.000000 0.000000 0.000000 0.116377 0.000000 0.002581
# 5 -0.005992 -0.001778 -0.018658 0.000000 0.042209 0.000000
# 6 0.000000 0.000000 0.000000 0.002581 0.000000 0.045760
#
#
# Mechanical properties :
#
#
# Convention : Reuss Voigt Hill
#
# Bulk Modulus (GPa) = 14.70710 22.51752 18.61231
# Shear Modulus (GPa) = 17.77982 27.66956 22.72469
#
# Velocity S-wave (km/s) = 2.78297 3.47174 3.14626
# Velocity P-wave (km/s) = 4.09061 5.08717 4.61586
#
# Compressibility (1/GPa) = 0.06799437
#
# Stress axis : x y z
#
# Youngs Moduli (GPa) = 105.78621 49.76996 31.69012
#
# Poissons Ratio (x) = -0.10762 -0.06115
# Poissons Ratio (y) = -0.22875 0.02045
# Poissons Ratio (z) = -0.20412 0.03212
#
# Static dielectric constant tensor:
#      x y z
#    x 1.865990 0.000000 0.022070 
#    y 0.000000 1.896720 0.000000 
#    z 0.022070 0.000000 1.880800 
# 
# From -- ./inp_files/295859.got.cif
#   From: 2010.05.17/outbox.cif.g08.bks.cpg/sg12_148_cif.got.tgz:295859.got - 2010.06.03 13:09:07.
