data_PCOD9202803
_publ_section_title
;
Structure prediction by ZEFSAII (Michael W. Deem and Ramdas Pophale) SiO2 
 PCOD9202803
Probable space group: C 2/M
;
_chemical_formula_sum "Si O2"
_cell_formula_units_Z 56
_cell_length_a 11.521655
_cell_length_b 18.482743
_cell_length_c 16.700049
_cell_angle_alpha 90.000000
_cell_angle_beta 50.260077
_cell_angle_gamma 90.000000
_cell_volume 2734.636190
_symmetry_space_group_name_H-M "C 2/M"
_symmetry_group_IT_number 12
_symmetry_cell_setting 'monoclinic'
loop_
_space_group_symop_operation_xyz
x,y,z
-x,y,-z
-x,-y,-z
x,-y,z
1/2+x,1/2+y,z
1/2-x,1/2+y,-z
1/2-x,1/2-y,-z
1/2+x,1/2-y,z
loop_
_atom_site_type_symbol
_atom_site_label
_atom_site_fract_x
_atom_site_fract_y
_atom_site_fract_z
Si Si1 0.390605 0.417734 0.754338
Si Si2 0.844672 0.299409 0.894685
Si Si3 0.353778 0.413085 0.121919
Si Si4 0.858748 0.578466 0.005902
Si Si5 0.592057 0.319972 0.743575
Si Si6 0.821026 0.769019 0.555404
Si Si7 0.822536 0.077153 0.602776
O O1 0.439222 0.500000 0.746462
O O2 0.279075 0.397928 0.876325
O O3 0.530134 0.364542 0.695116
O O4 0.312534 0.416079 0.703056
O O5 0.751658 0.348858 0.871429
O O6 0.973075 0.245341 0.807849
O O7 0.750000 0.250000 0.000000
O O8 0.908361 0.363260 0.920915
O O9 0.305764 0.500000 0.150283
O O10 0.398674 0.377017 0.187381
O O11 0.500000 0.414847 0.000000
O O12 0.817390 0.500000 0.988138
O O13 0.000000 0.569407 0.000000
O O14 0.749229 0.284439 0.652406
O O15 0.750000 0.750000 0.500000
O O16 0.759813 0.850251 0.594874
O O17 0.000000 0.769757 0.500000
O O18 0.000000 0.074316 0.500000
O O19 0.754808 0.000000 0.608000
#
# Coordination Sequence:
#
# PCOD9202803 Si02
#       7
#     8   8   8   8   8   8   8
#     4  10  20  38  63  93 127 171 222 269 325 402
#     4  12  24  37  60  96 132 168 221 276 321 395
#     4  11  24  43  64  95 141 188 225 270 344 431
#     4  10  22  38  57  86 129 171 210 262 325 391
#     4  12  25  39  69  95 129 176 229 279 340 408
#     4  11  26  47  71 101 134 174 227 292 353 408
#     4   9  19  38  66  94 122 161 216 274 331 395
#
# _framework density 20.478045000000002
#
# number of rings (size 3 to 8) (size 9 to 14) (size 15 to 20)
#    0.000    1.286    2.857    2.571    8.000    2.286 
#    0.000    1.429    0.000    2.143    0.000    0.000 
#    0.000    0.000    0.000    0.000    0.000    0.000 
#
# Total GULP energy -155939.486911 kJ/mol
# GULP energy per Si atom -5569.267390 kJ/mol
# Density = 2.043144 g / cm^3
# Si number density = 20.478045 Si / 1000 Ang^3
#
#
#
# Elastic Constant Matrix: (Units=GPa)
#
#
# Indices 1 2 3 4 5 6 
#
# 1 79.9981 53.9369 16.8972 0.0001 5.9428 0.0000
# 2 53.9369 153.0800 43.6578 0.0000 13.4758 0.0000
# 3 16.8972 43.6578 47.4412 0.0000 -1.5102 0.0000
# 4 0.0001 0.0000 0.0000 34.0734 -0.0001 11.1409
# 5 5.9428 13.4758 -1.5102 -0.0001 25.6480 0.0000
# 6 0.0000 0.0000 0.0000 11.1409 0.0000 45.8815
#
#
#
# Elastic Compliance Matrix: (Units=1/GPa)
#
#
# Indices 1 2 3 4 5 6 
#
# 1 0.016436 -0.005458 -0.000863 0.000000 -0.000992 0.000000
# 2 -0.005458 0.011403 -0.008716 0.000000 -0.005240 0.000000
# 3 -0.000863 -0.008716 0.029615 0.000000 0.006523 0.000000
# 4 0.000000 0.000000 0.000000 0.031880 0.000000 -0.007741
# 5 -0.000992 -0.005240 0.006523 0.000000 0.042356 0.000000
# 6 0.000000 0.000000 0.000000 -0.007741 0.000000 0.023675
#
#
# Mechanical properties :
#
#
# Convention : Reuss Voigt Hill
#
# Bulk Modulus (GPa) = 36.52377 56.61146 46.56761
# Shear Modulus (GPa) = 25.69841 32.18908 28.94374
#
# Velocity S-wave (km/s) = 3.54633 3.96900 3.76360
# Velocity P-wave (km/s) = 5.88583 6.97918 6.45569
#
# Compressibility (1/GPa) = 0.02737943
#
# Stress axis : x y z
#
# Youngs Moduli (GPa) = 60.84211 87.69942 33.76683
#
# Poissons Ratio (x) = 0.47863 0.02915
# Poissons Ratio (y) = 0.33206 0.29432
# Poissons Ratio (z) = 0.05252 0.76440
#
# Static dielectric constant tensor:
#      x y z
#    x 1.783330 0.000000 0.033960 
#    y 0.000000 1.861800 0.000000 
#    z 0.033960 0.000000 1.760070 
# 
# From -- ./inp_files/264219.got.cif
#   From: 2010.05.17/outbox.cif.g08.bks.cpg/sg12_133_cif.got.tgz:264219.got - 2010.06.03 13:09:07.
