data_PCOD9202438
_publ_section_title
;
Structure prediction by ZEFSAII (Michael W. Deem and Ramdas Pophale) SiO2 
 PCOD9202438
Probable space group: C 2/M
;
_chemical_formula_sum "Si O2"
_cell_formula_units_Z 48
_cell_length_a 13.840776
_cell_length_b 28.560573
_cell_length_c 8.649535
_cell_angle_alpha 90.000000
_cell_angle_beta 41.480410
_cell_angle_gamma 90.000000
_cell_volume 2264.731880
_symmetry_space_group_name_H-M "C 2/M"
_symmetry_group_IT_number 12
_symmetry_cell_setting 'monoclinic'
loop_
_space_group_symop_operation_xyz
x,y,z
-x,y,-z
-x,-y,-z
x,-y,z
1/2+x,1/2+y,z
1/2-x,1/2+y,-z
1/2-x,1/2-y,-z
1/2+x,1/2-y,z
loop_
_atom_site_type_symbol
_atom_site_label
_atom_site_fract_x
_atom_site_fract_y
_atom_site_fract_z
Si Si1 0.660634 0.339236 0.381712
Si Si2 0.095097 0.305873 0.146235
Si Si3 0.001898 0.207639 0.175112
Si Si4 0.585529 0.053361 0.231619
Si Si5 0.737838 0.368035 0.844368
Si Si6 0.355645 0.118573 0.368372
O O1 0.500000 0.346745 0.500000
O O2 0.638975 0.305390 0.556573
O O3 0.749174 0.382520 0.349717
O O4 0.769483 0.316882 0.128445
O O5 0.071291 0.250937 0.182439
O O6 0.142067 0.329317 0.251056
O O7 0.955256 0.334341 0.250760
O O8 0.089260 0.158726 0.057127
O O9 0.000000 0.224276 0.000000
O O10 0.500000 0.054298 0.500000
O O11 0.722959 0.087454 0.096546
O O12 0.473685 0.077280 0.246381
O O13 0.621653 0.000000 0.151769
O O14 0.759898 0.380865 0.640025
#
# Coordination Sequence:
#
# PCOD9202438 Si02
#       6
#     8   8   8   8   8   8
#     4  12  25  38  56  83 118 167 194 246 288 341
#     4  11  24  39  57  86 118 161 206 245 280 347
#     4  12  24  38  57  82 123 164 205 235 291 350
#     4   8  16  34  64  94 113 140 191 252 301 344
#     4  10  20  38  61  88 118 153 193 252 291 348
#     4  10  21  39  62  87 118 155 200 247 291 347
#
# _framework density 21.194562000000001
#
# number of rings (size 3 to 8) (size 9 to 14) (size 15 to 20)
#    0.000    1.500    3.333    3.500    2.333    1.333 
#    0.000    0.000    0.000   10.000    0.000    0.000 
#    0.000    0.000    0.000    0.000    0.000    0.000 
#
# Total GULP energy -133987.526625 kJ/mol
# GULP energy per Si atom -5582.813609 kJ/mol
# Density = 2.114632 g / cm^3
# Si number density = 21.194562 Si / 1000 Ang^3
#
#
#
# Elastic Constant Matrix: (Units=GPa)
#
#
# Indices 1 2 3 4 5 6 
#
# 1 87.5963 22.4004 -4.4405 0.0000 -7.5109 0.0000
# 2 22.4004 127.5435 2.3533 0.0000 -10.4080 0.0000
# 3 -4.4405 2.3533 69.3203 0.0000 -7.7826 0.0000
# 4 0.0000 0.0000 0.0000 14.0534 0.0000 -1.8239
# 5 -7.5109 -10.4080 -7.7826 0.0000 29.6931 0.0000
# 6 0.0000 0.0000 0.0000 -1.8239 0.0000 7.1779
#
#
#
# Elastic Compliance Matrix: (Units=1/GPa)
#
#
# Indices 1 2 3 4 5 6 
#
# 1 0.012204 -0.001944 0.001152 0.000000 0.002707 0.000000
# 2 -0.001944 0.008381 -0.000138 0.000000 0.002410 0.000000
# 3 0.001152 -0.000138 0.014972 0.000000 0.004167 0.000000
# 4 0.000000 0.000000 0.000000 0.073584 0.000000 0.018698
# 5 0.002707 0.002410 0.004167 0.000000 0.036300 0.000000
# 6 0.000000 0.000000 0.000000 0.018698 0.000000 0.144067
#
#
# Mechanical properties :
#
#
# Convention : Reuss Voigt Hill
#
# Bulk Modulus (GPa) = 29.67725 36.12073 32.89899
# Shear Modulus (GPa) = 16.52346 27.79469 22.15907
#
# Velocity S-wave (km/s) = 2.79518 3.62526 3.23694
# Velocity P-wave (km/s) = 4.94470 5.88242 5.43382
#
# Compressibility (1/GPa) = 0.03369584
#
# Stress axis : x y z
#
# Youngs Moduli (GPa) = 81.94326 119.31719 66.79096
#
# Poissons Ratio (x) = 0.23191 -0.07692
# Poissons Ratio (y) = 0.15927 0.00925
# Poissons Ratio (z) = -0.09437 0.01652
#
# Static dielectric constant tensor:
#      x y z
#    x 1.886270 0.000000 0.008100 
#    y 0.000000 1.747170 0.000000 
#    z 0.008100 0.000000 1.782500 
# 
# From -- ./inp_files/67289.got.cif
#   From: 2010.05.17/outbox.cif.g08.bks.cpg/sg12_34_cif.got.tgz:67289.got - 2010.06.03 13:09:07.
