data_PCOD9202463
_publ_section_title
;
Structure prediction by ZEFSAII (Michael W. Deem and Ramdas Pophale) SiO2 
 PCOD9202463
Probable space group: C 2/M
;
_chemical_formula_sum "Si O2"
_cell_formula_units_Z 56
_cell_length_a 10.156108
_cell_length_b 30.363821
_cell_length_c 11.001385
_cell_angle_alpha 90.000000
_cell_angle_beta 61.902176
_cell_angle_gamma 90.000000
_cell_volume 2992.753532
_symmetry_space_group_name_H-M "C 2/M"
_symmetry_group_IT_number 12
_symmetry_cell_setting 'monoclinic'
loop_
_space_group_symop_operation_xyz
x,y,z
-x,y,-z
-x,-y,-z
x,-y,z
1/2+x,1/2+y,z
1/2-x,1/2+y,-z
1/2-x,1/2-y,-z
1/2+x,1/2-y,z
loop_
_atom_site_type_symbol
_atom_site_label
_atom_site_fract_x
_atom_site_fract_y
_atom_site_fract_z
Si Si1 0.331334 0.912886 0.430376
Si Si2 0.668569 0.680345 0.462391
Si Si3 0.386476 0.216058 0.935542
Si Si4 0.372684 0.500000 0.164851
Si Si5 0.638225 0.500000 0.530159
Si Si6 0.846495 0.241500 0.292326
Si Si7 0.667651 0.083149 0.279983
Si Si8 0.171771 0.834512 0.894422
O O1 0.260564 0.865265 0.427905
O O2 0.231053 0.956112 0.452906
O O3 0.345307 0.915856 0.569568
O O4 0.498414 0.916815 0.304360
O O5 0.500000 0.669589 0.500000
O O6 0.733033 0.717589 0.343724
O O7 0.672248 0.708013 0.587011
O O8 0.493695 0.234033 0.781708
O O9 0.292238 0.172302 0.949487
O O10 0.500000 0.212854 0.000000
O O11 0.250000 0.250000 0.000000
O O12 0.402915 0.500000 0.303451
O O13 0.267150 0.542334 0.194225
O O14 0.500000 0.500000 0.000000
O O15 0.500000 0.500000 0.500000
O O16 0.831832 0.209958 0.183342
O O17 0.759640 0.126393 0.210469
O O18 0.000000 0.843335 0.000000
#
# Coordination Sequence:
#
# PCOD9202463 Si02
#       8
#     8   8   8   4   4   8   8   8
#     4  10  20  38  61  91 122 157 199 259 308 377
#     4  11  23  35  57  84 119 158 202 252 307 368
#     4  12  22  38  58  80 112 159 207 255 305 364
#     4  10  21  41  69  97 123 164 204 254 312 388
#     4  10  21  39  69 101 127 160 202 258 329 373
#     4  11  22  38  54  81 117 163 202 256 309 358
#     4  10  21  38  63  91 120 154 207 254 311 368
#     4  12  22  38  61  85 120 163 210 262 305 371
#
# _framework density 18.711863999999998
#
# number of rings (size 3 to 8) (size 9 to 14) (size 15 to 20)
#    0.000    1.143    4.286    3.000    0.000    2.857 
#    0.000    0.000    6.286    0.857    0.000    0.000 
#    0.000    0.000    0.000    0.000    0.000    0.000 
#
# Total GULP energy -155877.913329 kJ/mol
# GULP energy per Si atom -5567.068333 kJ/mol
# Density = 1.866927 g / cm^3
# Si number density = 18.711864 Si / 1000 Ang^3
#
#
#
# Elastic Constant Matrix: (Units=GPa)
#
#
# Indices 1 2 3 4 5 6 
#
# 1 131.5088 49.3050 38.8631 0.0000 -34.2891 0.0000
# 2 49.3050 82.8256 22.5422 0.0000 -33.6694 0.0000
# 3 38.8631 22.5422 75.0513 0.0000 -36.8717 0.0000
# 4 0.0000 0.0000 0.0000 81.1498 0.0000 -25.4577
# 5 -34.2891 -33.6694 -36.8717 0.0000 30.0376 0.0000
# 6 0.0000 0.0000 0.0000 -25.4577 0.0000 32.2986
#
#
#
# Elastic Compliance Matrix: (Units=1/GPa)
#
#
# Indices 1 2 3 4 5 6 
#
# 1 0.011152 -0.002964 -0.000661 0.000000 0.008596 0.000000
# 2 -0.002964 0.030875 0.019150 0.000000 0.054732 0.000000
# 3 -0.000661 0.019150 0.045573 0.000000 0.076653 0.000000
# 4 0.000000 0.000000 0.000000 0.016371 0.000000 0.012903
# 5 0.008596 0.054732 0.076653 0.000000 0.198546 0.000000
# 6 0.000000 0.000000 0.000000 0.012903 0.000000 0.041132
#
#
# Mechanical properties :
#
#
# Convention : Reuss Voigt Hill
#
# Bulk Modulus (GPa) = 8.42816 56.75627 32.59221
# Shear Modulus (GPa) = 14.19850 40.60889 27.40370
#
# Velocity S-wave (km/s) = 2.75762 4.66362 3.83104
# Velocity P-wave (km/s) = 3.82795 7.70692 6.08481
#
# Compressibility (1/GPa) = 0.11864993
#
# Stress axis : x y z
#
# Youngs Moduli (GPa) = 89.66838 32.38856 21.94272
#
# Poissons Ratio (x) = 0.09601 0.01451
# Poissons Ratio (y) = 0.26581 -0.42021
# Poissons Ratio (z) = 0.05930 -0.62025
#
# Static dielectric constant tensor:
#      x y z
#    x 1.510710 0.000000 -0.044000 
#    y 0.000000 1.530900 0.000000 
#    z -0.044000 0.000000 1.685180 
# 
# From -- ./inp_files/125671.got.cif
#   From: 2010.05.17/outbox.cif.g08.bks.cpg/sg12_63_cif.got.tgz:125671.got - 2010.06.03 13:09:07.
