data_PCOD9202370
_publ_section_title
;
Structure prediction by ZEFSAII (Michael W. Deem and Ramdas Pophale) SiO2 
 PCOD9202370
Probable space group: C 2/M
;
_chemical_formula_sum "Si O2"
_cell_formula_units_Z 56
_cell_length_a 12.958457
_cell_length_b 16.161880
_cell_length_c 14.822180
_cell_angle_alpha 90.000000
_cell_angle_beta 55.973315
_cell_angle_gamma 90.000000
_cell_volume 2572.734473
_symmetry_space_group_name_H-M "C 2/M"
_symmetry_group_IT_number 12
_symmetry_cell_setting 'monoclinic'
loop_
_space_group_symop_operation_xyz
x,y,z
-x,y,-z
-x,-y,-z
x,-y,z
1/2+x,1/2+y,z
1/2-x,1/2+y,-z
1/2-x,1/2-y,-z
1/2+x,1/2-y,z
loop_
_atom_site_type_symbol
_atom_site_label
_atom_site_fract_x
_atom_site_fract_y
_atom_site_fract_z
Si Si1 0.738988 0.672412 0.719601
Si Si2 0.246032 0.407131 0.111023
Si Si3 0.451501 0.674840 0.890823
Si Si4 0.525148 0.871376 0.091727
Si Si5 0.771464 0.629914 0.312016
Si Si6 0.052735 0.094653 0.288635
Si Si7 0.222297 0.846528 0.532786
O O1 0.805827 0.644981 0.778360
O O2 0.595334 0.647972 0.810580
O O3 0.740162 0.770767 0.701546
O O4 0.777146 0.633061 0.604931
O O5 0.271711 0.500000 0.129437
O O6 0.145432 0.408550 0.080289
O O7 0.369038 0.366711 0.007932
O O8 0.454299 0.772357 0.907901
O O9 0.396773 0.648151 0.820407
O O10 0.401647 0.895793 0.205926
O O11 0.500000 0.891027 0.000000
O O12 0.653958 0.593499 0.317687
O O13 0.768614 0.610550 0.419409
O O14 0.925059 0.136222 0.385323
O O15 0.028090 0.000000 0.271340
O O16 0.250000 0.750000 0.500000
#
# Coordination Sequence:
#
# PCOD9202370 Si02
#       7
#     8   8   8   8   8   8   8
#     4   9  20  37  58  85 113 150 201 248 292 354
#     4  12  24  37  58  88 123 161 197 245 308 361
#     4  10  20  38  61  87 119 159 201 247 298 352
#     4  11  23  40  62  87 118 159 208 249 290 357
#     4  10  20  38  61  84 116 158 199 245 296 347
#     4  11  22  36  61  96 127 154 193 247 302 356
#     4   9  20  38  59  85 116 155 199 241 291 351
#
# _framework density 21.766724
#
# number of rings (size 3 to 8) (size 9 to 14) (size 15 to 20)
#    0.000    1.714    0.000    6.000    0.000    5.429 
#    0.000    2.143    0.000    0.857    0.000    0.000 
#    0.000    0.000    0.000    0.000    0.000    0.000 
#
# Total GULP energy -156420.715827 kJ/mol
# GULP energy per Si atom -5586.454137 kJ/mol
# Density = 2.171718 g / cm^3
# Si number density = 21.766724 Si / 1000 Ang^3
#
#
#
# Elastic Constant Matrix: (Units=GPa)
#
#
# Indices 1 2 3 4 5 6 
#
# 1 76.2389 20.9683 37.4082 0.0000 19.1852 0.0000
# 2 20.9683 71.6836 31.9998 0.0000 3.5720 0.0000
# 3 37.4082 31.9998 165.8466 0.0000 35.4307 0.0000
# 4 0.0000 0.0000 0.0000 0.8339 0.0000 8.5537
# 5 19.1852 3.5720 35.4307 0.0000 40.8941 0.0000
# 6 0.0000 0.0000 0.0000 8.5537 0.0000 -44.1668
#
#
#
# Elastic Compliance Matrix: (Units=1/GPa)
#
#
# Indices 1 2 3 4 5 6 
#
# 1 0.016485 -0.003755 -0.001732 0.000000 -0.005905 0.000000
# 2 -0.003755 0.016195 -0.002886 0.000000 0.002847 0.000000
# 3 -0.001732 -0.002886 0.008283 0.000000 -0.006112 0.000000
# 4 0.000000 0.000000 0.000000 0.401520 0.000000 0.077762
# 5 -0.005905 0.002847 -0.006112 0.000000 0.032270 0.000000
# 6 0.000000 0.000000 0.000000 0.077762 0.000000 -0.007581
#
#
# Mechanical properties :
#
#
# Convention : Reuss Voigt Hill
#
# Bulk Modulus (GPa) = 41.29366 54.94685 48.12025
# Shear Modulus (GPa) = 10.16279 14.40510 12.28394
#
# Velocity S-wave (km/s) = 2.16312 2.57533 2.37817
# Velocity P-wave (km/s) = 5.02503 5.84306 5.44942
#
# Compressibility (1/GPa) = 0.02421680
#
# Stress axis : x y z
#
# Youngs Moduli (GPa) = 60.66004 61.74758 120.72963
#
# Poissons Ratio (x) = 0.23183 0.20916
# Poissons Ratio (y) = 0.22775 0.34845
# Poissons Ratio (z) = 0.10509 0.17822
#
# Static dielectric constant tensor:
#      x y z
#    x 1.819120 0.000000 0.054830 
#    y 0.000000 1.801470 0.000000 
#    z 0.054830 0.000000 1.778640 
# 
# From -- ./inp_files/206538.got.cif
#   From: 2010.05.17/outbox.cif.g08.bks.cpg/sg12_104_cif.got.tgz:206538.got - 2010.06.03 13:09:07.
