data_PCOD9202256
_publ_section_title
;
Structure prediction by ZEFSAII (Michael W. Deem and Ramdas Pophale) SiO2 
 PCOD9202256
Probable space group: C 2/M
;
_chemical_formula_sum "Si O2"
_cell_formula_units_Z 52
_cell_length_a 18.949278
_cell_length_b 16.044040
_cell_length_c 24.720493
_cell_angle_alpha 90.000000
_cell_angle_beta 20.186908
_cell_angle_gamma 90.000000
_cell_volume 2593.510642
_symmetry_space_group_name_H-M "C 2/M"
_symmetry_group_IT_number 12
_symmetry_cell_setting 'monoclinic'
loop_
_space_group_symop_operation_xyz
x,y,z
-x,y,-z
-x,-y,-z
x,-y,z
1/2+x,1/2+y,z
1/2-x,1/2+y,-z
1/2-x,1/2-y,-z
1/2+x,1/2-y,z
loop_
_atom_site_type_symbol
_atom_site_label
_atom_site_fract_x
_atom_site_fract_y
_atom_site_fract_z
Si Si1 0.838708 0.177152 0.234100
Si Si2 0.129413 0.662410 0.584959
Si Si3 0.262115 0.405348 0.184798
Si Si4 0.000000 0.189480 0.500000
Si Si5 0.552152 0.597270 0.727950
Si Si6 0.339470 0.801394 0.985642
Si Si7 0.661849 0.098685 0.682870
O O1 0.763837 0.105923 0.248094
O O2 0.667664 0.248014 0.356327
O O3 0.876935 0.141337 0.266834
O O4 0.039077 0.228909 0.070234
O O5 0.250000 0.750000 0.500000
O O6 0.271739 0.606620 0.443409
O O7 0.111925 0.630832 0.658898
O O8 0.902903 0.657105 0.722336
O O9 0.206947 0.500000 0.208130
O O10 0.500000 0.392155 0.000000
O O11 0.883949 0.133238 0.539910
O O12 0.507081 0.500000 0.770327
O O13 0.348686 0.646850 0.854871
O O14 0.502636 0.864185 0.841087
O O15 0.250000 0.750000 0.000000
O O16 0.655741 0.000000 0.688383
#
# Coordination Sequence:
#
# PCOD9202256 Si02
#       7
#     8   8   8   4   8   8   8
#     4  10  20  38  60  84 123 166 206 249 310 375
#     4  12  25  41  63  92 126 166 210 260 315 378
#     4  11  25  40  60  93 130 165 209 259 317 376
#     4  10  21  40  61  92 114 162 208 258 309 378
#     4  11  22  37  61  91 124 159 206 257 312 366
#     4   9  20  36  59  87 115 161 205 246 299 369
#     4  11  22  39  64  89 123 160 210 263 311 368
#
# _framework density 20.050042999999999
#
# number of rings (size 3 to 8) (size 9 to 14) (size 15 to 20)
#    0.000    1.385    0.000    7.154    6.462    0.000 
#    0.000    2.308    0.000    0.000    0.000    6.462 
#    0.000    0.000    0.000    0.000    0.000    0.000 
#
# Total GULP energy -145073.984143 kJ/mol
# GULP energy per Si atom -5579.768621 kJ/mol
# Density = 2.000441 g / cm^3
# Si number density = 20.050043 Si / 1000 Ang^3
#
#
#
# Elastic Constant Matrix: (Units=GPa)
#
#
# Indices 1 2 3 4 5 6 
#
# 1 70.3543 4.3310 12.6355 -0.0370 -11.5756 0.0146
# 2 4.3310 102.8069 17.6284 -0.0333 -14.2734 0.0039
# 3 12.6355 17.6284 87.9889 -0.0525 -18.0276 0.0148
# 4 -0.0370 -0.0333 -0.0525 25.7917 0.0132 -1.2175
# 5 -11.5756 -14.2734 -18.0276 0.0132 33.6701 -0.0055
# 6 0.0146 0.0039 0.0148 -1.2175 -0.0055 28.3357
#
#
#
# Elastic Compliance Matrix: (Units=1/GPa)
#
#
# Indices 1 2 3 4 5 6 
#
# 1 0.015192 0.000222 -0.001277 0.000017 0.004633 -0.000006
# 2 0.000222 0.010476 -0.001354 0.000009 0.003793 0.000000
# 3 -0.001277 -0.001354 0.013043 0.000020 0.005971 -0.000004
# 4 0.000017 0.000009 0.000020 0.038851 0.000005 0.001669
# 5 0.004633 0.003793 0.005971 0.000005 0.036097 0.000001
# 6 -0.000006 0.000000 -0.000004 0.001669 0.000001 0.035363
#
#
# Mechanical properties :
#
#
# Convention : Reuss Voigt Hill
#
# Bulk Modulus (GPa) = 29.50336 36.70442 33.10389
# Shear Modulus (GPa) = 30.27787 32.66319 31.47053
#
# Velocity S-wave (km/s) = 3.89024 4.04057 3.96611
# Velocity P-wave (km/s) = 5.90977 6.33359 6.12535
#
# Compressibility (1/GPa) = 0.03389445
#
# Stress axis : x y z
#
# Youngs Moduli (GPa) = 65.82512 95.45350 76.66980
#
# Poissons Ratio (x) = -0.02121 0.09789
# Poissons Ratio (y) = -0.01463 0.10379
# Poissons Ratio (z) = 0.08404 0.12922
#
# Static dielectric constant tensor:
#      x y z
#    x 1.766420 0.000300 0.045220 
#    y 0.000300 1.720280 0.000350 
#    z 0.045220 0.000350 1.837830 
# 
# From -- ./inp_files/366449.got.cif
#   From: 2010.05.17/outbox.cif.g08.bks.cpg/sg12_184_cif.got.tgz:366449.got - 2010.06.03 13:09:07.
