data_PCOD9202027
_publ_section_title
;
Structure prediction by ZEFSAII (Michael W. Deem and Ramdas Pophale) SiO2 
 PCOD9202027
Probable space group: C 2/M
;
_chemical_formula_sum "Si O2"
_cell_formula_units_Z 64
_cell_length_a 15.300617
_cell_length_b 21.795551
_cell_length_c 9.373630
_cell_angle_alpha 90.000000
_cell_angle_beta 87.287156
_cell_angle_gamma 90.000000
_cell_volume 3122.465241
_symmetry_space_group_name_H-M "C 2/M"
_symmetry_group_IT_number 12
_symmetry_cell_setting 'monoclinic'
loop_
_space_group_symop_operation_xyz
x,y,z
-x,y,-z
-x,-y,-z
x,-y,z
1/2+x,1/2+y,z
1/2-x,1/2+y,-z
1/2-x,1/2-y,-z
1/2+x,1/2-y,z
loop_
_atom_site_type_symbol
_atom_site_label
_atom_site_fract_x
_atom_site_fract_y
_atom_site_fract_z
Si Si1 0.044962 0.805160 0.145194
Si Si2 0.051328 0.571224 0.294424
Si Si3 0.793649 0.187297 0.048450
Si Si4 0.356729 0.928334 0.296856
Si Si5 0.088404 0.261186 0.429253
Si Si6 0.385045 0.665220 0.321702
Si Si7 0.827824 0.570381 0.963586
Si Si8 0.213440 0.630639 0.445103
O O1 0.134138 0.832136 0.074856
O O2 0.069314 0.756096 0.266091
O O3 0.977230 0.849481 0.236411
O O4 0.000000 0.781824 0.000000
O O5 0.042783 0.500000 0.328720
O O6 0.133837 0.594948 0.376032
O O7 0.954320 0.596402 0.321663
O O8 0.081755 0.577420 0.128812
O O9 0.731544 0.128499 0.073951
O O10 0.750000 0.250000 0.000000
O O11 0.838816 0.202361 0.196591
O O12 0.341972 0.925660 0.130389
O O13 0.288441 0.888907 0.390899
O O14 0.350048 0.000000 0.339648
O O15 0.098644 0.203601 0.535853
O O16 0.176760 0.300399 0.432475
O O17 0.000000 0.292016 0.500000
O O18 0.308401 0.618557 0.371365
O O19 0.796088 0.500000 0.932741
#
# Coordination Sequence:
#
# PCOD9202027 Si02
#       8
#     8   8   8   8   8   8   8   8
#     4   9  21  40  60  82 120 156 192 248 309 365
#     4  10  20  38  57  80 119 158 200 250 297 360
#     4  11  22  39  63  92 119 153 210 256 306 357
#     4  10  22  37  56  85 119 159 202 250 302 355
#     4  10  21  36  54  82 119 158 195 238 305 362
#     4  10  22  38  54  84 121 159 195 247 307 361
#     4  10  22  40  61  86 120 161 203 249 306 368
#     4  12  21  34  56  86 116 156 208 239 293 358
#
# _framework density 20.496624000000001
#
# number of rings (size 3 to 8) (size 9 to 14) (size 15 to 20)
#    0.000    1.750    1.250    3.000    3.500    2.500 
#    2.250    0.000    0.000    4.875    0.000    1.750 
#    0.000    0.000    0.000    0.000    0.000    0.000 
#
# Total GULP energy -178252.309451 kJ/mol
# GULP energy per Si atom -5570.384670 kJ/mol
# Density = 2.044997 g / cm^3
# Si number density = 20.496624 Si / 1000 Ang^3
#
#
#
# Elastic Constant Matrix: (Units=GPa)
#
#
# Indices 1 2 3 4 5 6 
#
# 1 85.7125 23.6222 20.6630 0.0000 -24.8890 0.0000
# 2 23.6222 45.3100 18.2372 0.0000 2.4614 0.0000
# 3 20.6630 18.2372 118.4535 0.0000 -14.7290 0.0000
# 4 0.0000 0.0000 0.0000 3.7923 0.0000 -113.2562
# 5 -24.8890 2.4614 -14.7290 0.0000 42.0666 0.0000
# 6 0.0000 0.0000 0.0000 -113.2562 0.0000 -564.8024
#
#
#
# Elastic Compliance Matrix: (Units=1/GPa)
#
#
# Indices 1 2 3 4 5 6 
#
# 1 0.017530 -0.009639 -0.000224 0.000000 0.010857 0.000000
# 2 -0.009639 0.029140 -0.003896 0.000000 -0.008772 0.000000
# 3 -0.000224 -0.003896 0.009507 0.000000 0.003424 0.000000
# 4 0.000000 0.000000 0.000000 0.037732 0.000000 -0.007566
# 5 0.010857 -0.008772 0.003424 0.000000 0.031908 0.000000
# 6 0.000000 0.000000 0.000000 -0.007566 0.000000 -0.000253
#
#
# Mechanical properties :
#
#
# Convention : Reuss Voigt Hill
#
# Bulk Modulus (GPa) = 34.89222 41.61342 38.25282
# Shear Modulus (GPa) = 30.74396 -91.32512 -30.29058
#
# Velocity S-wave (km/s) = 3.87712 -6.68228 -3.84843
# Velocity P-wave (km/s) = 6.09123 6.26024 1.02162
#
# Compressibility (1/GPa) = 0.02865968
#
# Stress axis : x y z
#
# Youngs Moduli (GPa) = 57.04474 34.31710 105.18851
#
# Poissons Ratio (x) = 0.33078 0.02355
# Poissons Ratio (y) = 0.54985 0.40979
# Poissons Ratio (z) = 0.01277 0.13369
#
# Static dielectric constant tensor:
#      x y z
#    x 1.798590 0.000000 -0.006280 
#    y 0.000000 1.750410 0.000000 
#    z -0.006280 0.000000 1.776180 
# 
# From -- ./inp_files/65894.got.cif
#   From: 2010.05.17/outbox.cif.g08.bks.cpg/sg12_33_cif.got.tgz:65894.got - 2010.06.03 13:09:07.
