data_PCOD9202765
_publ_section_title
;
Structure prediction by ZEFSAII (Michael W. Deem and Ramdas Pophale) SiO2 
 PCOD9202765
Probable space group: C 2/M
;
_chemical_formula_sum "Si O2"
_cell_formula_units_Z 40
_cell_length_a 14.955693
_cell_length_b 20.653568
_cell_length_c 6.782343
_cell_angle_alpha 90.000000
_cell_angle_beta 57.128350
_cell_angle_gamma 90.000000
_cell_volume 1759.555734
_symmetry_space_group_name_H-M "C 2/M"
_symmetry_group_IT_number 12
_symmetry_cell_setting 'monoclinic'
loop_
_space_group_symop_operation_xyz
x,y,z
-x,y,-z
-x,-y,-z
x,-y,z
1/2+x,1/2+y,z
1/2-x,1/2+y,-z
1/2-x,1/2-y,-z
1/2+x,1/2-y,z
loop_
_atom_site_type_symbol
_atom_site_label
_atom_site_fract_x
_atom_site_fract_y
_atom_site_fract_z
Si Si1 0.106238 0.426223 0.275882
Si Si2 0.374142 0.308119 0.907955
Si Si3 0.169271 0.679485 0.897050
Si Si4 0.526435 0.426936 0.736845
Si Si5 0.257237 0.374208 0.412375
O O1 0.087406 0.500000 0.241519
O O2 0.193150 0.421698 0.345388
O O3 0.000000 0.398355 0.500000
O O4 0.139826 0.385580 0.047331
O O5 0.287252 0.302985 0.838797
O O6 0.456373 0.365046 0.754853
O O7 0.408497 0.235720 0.927112
O O8 0.316725 0.329295 0.181347
O O9 0.182038 0.665260 0.651209
O O10 0.501078 0.500000 0.697353
O O11 0.651370 0.410663 0.572407
O O12 0.500000 0.429006 0.000000
#
# Coordination Sequence:
#
# PCOD9202765 Si02
#       5
#     8   8   8   8   8
#     4  10  23  43  61  85 119 159 209 266 314 362
#     4   9  20  39  57  90 129 161 200 244 300 370
#     4  10  21  39  61  89 120 165 208 247 304 369
#     4   9  18  35  59  90 125 160 193 241 309 371
#     4  10  20  38  63  91 119 159 202 260 307 372
#
# _framework density 22.73301
#
# number of rings (size 3 to 8) (size 9 to 14) (size 15 to 20)
#    0.000    2.400    0.000    1.200    0.000    8.000 
#   21.600    3.000    0.000    0.000    0.000    0.000 
#    0.000    0.000    0.000    0.000    0.000    0.000 
#
# Total GULP energy -111581.695326 kJ/mol
# GULP energy per Si atom -5579.084766 kJ/mol
# Density = 2.268127 g / cm^3
# Si number density = 22.733010 Si / 1000 Ang^3
#
#
#
# Elastic Constant Matrix: (Units=GPa)
#
#
# Indices 1 2 3 4 5 6 
#
# 1 59.2405 16.7826 18.0658 0.0000 20.8661 0.0000
# 2 16.7826 106.3676 26.5466 0.0000 4.4341 0.0000
# 3 18.0658 26.5466 63.4930 0.0000 7.0562 0.0000
# 4 0.0000 0.0000 0.0000 25.2472 0.0000 -11.7532
# 5 20.8661 4.4341 7.0562 0.0000 38.7717 0.0000
# 6 0.0000 0.0000 0.0000 -11.7532 0.0000 10.4106
#
#
#
# Elastic Compliance Matrix: (Units=1/GPa)
#
#
# Indices 1 2 3 4 5 6 
#
# 1 0.022737 -0.002028 -0.004376 0.000000 -0.011208 0.000000
# 2 -0.002028 0.010684 -0.003955 0.000000 0.000589 0.000000
# 3 -0.004376 -0.003955 0.018715 0.000000 -0.000599 0.000000
# 4 0.000000 0.000000 0.000000 0.083484 0.000000 0.094250
# 5 -0.011208 0.000589 -0.000599 0.000000 0.031866 0.000000
# 6 0.000000 0.000000 0.000000 0.094250 0.000000 0.202460
#
#
# Mechanical properties :
#
#
# Convention : Reuss Voigt Hill
#
# Bulk Modulus (GPa) = 31.82944 39.09902 35.46423
# Shear Modulus (GPa) = 12.46455 26.06630 19.26543
#
# Velocity S-wave (km/s) = 2.34413 3.38986 2.91428
# Velocity P-wave (km/s) = 4.62151 5.70597 5.19213
#
# Compressibility (1/GPa) = 0.03141746
#
# Stress axis : x y z
#
# Youngs Moduli (GPa) = 43.98072 93.59828 53.43264
#
# Poissons Ratio (x) = 0.18983 0.23382
# Poissons Ratio (y) = 0.08920 0.21135
# Poissons Ratio (z) = 0.19246 0.37022
#
# Static dielectric constant tensor:
#      x y z
#    x 1.870750 0.000000 -0.050690 
#    y 0.000000 1.900840 0.000000 
#    z -0.050690 0.000000 1.834520 
# 
# From -- ./inp_files/227075.got.cif
#   From: 2010.05.17/outbox.cif.g08.bks.cpg/sg12_114_cif.got.tgz:227075.got - 2010.06.03 13:09:07.
