data_PCOD9202465
_publ_section_title
;
Structure prediction by ZEFSAII (Michael W. Deem and Ramdas Pophale) SiO2 
 PCOD9202465
Probable space group: C 2/M
;
_chemical_formula_sum "Si O2"
_cell_formula_units_Z 40
_cell_length_a 12.425087
_cell_length_b 15.400182
_cell_length_c 13.575289
_cell_angle_alpha 90.000000
_cell_angle_beta 139.135040
_cell_angle_gamma 90.000000
_cell_volume 1699.561891
_symmetry_space_group_name_H-M "C 2/M"
_symmetry_group_IT_number 12
_symmetry_cell_setting 'monoclinic'
loop_
_space_group_symop_operation_xyz
x,y,z
-x,y,-z
-x,-y,-z
x,-y,z
1/2+x,1/2+y,z
1/2-x,1/2+y,-z
1/2-x,1/2-y,-z
1/2+x,1/2-y,z
loop_
_atom_site_type_symbol
_atom_site_label
_atom_site_fract_x
_atom_site_fract_y
_atom_site_fract_z
Si Si1 0.593801 0.398421 0.257101
Si Si2 0.982936 0.598538 0.105585
Si Si3 0.798654 0.600651 0.573487
Si Si4 0.101898 0.335645 0.659043
Si Si5 0.142464 0.228175 0.016580
O O1 0.553759 0.500000 0.238622
O O2 0.752447 0.389136 0.294336
O O3 0.443386 0.347282 0.106412
O O4 0.656525 0.359645 0.405888
O O5 0.939164 0.500000 0.110293
O O6 0.148105 0.626929 0.279615
O O7 0.860950 0.678812 0.040878
O O8 0.000000 0.590227 0.000000
O O9 0.753643 0.500000 0.550012
O O10 0.966001 0.610085 0.625240
O O11 0.000000 0.290846 0.500000
O O12 0.196635 0.280520 0.805371
O O13 0.000000 0.238599 0.000000
#
# Coordination Sequence:
#
# PCOD9202465 Si02
#       5
#     8   8   8   8   8
#     4  10  22  38  63  95 124 154 194 250 310 366
#     4  10  21  39  61  82 114 161 209 250 290 346
#     4   9  18  36  61  91 123 157 197 243 304 366
#     4  10  20  38  61  91 124 157 191 245 310 369
#     4  12  24  40  58  89 122 162 203 247 299 354
#
# _framework density 23.535475999999999
#
# number of rings (size 3 to 8) (size 9 to 14) (size 15 to 20)
#    0.000    1.800    2.000    2.400    0.000    6.400 
#    3.600    0.000    0.000    0.600    0.000    0.000 
#    0.000    0.000    0.000    0.000    0.000    0.000 
#
# Total GULP energy -111386.803296 kJ/mol
# GULP energy per Si atom -5569.340165 kJ/mol
# Density = 2.348191 g / cm^3
# Si number density = 23.535476 Si / 1000 Ang^3
#
#
#
# Elastic Constant Matrix: (Units=GPa)
#
#
# Indices 1 2 3 4 5 6 
#
# 1 51.5619 -19.4790 46.1757 0.0001 -7.3863 0.0002
# 2 -19.4790 108.6995 91.0298 0.0001 5.4269 0.0001
# 3 46.1757 91.0298 228.2654 0.0000 -18.6432 0.0000
# 4 0.0001 0.0001 0.0000 -176.5113 0.0001 -340.7660
# 5 -7.3863 5.4269 -18.6432 0.0001 42.0354 0.0003
# 6 0.0002 0.0001 0.0000 -340.7660 0.0003 -532.7189
#
#
#
# Elastic Compliance Matrix: (Units=1/GPa)
#
#
# Indices 1 2 3 4 5 6 
#
# 1 0.045181 0.024302 -0.019132 0.000000 -0.003684 0.000000
# 2 0.024302 0.027710 -0.016508 0.000000 -0.006629 0.000000
# 3 -0.019132 -0.016508 0.015288 0.000000 0.005550 0.000000
# 4 0.000000 0.000000 0.000000 0.024115 0.000000 -0.015426
# 5 -0.003684 -0.006629 0.005550 0.000000 0.026459 0.000000
# 6 0.000000 0.000000 0.000000 -0.015426 0.000000 0.007990
#
#
# Mechanical properties :
#
#
# Convention : Reuss Voigt Hill
#
# Bulk Modulus (GPa) = 15.26642 69.33109 42.29875
# Shear Modulus (GPa) = 26.14336 -115.38559 -44.62112
#
# Velocity S-wave (km/s) = 3.33649 -7.00947 -4.35893
# Velocity P-wave (km/s) = 4.61991 5.99901 2.70598
#
# Compressibility (1/GPa) = 0.06550326
#
# Stress axis : x y z
#
# Youngs Moduli (GPa) = 22.13325 36.08786 65.41269
#
# Poissons Ratio (x) = -0.87702 1.25148
# Poissons Ratio (y) = -0.53789 1.07983
# Poissons Ratio (z) = 0.42345 0.59574
#
# Static dielectric constant tensor:
#      x y z
#    x 2.061090 0.000000 -0.038390 
#    y 0.000000 1.900040 0.000000 
#    z -0.038390 0.000000 1.913390 
# 
# From -- ./inp_files/58948.got.cif
#   From: 2010.05.17/outbox.cif.g08.bks.cpg/sg12_30_cif.got.tgz:58948.got - 2010.06.03 13:09:07.
