data_PCOD9202493
_publ_section_title
;
Structure prediction by ZEFSAII (Michael W. Deem and Ramdas Pophale) SiO2 
 PCOD9202493
Probable space group: C 2/M
;
_chemical_formula_sum "Si O2"
_cell_formula_units_Z 64
_cell_length_a 20.608627
_cell_length_b 7.853491
_cell_length_c 33.931218
_cell_angle_alpha 90.000000
_cell_angle_beta 146.627143
_cell_angle_gamma 90.000000
_cell_volume 3020.933776
_symmetry_space_group_name_H-M "C 2/M"
_symmetry_group_IT_number 12
_symmetry_cell_setting 'monoclinic'
loop_
_space_group_symop_operation_xyz
x,y,z
-x,y,-z
-x,-y,-z
x,-y,z
1/2+x,1/2+y,z
1/2-x,1/2+y,-z
1/2-x,1/2-y,-z
1/2+x,1/2-y,z
loop_
_atom_site_type_symbol
_atom_site_label
_atom_site_fract_x
_atom_site_fract_y
_atom_site_fract_z
Si Si1 0.952681 0.709288 0.290485
Si Si2 0.031089 0.698449 0.059299
Si Si3 0.165942 0.796231 0.275219
Si Si4 0.728845 0.297842 0.220780
Si Si5 0.290348 0.295438 0.976749
Si Si6 0.366759 0.294407 0.439890
Si Si7 0.085058 0.702522 0.815909
Si Si8 0.781041 0.704880 0.560260
O O1 0.953503 0.500000 0.291154
O O2 0.857912 0.768027 0.274407
O O3 0.910891 0.768138 0.226393
O O4 0.086281 0.766367 0.364270
O O5 0.058342 0.500000 0.067545
O O6 0.139592 0.773323 0.139093
O O7 0.915242 0.720202 0.027335
O O8 0.000000 0.771400 0.000000
O O9 0.182743 0.729055 0.239127
O O10 0.276336 0.749938 0.358953
O O11 0.044172 0.731046 0.231850
O O12 0.156812 0.000000 0.269491
O O13 0.740712 0.500000 0.232406
O O14 0.300320 0.500000 0.978935
O O15 0.188845 0.229623 0.895915
O O16 0.250000 0.250000 0.000000
O O17 0.500000 0.231534 0.500000
O O18 0.372345 0.500000 0.444707
O O19 0.309232 0.232342 0.451906
O O20 0.103082 0.500000 0.822921
O O21 0.782407 0.500000 0.564265
O O22 0.750000 0.750000 0.500000
#
# Coordination Sequence:
#
# PCOD9202493 Si02
#       8
#     8   8   8   8   8   8   8   8
#     4   9  18  37  61  82 109 149 196 241 284 341
#     4  11  24  41  60  87 124 161 202 256 309 359
#     4  11  23  37  58  89 121 152 191 245 297 346
#     4  10  22  39  60  86 116 155 202 247 299 360
#     4  11  23  38  62  91 120 158 201 248 303 363
#     4  10  22  41  63  86 117 159 198 234 285 352
#     4  10  20  38  62  83 110 153 198 238 287 350
#     4  10  21  38  61  87 118 152 191 239 288 344
#
# _framework density 21.185500999999999
#
# number of rings (size 3 to 8) (size 9 to 14) (size 15 to 20)
#    0.000    1.750    1.250    2.625    1.750    6.750 
#    0.000    1.250    0.000    0.000    0.000    0.000 
#    0.000    0.000    0.000    0.000    0.000    0.000 
#
# Total GULP energy -178816.757822 kJ/mol
# GULP energy per Si atom -5588.023682 kJ/mol
# Density = 2.113728 g / cm^3
# Si number density = 21.185501 Si / 1000 Ang^3
#
#
#
# Elastic Constant Matrix: (Units=GPa)
#
#
# Indices 1 2 3 4 5 6 
#
# 1 90.4278 -17.1781 3.4165 -0.0002 -7.7096 -0.0003
# 2 -17.1781 17.1701 -15.9143 -0.0005 -4.9152 -0.0002
# 3 3.4165 -15.9143 77.1343 0.0000 -3.2483 -0.0001
# 4 -0.0002 -0.0005 0.0000 13.7614 0.0001 -12.0042
# 5 -7.7096 -4.9152 -3.2483 0.0001 42.0857 -0.0003
# 6 -0.0003 -0.0002 -0.0001 -12.0042 -0.0003 13.5548
#
#
#
# Elastic Compliance Matrix: (Units=1/GPa)
#
#
# Indices 1 2 3 4 5 6 
#
# 1 0.015229 0.020255 0.003734 0.000007 0.005444 0.000007
# 2 0.020255 0.103026 0.021091 0.000027 0.017371 0.000026
# 3 0.003734 0.021091 0.017339 0.000006 0.004485 0.000006
# 4 0.000007 0.000027 0.000006 0.319443 0.000006 0.282900
# 5 0.005444 0.017371 0.004485 0.000006 0.027133 0.000006
# 6 0.000007 0.000026 0.000006 0.282900 0.000006 0.324313
#
#
# Mechanical properties :
#
#
# Convention : Reuss Voigt Hill
#
# Bulk Modulus (GPa) = 4.42958 13.93117 9.18037
# Shear Modulus (GPa) = 6.31652 28.17426 17.24539
#
# Velocity S-wave (km/s) = 1.72858 3.65071 2.85620
# Velocity P-wave (km/s) = 2.46564 4.93562 3.90127
#
# Compressibility (1/GPa) = 0.22575506
#
# Stress axis : x y z
#
# Youngs Moduli (GPa) = 65.66244 9.70625 57.67241
#
# Poissons Ratio (x) = -0.19660 -0.21534
# Poissons Ratio (y) = -1.33003 -1.21635
# Poissons Ratio (z) = -0.24517 -0.20471
#
# Static dielectric constant tensor:
#      x y z
#    x 1.740130 0.000000 -0.006640 
#    y 0.000000 1.779340 0.000000 
#    z -0.006640 0.000000 1.734380 
# 
# From -- ./inp_files/378293.got.cif
#   From: 2010.05.17/outbox.cif.g08.bks.cpg/sg12_190_cif.got.tgz:378293.got - 2010.06.03 13:09:07.
