data_PCOD9202730
_publ_section_title
;
Structure prediction by ZEFSAII (Michael W. Deem and Ramdas Pophale) SiO2 
 PCOD9202730
Probable space group: C 2/M
;
_chemical_formula_sum "Si O2"
_cell_formula_units_Z 48
_cell_length_a 21.213256
_cell_length_b 17.728757
_cell_length_c 18.737934
_cell_angle_alpha 90.000000
_cell_angle_beta 20.818859
_cell_angle_gamma 90.000000
_cell_volume 2504.624598
_symmetry_space_group_name_H-M "C 2/M"
_symmetry_group_IT_number 12
_symmetry_cell_setting 'monoclinic'
loop_
_space_group_symop_operation_xyz
x,y,z
-x,y,-z
-x,-y,-z
x,-y,z
1/2+x,1/2+y,z
1/2-x,1/2+y,-z
1/2-x,1/2-y,-z
1/2+x,1/2-y,z
loop_
_atom_site_type_symbol
_atom_site_label
_atom_site_fract_x
_atom_site_fract_y
_atom_site_fract_z
Si Si1 0.451458 0.590123 0.468993
Si Si2 0.976343 0.409461 0.688478
Si Si3 0.180465 0.590445 0.992973
Si Si4 0.586431 0.174212 0.830148
Si Si5 0.711635 0.411011 0.843683
Si Si6 0.339074 0.651401 0.259255
O O1 0.500000 0.607410 0.500000
O O2 0.420730 0.500000 0.497007
O O3 0.275988 0.633575 0.632160
O O4 0.620213 0.609713 0.241649
O O5 0.999106 0.500000 0.661025
O O6 0.865653 0.391826 0.876523
O O7 0.863792 0.387458 0.737640
O O8 0.169573 0.372555 0.484151
O O9 0.160405 0.500000 0.004071
O O10 0.043436 0.633122 0.087274
O O11 0.613110 0.261562 0.783012
O O12 0.500000 0.169534 0.000000
O O13 0.731750 0.500000 0.806308
O O14 0.713235 0.365838 0.767975
O O15 0.517613 0.396723 0.082878
#
# Coordination Sequence:
#
# PCOD9202730 Si02
#       6
#     8   8   8   8   8   8
#     4  10  21  37  61  86 112 154 207 256 295 341
#     4  10  22  40  63  89 122 159 199 248 299 353
#     4  10  23  42  62  90 121 156 203 249 299 356
#     4  12  23  38  61  89 124 159 198 246 301 356
#     4  10  20  38  63  89 118 157 207 251 289 344
#     4  11  22  37  60  91 124 158 199 243 297 357
#
# _framework density 19.164549000000001
#
# number of rings (size 3 to 8) (size 9 to 14) (size 15 to 20)
#    0.000    1.500    3.333    3.000    0.000    6.667 
#    0.000    5.000    0.000    0.000    0.000    0.000 
#    0.000    0.000    0.000    0.000    0.000    0.000 
#
# Total GULP energy -134145.257992 kJ/mol
# GULP energy per Si atom -5589.385750 kJ/mol
# Density = 1.912093 g / cm^3
# Si number density = 19.164549 Si / 1000 Ang^3
#
#
#
# Elastic Constant Matrix: (Units=GPa)
#
#
# Indices 1 2 3 4 5 6 
#
# 1 16.0261 9.0348 10.0016 -0.0019 -5.1117 -0.0071
# 2 9.0348 29.2694 24.2957 -0.0148 -2.7363 -0.0001
# 3 10.0016 24.2957 132.5300 -0.0047 4.2891 -0.0093
# 4 -0.0019 -0.0148 -0.0047 17.9958 -0.0051 16.4429
# 5 -5.1117 -2.7363 4.2891 -0.0051 27.0621 0.0009
# 6 -0.0071 -0.0001 -0.0093 16.4429 0.0009 -5.8689
#
#
#
# Elastic Compliance Matrix: (Units=1/GPa)
#
#
# Indices 1 2 3 4 5 6 
#
# 1 0.080357 -0.021414 -0.002573 0.000022 0.013421 -0.000030
# 2 -0.021414 0.046767 -0.007015 0.000000 0.001796 0.000038
# 3 -0.002573 -0.007015 0.009111 0.000002 -0.002639 -0.000007
# 4 0.000022 0.000000 0.000002 0.015609 0.000005 0.043733
# 5 0.013421 0.001796 -0.002639 0.000005 0.040087 0.000009
# 6 -0.000030 0.000038 -0.000007 0.043733 0.000009 -0.047863
#
#
# Mechanical properties :
#
#
# Convention : Reuss Voigt Hill
#
# Bulk Modulus (GPa) = 13.47166 29.38773 21.42970
# Shear Modulus (GPa) = 21.66236 16.80404 19.23320
#
# Velocity S-wave (km/s) = 3.36569 2.96434 3.17137
# Velocity P-wave (km/s) = 4.70623 5.20424 4.96149
#
# Compressibility (1/GPa) = 0.07422992
#
# Stress axis : x y z
#
# Youngs Moduli (GPa) = 12.44454 21.38281 109.75579
#
# Poissons Ratio (x) = 0.45789 0.28240
# Poissons Ratio (y) = 0.26648 0.76998
# Poissons Ratio (z) = 0.03202 0.15001
#
# Static dielectric constant tensor:
#      x y z
#    x 1.640500 0.000000 0.016710 
#    y 0.000000 1.646850 0.000000 
#    z 0.016710 0.000000 1.669350 
# 
# From -- ./inp_files/285348.got.cif
#   From: 2010.05.17/outbox.cif.g08.bks.cpg/sg12_143_cif.got.tgz:285348.got - 2010.06.03 13:09:07.
