data_PCOD9202472
_publ_section_title
;
Structure prediction by ZEFSAII (Michael W. Deem and Ramdas Pophale) SiO2 
 PCOD9202472
Probable space group: C 2/M
;
_chemical_formula_sum "Si O2"
_cell_formula_units_Z 52
_cell_length_a 13.879325
_cell_length_b 14.554861
_cell_length_c 17.186052
_cell_angle_alpha 90.000000
_cell_angle_beta 139.180652
_cell_angle_gamma 90.000000
_cell_volume 2269.421671
_symmetry_space_group_name_H-M "C 2/M"
_symmetry_group_IT_number 12
_symmetry_cell_setting 'monoclinic'
loop_
_space_group_symop_operation_xyz
x,y,z
-x,y,-z
-x,-y,-z
x,-y,z
1/2+x,1/2+y,z
1/2-x,1/2+y,-z
1/2-x,1/2-y,-z
1/2+x,1/2-y,z
loop_
_atom_site_type_symbol
_atom_site_label
_atom_site_fract_x
_atom_site_fract_y
_atom_site_fract_z
Si Si1 0.981879 0.895683 0.783674
Si Si2 0.697045 0.829555 0.801789
Si Si3 0.235314 0.107937 0.625531
Si Si4 0.025489 0.846586 0.641311
Si Si5 0.000000 0.276197 0.000000
Si Si6 0.153475 0.601298 0.614853
Si Si7 0.954667 0.693063 0.140348
O O1 0.809920 0.864591 0.680445
O O2 0.061444 0.804866 0.866652
O O3 0.028144 0.902409 0.722534
O O4 0.994380 0.000000 0.826054
O O5 0.580823 0.752110 0.703487
O O6 0.859383 0.786457 0.893266
O O7 0.673614 0.902736 0.719974
O O8 0.659772 0.850176 0.868313
O O9 0.138661 0.118259 0.645118
O O10 0.387498 0.159969 0.731494
O O11 0.134822 0.149024 0.495539
O O12 0.259646 0.000000 0.625105
O O13 0.951818 0.331888 0.047424
O O14 0.142094 0.500000 0.572039
O O15 0.000000 0.650743 0.500000
#
# Coordination Sequence:
#
# PCOD9202472 Si02
#       7
#     8   8   8   8   4   8   8
#     4  10  20  38  61  93 126 161 204 251 312 382
#     4  11  24  40  68  89 126 168 216 258 316 375
#     4  11  22  39  63  95 133 164 202 257 319 386
#     4  10  21  37  63  96 125 164 205 254 317 383
#     4  12  22  48  64  88 124 164 224 276 308 362
#     4  10  22  38  60  94 133 165 202 257 319 383
#     4  11  25  41  66  94 120 169 212 264 320 371
#
# _framework density 22.913328
#
# number of rings (size 3 to 8) (size 9 to 14) (size 15 to 20)
#    0.000    1.385    3.077    2.308    6.462    1.846 
#    0.000    1.923    0.000    1.846    0.000    0.000 
#    0.000    0.000    0.000    0.000    0.000    0.000 
#
# Total GULP energy -145104.487512 kJ/mol
# GULP energy per Si atom -5580.941827 kJ/mol
# Density = 2.286118 g / cm^3
# Si number density = 22.913328 Si / 1000 Ang^3
#
#
#
# Elastic Constant Matrix: (Units=GPa)
#
#
# Indices 1 2 3 4 5 6 
#
# 1 98.4613 -9.3984 12.3812 0.0001 -23.1607 0.0000
# 2 -9.3984 64.3314 5.0894 0.0000 -4.8976 0.0000
# 3 12.3812 5.0894 83.1835 0.0001 -5.7656 0.0001
# 4 0.0001 0.0000 0.0001 -4.3236 0.0001 -2.2483
# 5 -23.1607 -4.8976 -5.7656 0.0001 29.7594 0.0000
# 6 0.0000 0.0000 0.0001 -2.2483 0.0000 35.1053
#
#
#
# Elastic Compliance Matrix: (Units=1/GPa)
#
#
# Indices 1 2 3 4 5 6 
#
# 1 0.013029 0.002800 -0.001395 0.000000 0.010331 0.000000
# 2 0.002800 0.016396 -0.001097 0.000000 0.004665 0.000000
# 3 -0.001395 -0.001097 0.012375 0.000000 0.001132 0.000000
# 4 0.000000 0.000000 0.000000 -0.223833 0.000001 -0.014336
# 5 0.010331 0.004665 0.001132 0.000001 0.042630 0.000000
# 6 0.000000 0.000000 0.000000 -0.014336 0.000000 0.027568
#
#
# Mechanical properties :
#
#
# Convention : Reuss Voigt Hill
#
# Bulk Modulus (GPa) = 23.57519 29.12451 26.34985
# Shear Modulus (GPa) = -50.85669 27.96847 -11.44411
#
# Velocity S-wave (km/s) = -4.71629 3.49753 -2.23727
# Velocity P-wave (km/s) = 4.39849 5.38967 2.20249
#
# Compressibility (1/GPa) = 0.04241747
#
# Stress axis : x y z
#
# Youngs Moduli (GPa) = 76.75197 60.99230 80.81000
#
# Poissons Ratio (x) = -0.17079 0.11269
# Poissons Ratio (y) = -0.21493 0.08861
# Poissons Ratio (z) = 0.10704 0.06688
#
# Static dielectric constant tensor:
#      x y z
#    x 1.890420 0.000000 -0.008110 
#    y 0.000000 1.846660 0.000000 
#    z -0.008110 0.000000 1.874060 
# 
# From -- ./inp_files/270745.got.cif
#   From: 2010.05.17/outbox.cif.g08.bks.cpg/sg12_136_cif.got.tgz:270745.got - 2010.06.03 13:09:07.
