data_PCOD9202939
_publ_section_title
;
Structure prediction by ZEFSAII (Michael W. Deem and Ramdas Pophale) SiO2 
 PCOD9202939
Probable space group: C 2/M
;
_chemical_formula_sum "Si O2"
_cell_formula_units_Z 50
_cell_length_a 25.816659
_cell_length_b 7.763838
_cell_length_c 13.180795
_cell_angle_alpha 90.000000
_cell_angle_beta 127.431084
_cell_angle_gamma 90.000000
_cell_volume 2097.901514
_symmetry_space_group_name_H-M "C 2/M"
_symmetry_group_IT_number 12
_symmetry_cell_setting 'monoclinic'
loop_
_space_group_symop_operation_xyz
x,y,z
-x,y,-z
-x,-y,-z
x,-y,z
1/2+x,1/2+y,z
1/2-x,1/2+y,-z
1/2-x,1/2-y,-z
1/2+x,1/2-y,z
loop_
_atom_site_type_symbol
_atom_site_label
_atom_site_fract_x
_atom_site_fract_y
_atom_site_fract_z
Si Si1 0.099475 0.311572 0.411898
Si Si2 0.920404 0.804883 0.050529
Si Si3 0.734544 0.295457 0.658201
Si Si4 0.472110 0.695756 0.327368
Si Si5 0.615284 0.705792 0.206719
Si Si6 0.776924 0.295924 0.923035
Si Si7 0.000000 0.500000 0.500000
O O1 0.077416 0.500000 0.423189
O O2 0.174916 0.287222 0.527879
O O3 0.050637 0.185004 0.409542
O O4 0.092564 0.291576 0.283235
O O5 0.951052 0.736654 0.190384
O O6 0.946067 0.000000 0.072424
O O7 0.921338 0.728466 0.938296
O O8 0.843421 0.804539 0.982186
O O9 0.730841 0.500000 0.637862
O O10 0.806985 0.237721 0.712034
O O11 0.729592 0.257287 0.772368
O O12 0.446537 0.500000 0.314505
O O13 0.458228 0.843947 0.391198
O O14 0.605842 0.500000 0.202539
O O15 0.791548 0.500000 0.934902
O O16 0.750000 0.250000 0.000000
#
# Coordination Sequence:
#
# PCOD9202939 Si02
#       7
#     8   8   8   8   8   8   2
#     4  12  24  40  61  94 130 170 221 267 322 389
#     4   9  21  41  65  91 125 165 210 260 326 386
#     4  10  21  38  58  88 127 172 215 265 327 385
#     4  11  25  47  70  96 131 170 218 272 321 391
#     4  10  20  38  64  94 128 170 211 264 328 391
#     4  10  21  36  60  88 121 159 211 266 321 382
#     4  12  26  48  68  96 124 168 222 260 340 376
#
# _framework density 23.83334
#
# number of rings (size 3 to 8) (size 9 to 14) (size 15 to 20)
#    0.000    1.600    0.800    3.600    1.120    4.480 
#    0.000    4.800    0.000    0.000    0.000    0.000 
#    0.000    0.000    0.000    0.000    0.000    0.000 
#
# Total GULP energy -139478.483834 kJ/mol
# GULP energy per Si atom -5579.139353 kJ/mol
# Density = 2.377909 g / cm^3
# Si number density = 23.833340 Si / 1000 Ang^3
#
#
#
# Elastic Constant Matrix: (Units=GPa)
#
#
# Indices 1 2 3 4 5 6 
#
# 1 27.4413 -4.3060 5.1685 0.0000 -6.9755 0.0000
# 2 -4.3060 112.5078 35.5537 0.0000 -4.4145 0.0000
# 3 5.1685 35.5537 142.6132 0.0000 -11.4672 0.0000
# 4 0.0000 0.0000 0.0000 24.6814 0.0000 -8.5134
# 5 -6.9755 -4.4145 -11.4672 0.0000 27.3405 0.0000
# 6 0.0000 0.0000 0.0000 -8.5134 0.0000 14.0143
#
#
#
# Elastic Compliance Matrix: (Units=1/GPa)
#
#
# Indices 1 2 3 4 5 6 
#
# 1 0.039557 0.002285 -0.001203 0.000000 0.009957 0.000000
# 2 0.002285 0.009789 -0.002431 0.000000 0.001144 0.000000
# 3 -0.001203 -0.002431 0.007871 0.000000 0.002602 0.000000
# 4 0.000000 0.000000 0.000000 0.051257 0.000000 0.031137
# 5 0.009957 0.001144 0.002602 0.000000 0.040392 0.000000
# 6 0.000000 0.000000 0.000000 0.031137 0.000000 0.090271
#
#
# Mechanical properties :
#
#
# Convention : Reuss Voigt Hill
#
# Bulk Modulus (GPa) = 18.34223 39.48832 28.91527
# Shear Modulus (GPa) = 19.23018 29.61698 24.42358
#
# Velocity S-wave (km/s) = 2.84361 3.52898 3.20467
# Velocity P-wave (km/s) = 4.30049 5.76276 5.08447
#
# Compressibility (1/GPa) = 0.05451901
#
# Stress axis : x y z
#
# Youngs Moduli (GPa) = 25.27967 102.15672 127.05073
#
# Poissons Ratio (x) = -0.23340 0.15279
# Poissons Ratio (y) = -0.05776 0.30889
# Poissons Ratio (z) = 0.03040 0.24837
#
# Static dielectric constant tensor:
#      x y z
#    x 1.993450 0.000000 -0.129100 
#    y 0.000000 1.916920 0.000000 
#    z -0.129100 0.000000 2.033500 
# 
# From -- ./inp_files/181184.got.cif
#   From: 2010.05.17/outbox.cif.g08.bks.cpg/sg12_91_cif.got.tgz:181184.got - 2010.06.03 13:09:07.
