data_PCOD9202718
_publ_section_title
;
Structure prediction by ZEFSAII (Michael W. Deem and Ramdas Pophale) SiO2 
 PCOD9202718
Probable space group: C 2/M
;
_chemical_formula_sum "Si O2"
_cell_formula_units_Z 56
_cell_length_a 14.526616
_cell_length_b 11.061102
_cell_length_c 17.208923
_cell_angle_alpha 90.000000
_cell_angle_beta 104.033340
_cell_angle_gamma 90.000000
_cell_volume 2682.610234
_symmetry_space_group_name_H-M "C 2/M"
_symmetry_group_IT_number 12
_symmetry_cell_setting 'monoclinic'
loop_
_space_group_symop_operation_xyz
x,y,z
-x,y,-z
-x,-y,-z
x,-y,z
1/2+x,1/2+y,z
1/2-x,1/2+y,-z
1/2-x,1/2-y,-z
1/2+x,1/2-y,z
loop_
_atom_site_type_symbol
_atom_site_label
_atom_site_fract_x
_atom_site_fract_y
_atom_site_fract_z
Si Si1 0.583440 0.718962 0.172645
Si Si2 0.662988 0.633645 0.679263
Si Si3 0.783364 0.633172 0.215105
Si Si4 0.835481 0.367556 0.938617
Si Si5 0.682465 0.636824 0.500057
Si Si6 0.944597 0.865256 0.673747
Si Si7 0.629043 0.275642 0.900329
O O1 0.673170 0.636980 0.166442
O O2 0.606269 0.837472 0.127176
O O3 0.586495 0.727796 0.266650
O O4 0.476819 0.674604 0.132894
O O5 0.705737 0.500000 0.706802
O O6 0.708427 0.754723 0.723507
O O7 0.654620 0.640636 0.584534
O O8 0.557102 0.634561 0.691052
O O9 0.805812 0.500000 0.250877
O O10 0.851349 0.666929 0.156900
O O11 0.858930 0.500000 0.972174
O O12 0.721553 0.357829 0.902398
O O13 0.861730 0.271677 0.010189
O O14 0.722045 0.500000 0.494532
O O15 0.750000 0.750000 0.500000
O O16 0.598716 0.651935 0.420229
O O17 0.913601 0.000000 0.694081
#
# Coordination Sequence:
#
# PCOD9202718 Si02
#       7
#     8   8   8   8   8   8   8
#     4  11  22  38  60  92 122 163 206 258 311 379
#     4  10  21  40  64  90 123 167 217 260 308 378
#     4  11  23  39  63  97 131 165 211 268 323 371
#     4  10  23  41  64  89 121 164 213 262 315 380
#     4  10  21  38  62  90 123 163 210 261 311 369
#     4  10  20  38  63  88 119 163 211 255 306 373
#     4  10  22  42  62  88 125 165 210 258 319 379
#
# _framework density 20.87519
#
# number of rings (size 3 to 8) (size 9 to 14) (size 15 to 20)
#    0.000    1.714    1.429    2.571    0.000    8.571 
#    0.000    2.143    0.000    9.429    0.000    0.000 
#    0.000    0.000    0.000    0.000    0.000    0.000 
#
# Total GULP energy -156111.718202 kJ/mol
# GULP energy per Si atom -5575.418507 kJ/mol
# Density = 2.082768 g / cm^3
# Si number density = 20.875190 Si / 1000 Ang^3
#
#
#
# Elastic Constant Matrix: (Units=GPa)
#
#
# Indices 1 2 3 4 5 6 
#
# 1 90.6739 22.1800 32.7501 0.0000 -1.6104 0.0000
# 2 22.1800 97.9084 47.0789 0.0000 -2.4686 0.0000
# 3 32.7501 47.0789 101.0365 0.0000 -8.2106 0.0000
# 4 0.0000 0.0000 0.0000 20.0440 0.0000 -2.4011
# 5 -1.6104 -2.4686 -8.2106 0.0000 38.3613 0.0000
# 6 0.0000 0.0000 0.0000 -2.4011 0.0000 11.3850
#
#
#
# Elastic Compliance Matrix: (Units=1/GPa)
#
#
# Indices 1 2 3 4 5 6 
#
# 1 0.012594 -0.001142 -0.003575 0.000000 -0.000310 0.000000
# 2 -0.001142 0.013275 -0.005852 0.000000 -0.000446 0.000000
# 3 -0.003575 -0.005852 0.013983 0.000000 0.002466 0.000000
# 4 0.000000 0.000000 0.000000 0.051183 0.000000 0.010794
# 5 -0.000310 -0.000446 0.002466 0.000000 0.026554 0.000000
# 6 0.000000 0.000000 0.000000 0.010794 0.000000 0.090111
#
#
# Mechanical properties :
#
#
# Convention : Reuss Voigt Hill
#
# Bulk Modulus (GPa) = 53.43453 54.84854 54.14154
# Shear Modulus (GPa) = 21.26973 26.46540 23.86756
#
# Velocity S-wave (km/s) = 3.19548 3.56447 3.38501
# Velocity P-wave (km/s) = 6.26638 6.57816 6.42416
#
# Compressibility (1/GPa) = 0.01871449
#
# Stress axis : x y z
#
# Youngs Moduli (GPa) = 79.40515 75.33088 71.51318
#
# Poissons Ratio (x) = 0.08599 0.25569
# Poissons Ratio (y) = 0.09064 0.41848
# Poissons Ratio (z) = 0.28391 0.44082
#
# Static dielectric constant tensor:
#      x y z
#    x 1.748100 0.000000 0.015270 
#    y 0.000000 1.786920 0.000000 
#    z 0.015270 0.000000 1.790870 
# 
# From -- ./inp_files/268847.got.cif
#   From: 2010.05.17/outbox.cif.g08.bks.cpg/sg12_135_cif.got.tgz:268847.got - 2010.06.03 13:09:07.
