data_PCOD9202040
_publ_section_title
;
Structure prediction by ZEFSAII (Michael W. Deem and Ramdas Pophale) SiO2 
 PCOD9202040
Probable space group: C 2/M
;
_chemical_formula_sum "Si O2"
_cell_formula_units_Z 64
_cell_length_a 21.872386
_cell_length_b 16.597055
_cell_length_c 9.492076
_cell_angle_alpha 90.000000
_cell_angle_beta 89.536902
_cell_angle_gamma 90.000000
_cell_volume 3445.674236
_symmetry_space_group_name_H-M "C 2/M"
_symmetry_group_IT_number 12
_symmetry_cell_setting 'monoclinic'
loop_
_space_group_symop_operation_xyz
x,y,z
-x,y,-z
-x,-y,-z
x,-y,z
1/2+x,1/2+y,z
1/2-x,1/2+y,-z
1/2-x,1/2-y,-z
1/2+x,1/2-y,z
loop_
_atom_site_type_symbol
_atom_site_label
_atom_site_fract_x
_atom_site_fract_y
_atom_site_fract_z
Si Si1 0.568777 0.252389 0.943247
Si Si2 0.733069 0.209931 0.306491
Si Si3 0.630351 0.093417 0.839850
Si Si4 0.063939 0.908434 0.378511
Si Si5 0.245472 0.409827 0.047867
Si Si6 0.155646 0.842223 0.154735
Si Si7 0.344750 0.804857 0.428861
Si Si8 0.562869 0.679537 0.641033
O O1 0.582693 0.160619 0.895815
O O2 0.579667 0.307647 0.804039
O O3 0.500000 0.260865 0.000000
O O4 0.614511 0.281200 0.063857
O O5 0.742533 0.152959 0.173844
O O6 0.701337 0.290708 0.249900
O O7 0.686641 0.173175 0.422955
O O8 0.797757 0.236714 0.370622
O O9 0.650462 0.123818 0.684441
O O10 0.610194 0.000000 0.838614
O O11 0.688039 0.099963 0.943840
O O12 0.113643 0.893488 0.258884
O O13 0.088530 0.889218 0.535423
O O14 0.008861 0.844565 0.355475
O O15 0.041476 0.000000 0.370325
O O16 0.244648 0.500000 0.104711
O O17 0.305222 0.394566 0.953579
O O18 0.410863 0.761023 0.432673
#
# Coordination Sequence:
#
# PCOD9202040 Si02
#       8
#     8   8   8   8   8   8   8   8
#     4  11  22  38  62  87 114 156 205 244 290 355
#     4  11  21  38  61  86 114 158 199 241 295 356
#     4  10  21  37  59  87 118 151 191 250 300 345
#     4  11  23  40  62  87 123 163 196 243 297 351
#     4  11  22  37  58  87 120 154 194 242 300 353
#     4  12  21  40  60  88 116 161 197 246 288 362
#     4  10  21  37  62  88 114 153 203 244 290 356
#     4  10  20  38  57  87 114 153 198 236 285 351
#
# _framework density 18.574012
#
# number of rings (size 3 to 8) (size 9 to 14) (size 15 to 20)
#    0.000    1.250    5.000    3.000    0.000    0.750 
#    0.000    6.875    0.000    0.000    0.000    7.875 
#    0.000    0.000    0.000    0.000    0.000    0.000 
#
# Total GULP energy -178417.166476 kJ/mol
# GULP energy per Si atom -5575.536452 kJ/mol
# Density = 1.853174 g / cm^3
# Si number density = 18.574012 Si / 1000 Ang^3
#
#
#
# Elastic Constant Matrix: (Units=GPa)
#
#
# Indices 1 2 3 4 5 6 
#
# 1 65.9470 21.4163 25.7761 0.0000 -11.4987 0.0000
# 2 21.4163 64.0088 29.4666 0.0000 2.3145 0.0000
# 3 25.7761 29.4666 95.8567 0.0000 -26.0689 0.0000
# 4 0.0000 0.0000 0.0000 23.3654 0.0000 2.2767
# 5 -11.4987 2.3145 -26.0689 0.0000 29.7029 0.0000
# 6 0.0000 0.0000 0.0000 2.2767 0.0000 15.8510
#
#
#
# Elastic Compliance Matrix: (Units=1/GPa)
#
#
# Indices 1 2 3 4 5 6 
#
# 1 0.018756 -0.005803 -0.001526 0.000000 0.006374 0.000000
# 2 -0.005803 0.021703 -0.008120 0.000000 -0.011064 0.000000
# 3 -0.001526 -0.008120 0.017536 0.000000 0.015432 0.000000
# 4 0.000000 0.000000 0.000000 0.043406 0.000000 -0.006234
# 5 0.006374 -0.011064 0.015432 0.000000 0.050540 0.000000
# 6 0.000000 0.000000 0.000000 -0.006234 0.000000 0.063983
#
#
# Mechanical properties :
#
#
# Convention : Reuss Voigt Hill
#
# Bulk Modulus (GPa) = 36.90663 42.12561 39.51612
# Shear Modulus (GPa) = 19.54235 23.72740 21.63488
#
# Velocity S-wave (km/s) = 3.24718 3.57802 3.41661
# Velocity P-wave (km/s) = 5.82856 6.30863 6.07334
#
# Compressibility (1/GPa) = 0.02709540
#
# Stress axis : x y z
#
# Youngs Moduli (GPa) = 53.31566 46.07735 57.02686
#
# Poissons Ratio (x) = 0.26740 0.08704
# Poissons Ratio (y) = 0.30941 0.46305
# Poissons Ratio (z) = 0.08138 0.37414
#
# Static dielectric constant tensor:
#      x y z
#    x 1.655420 0.000000 -0.002250 
#    y 0.000000 1.613070 0.000000 
#    z -0.002250 0.000000 1.655330 
# 
# From -- ./inp_files/96867.got.cif
#   From: 2010.05.17/outbox.cif.g08.bks.cpg/sg12_49_cif.got.tgz:96867.got - 2010.06.03 13:09:07.
