data_PCOD9202008
_publ_section_title
;
Structure prediction by ZEFSAII (Michael W. Deem and Ramdas Pophale) SiO2 
 PCOD9202008
Probable space group: C 2/M
;
_chemical_formula_sum "Si O2"
_cell_formula_units_Z 56
_cell_length_a 8.583323
_cell_length_b 33.205053
_cell_length_c 20.007192
_cell_angle_alpha 90.000000
_cell_angle_beta 149.095493
_cell_angle_gamma 90.000000
_cell_volume 2928.722241
_symmetry_space_group_name_H-M "C 2/M"
_symmetry_group_IT_number 12
_symmetry_cell_setting 'monoclinic'
loop_
_space_group_symop_operation_xyz
x,y,z
-x,y,-z
-x,-y,-z
x,-y,z
1/2+x,1/2+y,z
1/2-x,1/2+y,-z
1/2-x,1/2-y,-z
1/2+x,1/2-y,z
loop_
_atom_site_type_symbol
_atom_site_label
_atom_site_fract_x
_atom_site_fract_y
_atom_site_fract_z
Si Si1 0.725257 0.658092 0.520089
Si Si2 0.341066 0.000000 0.600308
Si Si3 0.560168 0.500000 0.100309
Si Si4 0.737032 0.195433 0.250000
Si Si5 0.061569 0.577530 0.600888
Si Si6 0.870669 0.716970 0.249999
Si Si7 0.658017 0.577529 0.899111
Si Si8 0.355098 0.658091 0.020088
O O1 0.500000 0.650741 0.500000
O O2 0.522289 0.670209 0.381726
O O3 0.918392 0.618558 0.576716
O O4 0.942068 0.694798 0.622449
O O5 0.583444 0.000000 0.750000
O O6 0.410938 0.039531 0.582426
O O7 0.000000 0.000000 0.500000
O O8 0.418768 0.539531 0.082427
O O9 0.500000 0.500000 0.000000
O O10 0.836793 0.235942 0.249999
O O11 0.555604 0.208993 0.249999
O O12 0.495390 0.170209 0.118276
O O13 0.416467 0.576731 0.750000
O O14 0.000000 0.575232 0.500000
O O15 0.547722 0.694798 0.122446
O O16 0.611527 0.618558 0.923283
O O17 0.000000 0.575231 0.000000
O O18 0.500000 0.650740 0.000000
#
# Coordination Sequence:
#
# PCOD9202008 Si02
#       8
#     8   4   4   8   8   8   8   8
#     4  10  21  39  60  85 120 160 206 250 303 361
#     4  10  23  44  68  96 126 162 201 244 294 358
#     4  10  23  44  68  96 126 162 201 244 294 358
#     4  10  22  34  60  85 116 159 200 250 309 362
#     4  11  24  41  63  92 127 159 200 252 300 355
#     4  10  20  38  56  85 118 155 202 256 303 362
#     4  11  24  41  63  92 127 159 200 252 300 355
#     4  10  21  39  60  85 120 160 206 250 303 361
#
# _framework density 19.120965999999999
#
# number of rings (size 3 to 8) (size 9 to 14) (size 15 to 20)
#    0.000    1.714    1.429    2.143    2.000    3.429 
#    0.000    0.000    0.000    0.000    0.000    0.000 
#    0.000    0.000    0.000    0.000    0.000    0.000 
#
# Total GULP energy -156532.897359 kJ/mol
# GULP energy per Si atom -5590.460620 kJ/mol
# Density = 1.907745 g / cm^3
# Si number density = 19.120966 Si / 1000 Ang^3
#
#
#
# Elastic Constant Matrix: (Units=GPa)
#
#
# Indices 1 2 3 4 5 6 
#
# 1 45.2486 23.1290 55.8337 0.0000 -0.5811 0.0000
# 2 23.1290 87.8287 35.1971 0.0001 -0.1068 0.0000
# 3 55.8337 35.1971 140.0187 0.0010 -0.2520 0.0000
# 4 0.0000 0.0001 0.0010 35.4900 0.0002 -0.1625
# 5 -0.5811 -0.1068 -0.2520 0.0002 27.8234 0.0000
# 6 0.0000 0.0000 0.0000 -0.1625 0.0000 17.0493
#
#
#
# Elastic Compliance Matrix: (Units=1/GPa)
#
#
# Indices 1 2 3 4 5 6 
#
# 1 0.045601 -0.005250 -0.016863 0.000000 0.000780 0.000000
# 2 -0.005250 0.013266 -0.001241 0.000000 -0.000070 0.000000
# 3 -0.016863 -0.001241 0.014178 0.000000 -0.000229 0.000000
# 4 0.000000 0.000000 0.000000 0.028178 0.000000 0.000269
# 5 0.000780 -0.000070 -0.000229 0.000000 0.035955 0.000000
# 6 0.000000 0.000000 0.000000 0.000269 0.000000 0.058656
#
#
# Mechanical properties :
#
#
# Convention : Reuss Voigt Hill
#
# Bulk Modulus (GPa) = 37.97022 55.71285 46.84154
# Shear Modulus (GPa) = 19.89487 26.66827 23.28157
#
# Velocity S-wave (km/s) = 3.22914 3.73864 3.49319
# Velocity P-wave (km/s) = 5.81413 6.91642 6.38909
#
# Compressibility (1/GPa) = 0.02633643
#
# Stress axis : x y z
#
# Youngs Moduli (GPa) = 21.92919 75.38226 70.53336
#
# Poissons Ratio (x) = 0.39577 1.18939
# Poissons Ratio (y) = 0.11513 0.08755
# Poissons Ratio (z) = 0.36979 0.09357
#
# Static dielectric constant tensor:
#      x y z
#    x 1.638630 0.000000 -0.000260 
#    y 0.000000 1.621830 0.000000 
#    z -0.000260 0.000000 1.667850 
# 
# From -- ./inp_files/303084.got.cif
#   From: 2010.05.17/outbox.cif.g08.bks.cpg/sg12_152_cif.got.tgz:303084.got - 2010.06.03 13:09:07.
