data_PCOD9202185
_publ_section_title
;
Structure prediction by ZEFSAII (Michael W. Deem and Ramdas Pophale) SiO2 
 PCOD9202185
Probable space group: C 2/M
;
_chemical_formula_sum "Si O2"
_cell_formula_units_Z 64
_cell_length_a 9.364337
_cell_length_b 19.192530
_cell_length_c 18.715719
_cell_angle_alpha 90.000000
_cell_angle_beta 94.563539
_cell_angle_gamma 90.000000
_cell_volume 3353.024704
_symmetry_space_group_name_H-M "C 2/M"
_symmetry_group_IT_number 12
_symmetry_cell_setting 'monoclinic'
loop_
_space_group_symop_operation_xyz
x,y,z
-x,y,-z
-x,-y,-z
x,-y,z
1/2+x,1/2+y,z
1/2-x,1/2+y,-z
1/2-x,1/2-y,-z
1/2+x,1/2-y,z
loop_
_atom_site_type_symbol
_atom_site_label
_atom_site_fract_x
_atom_site_fract_y
_atom_site_fract_z
Si Si1 0.097227 0.080054 0.572966
Si Si2 0.761781 0.695267 0.245255
Si Si3 0.612810 0.288496 0.087123
Si Si4 0.067496 0.418407 0.431303
Si Si5 0.775415 0.918255 0.186532
Si Si6 0.294993 0.663840 0.049526
Si Si7 0.539911 0.674402 0.706645
Si Si8 0.995005 0.584180 0.267881
O O1 0.262188 0.084188 0.556753
O O2 0.071384 0.135530 0.633893
O O3 0.000000 0.091512 0.500000
O O4 0.072100 0.000000 0.598005
O O5 0.687211 0.711096 0.166524
O O6 0.628588 0.687746 0.293280
O O7 0.868801 0.755745 0.275720
O O8 0.853518 0.625080 0.240268
O O9 0.442580 0.298877 0.082440
O O10 0.661897 0.215711 0.054314
O O11 0.675135 0.345727 0.033466
O O12 0.022845 0.500000 0.428321
O O13 0.000000 0.385965 0.500000
O O14 0.026017 0.392460 0.350925
O O15 0.770527 0.899004 0.102920
O O16 0.905075 0.877836 0.229296
O O17 0.629931 0.896766 0.222810
O O18 0.792348 0.000000 0.197694
O O19 0.980963 0.500000 0.265042
#
# Coordination Sequence:
#
# PCOD9202185 Si02
#       8
#     8   8   8   8   8   8   8   8
#     4  10  22  41  65  93 125 162 206 250 300 369
#     4  12  24  40  63  91 124 162 204 259 305 369
#     4  10  20  38  59  89 119 155 206 251 305 363
#     4   9  18  35  60  88 118 156 198 245 300 359
#     4  11  21  39  62  88 124 163 204 255 313 365
#     4  10  21  37  61  90 115 157 207 254 308 366
#     4  12  24  40  63  92 122 164 209 254 309 362
#     4  10  23  40  62  91 124 161 204 253 308 369
#
# _framework density 19.087243999999998
#
# number of rings (size 3 to 8) (size 9 to 14) (size 15 to 20)
#    0.000    1.500    3.750    1.125    3.500    1.000 
#    0.000    3.125    0.000    1.500    0.000    0.000 
#    0.000    0.000    0.000    0.000    0.000    0.000 
#
# Total GULP energy -178560.247800 kJ/mol
# GULP energy per Si atom -5580.007744 kJ/mol
# Density = 1.904380 g / cm^3
# Si number density = 19.087244 Si / 1000 Ang^3
#
#
#
# Elastic Constant Matrix: (Units=GPa)
#
#
# Indices 1 2 3 4 5 6 
#
# 1 68.9786 27.8289 -2.6779 0.0000 -4.8360 0.0000
# 2 27.8289 51.9567 17.0529 0.0000 -2.5493 0.0000
# 3 -2.6779 17.0529 65.1389 0.0000 -5.5809 0.0000
# 4 0.0000 0.0000 0.0000 27.9924 0.0000 -0.6498
# 5 -4.8360 -2.5493 -5.5809 0.0000 29.1279 0.0000
# 6 0.0000 0.0000 0.0000 -0.6498 0.0000 15.8530
#
#
#
# Elastic Compliance Matrix: (Units=1/GPa)
#
#
# Indices 1 2 3 4 5 6 
#
# 1 0.019589 -0.011698 0.004126 0.000000 0.003019 0.000000
# 2 -0.011698 0.028061 -0.007913 0.000000 -0.001002 0.000000
# 3 0.004126 -0.007913 0.017886 0.000000 0.003420 0.000000
# 4 0.000000 0.000000 0.000000 0.035758 0.000000 0.001466
# 5 0.003019 -0.001002 0.003420 0.000000 0.035400 0.000000
# 6 0.000000 0.000000 0.000000 0.001466 0.000000 0.063140
#
#
# Mechanical properties :
#
#
# Convention : Reuss Voigt Hill
#
# Bulk Modulus (GPa) = 28.93027 30.05357 29.49192
# Shear Modulus (GPa) = 20.63352 24.18600 22.40976
#
# Velocity S-wave (km/s) = 3.29144 3.56354 3.43019
# Velocity P-wave (km/s) = 5.44376 5.71938 5.58327
#
# Compressibility (1/GPa) = 0.03456587
#
# Stress axis : x y z
#
# Youngs Moduli (GPa) = 51.04983 35.63727 55.90978
#
# Poissons Ratio (x) = 0.41690 -0.23071
# Poissons Ratio (y) = 0.59720 0.44241
# Poissons Ratio (z) = -0.21066 0.28199
#
# Static dielectric constant tensor:
#      x y z
#    x 1.654760 0.000000 -0.008510 
#    y 0.000000 1.665050 0.000000 
#    z -0.008510 0.000000 1.715470 
# 
# From -- ./inp_files/258097.got.cif
#   From: 2010.05.17/outbox.cif.g08.bks.cpg/sg12_130_cif.got.tgz:258097.got - 2010.06.03 13:09:07.
