data_PCOD9202230
_publ_section_title
;
Structure prediction by ZEFSAII (Michael W. Deem and Ramdas Pophale) SiO2 
 PCOD9202230
Probable space group: C 2/M
;
_chemical_formula_sum "Si O2"
_cell_formula_units_Z 56
_cell_length_a 25.777755
_cell_length_b 18.171372
_cell_length_c 10.769664
_cell_angle_alpha 90.000000
_cell_angle_beta 143.832786
_cell_angle_gamma 90.000000
_cell_volume 2977.095872
_symmetry_space_group_name_H-M "C 2/M"
_symmetry_group_IT_number 12
_symmetry_cell_setting 'monoclinic'
loop_
_space_group_symop_operation_xyz
x,y,z
-x,y,-z
-x,-y,-z
x,-y,z
1/2+x,1/2+y,z
1/2-x,1/2+y,-z
1/2-x,1/2-y,-z
1/2+x,1/2-y,z
loop_
_atom_site_type_symbol
_atom_site_label
_atom_site_fract_x
_atom_site_fract_y
_atom_site_fract_z
Si Si1 0.069421 0.583207 0.743431
Si Si2 0.848988 0.223089 0.219417
Si Si3 0.230999 0.329057 0.319430
Si Si4 0.111900 0.268459 0.423568
Si Si5 0.427065 0.771308 0.116068
Si Si6 0.769047 0.915455 0.140961
Si Si7 0.599445 0.087745 0.248689
O O1 0.059804 0.500000 0.772274
O O2 0.057187 0.641977 0.827145
O O3 0.000000 0.594736 0.500000
O O4 0.170373 0.591320 0.893178
O O5 0.873237 0.256910 0.399883
O O6 0.910503 0.242401 0.223087
O O7 0.839510 0.135497 0.211035
O O8 0.750000 0.250000 0.000000
O O9 0.317714 0.280811 0.515821
O O10 0.258423 0.380681 0.256879
O O11 0.175582 0.381529 0.303119
O O12 0.161634 0.268882 0.133085
O O13 0.114023 0.353897 0.388532
O O14 0.011976 0.241189 0.211952
O O15 0.792519 0.000000 0.190025
O O16 0.609548 0.000000 0.293413
O O17 0.500000 0.097735 0.000000
#
# Coordination Sequence:
#
# PCOD9202230 Si02
#       7
#     8   8   8   8   8   8   8
#     4   9  16  24  39  68 106 143 177 219 278 346
#     4  11  19  35  54  81 120 156 196 247 289 350
#     4  10  20  38  60  82 117 153 199 240 294 357
#     4  11  22  36  60  85 116 160 198 236 298 358
#     4  11  20  33  54  81 117 153 195 242 286 353
#     4   9  18  31  51  76 106 152 194 233 292 346
#     4  11  23  40  62  90 123 152 192 253 310 360
#
# _framework density 18.810276999999999
#
# number of rings (size 3 to 8) (size 9 to 14) (size 15 to 20)
#    0.000    1.714    5.714    2.143    0.000    1.143 
#    0.000    1.429    0.000    7.714    0.000    1.000 
#    0.000    0.000    0.000    0.000    0.000    0.000 
#
# Total GULP energy -156057.860850 kJ/mol
# GULP energy per Si atom -5573.495030 kJ/mol
# Density = 1.876746 g / cm^3
# Si number density = 18.810277 Si / 1000 Ang^3
#
#
#
# Elastic Constant Matrix: (Units=GPa)
#
#
# Indices 1 2 3 4 5 6 
#
# 1 81.0182 43.4680 24.0576 0.0000 22.1047 0.0000
# 2 43.4680 122.5213 50.8792 0.0000 12.5931 0.0000
# 3 24.0576 50.8792 52.3935 0.0000 10.1539 0.0000
# 4 0.0000 0.0000 0.0000 27.2025 0.0000 2.6681
# 5 22.1047 12.5931 10.1539 0.0000 24.3122 0.0000
# 6 0.0000 0.0000 0.0000 2.6681 0.0000 14.0255
#
#
#
# Elastic Compliance Matrix: (Units=1/GPa)
#
#
# Indices 1 2 3 4 5 6 
#
# 1 0.019261 -0.004757 -0.001424 0.000000 -0.014454 0.000000
# 2 -0.004757 0.014915 -0.012666 0.000000 0.001889 0.000000
# 3 -0.001424 -0.012666 0.033205 0.000000 -0.006013 0.000000
# 4 0.000000 0.000000 0.000000 0.037460 0.000000 -0.007126
# 5 -0.014454 0.001889 -0.006013 0.000000 0.055806 0.000000
# 6 0.000000 0.000000 0.000000 -0.007126 0.000000 0.072654
#
#
# Mechanical properties :
#
#
# Convention : Reuss Voigt Hill
#
# Bulk Modulus (GPa) = 33.68281 54.74917 44.21599
# Shear Modulus (GPa) = 17.80048 22.27658 20.03853
#
# Velocity S-wave (km/s) = 3.07956 3.44507 3.26743
# Velocity P-wave (km/s) = 5.53086 6.70774 6.14753
#
# Compressibility (1/GPa) = 0.02968874
#
# Stress axis : x y z
#
# Youngs Moduli (GPa) = 51.91753 67.04667 30.11569
#
# Poissons Ratio (x) = 0.31891 0.04288
# Poissons Ratio (y) = 0.24695 0.38144
# Poissons Ratio (z) = 0.07393 0.84921
#
# Static dielectric constant tensor:
#      x y z
#    x 1.699370 0.000000 0.006420 
#    y 0.000000 1.669250 0.000000 
#    z 0.006420 0.000000 1.707060 
# 
# From -- ./inp_files/184602.got.cif
#   From: 2010.05.17/outbox.cif.g08.bks.cpg/sg12_93_cif.got.tgz:184602.got - 2010.06.03 13:09:07.
