data_PCOD9202092
_publ_section_title
;
Structure prediction by ZEFSAII (Michael W. Deem and Ramdas Pophale) SiO2 
 PCOD9202092
Probable space group: C 2/M
;
_chemical_formula_sum "Si O2"
_cell_formula_units_Z 52
_cell_length_a 19.318274
_cell_length_b 18.488039
_cell_length_c 8.057593
_cell_angle_alpha 90.000000
_cell_angle_beta 78.563554
_cell_angle_gamma 90.000000
_cell_volume 2820.687245
_symmetry_space_group_name_H-M "C 2/M"
_symmetry_group_IT_number 12
_symmetry_cell_setting 'monoclinic'
loop_
_space_group_symop_operation_xyz
x,y,z
-x,y,-z
-x,-y,-z
x,-y,z
1/2+x,1/2+y,z
1/2-x,1/2+y,-z
1/2-x,1/2-y,-z
1/2+x,1/2-y,z
loop_
_atom_site_type_symbol
_atom_site_label
_atom_site_fract_x
_atom_site_fract_y
_atom_site_fract_z
Si Si1 0.058620 0.863249 0.596939
Si Si2 0.145191 0.000000 0.206099
Si Si3 0.756941 0.500000 0.853579
Si Si4 0.306809 0.160444 0.814156
Si Si5 0.165252 0.262609 0.525449
Si Si6 0.850245 0.000000 0.401944
Si Si7 0.051647 0.127088 0.105045
Si Si8 0.844739 0.243194 0.099011
O O1 0.116826 0.807122 0.503247
O O2 0.000000 0.894416 0.500000
O O3 0.003643 0.829559 0.753588
O O4 0.103115 0.928927 0.649104
O O5 0.098696 0.929285 0.185111
O O6 0.167156 0.000000 0.390586
O O7 0.207562 0.000000 0.041072
O O8 0.799018 0.574954 0.834754
O O9 0.711434 0.500000 0.704041
O O10 0.342283 0.181761 0.622033
O O11 0.229393 0.199163 0.851772
O O12 0.342421 0.197116 0.956625
O O13 0.250000 0.250000 0.500000
O O14 0.142502 0.277720 0.725981
O O15 0.100892 0.182338 0.984915
O O16 0.000000 0.087465 0.000000
#
# Coordination Sequence:
#
# PCOD9202092 Si02
#       8
#     8   4   4   8   8   4   8   8
#     4  12  22  36  56  87 126 163 208 239 289 359
#     4  12  24  37  56  86 134 170 199 234 281 357
#     4  12  24  41  60  90 116 169 206 246 303 360
#     4  10  22  38  60  80 117 150 205 249 300 350
#     4  10  21  38  58  80 113 159 203 254 293 345
#     4  12  24  37  54  82 130 172 202 229 282 363
#     4  12  21  36  57  86 124 162 201 242 291 363
#     4  10  20  38  58  85 114 156 196 252 299 349
#
# _framework density 18.435223000000001
#
# number of rings (size 3 to 8) (size 9 to 14) (size 15 to 20)
#    0.000    0.923    4.615    4.615    0.000    2.462 
#    0.000    0.000    0.000    0.000    0.000    5.385 
#    0.000    0.000    0.000    0.000    0.000    0.000 
#
# Total GULP energy -144898.359715 kJ/mol
# GULP energy per Si atom -5573.013835 kJ/mol
# Density = 1.839326 g / cm^3
# Si number density = 18.435223 Si / 1000 Ang^3
#
#
#
# Elastic Constant Matrix: (Units=GPa)
#
#
# Indices 1 2 3 4 5 6 
#
# 1 40.1455 39.5650 25.2419 0.0000 -5.8968 0.0000
# 2 39.5650 113.2142 61.3542 0.0000 0.2075 0.0000
# 3 25.2419 61.3542 147.3431 0.0000 -6.6247 0.0000
# 4 0.0000 0.0000 0.0000 -0.5154 0.0000 44.8001
# 5 -5.8968 0.2075 -6.6247 0.0000 32.8096 0.0000
# 6 0.0000 0.0000 0.0000 44.8001 0.0000 -117.0791
#
#
#
# Elastic Compliance Matrix: (Units=1/GPa)
#
#
# Indices 1 2 3 4 5 6 
#
# 1 0.039724 -0.013403 -0.000907 0.000000 0.007041 0.000000
# 2 -0.013403 0.015965 -0.004505 0.000000 -0.003420 0.000000
# 3 -0.000907 -0.004505 0.008893 0.000000 0.001661 0.000000
# 4 0.000000 0.000000 0.000000 0.060142 0.000000 0.023013
# 5 0.007041 -0.003420 0.001661 0.000000 0.032101 0.000000
# 6 0.000000 0.000000 0.000000 0.023013 0.000000 0.000265
#
#
# Mechanical properties :
#
#
# Convention : Reuss Voigt Hill
#
# Bulk Modulus (GPa) = 37.10687 61.44722 49.27705
# Shear Modulus (GPa) = 24.54528 -5.32086 9.61221
#
# Velocity S-wave (km/s) = 3.65284 -1.70074 2.28591
# Velocity P-wave (km/s) = 6.16141 5.43572 5.80991
#
# Compressibility (1/GPa) = 0.02694918
#
# Stress axis : x y z
#
# Youngs Moduli (GPa) = 25.17391 62.63801 112.44724
#
# Poissons Ratio (x) = 0.83956 0.10204
# Poissons Ratio (y) = 0.33742 0.50661
# Poissons Ratio (z) = 0.02284 0.28221
#
# Static dielectric constant tensor:
#      x y z
#    x 1.635120 0.000000 0.035220 
#    y 0.000000 1.595330 0.000000 
#    z 0.035220 0.000000 1.759800 
# 
# From -- ./inp_files/75253.got.cif
#   From: 2010.05.17/outbox.cif.g08.bks.cpg/sg12_38_cif.got.tgz:75253.got - 2010.06.03 13:09:07.
