data_PCOD9202848
_publ_section_title
;
Structure prediction by ZEFSAII (Michael W. Deem and Ramdas Pophale) SiO2 
 PCOD9202848
Probable space group: C 2/M
;
_chemical_formula_sum "Si O2"
_cell_formula_units_Z 60
_cell_length_a 24.345123
_cell_length_b 20.789779
_cell_length_c 11.941290
_cell_angle_alpha 90.000000
_cell_angle_beta 148.702809
_cell_angle_gamma 90.000000
_cell_volume 3139.638162
_symmetry_space_group_name_H-M "C 2/M"
_symmetry_group_IT_number 12
_symmetry_cell_setting 'monoclinic'
loop_
_space_group_symop_operation_xyz
x,y,z
-x,y,-z
-x,-y,-z
x,-y,z
1/2+x,1/2+y,z
1/2-x,1/2+y,-z
1/2-x,1/2-y,-z
1/2+x,1/2-y,z
loop_
_atom_site_type_symbol
_atom_site_label
_atom_site_fract_x
_atom_site_fract_y
_atom_site_fract_z
Si Si1 0.864501 0.771238 0.440170
Si Si2 0.893043 0.217631 0.756326
Si Si3 0.804493 0.623646 0.856315
Si Si4 0.500000 0.649060 0.500000
Si Si5 0.690254 0.142459 0.380098
Si Si6 0.790247 0.926194 0.089116
Si Si7 0.391393 0.134010 0.378888
Si Si8 0.966269 0.426311 0.724010
O O1 0.894262 0.778036 0.622895
O O2 0.752223 0.807258 0.226592
O O3 0.948237 0.807694 0.507056
O O4 0.861712 0.698051 0.395652
O O5 0.797798 0.169541 0.621372
O O6 0.868446 0.290399 0.752954
O O7 0.000000 0.196089 0.000000
O O8 0.785551 0.606667 0.693693
O O9 0.748537 0.578723 0.849645
O O10 0.929466 0.618214 0.092760
O O11 0.594791 0.606139 0.714698
O O12 0.616891 0.100627 0.331483
O O13 0.792885 0.000000 0.057702
O O14 0.703144 0.887173 0.866675
O O15 0.500000 0.145233 0.500000
O O16 0.416211 0.079916 0.514151
O O17 0.995854 0.500000 0.799799
#
# Coordination Sequence:
#
# PCOD9202848 Si02
#       8
#     8   8   8   4   8   8   8   8
#     4  10  22  40  60  95 122 154 200 256 310 359
#     4  10  20  38  64  87 125 156 196 249 310 362
#     4  10  22  38  60  86 123 157 198 247 304 357
#     4  10  23  42  64  92 117 156 210 258 304 352
#     4  10  22  38  57  93 119 156 202 248 300 359
#     4  11  24  42  63  86 121 165 207 248 300 368
#     4  12  24  39  61  90 125 161 202 252 311 365
#     4  12  24  39  60  89 126 165 204 244 300 368
#
# _framework density 19.110482999999999
#
# number of rings (size 3 to 8) (size 9 to 14) (size 15 to 20)
#    0.000    1.333    3.333    2.200    0.000    6.400 
#    0.000    0.000    0.000    0.400    0.000    0.000 
#    0.000    0.000    0.000    0.000    0.000    0.000 
#
# Total GULP energy -167559.581446 kJ/mol
# GULP energy per Si atom -5585.319382 kJ/mol
# Density = 1.906699 g / cm^3
# Si number density = 19.110483 Si / 1000 Ang^3
#
#
#
# Elastic Constant Matrix: (Units=GPa)
#
#
# Indices 1 2 3 4 5 6 
#
# 1 101.7678 37.3484 33.0003 0.0000 10.4114 0.0000
# 2 37.3484 84.6931 47.2687 0.0000 4.9645 0.0000
# 3 33.0003 47.2687 133.1232 0.0000 17.4602 0.0000
# 4 0.0000 0.0000 0.0000 12.8692 0.0000 -2.9867
# 5 10.4114 4.9645 17.4602 0.0000 25.5029 0.0000
# 6 0.0000 0.0000 0.0000 -2.9867 0.0000 12.3781
#
#
#
# Elastic Compliance Matrix: (Units=1/GPa)
#
#
# Indices 1 2 3 4 5 6 
#
# 1 0.012186 -0.004662 -0.000914 0.000000 -0.003441 0.000000
# 2 -0.004662 0.016523 -0.004987 0.000000 0.002101 0.000000
# 3 -0.000914 -0.004987 0.010254 0.000000 -0.005676 0.000000
# 4 0.000000 0.000000 0.000000 0.082314 0.000000 0.019861
# 5 -0.003441 0.002101 -0.005676 0.000000 0.044093 0.000000
# 6 0.000000 0.000000 0.000000 0.019861 0.000000 0.085580
#
#
# Mechanical properties :
#
#
# Convention : Reuss Voigt Hill
#
# Bulk Modulus (GPa) = 56.06343 61.64654 58.85498
# Shear Modulus (GPa) = 17.98424 23.61450 20.79937
#
# Velocity S-wave (km/s) = 3.07101 3.51904 3.30263
# Velocity P-wave (km/s) = 6.47881 6.98853 6.73849
#
# Compressibility (1/GPa) = 0.01783694
#
# Stress axis : x y z
#
# Youngs Moduli (GPa) = 82.06379 60.52074 97.52662
#
# Poissons Ratio (x) = 0.28214 0.08915
# Poissons Ratio (y) = 0.38256 0.48636
# Poissons Ratio (z) = 0.07501 0.30181
#
# Static dielectric constant tensor:
#      x y z
#    x 1.681300 0.000000 0.001230 
#    y 0.000000 1.649310 0.000000 
#    z 0.001230 0.000000 1.657280 
# 
# From -- ./inp_files/178038.got.cif
#   From: 2010.05.17/outbox.cif.g08.bks.cpg/sg12_90_cif.got.tgz:178038.got - 2010.06.03 13:09:07.
