data_PCOD9202806
_publ_section_title
;
Structure prediction by ZEFSAII (Michael W. Deem and Ramdas Pophale) SiO2 
 PCOD9202806
Probable space group: C 2/M
;
_chemical_formula_sum "Si O2"
_cell_formula_units_Z 64
_cell_length_a 7.640601
_cell_length_b 16.856919
_cell_length_c 23.167188
_cell_angle_alpha 90.000000
_cell_angle_beta 92.777026
_cell_angle_gamma 90.000000
_cell_volume 2980.360014
_symmetry_space_group_name_H-M "C 2/M"
_symmetry_group_IT_number 12
_symmetry_cell_setting 'monoclinic'
loop_
_space_group_symop_operation_xyz
x,y,z
-x,y,-z
-x,-y,-z
x,-y,z
1/2+x,1/2+y,z
1/2-x,1/2+y,-z
1/2-x,1/2-y,-z
1/2+x,1/2-y,z
loop_
_atom_site_type_symbol
_atom_site_label
_atom_site_fract_x
_atom_site_fract_y
_atom_site_fract_z
Si Si1 0.219983 0.411017 0.632913
Si Si2 0.883724 0.090622 0.311217
Si Si3 0.967552 0.204364 0.768738
Si Si4 0.310700 0.804000 0.146509
Si Si5 0.091096 0.701206 0.347106
Si Si6 0.644532 0.689676 0.458923
Si Si7 0.695869 0.408118 0.052596
Si Si8 0.182932 0.182088 0.952265
O O1 0.151297 0.500000 0.634762
O O2 0.416080 0.411489 0.662435
O O3 0.243156 0.379365 0.568263
O O4 0.084017 0.351048 0.659754
O O5 0.895239 0.139262 0.251531
O O6 0.756427 0.141938 0.349983
O O7 0.823984 0.000000 0.304524
O O8 0.039698 0.275562 0.808523
O O9 0.832385 0.165346 0.810336
O O10 0.895245 0.244606 0.709461
O O11 0.334351 0.872249 0.099760
O O12 0.271135 0.724308 0.107208
O O13 0.081194 0.756622 0.403442
O O14 0.500000 0.656194 0.500000
O O15 0.750000 0.750000 0.500000
O O16 0.654743 0.500000 0.061302
O O17 0.520177 0.351022 0.057928
O O18 0.758859 0.393364 0.987814
O O19 0.250000 0.250000 0.000000
#
# Coordination Sequence:
#
# PCOD9202806 Si02
#       8
#     8   8   8   8   8   8   8   8
#     4  11  24  43  67  99 131 167 218 277 336 395
#     4  11  24  42  66  97 131 171 219 274 337 398
#     4  12  22  41  66  91 126 174 221 265 324 403
#     4  11  22  37  63  95 124 166 220 268 317 396
#     4  12  23  45  70  93 133 182 222 270 339 405
#     4  12  23  41  69  98 129 174 228 272 324 404
#     4  10  20  38  63  93 128 169 213 273 331 382
#     4   9  18  34  59  90 121 160 211 255 314 385
#
# _framework density 21.473914000000001
#
# number of rings (size 3 to 8) (size 9 to 14) (size 15 to 20)
#    0.000    1.000    5.000    3.375    0.000    0.750 
#    0.000    3.125    0.000    0.750    0.000    0.000 
#    0.000    0.000    0.000    0.000    0.000    0.000 
#
# Total GULP energy -178188.915149 kJ/mol
# GULP energy per Si atom -5568.403598 kJ/mol
# Density = 2.142504 g / cm^3
# Si number density = 21.473914 Si / 1000 Ang^3
#
#
#
# Elastic Constant Matrix: (Units=GPa)
#
#
# Indices 1 2 3 4 5 6 
#
# 1 41.4526 24.2137 18.9758 0.0000 -2.6859 0.0000
# 2 24.2137 129.8511 37.1937 0.0000 1.9200 0.0000
# 3 18.9758 37.1937 121.8905 0.0000 0.3829 0.0000
# 4 0.0000 0.0000 0.0000 17.1798 0.0000 -0.5939
# 5 -2.6859 1.9200 0.3829 0.0000 38.9110 0.0000
# 6 0.0000 0.0000 0.0000 -0.5939 0.0000 20.5555
#
#
#
# Elastic Compliance Matrix: (Units=1/GPa)
#
#
# Indices 1 2 3 4 5 6 
#
# 1 0.028250 -0.004425 -0.003054 0.000000 0.002198 0.000000
# 2 -0.004425 0.009138 -0.002097 0.000000 -0.000736 0.000000
# 3 -0.003054 -0.002097 0.009320 0.000000 -0.000199 0.000000
# 4 0.000000 0.000000 0.000000 0.058266 0.000000 0.001683
# 5 0.002198 -0.000736 -0.000199 0.000000 0.025890 0.000000
# 6 0.000000 0.000000 0.000000 0.001683 0.000000 0.048697
#
#
# Mechanical properties :
#
#
# Convention : Reuss Voigt Hill
#
# Bulk Modulus (GPa) = 36.29256 50.44006 43.36631
# Shear Modulus (GPa) = 24.05009 29.51665 26.78337
#
# Velocity S-wave (km/s) = 3.35022 3.71149 3.53548
# Velocity P-wave (km/s) = 5.64825 6.47355 6.07494
#
# Compressibility (1/GPa) = 0.02755385
#
# Stress axis : x y z
#
# Youngs Moduli (GPa) = 35.39866 109.43428 107.29478
#
# Poissons Ratio (x) = 0.48429 0.32772
# Poissons Ratio (y) = 0.15665 0.22501
# Poissons Ratio (z) = 0.10812 0.22949
#
# Static dielectric constant tensor:
#      x y z
#    x 1.937080 0.000000 0.007840 
#    y 0.000000 1.791600 0.000000 
#    z 0.007840 0.000000 1.807680 
# 
# From -- ./inp_files/332939.got.cif
#   From: 2010.05.17/outbox.cif.g08.bks.cpg/sg12_167_cif.got.tgz:332939.got - 2010.06.03 13:09:07.
