data_PCOD9202991
_publ_section_title
;
Structure prediction by ZEFSAII (Michael W. Deem and Ramdas Pophale) SiO2 
 PCOD9202991
Probable space group: C 2/M
;
_chemical_formula_sum "Si O2"
_cell_formula_units_Z 64
_cell_length_a 20.081099
_cell_length_b 23.369965
_cell_length_c 16.264056
_cell_angle_alpha 90.000000
_cell_angle_beta 157.663599
_cell_angle_gamma 90.000000
_cell_volume 2900.735626
_symmetry_space_group_name_H-M "C 2/M"
_symmetry_group_IT_number 12
_symmetry_cell_setting 'monoclinic'
loop_
_space_group_symop_operation_xyz
x,y,z
-x,y,-z
-x,-y,-z
x,-y,z
1/2+x,1/2+y,z
1/2-x,1/2+y,-z
1/2-x,1/2-y,-z
1/2+x,1/2-y,z
loop_
_atom_site_type_symbol
_atom_site_label
_atom_site_fract_x
_atom_site_fract_y
_atom_site_fract_z
Si Si1 0.959880 0.152228 0.635394
Si Si2 0.921612 0.729197 0.645586
Si Si3 0.507793 0.566793 0.825215
Si Si4 0.835645 0.633873 0.996514
Si Si5 0.606109 0.066294 0.783634
Si Si6 0.329056 0.814572 0.355705
Si Si7 0.280070 0.567462 0.730674
Si Si8 0.810711 0.306243 0.808379
O O1 0.022012 0.211798 0.745227
O O2 0.802461 0.169591 0.395908
O O3 0.908956 0.107479 0.647614
O O4 0.128276 0.131575 0.778096
O O5 0.750000 0.750000 0.500000
O O6 0.866930 0.700899 0.495527
O O7 0.050367 0.687357 0.840404
O O8 0.498599 0.500000 0.789396
O O9 0.414074 0.568158 0.806826
O O10 0.711580 0.588084 0.049062
O O11 0.909136 0.584776 0.139098
O O12 0.842140 0.642075 0.907150
O O13 0.421555 0.075012 0.528540
O O14 0.632689 0.000000 0.811079
O O15 0.500000 0.831053 0.500000
O O16 0.201438 0.869598 0.205953
O O17 0.276864 0.752250 0.258466
O O18 0.288772 0.500000 0.774711
O O19 0.000000 0.284695 0.000000
#
# Coordination Sequence:
#
# PCOD9202991 Si02
#       8
#     8   8   8   8   8   8   8   8
#     4  10  21  35  56  85 118 156 199 250 314 367
#     4  11  21  36  61  88 117 155 210 256 301 369
#     4   9  19  36  61  92 123 154 202 257 304 365
#     4  11  20  37  61  85 117 160 202 251 305 367
#     4   9  19  36  62  95 121 153 202 254 304 359
#     4  11  23  41  59  89 129 159 204 255 315 376
#     4  10  20  38  65  90 121 161 204 257 306 363
#     4  11  24  39  56  82 123 164 199 256 313 372
#
# _framework density 22.063368000000001
#
# number of rings (size 3 to 8) (size 9 to 14) (size 15 to 20)
#    0.000    1.750    1.250    4.500    1.750    0.250 
#    2.250    0.625    0.000    4.125    0.000    0.000 
#    0.000    0.000    0.000    0.000    0.000    0.000 
#
# Total GULP energy -178384.931777 kJ/mol
# GULP energy per Si atom -5574.529118 kJ/mol
# Density = 2.201315 g / cm^3
# Si number density = 22.063368 Si / 1000 Ang^3
#
#
#
# Elastic Constant Matrix: (Units=GPa)
#
#
# Indices 1 2 3 4 5 6 
#
# 1 76.3222 52.0519 9.4057 0.0000 6.2329 0.0000
# 2 52.0519 271.6823 -9.5401 0.0001 -17.6584 0.0000
# 3 9.4057 -9.5401 89.3330 -0.0001 0.3557 0.0000
# 4 0.0000 0.0001 -0.0001 18.6342 0.0000 13.3238
# 5 6.2329 -17.6584 0.3557 0.0000 28.5598 0.0000
# 6 0.0000 0.0000 0.0000 13.3238 0.0000 29.5642
#
#
#
# Elastic Compliance Matrix: (Units=1/GPa)
#
#
# Indices 1 2 3 4 5 6 
#
# 1 0.016251 -0.003558 -0.002068 0.000000 -0.005721 0.000000
# 2 -0.003558 0.004628 0.000854 0.000000 0.003627 0.000000
# 3 -0.002068 0.000854 0.011500 0.000000 0.000836 0.000000
# 4 0.000000 0.000000 0.000000 0.079180 0.000000 -0.035684
# 5 -0.005721 0.003627 0.000836 0.000000 0.038495 0.000000
# 6 0.000000 0.000000 0.000000 -0.035684 0.000000 0.049907
#
#
# Mechanical properties :
#
#
# Convention : Reuss Voigt Hill
#
# Bulk Modulus (GPa) = 43.79173 60.13029 51.96101
# Shear Modulus (GPa) = 23.02916 41.04631 32.03774
#
# Velocity S-wave (km/s) = 3.23425 4.31789 3.81475
# Velocity P-wave (km/s) = 5.81708 7.22299 6.55782
#
# Compressibility (1/GPa) = 0.02283536
#
# Stress axis : x y z
#
# Youngs Moduli (GPa) = 61.53476 216.06545 86.95846
#
# Poissons Ratio (x) = 0.76876 0.17985
# Poissons Ratio (y) = 0.21894 -0.07430
# Poissons Ratio (z) = 0.12727 -0.18461
#
# Static dielectric constant tensor:
#      x y z
#    x 1.781440 0.000000 0.021820 
#    y 0.000000 1.860750 0.000000 
#    z 0.021820 0.000000 1.837330 
# 
# From -- ./inp_files/286476.got.cif
#   From: 2010.05.17/outbox.cif.g08.bks.cpg/sg12_144_cif.got.tgz:286476.got - 2010.06.03 13:09:07.
