data_PCOD9202505
_publ_section_title
;
Structure prediction by ZEFSAII (Michael W. Deem and Ramdas Pophale) SiO2 
 PCOD9202505
Probable space group: C 2/M
;
_chemical_formula_sum "Si O2"
_cell_formula_units_Z 64
_cell_length_a 15.192048
_cell_length_b 26.985310
_cell_length_c 9.007190
_cell_angle_alpha 90.000000
_cell_angle_beta 68.483614
_cell_angle_gamma 90.000000
_cell_volume 3435.279010
_symmetry_space_group_name_H-M "C 2/M"
_symmetry_group_IT_number 12
_symmetry_cell_setting 'monoclinic'
loop_
_space_group_symop_operation_xyz
x,y,z
-x,y,-z
-x,-y,-z
x,-y,z
1/2+x,1/2+y,z
1/2-x,1/2+y,-z
1/2-x,1/2-y,-z
1/2+x,1/2-y,z
loop_
_atom_site_type_symbol
_atom_site_label
_atom_site_fract_x
_atom_site_fract_y
_atom_site_fract_z
Si Si1 0.209003 0.207026 0.126179
Si Si2 0.591785 0.059942 0.637100
Si Si3 0.296123 0.441068 0.965280
Si Si4 0.875234 0.440222 0.717060
Si Si5 0.233389 0.380091 0.733161
Si Si6 0.111027 0.740212 0.461717
Si Si7 0.205404 0.175502 0.589063
Si Si8 0.891995 0.139641 0.052908
O O1 0.282699 0.170864 0.165576
O O2 0.145699 0.231972 0.291789
O O3 0.250000 0.250000 0.000000
O O4 0.151864 0.171770 0.052150
O O5 0.636973 0.073353 0.448353
O O6 0.481432 0.073591 0.696726
O O7 0.642701 0.090044 0.733851
O O8 0.599421 0.000000 0.651683
O O9 0.298659 0.500000 0.955913
O O10 0.289678 0.416833 0.807114
O O11 0.202998 0.424047 0.116997
O O12 0.380056 0.416955 0.007490
O O13 0.873070 0.500000 0.719190
O O14 0.288535 0.362411 0.552098
O O15 0.136260 0.779391 0.578295
O O16 0.188205 0.696658 0.444780
O O17 0.000000 0.727417 0.500000
O O18 0.163627 0.151281 0.762093
O O19 0.000000 0.153262 0.000000
#
# Coordination Sequence:
#
# PCOD9202505 Si02
#       8
#     8   8   8   8   8   8   8   8
#     4  10  20  39  59  79 115 152 187 235 286 343
#     4   9  16  31  53  80 111 147 192 231 279 348
#     4  10  21  38  57  81 115 153 194 242 293 339
#     4   8  16  31  54  77 109 153 185 226 284 337
#     4  10  21  34  54  81 112 151 189 232 287 334
#     4  10  20  38  62  84 116 157 191 239 295 347
#     4  10  21  38  58  86 119 148 197 240 289 356
#     4  11  22  38  65  89 112 151 192 241 296 348
#
# _framework density 18.630220000000001
#
# number of rings (size 3 to 8) (size 9 to 14) (size 15 to 20)
#    0.000    2.250    1.250    2.625    0.000    0.750 
#    4.500    3.750    0.000    0.750    0.000    0.000 
#    0.000    0.000    0.000    0.000    0.000    0.000 
#
# Total GULP energy -178357.564725 kJ/mol
# GULP energy per Si atom -5573.673898 kJ/mol
# Density = 1.858782 g / cm^3
# Si number density = 18.630220 Si / 1000 Ang^3
#
#
#
# Elastic Constant Matrix: (Units=GPa)
#
#
# Indices 1 2 3 4 5 6 
#
# 1 100.4309 35.9024 35.9998 0.0000 14.1406 0.0000
# 2 35.9024 82.5045 44.7173 0.0000 9.8035 0.0000
# 3 35.9998 44.7173 92.2798 0.0000 21.3120 0.0000
# 4 0.0000 0.0000 0.0000 31.2769 0.0000 7.6465
# 5 14.1406 9.8035 21.3120 0.0000 21.6186 0.0000
# 6 0.0000 0.0000 0.0000 7.6465 0.0000 17.7304
#
#
#
# Elastic Compliance Matrix: (Units=1/GPa)
#
#
# Indices 1 2 3 4 5 6 
#
# 1 0.012716 -0.003897 -0.002019 0.000000 -0.004560 0.000000
# 2 -0.003897 0.017637 -0.007468 0.000000 0.001913 0.000000
# 3 -0.002019 -0.007468 0.018329 0.000000 -0.013362 0.000000
# 4 0.000000 0.000000 0.000000 0.035741 0.000000 -0.015414
# 5 -0.004560 0.001913 -0.013362 0.000000 0.061544 0.000000
# 6 0.000000 0.000000 0.000000 -0.015414 0.000000 0.063048
#
#
# Mechanical properties :
#
#
# Convention : Reuss Voigt Hill
#
# Bulk Modulus (GPa) = 45.63477 56.49491 51.06484
# Shear Modulus (GPa) = 20.56872 24.69822 22.63347
#
# Velocity S-wave (km/s) = 3.32633 3.64498 3.48929
# Velocity P-wave (km/s) = 6.26904 6.93575 6.61081
#
# Compressibility (1/GPa) = 0.02191312
#
# Stress axis : x y z
#
# Youngs Moduli (GPa) = 78.64056 56.69970 54.55800
#
# Poissons Ratio (x) = 0.22098 0.11016
# Poissons Ratio (y) = 0.30649 0.40744
# Poissons Ratio (z) = 0.15878 0.42343
#
# Static dielectric constant tensor:
#      x y z
#    x 1.640420 0.000000 0.009760 
#    y 0.000000 1.677080 0.000000 
#    z 0.009760 0.000000 1.657740 
# 
# From -- ./inp_files/66895.got.cif
#   From: 2010.05.17/outbox.cif.g08.bks.cpg/sg12_34_cif.got.tgz:66895.got - 2010.06.03 13:09:07.
