data_PCOD9202985
_publ_section_title
;
Structure prediction by ZEFSAII (Michael W. Deem and Ramdas Pophale) SiO2 
 PCOD9202985
Probable space group: C 2/M
;
_chemical_formula_sum "Si O2"
_cell_formula_units_Z 52
_cell_length_a 12.114168
_cell_length_b 23.207606
_cell_length_c 12.405986
_cell_angle_alpha 90.000000
_cell_angle_beta 52.435212
_cell_angle_gamma 90.000000
_cell_volume 2764.678356
_symmetry_space_group_name_H-M "C 2/M"
_symmetry_group_IT_number 12
_symmetry_cell_setting 'monoclinic'
loop_
_space_group_symop_operation_xyz
x,y,z
-x,y,-z
-x,-y,-z
x,-y,z
1/2+x,1/2+y,z
1/2-x,1/2+y,-z
1/2-x,1/2-y,-z
1/2+x,1/2-y,z
loop_
_atom_site_type_symbol
_atom_site_label
_atom_site_fract_x
_atom_site_fract_y
_atom_site_fract_z
Si Si1 0.590801 0.435865 0.050928
Si Si2 0.472555 0.763323 0.904077
Si Si3 0.500000 0.647748 0.500000
Si Si4 0.608944 0.433812 0.625264
Si Si5 0.247145 0.663788 0.092165
Si Si6 0.152904 0.370863 0.384189
Si Si7 0.227981 0.244819 0.385852
O O1 0.643470 0.500000 0.995359
O O2 0.492102 0.437506 0.212128
O O3 0.500000 0.417451 0.000000
O O4 0.709815 0.390335 0.005118
O O5 0.382985 0.799927 0.872908
O O6 0.621863 0.751104 0.761826
O O7 0.500000 0.796023 0.000000
O O8 0.377748 0.708422 0.998951
O O9 0.461343 0.606393 0.423184
O O10 0.634095 0.690227 0.407033
O O11 0.635854 0.500000 0.572476
O O12 0.743764 0.402284 0.594549
O O13 0.212287 0.632342 0.226600
O O14 0.148516 0.302963 0.407200
O O15 0.000000 0.395104 0.500000
O O16 0.250000 0.250000 0.500000
#
# Coordination Sequence:
#
# PCOD9202985 Si02
#       7
#     8   8   4   8   8   8   8
#     4  10  20  38  65  90 116 156 210 266 312 367
#     4  11  24  38  60  92 130 169 201 259 324 389
#     4  12  27  40  70  90 133 178 212 266 324 398
#     4  11  25  44  65  93 128 171 225 270 318 386
#     4  11  23  38  63  90 127 166 210 261 318 394
#     4  12  23  40  64  96 130 167 214 273 331 382
#     4  12  24  40  61  95 128 168 211 263 327 387
#
# _framework density 18.808696999999999
#
# number of rings (size 3 to 8) (size 9 to 14) (size 15 to 20)
#    0.000    0.769    5.385    2.538    2.154    0.308 
#    0.000    0.000    0.000    0.462    0.000    0.000 
#    0.000    0.000    0.000    0.000    0.000    0.000 
#
# Total GULP energy -144886.212313 kJ/mol
# GULP energy per Si atom -5572.546627 kJ/mol
# Density = 1.876589 g / cm^3
# Si number density = 18.808697 Si / 1000 Ang^3
#
#
#
# Elastic Constant Matrix: (Units=GPa)
#
#
# Indices 1 2 3 4 5 6 
#
# 1 110.2218 47.7505 53.7311 0.0000 -11.5439 0.0000
# 2 47.7505 106.2620 21.1377 0.0000 -9.4640 0.0000
# 3 53.7311 21.1377 99.8839 0.0000 -11.3550 0.0000
# 4 0.0000 0.0000 0.0000 23.6852 0.0000 6.0624
# 5 -11.5439 -9.4640 -11.3550 0.0000 33.1594 0.0000
# 6 0.0000 0.0000 0.0000 6.0624 0.0000 23.3356
#
#
#
# Elastic Compliance Matrix: (Units=1/GPa)
#
#
# Indices 1 2 3 4 5 6 
#
# 1 0.014696 -0.005158 -0.006659 0.000000 0.001364 0.000000
# 2 -0.005158 0.011788 0.000477 0.000000 0.001732 0.000000
# 3 -0.006659 0.000477 0.013781 0.000000 0.002537 0.000000
# 4 0.000000 0.000000 0.000000 0.045228 0.000000 -0.011750
# 5 0.001364 0.001732 0.002537 0.000000 0.031995 0.000000
# 6 0.000000 0.000000 0.000000 -0.011750 0.000000 0.045906
#
#
# Mechanical properties :
#
#
# Convention : Reuss Voigt Hill
#
# Bulk Modulus (GPa) = 56.86559 62.40070 59.63315
# Shear Modulus (GPa) = 26.05040 28.95259 27.50150
#
# Velocity S-wave (km/s) = 3.72562 3.92767 3.82798
# Velocity P-wave (km/s) = 6.98615 7.33603 7.16323
#
# Compressibility (1/GPa) = 0.01758533
#
# Stress axis : x y z
#
# Youngs Moduli (GPa) = 68.04534 84.83313 72.56250
#
# Poissons Ratio (x) = 0.43756 0.48319
# Poissons Ratio (y) = 0.35097 -0.03461
# Poissons Ratio (z) = 0.45311 -0.04046
#
# Static dielectric constant tensor:
#      x y z
#    x 1.723190 0.000000 -0.055350 
#    y 0.000000 1.644930 0.000000 
#    z -0.055350 0.000000 1.638830 
# 
# From -- ./inp_files/135867.got.cif
#   From: 2010.05.17/outbox.cif.g08.bks.cpg/sg12_68_cif.got.tgz:135867.got - 2010.06.03 13:09:07.
