data_PCOD9202975
_publ_section_title
;
Structure prediction by ZEFSAII (Michael W. Deem and Ramdas Pophale) SiO2 
 PCOD9202975
Probable space group: C 2/M
;
_chemical_formula_sum "Si O2"
_cell_formula_units_Z 42
_cell_length_a 20.109658
_cell_length_b 15.105022
_cell_length_c 7.294370
_cell_angle_alpha 90.000000
_cell_angle_beta 124.580497
_cell_angle_gamma 90.000000
_cell_volume 1824.263506
_symmetry_space_group_name_H-M "C 2/M"
_symmetry_group_IT_number 12
_symmetry_cell_setting 'monoclinic'
loop_
_space_group_symop_operation_xyz
x,y,z
-x,y,-z
-x,-y,-z
x,-y,z
1/2+x,1/2+y,z
1/2-x,1/2+y,-z
1/2-x,1/2-y,-z
1/2+x,1/2-y,z
loop_
_atom_site_type_symbol
_atom_site_label
_atom_site_fract_x
_atom_site_fract_y
_atom_site_fract_z
Si Si1 0.500000 0.000000 0.000000
Si Si2 0.596835 0.096342 0.626033
Si Si3 0.297118 0.601013 0.411064
Si Si4 0.381221 0.145838 0.765673
Si Si5 0.404806 0.709190 0.294831
Si Si6 0.911353 0.846786 0.896154
O O1 0.563175 0.921627 0.034928
O O2 0.500000 0.092225 0.500000
O O3 0.612929 0.108712 0.433137
O O4 0.623121 0.188115 0.759325
O O5 0.630450 0.000000 0.732964
O O6 0.289731 0.500000 0.336663
O O7 0.209607 0.642262 0.305955
O O8 0.351529 0.658302 0.359568
O O9 0.343115 0.603456 0.677546
O O10 0.411486 0.245897 0.819172
O O11 0.500000 0.708584 0.500000
O O12 0.395946 0.662471 0.086401
O O13 0.000000 0.885244 0.000000
#
# Coordination Sequence:
#
# PCOD9202975 Si02
#       6
#     2   8   8   8   8   8
#     4  12  24  40  78 108 134 184 238 280 372 438
#     4  10  20  38  65 102 145 183 233 297 361 425
#     4  12  27  48  72 104 148 192 245 304 351 424
#     4  12  24  45  72 105 147 188 232 302 368 429
#     4  11  24  45  71 106 144 189 243 302 363 424
#     4  12  24  46  76 103 139 194 244 292 370 433
#
# _framework density 23.022991000000001
#
# number of rings (size 3 to 8) (size 9 to 14) (size 15 to 20)
#    0.000    0.571    6.667    1.714    0.000    2.286 
#    0.000    0.000    4.190    0.000    0.000    0.000 
#    0.000    0.000    0.000    0.000    0.000    0.000 
#
# Total GULP energy -117367.730733 kJ/mol
# GULP energy per Si atom -5588.939559 kJ/mol
# Density = 2.297059 g / cm^3
# Si number density = 23.022991 Si / 1000 Ang^3
#
#
#
# Elastic Constant Matrix: (Units=GPa)
#
#
# Indices 1 2 3 4 5 6 
#
# 1 151.5380 30.2992 47.2145 0.0000 -5.2607 0.0000
# 2 30.2992 75.8796 6.0067 0.0000 0.7744 0.0000
# 3 47.2145 6.0067 78.8131 0.0000 -7.8501 0.0000
# 4 0.0000 0.0000 0.0000 63.0094 0.0000 6.8140
# 5 -5.2607 0.7744 -7.8501 0.0000 45.6000 0.0000
# 6 0.0000 0.0000 0.0000 6.8140 0.0000 0.4575
#
#
#
# Elastic Compliance Matrix: (Units=1/GPa)
#
#
# Indices 1 2 3 4 5 6 
#
# 1 0.008789 -0.003115 -0.005007 0.000000 0.000205 0.000000
# 2 -0.003115 0.014370 0.000723 0.000000 -0.000479 0.000000
# 3 -0.005007 0.000723 0.015846 0.000000 0.002138 0.000000
# 4 0.000000 0.000000 0.000000 -0.025981 0.000000 0.387005
# 5 0.000205 -0.000479 0.002138 0.000000 0.022330 0.000000
# 6 0.000000 0.000000 0.000000 0.387005 0.000000 -3.578631
#
#
# Mechanical properties :
#
#
# Convention : Reuss Voigt Hill
#
# Bulk Modulus (GPa) = 41.31112 52.58571 46.94842
# Shear Modulus (GPa) = -1.42029 36.66073 17.62022
#
# Velocity S-wave (km/s) = -0.78628 3.99476 2.76946
# Velocity P-wave (km/s) = 4.14223 6.64587 5.53740
#
# Compressibility (1/GPa) = 0.02420655
#
# Stress axis : x y z
#
# Youngs Moduli (GPa) = 113.77636 69.58771 63.10788
#
# Poissons Ratio (x) = 0.21678 0.31601
# Poissons Ratio (y) = 0.35444 -0.04565
# Poissons Ratio (z) = 0.56973 -0.05033
#
# Static dielectric constant tensor:
#      x y z
#    x 1.811790 0.000000 -0.042180 
#    y 0.000000 1.831720 0.000000 
#    z -0.042180 0.000000 1.936990 
# 
# From -- ./inp_files/73757.got.cif
#   From: 2010.05.17/outbox.cif.g08.bks.cpg/sg12_37_cif.got.tgz:73757.got - 2010.06.03 13:09:07.
