data_PCOD9202316
_publ_section_title
;
Structure prediction by ZEFSAII (Michael W. Deem and Ramdas Pophale) SiO2 
 PCOD9202316
Probable space group: C 2/M
;
_chemical_formula_sum "Si O2"
_cell_formula_units_Z 64
_cell_length_a 8.416604
_cell_length_b 22.685126
_cell_length_c 15.683085
_cell_angle_alpha 90.000000
_cell_angle_beta 97.674652
_cell_angle_gamma 90.000000
_cell_volume 2967.575743
_symmetry_space_group_name_H-M "C 2/M"
_symmetry_group_IT_number 12
_symmetry_cell_setting 'monoclinic'
loop_
_space_group_symop_operation_xyz
x,y,z
-x,y,-z
-x,-y,-z
x,-y,z
1/2+x,1/2+y,z
1/2-x,1/2+y,-z
1/2-x,1/2-y,-z
1/2+x,1/2-y,z
loop_
_atom_site_type_symbol
_atom_site_label
_atom_site_fract_x
_atom_site_fract_y
_atom_site_fract_z
Si Si1 0.316835 0.348321 0.471874
Si Si2 0.792522 0.729767 0.233466
Si Si3 0.123827 0.896426 0.943951
Si Si4 0.531002 0.658154 0.765099
Si Si5 0.875613 0.674889 0.060038
Si Si6 0.578228 0.064570 0.139459
Si Si7 0.218467 0.069432 0.675683
Si Si8 0.629993 0.217339 0.583913
O O1 0.500000 0.365062 0.500000
O O2 0.234010 0.397568 0.408225
O O3 0.309087 0.284858 0.422312
O O4 0.251579 0.332058 0.560300
O O5 0.623269 0.700877 0.248441
O O6 0.841024 0.710696 0.142558
O O7 0.908042 0.709700 0.319969
O O8 0.811817 0.800111 0.231044
O O9 0.267820 0.933060 0.912246
O O10 0.027038 0.871409 0.857008
O O11 0.214114 0.843372 0.999802
O O12 0.000000 0.925590 0.000000
O O13 0.564589 0.606433 0.699776
O O14 0.960431 0.615143 0.099802
O O15 0.000000 0.701790 0.000000
O O16 0.649445 0.073898 0.239440
O O17 0.502759 0.000000 0.129504
O O18 0.185767 0.000000 0.661280
O O19 0.500000 0.213394 0.500000
#
# Coordination Sequence:
#
# PCOD9202316 Si02
#       8
#     8   8   8   8   8   8   8   8
#     4  10  20  38  60  92 127 160 215 263 321 378
#     4  12  25  40  64  93 132 174 207 271 329 387
#     4  10  20  40  55  89 131 161 210 267 319 391
#     4  11  25  39  64  96 131 171 217 259 334 384
#     4  10  23  39  62  90 128 170 214 262 330 392
#     4   9  21  39  63  90 120 169 226 268 313 384
#     4  10  21  41  68  93 129 171 220 268 316 388
#     4  10  23  36  61  96 130 165 210 270 314 384
#
# _framework density 21.566424999999999
#
# number of rings (size 3 to 8) (size 9 to 14) (size 15 to 20)
#    0.000    1.750    2.500    0.750   10.500    3.750 
#    0.000    0.625    0.000    1.125    0.000    0.000 
#    0.000    0.000    0.000    0.000    0.000    0.000 
#
# Total GULP energy -178566.285867 kJ/mol
# GULP energy per Si atom -5580.196433 kJ/mol
# Density = 2.151734 g / cm^3
# Si number density = 21.566425 Si / 1000 Ang^3
#
#
#
# Elastic Constant Matrix: (Units=GPa)
#
#
# Indices 1 2 3 4 5 6 
#
# 1 27.6948 9.8286 -4.2002 0.0000 2.8408 0.0000
# 2 9.8286 94.1547 28.3149 0.0000 2.1293 0.0000
# 3 -4.2002 28.3149 130.0720 0.0000 -7.8827 0.0000
# 4 0.0000 0.0000 0.0000 20.4478 0.0000 3.4562
# 5 2.8408 2.1293 -7.8827 0.0000 21.8430 0.0000
# 6 0.0000 0.0000 0.0000 3.4562 0.0000 11.8868
#
#
#
# Elastic Compliance Matrix: (Units=1/GPa)
#
#
# Indices 1 2 3 4 5 6 
#
# 1 0.038408 -0.004522 0.001992 0.000000 -0.003835 0.000000
# 2 -0.004522 0.011987 -0.002853 0.000000 -0.001610 0.000000
# 3 0.001992 -0.002853 0.008562 0.000000 0.003109 0.000000
# 4 0.000000 0.000000 0.000000 0.051433 0.000000 -0.014954
# 5 -0.003835 -0.001610 0.003109 0.000000 0.047559 0.000000
# 6 0.000000 0.000000 0.000000 -0.014954 0.000000 0.088475
#
#
# Mechanical properties :
#
#
# Convention : Reuss Voigt Hill
#
# Bulk Modulus (GPa) = 20.75034 35.53422 28.14228
# Shear Modulus (GPa) = 18.29807 25.36742 21.83274
#
# Velocity S-wave (km/s) = 2.91598 3.43336 3.18519
# Velocity P-wave (km/s) = 4.58036 5.67712 5.15798
#
# Compressibility (1/GPa) = 0.04819198
#
# Stress axis : x y z
#
# Youngs Moduli (GPa) = 26.03617 83.42209 116.79718
#
# Poissons Ratio (x) = 0.37721 -0.23267
# Poissons Ratio (y) = 0.11773 0.33323
# Poissons Ratio (z) = -0.05187 0.23801
#
# Static dielectric constant tensor:
#      x y z
#    x 1.904850 0.000000 -0.017200 
#    y 0.000000 1.766060 0.000000 
#    z -0.017200 0.000000 1.820840 
# 
# From -- ./inp_files/198894.got.cif
#   From: 2010.05.17/outbox.cif.g08.bks.cpg/sg12_100_cif.got.tgz:198894.got - 2010.06.03 13:09:07.
