data_PCOD9202122
_publ_section_title
;
Structure prediction by ZEFSAII (Michael W. Deem and Ramdas Pophale) SiO2 
 PCOD9202122
Probable space group: C 2/M
;
_chemical_formula_sum "Si O2"
_cell_formula_units_Z 64
_cell_length_a 25.391279
_cell_length_b 8.457454
_cell_length_c 15.260344
_cell_angle_alpha 90.000000
_cell_angle_beta 88.015068
_cell_angle_gamma 90.000000
_cell_volume 3275.124983
_symmetry_space_group_name_H-M "C 2/M"
_symmetry_group_IT_number 12
_symmetry_cell_setting 'monoclinic'
loop_
_space_group_symop_operation_xyz
x,y,z
-x,y,-z
-x,-y,-z
x,-y,z
1/2+x,1/2+y,z
1/2-x,1/2+y,-z
1/2-x,1/2-y,-z
1/2+x,1/2-y,z
loop_
_atom_site_type_symbol
_atom_site_label
_atom_site_fract_x
_atom_site_fract_y
_atom_site_fract_z
Si Si1 0.800564 0.310910 0.444696
Si Si2 0.586720 0.691258 0.507633
Si Si3 0.480620 0.688642 0.838661
Si Si4 0.686359 0.193108 0.755779
Si Si5 0.765064 0.186796 0.903155
Si Si6 0.374647 0.813126 0.929588
Si Si7 0.006437 0.192161 0.361854
Si Si8 0.407676 0.809662 0.120411
O O1 0.750000 0.250000 0.500000
O O2 0.855213 0.258479 0.485993
O O3 0.802151 0.252936 0.343384
O O4 0.701591 0.000000 0.557039
O O5 0.589678 0.500000 0.508408
O O6 0.554909 0.738624 0.421848
O O7 0.548215 0.742549 0.589523
O O8 0.472913 0.500000 0.840568
O O9 0.430664 0.769682 0.885553
O O10 0.486671 0.744322 0.737766
O O11 0.535361 0.731350 0.881882
O O12 0.728962 0.247734 0.825507
O O13 0.628899 0.239509 0.795973
O O14 0.687220 0.000000 0.755029
O O15 0.826287 0.226348 0.886351
O O16 0.757039 0.000000 0.906397
O O17 0.750000 0.250000 0.000000
O O18 0.365438 0.000000 0.924555
O O19 0.377506 0.769997 0.032290
O O20 0.005490 0.000000 0.361969
O O21 0.414177 0.000000 0.121975
#
# Coordination Sequence:
#
# PCOD9202122 Si02
#       8
#     8   8   8   8   8   8   8   8
#     4  11  23  39  58  83 116 151 189 235 285 338
#     4   9  17  36  62  83 108 146 190 231 280 338
#     4  11  22  35  53  84 118 147 187 234 284 339
#     4   9  20  39  62  84 111 152 191 227 286 350
#     4  11  21  39  63  87 113 147 191 238 284 338
#     4  11  23  39  57  80 113 154 192 232 283 337
#     4   8  17  34  58  84 112 147 183 228 286 344
#     4  10  20  38  59  79 109 149 190 230 281 342
#
# _framework density 19.541239000000001
#
# number of rings (size 3 to 8) (size 9 to 14) (size 15 to 20)
#    0.000    2.000    1.250    3.375    0.000    3.500 
#    0.000   11.250    0.000    0.000    0.000    0.000 
#    0.000    0.000    0.000    0.000    0.000    0.000 
#
# Total GULP energy -178725.479851 kJ/mol
# GULP energy per Si atom -5585.171245 kJ/mol
# Density = 1.949676 g / cm^3
# Si number density = 19.541239 Si / 1000 Ang^3
#
#
#
# Elastic Constant Matrix: (Units=GPa)
#
#
# Indices 1 2 3 4 5 6 
#
# 1 123.7008 6.7617 16.3372 0.0000 -1.1749 0.0000
# 2 6.7617 14.4777 5.1345 0.0000 0.8541 0.0000
# 3 16.3372 5.1345 20.0733 0.0000 -5.1886 0.0000
# 4 0.0000 0.0000 0.0000 22.4603 0.0000 -0.1232
# 5 -1.1749 0.8541 -5.1886 0.0000 26.5579 0.0000
# 6 0.0000 0.0000 0.0000 -0.1232 0.0000 33.7376
#
#
#
# Elastic Compliance Matrix: (Units=1/GPa)
#
#
# Indices 1 2 3 4 5 6 
#
# 1 0.009122 -0.001630 -0.007256 0.000000 -0.000962 0.000000
# 2 -0.001630 0.077359 -0.020139 0.000000 -0.006495 0.000000
# 3 -0.007256 -0.020139 0.064201 0.000000 0.012870 0.000000
# 4 0.000000 0.000000 0.000000 0.044524 0.000000 0.000163
# 5 -0.000962 -0.006495 0.012870 0.000000 0.040334 0.000000
# 6 0.000000 0.000000 0.000000 0.000163 0.000000 0.029641
#
#
# Mechanical properties :
#
#
# Convention : Reuss Voigt Hill
#
# Bulk Modulus (GPa) = 10.79556 23.85763 17.32659
# Shear Modulus (GPa) = 14.11992 25.21904 19.66948
#
# Velocity S-wave (km/s) = 2.69098 3.59633 3.17608
# Velocity P-wave (km/s) = 3.89765 5.42956 4.72609
#
# Compressibility (1/GPa) = 0.09263071
#
# Stress axis : x y z
#
# Youngs Moduli (GPa) = 109.62136 12.92674 15.57615
#
# Poissons Ratio (x) = 0.02108 0.11302
# Poissons Ratio (y) = 0.17874 0.31369
# Poissons Ratio (z) = 0.79540 0.26033
#
# Static dielectric constant tensor:
#      x y z
#    x 1.663940 0.000000 0.001580 
#    y 0.000000 1.672860 0.000000 
#    z 0.001580 0.000000 1.690850 
# 
# From -- ./inp_files/238807.got.cif
#   From: 2010.05.17/outbox.cif.g08.bks.cpg/sg12_120_cif.got.tgz:238807.got - 2010.06.03 13:09:07.
