data_PCOD9202634
_publ_section_title
;
Structure prediction by ZEFSAII (Michael W. Deem and Ramdas Pophale) SiO2 
 PCOD9202634
Probable space group: C 2/M
;
_chemical_formula_sum "Si O2"
_cell_formula_units_Z 40
_cell_length_a 15.297305
_cell_length_b 14.166412
_cell_length_c 9.964878
_cell_angle_alpha 90.000000
_cell_angle_beta 116.221288
_cell_angle_gamma 90.000000
_cell_volume 1937.246397
_symmetry_space_group_name_H-M "C 2/M"
_symmetry_group_IT_number 12
_symmetry_cell_setting 'monoclinic'
loop_
_space_group_symop_operation_xyz
x,y,z
-x,y,-z
-x,-y,-z
x,-y,z
1/2+x,1/2+y,z
1/2-x,1/2+y,-z
1/2-x,1/2-y,-z
1/2+x,1/2-y,z
loop_
_atom_site_type_symbol
_atom_site_label
_atom_site_fract_x
_atom_site_fract_y
_atom_site_fract_z
Si Si1 0.025778 0.893941 0.663788
Si Si2 0.542993 0.761929 0.180421
Si Si3 0.062643 0.387554 0.677774
Si Si4 0.726242 0.711146 0.168963
Si Si5 0.726749 0.601427 0.928081
O O1 0.141237 0.900911 0.761935
O O2 0.000000 0.855923 0.500000
O O3 0.993084 0.827559 0.760211
O O4 0.984571 0.000000 0.645997
O O5 0.501890 0.849262 0.240660
O O6 0.658878 0.740478 0.246973
O O7 0.500000 0.765447 0.000000
O O8 0.084517 0.500000 0.705300
O O9 0.162319 0.324509 0.734591
O O10 0.000000 0.375831 0.500000
O O11 0.714071 0.806759 0.072253
O O12 0.685922 0.625962 0.048282
O O13 0.776622 0.500000 0.961603
#
# Coordination Sequence:
#
# PCOD9202634 Si02
#       5
#     8   8   8   8   8
#     4  10  21  39  62  90 129 168 202 260 332 386
#     4  12  23  40  68 100 128 165 220 272 325 388
#     4  11  26  48  67  91 134 180 218 268 330 392
#     4  11  22  39  67  96 127 173 222 267 323 387
#     4  10  20  38  62  91 130 169 209 262 325 386
#
# _framework density 20.647863999999998
#
# number of rings (size 3 to 8) (size 9 to 14) (size 15 to 20)
#    0.000    1.200    4.000    2.400    0.000    4.000 
#    0.000    0.000    0.000    0.000    0.000    0.000 
#    0.000    0.000    0.000    0.000    0.000    0.000 
#
# Total GULP energy -111350.319017 kJ/mol
# GULP energy per Si atom -5567.515951 kJ/mol
# Density = 2.060087 g / cm^3
# Si number density = 20.647864 Si / 1000 Ang^3
#
#
#
# Elastic Constant Matrix: (Units=GPa)
#
#
# Indices 1 2 3 4 5 6 
#
# 1 85.9676 30.9957 44.3270 0.0000 2.9110 0.0000
# 2 30.9957 147.2200 29.0690 0.0000 -9.6070 0.0000
# 3 44.3270 29.0690 145.8729 0.0000 2.3954 0.0000
# 4 0.0000 0.0000 0.0000 8.6834 0.0000 18.9263
# 5 2.9110 -9.6070 2.3954 0.0000 29.2713 0.0000
# 6 0.0000 0.0000 0.0000 18.9263 0.0000 -7.5024
#
#
#
# Elastic Compliance Matrix: (Units=1/GPa)
#
#
# Indices 1 2 3 4 5 6 
#
# 1 0.014593 -0.002424 -0.003920 0.000000 -0.001926 0.000000
# 2 -0.002424 0.007652 -0.000835 0.000000 0.002821 0.000000
# 3 -0.003920 -0.000835 0.008222 0.000000 -0.000557 0.000000
# 4 0.000000 0.000000 0.000000 0.017721 0.000000 0.044706
# 5 -0.001926 0.002821 -0.000557 0.000000 0.035326 0.000000
# 6 0.000000 0.000000 0.000000 0.044706 0.000000 -0.020511
#
#
# Mechanical properties :
#
#
# Convention : Reuss Voigt Hill
#
# Bulk Modulus (GPa) = 62.07435 65.31600 63.69517
# Shear Modulus (GPa) = 60.43853 24.40172 42.42012
#
# Velocity S-wave (km/s) = 5.41614 3.44147 4.53753
# Velocity P-wave (km/s) = 8.32114 6.89156 7.63986
#
# Compressibility (1/GPa) = 0.01610971
#
# Stress axis : x y z
#
# Youngs Moduli (GPa) = 68.52810 130.68883 121.62786
#
# Poissons Ratio (x) = 0.31680 0.47673
# Poissons Ratio (y) = 0.16612 0.10150
# Poissons Ratio (z) = 0.26860 0.10906
#
# Static dielectric constant tensor:
#      x y z
#    x 1.839020 0.000000 0.008650 
#    y 0.000000 1.794560 0.000000 
#    z 0.008650 0.000000 1.759250 
# 
# From -- ./inp_files/59238.got.cif
#   From: 2010.05.17/outbox.cif.g08.bks.cpg/sg12_30_cif.got.tgz:59238.got - 2010.06.03 13:09:07.
