data_PCOD9202011
_publ_section_title
;
Structure prediction by ZEFSAII (Michael W. Deem and Ramdas Pophale) SiO2 
 PCOD9202011
Probable space group: C 2/M
;
_chemical_formula_sum "Si O2"
_cell_formula_units_Z 56
_cell_length_a 10.968472
_cell_length_b 19.142682
_cell_length_c 15.450466
_cell_angle_alpha 90.000000
_cell_angle_beta 120.349648
_cell_angle_gamma 90.000000
_cell_volume 2799.498113
_symmetry_space_group_name_H-M "C 2/M"
_symmetry_group_IT_number 12
_symmetry_cell_setting 'monoclinic'
loop_
_space_group_symop_operation_xyz
x,y,z
-x,y,-z
-x,-y,-z
x,-y,z
1/2+x,1/2+y,z
1/2-x,1/2+y,-z
1/2-x,1/2-y,-z
1/2+x,1/2-y,z
loop_
_atom_site_type_symbol
_atom_site_label
_atom_site_fract_x
_atom_site_fract_y
_atom_site_fract_z
Si Si1 0.597164 0.698724 0.837434
Si Si2 0.314301 0.347763 0.694669
Si Si3 0.562969 0.923328 0.188947
Si Si4 0.523985 0.080037 0.644881
Si Si5 0.793235 0.808829 0.309702
Si Si6 0.391163 0.825737 0.030806
Si Si7 0.239971 0.832981 0.512474
O O1 0.460138 0.649756 0.800298
O O2 0.607483 0.705860 0.736915
O O3 0.593830 0.775198 0.880646
O O4 0.738040 0.670074 0.933479
O O5 0.177944 0.391367 0.675237
O O6 0.273914 0.266088 0.692298
O O7 0.334638 0.363220 0.599681
O O8 0.491531 0.921811 0.257349
O O9 0.682149 0.864415 0.232819
O O10 0.447723 0.900766 0.078357
O O11 0.622526 0.000000 0.195161
O O12 0.395909 0.131201 0.569660
O O13 0.503251 0.000000 0.606273
O O14 0.831731 0.839822 0.418472
O O15 0.500000 0.794705 0.000000
O O16 0.250000 0.750000 0.500000
#
# Coordination Sequence:
#
# PCOD9202011 Si02
#       7
#     8   8   8   8   8   8   8
#     4  11  22  36  60  86 122 158 203 256 318 360
#     4  11  21  35  60  89 122 165 199 255 304 369
#     4  10  20  38  62  86 115 159 207 256 308 365
#     4  10  22  41  64  91 128 169 208 248 305 377
#     4  10  20  38  56  86 123 155 203 259 297 368
#     4  11  21  38  58  90 117 161 209 259 313 377
#     4   9  21  36  59  92 120 159 210 253 302 351
#
# _framework density 20.003585999999999
#
# number of rings (size 3 to 8) (size 9 to 14) (size 15 to 20)
#    0.000    1.714    2.857    1.286    4.000    3.143 
#    0.000    1.429    0.000    1.714    0.000    5.000 
#    0.000    0.000    0.000    0.000    0.000    0.000 
#
# Total GULP energy -156001.549366 kJ/mol
# GULP energy per Si atom -5571.483906 kJ/mol
# Density = 1.995806 g / cm^3
# Si number density = 20.003586 Si / 1000 Ang^3
#
#
#
# Elastic Constant Matrix: (Units=GPa)
#
#
# Indices 1 2 3 4 5 6 
#
# 1 84.5283 32.4871 59.8245 0.0000 4.7591 0.0000
# 2 32.4871 95.2315 31.2053 0.0000 6.7168 0.0000
# 3 59.8245 31.2053 90.0164 0.0000 12.4203 0.0000
# 4 0.0000 0.0000 0.0000 20.9442 0.0000 1.8548
# 5 4.7591 6.7168 12.4203 0.0000 39.1517 0.0000
# 6 0.0000 0.0000 0.0000 1.8548 0.0000 26.0574
#
#
#
# Elastic Compliance Matrix: (Units=1/GPa)
#
#
# Indices 1 2 3 4 5 6 
#
# 1 0.023396 -0.003325 -0.014728 0.000000 0.002399 0.000000
# 2 -0.003325 0.012341 -0.001916 0.000000 -0.001105 0.000000
# 3 -0.014728 -0.001916 0.022242 0.000000 -0.004937 0.000000
# 4 0.000000 0.000000 0.000000 0.048049 0.000000 -0.003420
# 5 0.002399 -0.001105 -0.004937 0.000000 0.027006 0.000000
# 6 0.000000 0.000000 0.000000 -0.003420 0.000000 0.038620
#
#
# Mechanical properties :
#
#
# Convention : Reuss Voigt Hill
#
# Bulk Modulus (GPa) = 55.42307 57.42333 56.42320
# Shear Modulus (GPa) = 22.97737 26.98129 24.97933
#
# Velocity S-wave (km/s) = 3.39287 3.67662 3.53759
# Velocity P-wave (km/s) = 6.56624 6.84048 6.70476
#
# Compressibility (1/GPa) = 0.01804303
#
# Stress axis : x y z
#
# Youngs Moduli (GPa) = 42.74148 81.03282 44.95923
#
# Poissons Ratio (x) = 0.26941 0.66214
# Poissons Ratio (y) = 0.14210 0.08614
# Poissons Ratio (z) = 0.62948 0.15526
#
# Static dielectric constant tensor:
#      x y z
#    x 1.774550 0.000000 -0.016200 
#    y 0.000000 1.703020 0.000000 
#    z -0.016200 0.000000 1.751010 
# 
# From -- ./inp_files/206764.got.cif
#   From: 2010.05.17/outbox.cif.g08.bks.cpg/sg12_104_cif.got.tgz:206764.got - 2010.06.03 13:09:07.
