data_PCOD9202517
_publ_section_title
;
Structure prediction by ZEFSAII (Michael W. Deem and Ramdas Pophale) SiO2 
 PCOD9202517
Probable space group: C 2/M
;
_chemical_formula_sum "Si O2"
_cell_formula_units_Z 56
_cell_length_a 20.924047
_cell_length_b 8.666519
_cell_length_c 18.145320
_cell_angle_alpha 90.000000
_cell_angle_beta 63.487957
_cell_angle_gamma 90.000000
_cell_volume 2944.426181
_symmetry_space_group_name_H-M "C 2/M"
_symmetry_group_IT_number 12
_symmetry_cell_setting 'monoclinic'
loop_
_space_group_symop_operation_xyz
x,y,z
-x,y,-z
-x,-y,-z
x,-y,z
1/2+x,1/2+y,z
1/2-x,1/2+y,-z
1/2-x,1/2-y,-z
1/2+x,1/2-y,z
loop_
_atom_site_type_symbol
_atom_site_label
_atom_site_fract_x
_atom_site_fract_y
_atom_site_fract_z
Si Si1 0.328094 0.814864 0.942422
Si Si2 0.582641 0.684735 0.968881
Si Si3 0.318777 0.314105 0.662568
Si Si4 0.674878 0.314682 0.509470
Si Si5 0.904513 0.686075 0.753955
Si Si6 0.156385 0.313557 0.785764
Si Si7 0.068679 0.686434 0.685096
O O1 0.355872 0.763351 0.847909
O O2 0.325265 0.000000 0.944683
O O3 0.250000 0.750000 0.000000
O O4 0.383289 0.758900 0.976041
O O5 0.585950 0.500000 0.973618
O O6 0.627677 0.738820 0.875023
O O7 0.500000 0.730670 0.000000
O O8 0.321749 0.500000 0.663299
O O9 0.334606 0.265561 0.570637
O O10 0.372849 0.247833 0.694376
O O11 0.237818 0.268874 0.725752
O O12 0.677535 0.500000 0.510019
O O13 0.750000 0.250000 0.500000
O O14 0.612969 0.254727 0.594551
O O15 0.903473 0.500000 0.752972
O O16 0.986248 0.734746 0.724831
O O17 0.153795 0.500000 0.794385
O O18 0.106758 0.269051 0.742061
O O19 0.071958 0.500000 0.679090
#
# Coordination Sequence:
#
# PCOD9202517 Si02
#       7
#     8   8   8   8   8   8   8
#     4  11  23  41  64  89 119 160 204 249 303 361
#     4  11  24  39  57  87 123 156 198 251 301 355
#     4  10  22  39  60  86 118 153 193 241 292 350
#     4  11  22  39  62  90 120 155 196 242 295 351
#     4  10  23  40  60  87 120 157 197 243 296 354
#     4  10  20  38  62  85 113 155 202 247 297 353
#     4  10  21  40  62  87 120 156 198 246 295 351
#
# _framework density 19.018986000000002
#
# number of rings (size 3 to 8) (size 9 to 14) (size 15 to 20)
#    0.000    1.571    1.429    3.000    0.000    9.143 
#    0.000    2.857    0.000    0.000    0.000    0.000 
#    0.000    0.000    0.000    0.000    0.000    0.000 
#
# Total GULP energy -156542.218606 kJ/mol
# GULP energy per Si atom -5590.793522 kJ/mol
# Density = 1.897570 g / cm^3
# Si number density = 19.018986 Si / 1000 Ang^3
#
#
#
# Elastic Constant Matrix: (Units=GPa)
#
#
# Indices 1 2 3 4 5 6 
#
# 1 95.2786 12.4772 9.8057 0.0000 10.0070 0.0000
# 2 12.4772 17.7360 11.8923 0.0000 2.0586 0.0000
# 3 9.8057 11.8923 93.3005 0.0000 12.8554 0.0000
# 4 0.0000 0.0000 0.0000 33.4102 0.0000 1.2019
# 5 10.0070 2.0586 12.8554 0.0000 37.2662 0.0000
# 6 0.0000 0.0000 0.0000 1.2019 0.0000 34.5984
#
#
#
# Elastic Compliance Matrix: (Units=1/GPa)
#
#
# Indices 1 2 3 4 5 6 
#
# 1 0.011834 -0.008119 0.000176 0.000000 -0.002790 0.000000
# 2 -0.008119 0.067241 -0.007881 0.000000 0.001184 0.000000
# 3 0.000176 -0.007881 0.012232 0.000000 -0.003831 0.000000
# 4 0.000000 0.000000 0.000000 0.029968 0.000000 -0.001041
# 5 -0.002790 0.001184 -0.003831 0.000000 0.028839 0.000000
# 6 0.000000 0.000000 0.000000 -0.001041 0.000000 0.028939
#
#
# Mechanical properties :
#
#
# Convention : Reuss Voigt Hill
#
# Bulk Modulus (GPa) = 16.76203 30.51838 23.64021
# Shear Modulus (GPa) = 21.68375 32.53094 27.10735
#
# Velocity S-wave (km/s) = 3.38022 4.14024 3.77938
# Velocity P-wave (km/s) = 4.90581 6.23992 5.61264
#
# Compressibility (1/GPa) = 0.05965865
#
# Stress axis : x y z
#
# Youngs Moduli (GPa) = 84.50454 14.87194 81.75290
#
# Poissons Ratio (x) = 0.12074 -0.01435
# Poissons Ratio (y) = 0.68608 0.64426
# Poissons Ratio (z) = -0.01483 0.11720
#
# Static dielectric constant tensor:
#      x y z
#    x 1.633540 0.000000 -0.005220 
#    y 0.000000 1.649530 0.000000 
#    z -0.005220 0.000000 1.647560 
# 
# From -- ./inp_files/280952.got.cif
#   From: 2010.05.17/outbox.cif.g08.bks.cpg/sg12_141_cif.got.tgz:280952.got - 2010.06.03 13:09:07.
