data_PCOD9202853
_publ_section_title
;
Structure prediction by ZEFSAII (Michael W. Deem and Ramdas Pophale) SiO2 
 PCOD9202853
Probable space group: C 2/M
;
_chemical_formula_sum "Si O2"
_cell_formula_units_Z 48
_cell_length_a 18.018916
_cell_length_b 14.258604
_cell_length_c 8.289858
_cell_angle_alpha 90.000000
_cell_angle_beta 83.823662
_cell_angle_gamma 90.000000
_cell_volume 2117.505487
_symmetry_space_group_name_H-M "C 2/M"
_symmetry_group_IT_number 12
_symmetry_cell_setting 'monoclinic'
loop_
_space_group_symop_operation_xyz
x,y,z
-x,y,-z
-x,-y,-z
x,-y,z
1/2+x,1/2+y,z
1/2-x,1/2+y,-z
1/2-x,1/2-y,-z
1/2+x,1/2-y,z
loop_
_atom_site_type_symbol
_atom_site_label
_atom_site_fract_x
_atom_site_fract_y
_atom_site_fract_z
Si Si1 0.773216 0.147160 0.435610
Si Si2 0.192143 0.602371 0.769912
Si Si3 0.142241 0.389683 0.266558
Si Si4 0.846097 0.111218 0.894105
Si Si5 0.413770 0.297654 0.558511
Si Si6 0.588520 0.219284 0.962384
O O1 0.750000 0.250000 0.500000
O O2 0.731752 0.092496 0.588637
O O3 0.731162 0.119469 0.282740
O O4 0.861614 0.151182 0.437176
O O5 0.165852 0.500000 0.827962
O O6 0.260151 0.633925 0.869363
O O7 0.123244 0.672659 0.795221
O O8 0.121786 0.500000 0.289072
O O9 0.106588 0.312049 0.397669
O O10 0.119237 0.347788 0.099267
O O11 0.892498 0.145966 0.726566
O O12 0.852296 0.000000 0.917121
O O13 0.877260 0.177884 0.024963
O O14 0.500000 0.304196 0.500000
O O15 0.500000 0.221477 0.000000
#
# Coordination Sequence:
#
# PCOD9202853 Si02
#       6
#     8   8   8   8   8   8
#     4   9  19  36  59  86 118 158 199 237 281 344
#     4  10  20  38  64  88 116 156 194 233 293 364
#     4  10  21  38  59  87 122 157 199 243 288 355
#     4   9  20  39  61  84 112 153 201 243 291 356
#     4   9  19  36  59  90 124 155 190 243 305 351
#     4  11  24  40  60  87 122 157 194 248 304 351
#
# _framework density 22.668182999999999
#
# number of rings (size 3 to 8) (size 9 to 14) (size 15 to 20)
#    0.000    2.333    0.000    2.500    0.000    8.333 
#    0.000    0.000    0.000    1.000    0.000    0.000 
#    0.000    0.000    0.000    0.000    0.000    0.000 
#
# Total GULP energy -133939.928907 kJ/mol
# GULP energy per Si atom -5580.830371 kJ/mol
# Density = 2.261659 g / cm^3
# Si number density = 22.668183 Si / 1000 Ang^3
#
#
#
# Elastic Constant Matrix: (Units=GPa)
#
#
# Indices 1 2 3 4 5 6 
#
# 1 117.3904 36.7131 12.9270 0.0000 -11.4077 0.0000
# 2 36.7131 140.0692 9.4183 0.0000 -7.3978 0.0000
# 3 12.9270 9.4183 50.8410 0.0000 9.9710 0.0000
# 4 0.0000 0.0000 0.0000 8.9013 0.0000 -8.0592
# 5 -11.4077 -7.3978 9.9710 0.0000 28.8187 0.0000
# 6 0.0000 0.0000 0.0000 -8.0592 0.0000 11.8322
#
#
#
# Elastic Compliance Matrix: (Units=1/GPa)
#
#
# Indices 1 2 3 4 5 6 
#
# 1 0.009958 -0.002175 -0.002996 0.000000 0.004420 0.000000
# 2 -0.002175 0.007875 -0.001216 0.000000 0.001581 0.000000
# 3 -0.002996 -0.001216 0.022475 0.000000 -0.009274 0.000000
# 4 0.000000 0.000000 0.000000 0.293090 0.000000 0.199631
# 5 0.004420 0.001581 -0.009274 0.000000 0.040064 0.000000
# 6 0.000000 0.000000 0.000000 0.199631 0.000000 0.220489
#
#
# Mechanical properties :
#
#
# Convention : Reuss Voigt Hill
#
# Bulk Modulus (GPa) = 36.31863 47.37973 41.84918
# Shear Modulus (GPa) = 8.11817 26.52658 17.32238
#
# Velocity S-wave (km/s) = 1.89449 3.42455 2.76736
# Velocity P-wave (km/s) = 4.56531 6.04843 5.35843
#
# Compressibility (1/GPa) = 0.02753408
#
# Stress axis : x y z
#
# Youngs Moduli (GPa) = 100.41843 126.98851 44.49392
#
# Poissons Ratio (x) = 0.27623 0.13330
# Poissons Ratio (y) = 0.21844 0.05409
# Poissons Ratio (z) = 0.30085 0.15439
#
# Static dielectric constant tensor:
#      x y z
#    x 1.842110 0.000000 0.014700 
#    y 0.000000 1.609290 0.000000 
#    z 0.014700 0.000000 1.976330 
# 
# From -- ./inp_files/73593.got.cif
#   From: 2010.05.17/outbox.cif.g08.bks.cpg/sg12_37_cif.got.tgz:73593.got - 2010.06.03 13:09:07.
