data_PCOD9202379
_publ_section_title
;
Structure prediction by ZEFSAII (Michael W. Deem and Ramdas Pophale) SiO2 
 PCOD9202379
Probable space group: C 2/M
;
_chemical_formula_sum "Si O2"
_cell_formula_units_Z 48
_cell_length_a 9.996758
_cell_length_b 10.645956
_cell_length_c 24.609939
_cell_angle_alpha 90.000000
_cell_angle_beta 112.543852
_cell_angle_gamma 90.000000
_cell_volume 2418.977888
_symmetry_space_group_name_H-M "C 2/M"
_symmetry_group_IT_number 12
_symmetry_cell_setting 'monoclinic'
loop_
_space_group_symop_operation_xyz
x,y,z
-x,y,-z
-x,-y,-z
x,-y,z
1/2+x,1/2+y,z
1/2-x,1/2+y,-z
1/2-x,1/2-y,-z
1/2+x,1/2-y,z
loop_
_atom_site_type_symbol
_atom_site_label
_atom_site_fract_x
_atom_site_fract_y
_atom_site_fract_z
Si Si1 0.063141 0.358296 0.210335
Si Si2 0.395998 0.788436 0.662290
Si Si3 0.672541 0.144084 0.023905
Si Si4 0.179714 0.143887 0.834995
Si Si5 0.152032 0.638699 0.462696
Si Si6 0.630407 0.857846 0.632449
O O1 0.009227 0.500000 0.189149
O O2 0.106409 0.353451 0.280394
O O3 0.200559 0.334390 0.193070
O O4 0.944216 0.249222 0.184991
O O5 0.327857 0.861164 0.600054
O O6 0.560234 0.769782 0.667605
O O7 0.296663 0.666725 0.649561
O O8 0.738662 0.149870 0.094577
O O9 0.694921 0.000000 0.006953
O O10 0.500000 0.165505 0.000000
O O11 0.750000 0.250000 0.000000
O O12 0.123430 0.000000 0.819563
O O13 0.185837 0.500000 0.489868
O O14 0.250000 0.750000 0.500000
O O15 0.976827 0.660707 0.435829
O O16 0.608001 0.000000 0.647349
#
# Coordination Sequence:
#
# PCOD9202379 Si02
#       6
#     8   8   8   8   8   8
#     4  11  22  39  62  86 120 160 198 246 300 352
#     4  10  20  38  61  85 112 154 198 241 296 355
#     4  10  21  39  62  89 124 161 200 245 292 344
#     4  10  23  39  59  92 124 156 201 246 290 349
#     4   9  20  39  59  84 117 150 193 246 298 357
#     4   9  20  38  57  82 117 148 189 240 294 355
#
# _framework density 19.843091999999999
#
# number of rings (size 3 to 8) (size 9 to 14) (size 15 to 20)
#    1.000    1.167    0.000    3.000    0.000    5.000 
#    0.000    7.500    0.000    0.000    0.000    0.000 
#    0.000    0.000    0.000    0.000    0.000    0.000 
#
# Total GULP energy -133645.428986 kJ/mol
# GULP energy per Si atom -5568.559541 kJ/mol
# Density = 1.979793 g / cm^3
# Si number density = 19.843092 Si / 1000 Ang^3
#
#
#
# Elastic Constant Matrix: (Units=GPa)
#
#
# Indices 1 2 3 4 5 6 
#
# 1 88.2517 79.3302 22.0676 0.0000 2.1958 0.0000
# 2 79.3302 142.9506 39.4778 0.0000 14.6001 0.0000
# 3 22.0676 39.4778 73.0658 0.0000 -5.6866 0.0000
# 4 0.0000 0.0000 0.0000 22.6475 0.0000 4.5223
# 5 2.1958 14.6001 -5.6866 0.0000 26.1540 0.0000
# 6 0.0000 0.0000 0.0000 4.5223 0.0000 38.5842
#
#
#
# Elastic Compliance Matrix: (Units=1/GPa)
#
#
# Indices 1 2 3 4 5 6 
#
# 1 0.023401 -0.013834 0.000870 0.000000 0.005947 0.000000
# 2 -0.013834 0.017313 -0.005938 0.000000 -0.009794 0.000000
# 3 0.000870 -0.005938 0.017175 0.000000 0.006976 0.000000
# 4 0.000000 0.000000 0.000000 0.045213 0.000000 -0.005299
# 5 0.005947 -0.009794 0.006976 0.000000 0.044720 0.000000
# 6 0.000000 0.000000 0.000000 -0.005299 0.000000 0.026538
#
#
# Mechanical properties :
#
#
# Convention : Reuss Voigt Hill
#
# Bulk Modulus (GPa) = 49.79096 65.11324 57.45210
# Shear Modulus (GPa) = 22.84554 28.37000 25.60777
#
# Velocity S-wave (km/s) = 3.39678 3.78526 3.59627
# Velocity P-wave (km/s) = 6.36639 7.21038 6.80149
#
# Compressibility (1/GPa) = 0.02008397
#
# Stress axis : x y z
#
# Youngs Moduli (GPa) = 42.73243 57.76028 58.22401
#
# Poissons Ratio (x) = 0.79907 -0.05064
# Poissons Ratio (y) = 0.59117 0.34575
# Poissons Ratio (z) = -0.03717 0.34300
#
# Static dielectric constant tensor:
#      x y z
#    x 1.727430 0.000000 -0.022420 
#    y 0.000000 1.694070 0.000000 
#    z -0.022420 0.000000 1.731670 
# 
# From -- ./inp_files/334810.got.cif
#   From: 2010.05.17/outbox.cif.g08.bks.cpg/sg12_168_cif.got.tgz:334810.got - 2010.06.03 13:09:07.
