data_PCOD9202089
_publ_section_title
;
Structure prediction by ZEFSAII (Michael W. Deem and Ramdas Pophale) SiO2 
 PCOD9202089
Probable space group: C 2/M
;
_chemical_formula_sum "Si O2"
_cell_formula_units_Z 56
_cell_length_a 9.214944
_cell_length_b 22.544271
_cell_length_c 21.372162
_cell_angle_alpha 90.000000
_cell_angle_beta 146.147594
_cell_angle_gamma 90.000000
_cell_volume 2473.294209
_symmetry_space_group_name_H-M "C 2/M"
_symmetry_group_IT_number 12
_symmetry_cell_setting 'monoclinic'
loop_
_space_group_symop_operation_xyz
x,y,z
-x,y,-z
-x,-y,-z
x,-y,z
1/2+x,1/2+y,z
1/2-x,1/2+y,-z
1/2-x,1/2-y,-z
1/2+x,1/2-y,z
loop_
_atom_site_type_symbol
_atom_site_label
_atom_site_fract_x
_atom_site_fract_y
_atom_site_fract_z
Si Si1 0.780544 0.064212 0.132964
Si Si2 0.929012 0.104385 0.658616
Si Si3 0.403882 0.315138 0.111704
Si Si4 0.275060 0.728300 0.579960
Si Si5 0.011862 0.659437 0.717955
Si Si6 0.545150 0.930297 0.415816
Si Si7 0.298706 0.817874 0.092295
O O1 0.892909 0.125654 0.147652
O O2 0.821131 0.072214 0.221903
O O3 0.903443 0.000000 0.160102
O O4 0.500000 0.062129 0.000000
O O5 0.970966 0.175062 0.665225
O O6 0.699156 0.088125 0.627052
O O7 0.806895 0.083036 0.549429
O O8 0.701625 0.313531 0.194935
O O9 0.342945 0.252245 0.121158
O O10 0.194881 0.322918 0.980346
O O11 0.250000 0.750000 0.500000
O O12 0.318007 0.786601 0.635990
O O13 0.000000 0.700549 0.500000
O O14 0.960632 0.607777 0.649917
O O15 0.025482 0.645722 0.796466
O O16 0.530947 0.000000 0.398609
O O17 0.000000 0.834200 0.000000
#
# Coordination Sequence:
#
# PCOD9202089 Si02
#       7
#     8   8   8   8   8   8   8
#     4  11  23  38  60  91 123 160 212 277 332 375
#     4  11  20  38  62  92 123 164 213 269 333 379
#     4  10  20  38  58  84 120 161 209 257 321 401
#     4  12  24  41  62  98 138 163 212 274 339 398
#     4  11  22  36  59  90 120 163 202 268 328 390
#     4  11  21  37  62  91 122 166 220 269 315 388
#     4   9  20  35  56  83 116 157 205 251 319 393
#
# _framework density 22.641867999999999
#
# number of rings (size 3 to 8) (size 9 to 14) (size 15 to 20)
#    0.000    1.286    4.286    3.000    2.000    2.286 
#    0.000    0.714    0.000    3.000    0.000    0.000 
#    0.000    0.000    0.000    0.000    0.000    0.000 
#
# Total GULP energy -156281.664508 kJ/mol
# GULP energy per Si atom -5581.488018 kJ/mol
# Density = 2.259033 g / cm^3
# Si number density = 22.641868 Si / 1000 Ang^3
#
#
#
# Elastic Constant Matrix: (Units=GPa)
#
#
# Indices 1 2 3 4 5 6 
#
# 1 32.8030 15.5252 23.4966 0.0022 -17.4918 0.0017
# 2 15.5252 143.1221 50.2918 0.0010 -31.4736 0.0002
# 3 23.4966 50.2918 169.1508 0.0014 -41.5877 0.0000
# 4 0.0022 0.0010 0.0014 10.0903 0.0008 -2.1300
# 5 -17.4918 -31.4736 -41.5877 0.0008 39.7681 0.0004
# 6 0.0017 0.0002 0.0000 -2.1300 0.0004 18.5681
#
#
#
# Elastic Compliance Matrix: (Units=1/GPa)
#
#
# Indices 1 2 3 4 5 6 
#
# 1 0.040184 -0.000334 -0.001618 -0.000011 0.015718 -0.000005
# 2 -0.000334 0.008638 -0.001181 -0.000001 0.005455 0.000000
# 3 -0.001618 -0.001181 0.008188 -0.000001 0.006917 0.000000
# 4 -0.000011 -0.000001 -0.000001 0.101564 -0.000009 0.011651
# 5 0.015718 0.005455 0.006917 -0.000009 0.043609 -0.000003
# 6 -0.000005 0.000000 0.000000 0.011651 -0.000003 0.055192
#
#
# Mechanical properties :
#
#
# Convention : Reuss Voigt Hill
#
# Bulk Modulus (GPa) = 19.70665 58.18923 38.94794
# Shear Modulus (GPa) = 17.82178 30.73614 24.27896
#
# Velocity S-wave (km/s) = 2.80860 3.68841 3.27816
# Velocity P-wave (km/s) = 4.38636 6.62532 5.61850
#
# Compressibility (1/GPa) = 0.05074430
#
# Stress axis : x y z
#
# Youngs Moduli (GPa) = 24.88577 115.77249 122.12601
#
# Poissons Ratio (x) = 0.03864 0.19762
# Poissons Ratio (y) = 0.00831 0.14420
# Poissons Ratio (z) = 0.04027 0.13669
#
# Static dielectric constant tensor:
#      x y z
#    x 1.871700 0.000000 0.011970 
#    y 0.000000 1.794990 0.000000 
#    z 0.011970 0.000000 1.927960 
# 
# From -- ./inp_files/336814.got.cif
#   From: 2010.05.17/outbox.cif.g08.bks.cpg/sg12_169_cif.got.tgz:336814.got - 2010.06.03 13:09:07.
