data_PCOD9202325
_publ_section_title
;
Structure prediction by ZEFSAII (Michael W. Deem and Ramdas Pophale) SiO2 
 PCOD9202325
Probable space group: C 2/M
;
_chemical_formula_sum "Si O2"
_cell_formula_units_Z 52
_cell_length_a 17.724108
_cell_length_b 24.185517
_cell_length_c 7.273523
_cell_angle_alpha 90.000000
_cell_angle_beta 52.811070
_cell_angle_gamma 90.000000
_cell_volume 2483.878510
_symmetry_space_group_name_H-M "C 2/M"
_symmetry_group_IT_number 12
_symmetry_cell_setting 'monoclinic'
loop_
_space_group_symop_operation_xyz
x,y,z
-x,y,-z
-x,-y,-z
x,-y,z
1/2+x,1/2+y,z
1/2-x,1/2+y,-z
1/2-x,1/2-y,-z
1/2+x,1/2-y,z
loop_
_atom_site_type_symbol
_atom_site_label
_atom_site_fract_x
_atom_site_fract_y
_atom_site_fract_z
Si Si1 0.594136 0.500000 0.476550
Si Si2 0.598423 0.000000 0.740671
Si Si3 0.793631 0.620996 0.068927
Si Si4 0.887433 0.698253 0.650074
Si Si5 0.688078 0.108649 0.517817
Si Si6 0.606215 0.674739 0.415674
Si Si7 0.100356 0.898732 0.750435
Si Si8 0.206600 0.500000 0.955707
O O1 0.500000 0.500000 0.500000
O O2 0.599946 0.447124 0.599632
O O3 0.680817 0.500000 0.208003
O O4 0.619211 0.944438 0.597076
O O5 0.678893 0.000000 0.780087
O O6 0.500000 0.000000 0.000000
O O7 0.811130 0.620066 0.262863
O O8 0.682320 0.634254 0.209374
O O9 0.824041 0.561397 0.939322
O O10 0.847212 0.670352 0.892356
O O11 0.849246 0.660605 0.540242
O O12 0.862292 0.762445 0.662989
O O13 0.000000 0.695638 0.500000
O O14 0.797557 0.095933 0.300379
O O15 0.500000 0.666655 0.500000
O O16 0.604836 0.658778 0.632267
O O17 0.000000 0.902230 0.000000
#
# Coordination Sequence:
#
# PCOD9202325 Si02
#       8
#     4   4   8   8   8   8   8   4
#     4  12  21  38  65  94 137 171 211 260 328 400
#     4  10  20  38  68  89 122 176 205 273 329 375
#     4  10  22  42  67  89 130 169 212 266 338 388
#     4  11  26  42  62  98 125 172 229 272 326 389
#     4  10  23  43  66  91 133 163 222 273 327 399
#     4  10  22  43  62  92 132 170 220 271 324 395
#     4  11  23  40  65  99 131 172 219 268 335 394
#     4  10  20  38  60  98 125 163 215 258 328 398
#
# _framework density 20.934999999999999
#
# number of rings (size 3 to 8) (size 9 to 14) (size 15 to 20)
#    0.000    1.538    4.615    1.154    6.462    3.077 
#    5.538    0.769    0.000    0.000    0.000    0.000 
#    0.000    0.000    0.000    0.000    0.000    0.000 
#
# Total GULP energy -145098.747436 kJ/mol
# GULP energy per Si atom -5580.721055 kJ/mol
# Density = 2.088735 g / cm^3
# Si number density = 20.935000 Si / 1000 Ang^3
#
#
#
# Elastic Constant Matrix: (Units=GPa)
#
#
# Indices 1 2 3 4 5 6 
#
# 1 58.6125 20.8720 -1.0866 0.0000 -3.9999 0.0000
# 2 20.8720 126.0765 27.2366 0.0000 7.5662 0.0000
# 3 -1.0866 27.2366 86.3868 0.0000 -6.7780 0.0000
# 4 0.0000 0.0000 0.0000 -53.9147 0.0000 -77.5107
# 5 -3.9999 7.5662 -6.7780 0.0000 19.2913 0.0000
# 6 0.0000 0.0000 0.0000 -77.5107 0.0000 -49.3743
#
#
#
# Elastic Compliance Matrix: (Units=1/GPa)
#
#
# Indices 1 2 3 4 5 6 
#
# 1 0.018914 -0.003923 0.001957 0.000000 0.006148 0.000000
# 2 -0.003923 0.009705 -0.003570 0.000000 -0.005874 0.000000
# 3 0.001957 -0.003570 0.013233 0.000000 0.006455 0.000000
# 4 0.000000 0.000000 0.000000 0.014757 0.000000 -0.023166
# 5 0.006148 -0.005874 0.006455 0.000000 0.057684 0.000000
# 6 0.000000 0.000000 0.000000 -0.023166 0.000000 0.016114
#
#
# Mechanical properties :
#
#
# Convention : Reuss Voigt Hill
#
# Bulk Modulus (GPa) = 32.48897 40.56887 36.52892
# Shear Modulus (GPa) = 32.95175 -1.86262 15.54457
#
# Velocity S-wave (km/s) = 3.97167 -0.94427 2.72787
# Velocity P-wave (km/s) = 6.04855 4.26986 5.23529
#
# Compressibility (1/GPa) = 0.03077968
#
# Stress axis : x y z
#
# Youngs Moduli (GPa) = 52.87080 103.04051 75.57123
#
# Poissons Ratio (x) = 0.40423 -0.14790
# Poissons Ratio (y) = 0.20741 0.26979
# Poissons Ratio (z) = -0.10348 0.36786
#
# Static dielectric constant tensor:
#      x y z
#    x 1.754930 0.000000 -0.003760 
#    y 0.000000 1.786640 0.000000 
#    z -0.003760 0.000000 1.776250 
# 
# From -- ./inp_files/77988.got.cif
#   From: 2010.05.17/outbox.cif.g08.bks.cpg/sg12_39_cif.got.tgz:77988.got - 2010.06.03 13:09:07.
