data_PCOD9202751
_publ_section_title
;
Structure prediction by ZEFSAII (Michael W. Deem and Ramdas Pophale) SiO2 
 PCOD9202751
Probable space group: C 2/M
;
_chemical_formula_sum "Si O2"
_cell_formula_units_Z 48
_cell_length_a 27.324447
_cell_length_b 8.654756
_cell_length_c 11.797127
_cell_angle_alpha 90.000000
_cell_angle_beta 57.576030
_cell_angle_gamma 90.000000
_cell_volume 2354.931403
_symmetry_space_group_name_H-M "C 2/M"
_symmetry_group_IT_number 12
_symmetry_cell_setting 'monoclinic'
loop_
_space_group_symop_operation_xyz
x,y,z
-x,y,-z
-x,-y,-z
x,-y,z
1/2+x,1/2+y,z
1/2-x,1/2+y,-z
1/2-x,1/2-y,-z
1/2+x,1/2-y,z
loop_
_atom_site_type_symbol
_atom_site_label
_atom_site_fract_x
_atom_site_fract_y
_atom_site_fract_z
Si Si1 0.443309 0.187577 0.139301
Si Si2 0.116625 0.183339 0.169995
Si Si3 0.986565 0.686652 0.330910
Si Si4 0.876328 0.315107 0.598984
Si Si5 0.164449 0.313512 0.878369
Si Si6 0.272595 0.685363 0.591353
O O1 0.452858 0.230281 0.257330
O O2 0.385701 0.240054 0.146935
O O3 0.442136 0.000000 0.138125
O O4 0.500000 0.238438 0.000000
O O5 0.140813 0.246611 0.258683
O O6 0.049823 0.240052 0.248675
O O7 0.118614 0.000000 0.167103
O O8 0.150363 0.247019 0.018899
O O9 0.994303 0.500000 0.323315
O O10 0.942698 0.729045 0.486107
O O11 0.874093 0.500000 0.605391
O O12 0.833440 0.255194 0.555241
O O13 0.161263 0.500000 0.889856
O O14 0.225660 0.272758 0.746645
O O15 0.276083 0.500000 0.580314
O O16 0.250000 0.750000 0.500000
#
# Coordination Sequence:
#
# PCOD9202751 Si02
#       6
#     8   8   8   8   8   8
#     4   9  15  29  59  89 114 147 194 247 291 346
#     4  12  25  39  59  91 128 162 202 259 321 370
#     4  10  20  38  63  90 121 163 209 252 305 374
#     4  11  24  42  65  89 120 166 215 256 303 369
#     4  10  21  40  64  90 122 165 211 251 299 366
#     4  11  24  43  68  95 126 162 203 254 308 365
#
# _framework density 20.382760000000001
#
# number of rings (size 3 to 8) (size 9 to 14) (size 15 to 20)
#    0.000    1.500    1.667    4.000    0.000    8.000 
#    0.000    1.667    0.000    0.000    0.000    0.000 
#    0.000    0.000    0.000    0.000    0.000    0.000 
#
# Total GULP energy -134171.186833 kJ/mol
# GULP energy per Si atom -5590.466118 kJ/mol
# Density = 2.033637 g / cm^3
# Si number density = 20.382760 Si / 1000 Ang^3
#
#
#
# Elastic Constant Matrix: (Units=GPa)
#
#
# Indices 1 2 3 4 5 6 
#
# 1 81.1340 22.4073 38.1051 0.0000 4.0956 0.0000
# 2 22.4073 49.8902 43.7710 0.0000 -3.1898 0.0000
# 3 38.1051 43.7710 130.8870 0.0000 5.1615 0.0000
# 4 0.0000 0.0000 0.0000 22.3137 0.0000 1.6579
# 5 4.0956 -3.1898 5.1615 0.0000 38.0570 0.0000
# 6 0.0000 0.0000 0.0000 1.6579 0.0000 27.8822
#
#
#
# Elastic Compliance Matrix: (Units=1/GPa)
#
#
# Indices 1 2 3 4 5 6 
#
# 1 0.014931 -0.004314 -0.002842 0.000000 -0.001583 0.000000
# 2 -0.004314 0.030137 -0.008988 0.000000 0.004209 0.000000
# 3 -0.002842 -0.008988 0.011553 0.000000 -0.002014 0.000000
# 4 0.000000 0.000000 0.000000 0.045014 0.000000 -0.002677
# 5 -0.001583 0.004209 -0.002014 0.000000 0.027073 0.000000
# 6 0.000000 0.000000 0.000000 -0.002677 0.000000 0.036024
#
#
# Mechanical properties :
#
#
# Convention : Reuss Voigt Hill
#
# Bulk Modulus (GPa) = 41.09756 52.27532 46.68644
# Shear Modulus (GPa) = 24.37466 28.15912 26.26689
#
# Velocity S-wave (km/s) = 3.46185 3.72091 3.59372
# Velocity P-wave (km/s) = 6.01547 6.64550 6.33832
#
# Compressibility (1/GPa) = 0.02433235
#
# Stress axis : x y z
#
# Youngs Moduli (GPa) = 66.97330 33.18235 86.55929
#
# Poissons Ratio (x) = 0.14315 0.24599
# Poissons Ratio (y) = 0.28893 0.77801
# Poissons Ratio (z) = 0.19033 0.29825
#
# Static dielectric constant tensor:
#      x y z
#    x 1.724510 0.000000 0.002300 
#    y 0.000000 1.683170 0.000000 
#    z 0.002300 0.000000 1.717650 
# 
# From -- ./inp_files/179745.got.cif
#   From: 2010.05.17/outbox.cif.g08.bks.cpg/sg12_90_cif.got.tgz:179745.got - 2010.06.03 13:09:07.
