data_PCOD9202303
_publ_section_title
;
Structure prediction by ZEFSAII (Michael W. Deem and Ramdas Pophale) SiO2 
 PCOD9202303
Probable space group: C 2/M
;
_chemical_formula_sum "Si O2"
_cell_formula_units_Z 64
_cell_length_a 14.084280
_cell_length_b 19.285213
_cell_length_c 19.158148
_cell_angle_alpha 90.000000
_cell_angle_beta 145.114965
_cell_angle_gamma 90.000000
_cell_volume 2976.163163
_symmetry_space_group_name_H-M "C 2/M"
_symmetry_group_IT_number 12
_symmetry_cell_setting 'monoclinic'
loop_
_space_group_symop_operation_xyz
x,y,z
-x,y,-z
-x,-y,-z
x,-y,z
1/2+x,1/2+y,z
1/2-x,1/2+y,-z
1/2-x,1/2-y,-z
1/2+x,1/2-y,z
loop_
_atom_site_type_symbol
_atom_site_label
_atom_site_fract_x
_atom_site_fract_y
_atom_site_fract_z
Si Si1 0.567365 0.283384 0.115549
Si Si2 0.493723 0.778688 0.786359
Si Si3 0.807433 0.580752 0.905727
Si Si4 0.777194 0.076915 0.832852
Si Si5 0.136468 0.270966 0.520497
Si Si6 0.637380 0.921028 0.899178
Si Si7 0.880401 0.792481 0.268584
Si Si8 0.935962 0.576073 0.541575
O O1 0.457826 0.264241 0.115332
O O2 0.617161 0.363145 0.138656
O O3 0.734593 0.239523 0.227235
O O4 0.500000 0.261330 0.000000
O O5 0.311693 0.756663 0.651620
O O6 0.506386 0.859780 0.809625
O O7 0.612978 0.756383 0.795580
O O8 0.779443 0.500000 0.871097
O O9 0.678725 0.631838 0.790346
O O10 0.790935 0.588121 0.979775
O O11 0.000000 0.596481 0.000000
O O12 0.757976 0.085767 0.904710
O O13 0.594034 0.080754 0.688355
O O14 0.842235 0.000000 0.857126
O O15 0.000000 0.273925 0.500000
O O16 0.051663 0.221186 0.412018
O O17 0.157328 0.350851 0.507365
O O18 0.571071 0.000000 0.856040
O O19 0.854931 0.500000 0.505233
O O20 0.000000 0.574231 0.500000
#
# Coordination Sequence:
#
# PCOD9202303 Si02
#       8
#     8   8   8   8   8   8   8   8
#     4  12  24  38  60  93 127 166 208 258 326 381
#     4  12  24  39  65  95 128 172 213 271 326 378
#     4  10  23  43  67  93 127 172 217 266 329 396
#     4  10  20  38  60  89 127 164 204 257 313 380
#     4  11  21  39  62  90 128 166 214 273 326 382
#     4  10  21  40  66  92 123 167 216 261 320 390
#     4  12  23  41  63  92 127 164 217 271 320 384
#     4   9  16  31  57  83 117 166 209 245 299 374
#
# _framework density 21.504197000000001
#
# number of rings (size 3 to 8) (size 9 to 14) (size 15 to 20)
#    0.000    1.250    3.750    3.000    1.750    1.250 
#    0.000    1.875    0.000    0.750    0.000    0.000 
#    0.000    0.000    0.000    0.000    0.000    0.000 
#
# Total GULP energy -178811.618934 kJ/mol
# GULP energy per Si atom -5587.863092 kJ/mol
# Density = 2.145525 g / cm^3
# Si number density = 21.504197 Si / 1000 Ang^3
#
#
#
# Elastic Constant Matrix: (Units=GPa)
#
#
# Indices 1 2 3 4 5 6 
#
# 1 59.2885 26.7636 13.3132 -0.0003 -22.6068 -0.0003
# 2 26.7636 215.2384 69.8045 -0.0005 6.7209 -0.0004
# 3 13.3132 69.8045 97.0721 -0.0011 -9.9731 -0.0010
# 4 -0.0003 -0.0005 -0.0011 32.3769 -0.0005 3.5344
# 5 -22.6068 6.7209 -9.9731 -0.0005 32.3928 -0.0004
# 6 -0.0003 -0.0004 -0.0010 3.5344 -0.0004 -1.3091
#
#
#
# Elastic Compliance Matrix: (Units=1/GPa)
#
#
# Indices 1 2 3 4 5 6 
#
# 1 0.025887 -0.004333 0.001564 0.000002 0.019447 -0.000009
# 2 -0.004333 0.007019 -0.005074 -0.000001 -0.006043 0.000003
# 3 0.001564 -0.005074 0.014412 0.000001 0.006581 -0.000008
# 4 0.000002 -0.000001 0.000001 0.023855 0.000003 0.064405
# 5 0.019447 -0.006043 0.006581 0.000003 0.047723 -0.000017
# 6 -0.000009 0.000003 -0.000008 0.064405 -0.000017 -0.589978
#
#
# Mechanical properties :
#
#
# Convention : Reuss Voigt Hill
#
# Bulk Modulus (GPa) = 31.61483 65.70686 48.66084
# Shear Modulus (GPa) = -11.23970 30.13998 9.45014
#
# Velocity S-wave (km/s) = -2.28869 3.74784 2.09859
# Velocity P-wave (km/s) = 2.78379 7.02496 5.34320
#
# Compressibility (1/GPa) = 0.03163073
#
# Stress axis : x y z
#
# Youngs Moduli (GPa) = 38.62993 142.46986 69.38684
#
# Poissons Ratio (x) = 0.61735 -0.10850
# Poissons Ratio (y) = 0.16739 0.35206
# Poissons Ratio (z) = -0.06040 0.72288
#
# Static dielectric constant tensor:
#      x y z
#    x 1.788260 0.000000 -0.019420 
#    y 0.000000 1.784550 0.000000 
#    z -0.019420 0.000000 1.785780 
# 
# From -- ./inp_files/271741.got.cif
#   From: 2010.05.17/outbox.cif.g08.bks.cpg/sg12_136_cif.got.tgz:271741.got - 2010.06.03 13:09:07.
