data_PCOD9202715
_publ_section_title
;
Structure prediction by ZEFSAII (Michael W. Deem and Ramdas Pophale) SiO2 
 PCOD9202715
Probable space group: C 2/M
;
_chemical_formula_sum "Si O2"
_cell_formula_units_Z 48
_cell_length_a 27.966659
_cell_length_b 8.764814
_cell_length_c 10.272146
_cell_angle_alpha 90.000000
_cell_angle_beta 89.908415
_cell_angle_gamma 90.000000
_cell_volume 2517.931552
_symmetry_space_group_name_H-M "C 2/M"
_symmetry_group_IT_number 12
_symmetry_cell_setting 'monoclinic'
loop_
_space_group_symop_operation_xyz
x,y,z
-x,y,-z
-x,-y,-z
x,-y,z
1/2+x,1/2+y,z
1/2-x,1/2+y,-z
1/2-x,1/2-y,-z
1/2+x,1/2-y,z
loop_
_atom_site_type_symbol
_atom_site_label
_atom_site_fract_x
_atom_site_fract_y
_atom_site_fract_z
Si Si1 0.212063 0.683031 0.100893
Si Si2 0.540193 0.316106 0.284960
Si Si3 0.608036 0.684143 0.042599
Si Si4 0.069604 0.184160 0.758304
Si Si5 0.892055 0.682519 0.499997
Si Si6 0.287551 0.816031 0.601627
O O1 0.213368 0.500000 0.095689
O O2 0.222769 0.731055 0.249800
O O3 0.250000 0.750000 0.000000
O O4 0.159112 0.740389 0.066486
O O5 0.540957 0.500000 0.296999
O O6 0.485341 0.268995 0.265888
O O7 0.565341 0.246132 0.410773
O O8 0.571542 0.274260 0.158298
O O9 0.613357 0.500000 0.044675
O O10 0.586883 0.727257 0.902222
O O11 0.101802 0.254630 0.645104
O O12 0.071609 0.000000 0.749508
O O13 0.893813 0.500000 0.499404
O O14 0.841376 0.730972 0.562152
O O15 0.250000 0.750000 0.500000
O O16 0.285689 0.000000 0.596469
#
# Coordination Sequence:
#
# PCOD9202715 Si02
#       6
#     8   8   8   8   8   8
#     4  11  24  43  64  90 121 154 195 245 297 355
#     4  10  20  38  63  88 118 159 202 244 293 348
#     4  10  21  39  63  90 120 157 198 245 297 349
#     4  10  22  38  59  90 123 157 201 246 288 346
#     4  11  23  40  59  87 123 158 197 245 296 350
#     4  10  24  43  63  87 118 154 196 244 295 351
#
# _framework density 19.063267
#
# number of rings (size 3 to 8) (size 9 to 14) (size 15 to 20)
#    0.000    1.667    1.667    2.000    2.333    8.000 
#    0.000    0.000    0.000    3.000    0.000    0.000 
#    0.000    0.000    0.000    0.000    0.000    0.000 
#
# Total GULP energy -134157.173102 kJ/mol
# GULP energy per Si atom -5589.882213 kJ/mol
# Density = 1.901988 g / cm^3
# Si number density = 19.063267 Si / 1000 Ang^3
#
#
#
# Elastic Constant Matrix: (Units=GPa)
#
#
# Indices 1 2 3 4 5 6 
#
# 1 85.8515 18.3974 28.7252 0.0000 -0.2176 0.0000
# 2 18.3974 11.6085 19.5479 0.0000 -1.4943 0.0000
# 3 28.7252 19.5479 100.4060 0.0000 -0.3883 0.0000
# 4 0.0000 0.0000 0.0000 25.6219 0.0000 -3.9853
# 5 -0.2176 -1.4943 -0.3883 0.0000 42.3944 0.0000
# 6 0.0000 0.0000 0.0000 -3.9853 0.0000 27.4359
#
#
#
# Elastic Compliance Matrix: (Units=1/GPa)
#
#
# Indices 1 2 3 4 5 6 
#
# 1 0.017698 -0.029214 0.000621 0.000000 -0.000933 0.000000
# 2 -0.029214 0.177166 -0.026112 0.000000 0.005856 0.000000
# 3 0.000621 -0.026112 0.014863 0.000000 -0.000781 0.000000
# 4 0.000000 0.000000 0.000000 0.039931 0.000000 0.005800
# 5 -0.000933 0.005856 -0.000781 0.000000 0.023783 0.000000
# 6 0.000000 0.000000 0.000000 0.005800 0.000000 0.037291
#
#
# Mechanical properties :
#
#
# Convention : Reuss Voigt Hill
#
# Bulk Modulus (GPa) = 9.96838 36.80077 23.38457
# Shear Modulus (GPa) = 11.02340 27.83680 19.43010
#
# Velocity S-wave (km/s) = 2.40730 3.82544 3.19602
# Velocity P-wave (km/s) = 3.60101 6.23366 5.09047
#
# Compressibility (1/GPa) = 0.10031720
#
# Stress axis : x y z
#
# Youngs Moduli (GPa) = 56.50254 5.64443 67.28292
#
# Poissons Ratio (x) = 0.16490 -0.04176
# Poissons Ratio (y) = 1.65066 1.75687
# Poissons Ratio (z) = -0.03507 0.14739
#
# Static dielectric constant tensor:
#      x y z
#    x 1.632730 0.000000 -0.010620 
#    y 0.000000 1.644210 0.000000 
#    z -0.010620 0.000000 1.640730 
# 
# From -- ./inp_files/108707.got.cif
#   From: 2010.05.17/outbox.cif.g08.bks.cpg/sg12_55_cif.got.tgz:108707.got - 2010.06.03 13:09:07.
