data_PCOD9202969
_publ_section_title
;
Structure prediction by ZEFSAII (Michael W. Deem and Ramdas Pophale) SiO2 
 PCOD9202969
Probable space group: C 2/M
;
_chemical_formula_sum "Si O2"
_cell_formula_units_Z 38
_cell_length_a 14.908857
_cell_length_b 14.969981
_cell_length_c 8.420576
_cell_angle_alpha 90.000000
_cell_angle_beta 69.634865
_cell_angle_gamma 90.000000
_cell_volume 1761.878113
_symmetry_space_group_name_H-M "C 2/M"
_symmetry_group_IT_number 12
_symmetry_cell_setting 'monoclinic'
loop_
_space_group_symop_operation_xyz
x,y,z
-x,y,-z
-x,-y,-z
x,-y,z
1/2+x,1/2+y,z
1/2-x,1/2+y,-z
1/2-x,1/2-y,-z
1/2+x,1/2-y,z
loop_
_atom_site_type_symbol
_atom_site_label
_atom_site_fract_x
_atom_site_fract_y
_atom_site_fract_z
Si Si1 0.349508 0.500000 0.827945
Si Si2 0.832209 0.846862 0.581643
Si Si3 0.500000 0.500000 0.000000
Si Si4 0.653681 0.500000 0.662671
Si Si5 0.609956 0.817990 0.628858
Si Si6 0.500000 0.150420 0.000000
Si Si7 0.118018 0.500000 0.453233
Si Si8 0.631511 0.000000 0.070415
O O1 0.347195 0.408627 0.724964
O O2 0.450761 0.500000 0.853615
O O3 0.245577 0.500000 0.977239
O O4 0.718656 0.827733 0.629547
O O5 0.884747 0.753782 0.516325
O O6 0.869073 0.910341 0.417793
O O7 0.393379 0.500000 0.139680
O O8 0.767949 0.500000 0.598637
O O9 0.542270 0.797274 0.821653
O O10 0.583463 0.912525 0.567714
O O11 0.583781 0.085569 0.013782
O O12 0.105232 0.500000 0.272292
#
# Coordination Sequence:
#
# PCOD9202969 Si02
#       8
#     4   8   2   4   8   4   4   4
#     4  11  21  43  68  96 132 181 217 286 328 393
#     4   9  20  40  65  89 133 176 219 268 345 384
#     4  12  24  38  68 100 124 172 244 268 324 394
#     4   9  20  38  61  88 119 168 226 286 319 392
#     4  10  20  38  64  99 130 178 218 269 329 417
#     4  11  22  35  66 100 130 166 224 270 332 404
#     4  10  20  39  60  88 136 175 215 263 345 398
#     4  11  21  38  63  96 133 173 211 278 339 389
#
# _framework density 21.567893000000002
#
# number of rings (size 3 to 8) (size 9 to 14) (size 15 to 20)
#    0.000    1.895    3.158    1.895    0.000    4.211 
#    0.000    7.368    0.000    1.263    0.000    0.000 
#    0.000    0.000    0.000    0.000    0.000    0.000 
#
# Total GULP energy -105813.843713 kJ/mol
# GULP energy per Si atom -5569.149669 kJ/mol
# Density = 2.151880 g / cm^3
# Si number density = 21.567893 Si / 1000 Ang^3
#
#
#
# Elastic Constant Matrix: (Units=GPa)
#
#
# Indices 1 2 3 4 5 6 
#
# 1 100.8541 33.8508 22.7123 0.0000 7.8550 0.0000
# 2 33.8508 101.4177 28.7426 0.0000 -7.8606 0.0000
# 3 22.7123 28.7426 117.8188 0.0000 -24.4148 0.0000
# 4 0.0000 0.0000 0.0000 7.4170 0.0000 -7.9527
# 5 7.8550 -7.8606 -24.4148 0.0000 39.6156 0.0000
# 6 0.0000 0.0000 0.0000 -7.9527 0.0000 1.3596
#
#
#
# Elastic Compliance Matrix: (Units=1/GPa)
#
#
# Indices 1 2 3 4 5 6 
#
# 1 0.012050 -0.003706 -0.002369 0.000000 -0.004584 0.000000
# 2 -0.003706 0.011744 -0.001737 0.000000 0.001994 0.000000
# 3 -0.002369 -0.001737 0.010769 0.000000 0.006762 0.000000
# 4 0.000000 0.000000 0.000000 -0.025574 0.000000 -0.149594
# 5 -0.004584 0.001994 0.006762 0.000000 0.030715 0.000000
# 6 0.000000 0.000000 0.000000 -0.149594 0.000000 -0.139518
#
#
# Mechanical properties :
#
#
# Convention : Reuss Voigt Hill
#
# Bulk Modulus (GPa) = 52.80096 54.52244 53.66170
# Shear Modulus (GPa) = -64.20402 25.33078 -19.43662
#
# Velocity S-wave (km/s) = -5.46196 3.43077 -3.00523
# Velocity P-wave (km/s) = 3.90421 6.40530 3.59062
#
# Compressibility (1/GPa) = 0.01893905
#
# Stress axis : x y z
#
# Youngs Moduli (GPa) = 82.98994 85.14910 92.85635
#
# Poissons Ratio (x) = 0.31555 0.21995
# Poissons Ratio (y) = 0.30755 0.16133
# Poissons Ratio (z) = 0.19658 0.14794
#
# Static dielectric constant tensor:
#      x y z
#    x 1.810310 0.000000 0.007390 
#    y 0.000000 1.822520 0.000000 
#    z 0.007390 0.000000 1.761670 
# 
# From -- ./inp_files/59060.got.cif
#   From: 2010.05.17/outbox.cif.g08.bks.cpg/sg12_30_cif.got.tgz:59060.got - 2010.06.03 13:09:07.
