data_PCOD9202724
_publ_section_title
;
Structure prediction by ZEFSAII (Michael W. Deem and Ramdas Pophale) SiO2 
 PCOD9202724
Probable space group: C 2/M
;
_chemical_formula_sum "Si O2"
_cell_formula_units_Z 64
_cell_length_a 10.284723
_cell_length_b 18.044820
_cell_length_c 32.852665
_cell_angle_alpha 90.000000
_cell_angle_beta 36.575709
_cell_angle_gamma 90.000000
_cell_volume 3633.103906
_symmetry_space_group_name_H-M "C 2/M"
_symmetry_group_IT_number 12
_symmetry_cell_setting 'monoclinic'
loop_
_space_group_symop_operation_xyz
x,y,z
-x,y,-z
-x,-y,-z
x,-y,z
1/2+x,1/2+y,z
1/2-x,1/2+y,-z
1/2-x,1/2-y,-z
1/2+x,1/2-y,z
loop_
_atom_site_type_symbol
_atom_site_label
_atom_site_fract_x
_atom_site_fract_y
_atom_site_fract_z
Si Si1 0.240967 0.414828 0.057776
Si Si2 0.362345 0.676831 0.170792
Si Si3 0.190949 0.913453 0.315064
Si Si4 0.778353 0.410731 0.030911
Si Si5 0.012365 0.585811 0.309579
Si Si6 0.775212 0.590348 0.536972
Si Si7 0.258240 0.590532 0.547432
Si Si8 0.030011 0.684714 0.180397
O O1 0.166448 0.500000 0.079873
O O2 0.134174 0.367045 0.119707
O O3 0.500000 0.413398 0.000000
O O4 0.195041 0.389254 0.023215
O O5 0.569379 0.630827 0.101960
O O6 0.208073 0.627575 0.238520
O O7 0.446936 0.743625 0.177352
O O8 0.210105 0.699679 0.170468
O O9 0.307919 0.912435 0.329824
O O10 0.332042 0.860529 0.250958
O O11 0.942465 0.888389 0.384022
O O12 0.196803 0.000000 0.299868
O O13 0.740908 0.500000 0.041421
O O14 0.000000 0.394757 0.000000
O O15 0.075452 0.500000 0.298973
O O16 0.924521 0.615921 0.374600
O O17 0.771511 0.500000 0.537709
O O18 0.773006 0.614532 0.490826
O O19 0.000000 0.615310 0.500000
O O20 0.500000 0.612913 0.500000
O O21 0.252742 0.500000 0.550112
#
# Coordination Sequence:
#
# PCOD9202724 Si02
#       8
#     8   8   8   8   8   8   8   8
#     4  10  20  38  63  89 111 138 184 230 271 326
#     4  11  24  40  57  80 114 152 187 226 272 327
#     4   9  17  33  57  81 106 142 186 227 271 326
#     4  10  22  40  63  89 115 142 177 228 281 325
#     4   9  17  32  58  83 104 139 187 232 271 321
#     4   9  16  27  46  78 113 137 167 221 283 329
#     4   9  14  25  48  79 106 130 173 228 275 319
#     4  11  24  39  58  81 112 151 188 228 272 325
#
# _framework density 17.615791000000002
#
# number of rings (size 3 to 8) (size 9 to 14) (size 15 to 20)
#    0.000    2.250    2.500    0.750    1.750    2.000 
#    2.250    0.000    0.000    1.500    0.000    0.000 
#    0.000    0.000    0.000    0.000    0.000    0.000 
#
# Total GULP energy -178452.886457 kJ/mol
# GULP energy per Si atom -5576.652702 kJ/mol
# Density = 1.757570 g / cm^3
# Si number density = 17.615791 Si / 1000 Ang^3
#
#
#
# Elastic Constant Matrix: (Units=GPa)
#
#
# Indices 1 2 3 4 5 6 
#
# 1 141.7774 43.2951 80.3257 -0.0001 3.7438 -0.0006
# 2 43.2951 45.8650 51.3592 0.0058 0.4348 0.0012
# 3 80.3257 51.3592 141.3184 0.0185 1.0344 0.0016
# 4 -0.0001 0.0058 0.0185 -18.4145 -0.0079 -1.6903
# 5 3.7438 0.4348 1.0344 -0.0079 27.3764 -0.0012
# 6 -0.0006 0.0012 0.0016 -1.6903 -0.0012 16.0192
#
#
#
# Elastic Compliance Matrix: (Units=1/GPa)
#
#
# Indices 1 2 3 4 5 6 
#
# 1 0.011306 -0.005859 -0.004287 -0.000006 -0.001291 0.000001
# 2 -0.005859 0.039802 -0.011139 0.000001 0.000590 -0.000002
# 3 -0.004287 -0.011139 0.013560 0.000010 0.000251 0.000000
# 4 -0.000006 0.000001 0.000010 -0.053784 -0.000015 -0.005675
# 5 -0.001291 0.000590 0.000251 -0.000015 0.036685 0.000001
# 6 0.000001 -0.000002 0.000000 -0.005675 0.000001 0.061826
#
#
# Mechanical properties :
#
#
# Convention : Reuss Voigt Hill
#
# Bulk Modulus (GPa) = 45.25709 75.43563 60.34636
# Shear Modulus (GPa) = 31.38122 15.26161 23.32141
#
# Velocity S-wave (km/s) = 4.22527 2.94659 3.64248
# Velocity P-wave (km/s) = 7.03924 7.38189 7.21260
#
# Compressibility (1/GPa) = 0.02209599
#
# Stress axis : x y z
#
# Youngs Moduli (GPa) = 88.45137 25.12455 73.74823
#
# Poissons Ratio (x) = 0.14720 0.31619
# Poissons Ratio (y) = 0.51823 0.82149
# Poissons Ratio (z) = 0.37923 0.27987
#
# Static dielectric constant tensor:
#      x y z
#    x 1.594770 0.000000 0.002660 
#    y 0.000000 1.602550 0.000000 
#    z 0.002660 0.000000 1.584150 
# 
# From -- ./inp_files/372921.got.cif
#   From: 2010.05.17/outbox.cif.g08.bks.cpg/sg12_187_cif.got.tgz:372921.got - 2010.06.03 13:09:07.
