data_PCOD9202212
_publ_section_title
;
Structure prediction by ZEFSAII (Michael W. Deem and Ramdas Pophale) SiO2 
 PCOD9202212
Probable space group: C 2/M
;
_chemical_formula_sum "Si O2"
_cell_formula_units_Z 56
_cell_length_a 15.183107
_cell_length_b 9.045712
_cell_length_c 24.926608
_cell_angle_alpha 90.000000
_cell_angle_beta 117.647299
_cell_angle_gamma 90.000000
_cell_volume 3032.581452
_symmetry_space_group_name_H-M "C 2/M"
_symmetry_group_IT_number 12
_symmetry_cell_setting 'monoclinic'
loop_
_space_group_symop_operation_xyz
x,y,z
-x,y,-z
-x,-y,-z
x,-y,z
1/2+x,1/2+y,z
1/2-x,1/2+y,-z
1/2-x,1/2-y,-z
1/2+x,1/2-y,z
loop_
_atom_site_type_symbol
_atom_site_label
_atom_site_fract_x
_atom_site_fract_y
_atom_site_fract_z
Si Si1 0.134258 0.826259 0.815257
Si Si2 0.183506 0.323272 0.407250
Si Si3 0.410929 0.677565 0.723663
Si Si4 0.971507 0.330407 0.934567
Si Si5 0.316059 0.832894 0.062182
Si Si6 0.322419 0.175989 0.801958
Si Si7 0.607918 0.822432 0.505243
O O1 0.178564 0.744724 0.879143
O O2 0.208717 0.808785 0.786908
O O3 0.024143 0.776592 0.768945
O O4 0.129797 0.000000 0.827568
O O5 0.189200 0.500000 0.402763
O O6 0.127842 0.249950 0.341701
O O7 0.295468 0.257548 0.442354
O O8 0.123413 0.292742 0.445843
O O9 0.406794 0.500000 0.718575
O O10 0.347829 0.736157 0.755967
O O11 0.937720 0.500000 0.937366
O O12 0.888358 0.268265 0.871258
O O13 0.072180 0.335130 0.929139
O O14 0.000000 0.260551 0.000000
O O15 0.279960 0.000000 0.057594
O O16 0.250000 0.750000 0.000000
O O17 0.344958 0.000000 0.801252
O O18 0.500000 0.779638 0.500000
O O19 0.617507 0.000000 0.515643
#
# Coordination Sequence:
#
# PCOD9202212 Si02
#       7
#     8   8   8   8   8   8   8
#     4  10  22  39  59  82 112 148 189 240 296 352
#     4  10  21  37  60  89 121 161 202 239 283 344
#     4  11  23  39  58  84 121 156 193 246 297 342
#     4   9  17  31  53  78 104 138 182 230 284 347
#     4  11  21  34  55  81 110 146 186 236 294 355
#     4  10  20  38  60  81 109 149 194 237 288 358
#     4   9  19  38  63  92 126 159 195 242 291 335
#
# _framework density 18.466116
#
# number of rings (size 3 to 8) (size 9 to 14) (size 15 to 20)
#    0.000    2.000    1.429    2.143    0.000    5.429 
#    0.000    2.857    0.000    2.143    0.000    0.000 
#    0.000    0.000    0.000    0.000    0.000    0.000 
#
# Total GULP energy -156224.782254 kJ/mol
# GULP energy per Si atom -5579.456509 kJ/mol
# Density = 1.842409 g / cm^3
# Si number density = 18.466116 Si / 1000 Ang^3
#
#
#
# Elastic Constant Matrix: (Units=GPa)
#
#
# Indices 1 2 3 4 5 6 
#
# 1 102.9086 48.0391 55.5639 0.0000 0.4453 0.0000
# 2 48.0391 55.9742 65.4869 0.0000 1.9980 0.0000
# 3 55.5639 65.4869 148.1019 0.0000 -4.8783 0.0000
# 4 0.0000 0.0000 0.0000 27.1149 0.0000 -0.3238
# 5 0.4453 1.9980 -4.8783 0.0000 18.2891 0.0000
# 6 0.0000 0.0000 0.0000 -0.3238 0.0000 24.3189
#
#
#
# Elastic Compliance Matrix: (Units=1/GPa)
#
#
# Indices 1 2 3 4 5 6 
#
# 1 0.016241 -0.014299 0.000270 0.000000 0.001239 0.000000
# 2 -0.014299 0.050955 -0.017492 0.000000 -0.009884 0.000000
# 3 0.000270 -0.017492 0.014576 0.000000 0.005792 0.000000
# 4 0.000000 0.000000 0.000000 0.036886 0.000000 0.000491
# 5 0.001239 -0.009884 0.005792 0.000000 0.057272 0.000000
# 6 0.000000 0.000000 0.000000 0.000491 0.000000 0.041127
#
#
# Mechanical properties :
#
#
# Convention : Reuss Voigt Hill
#
# Bulk Modulus (GPa) = 53.38904 71.68495 62.53700
# Shear Modulus (GPa) = 17.46169 23.13757 20.29963
#
# Velocity S-wave (km/s) = 3.07841 3.54358 3.31915
# Velocity P-wave (km/s) = 6.45059 7.45966 6.97340
#
# Compressibility (1/GPa) = 0.01873044
#
# Stress axis : x y z
#
# Youngs Moduli (GPa) = 61.57222 19.62528 68.60634
#
# Poissons Ratio (x) = 0.28062 -0.01854
# Poissons Ratio (y) = 0.88043 1.20005
# Poissons Ratio (z) = -0.01664 0.34328
#
# Static dielectric constant tensor:
#      x y z
#    x 1.637000 0.000000 0.004920 
#    y 0.000000 1.635500 0.000000 
#    z 0.004920 0.000000 1.621290 
# 
# From -- ./inp_files/308932.got.cif
#   From: 2010.05.17/outbox.cif.g08.bks.cpg/sg12_155_cif.got.tgz:308932.got - 2010.06.03 13:09:07.
