data_PCOD9202210
_publ_section_title
;
Structure prediction by ZEFSAII (Michael W. Deem and Ramdas Pophale) SiO2 
 PCOD9202210
Probable space group: C 2/M
;
_chemical_formula_sum "Si O2"
_cell_formula_units_Z 64
_cell_length_a 9.228123
_cell_length_b 23.980959
_cell_length_c 14.553192
_cell_angle_alpha 90.000000
_cell_angle_beta 81.643940
_cell_angle_gamma 90.000000
_cell_volume 3186.420554
_symmetry_space_group_name_H-M "C 2/M"
_symmetry_group_IT_number 12
_symmetry_cell_setting 'monoclinic'
loop_
_space_group_symop_operation_xyz
x,y,z
-x,y,-z
-x,-y,-z
x,-y,z
1/2+x,1/2+y,z
1/2-x,1/2+y,-z
1/2-x,1/2-y,-z
1/2+x,1/2-y,z
loop_
_atom_site_type_symbol
_atom_site_label
_atom_site_fract_x
_atom_site_fract_y
_atom_site_fract_z
Si Si1 0.086295 0.353311 0.345910
Si Si2 0.012270 0.935543 0.286296
Si Si3 0.259914 0.870185 0.343328
Si Si4 0.132025 0.235855 0.433811
Si Si5 0.161290 0.862877 0.823865
Si Si6 0.581747 0.715586 0.090393
Si Si7 0.347081 0.164036 0.972221
Si Si8 0.761257 0.066995 0.459744
O O1 0.074851 0.293348 0.396093
O O2 0.215416 0.348328 0.261129
O O3 0.135549 0.400961 0.413549
O O4 0.933156 0.369030 0.314063
O O5 0.160682 0.901050 0.279180
O O6 0.919530 0.917340 0.206626
O O7 0.908600 0.924633 0.385231
O O8 0.046728 0.000000 0.282828
O O9 0.202229 0.807110 0.357156
O O10 0.232779 0.902704 0.442606
O O11 0.250000 0.250000 0.500000
O O12 0.000000 0.206757 0.500000
O O13 0.243627 0.870842 0.913420
O O14 0.035704 0.814878 0.835042
O O15 0.611517 0.781351 0.093741
O O16 0.500000 0.710261 0.000000
O O17 0.739265 0.686115 0.063205
O O18 0.500000 0.142313 0.000000
O O19 0.738233 0.000000 0.470379
#
# Coordination Sequence:
#
# PCOD9202210 Si02
#       8
#     8   8   8   8   8   8   8   8
#     4  11  24  37  51  87 117 150 195 242 299 339
#     4  10  23  40  58  82 112 150 196 254 309 347
#     4  12  23  36  57  78 108 153 207 248 292 348
#     4  12  22  38  55  74 116 161 195 245 295 351
#     4  10  22  37  56  83 121 155 188 234 286 353
#     4   8  16  33  57  86 118 152 179 215 272 340
#     4   9  17  33  61  90 118 148 184 224 274 341
#     4  10  20  38  60  80 106 147 205 258 298 345
#
# _framework density 20.085232999999999
#
# number of rings (size 3 to 8) (size 9 to 14) (size 15 to 20)
#    0.000    1.750    2.500    2.625    1.750    5.500 
#    0.000    0.000    0.000    3.750    0.000    0.000 
#    0.000    0.000    0.000    0.000    0.000    0.000 
#
# Total GULP energy -178629.395911 kJ/mol
# GULP energy per Si atom -5582.168622 kJ/mol
# Density = 2.003952 g / cm^3
# Si number density = 20.085233 Si / 1000 Ang^3
#
#
#
# Elastic Constant Matrix: (Units=GPa)
#
#
# Indices 1 2 3 4 5 6 
#
# 1 143.9010 34.4321 21.8322 0.0000 11.2092 0.0000
# 2 34.4321 72.5483 11.3183 0.0000 -1.7905 0.0000
# 3 21.8322 11.3183 35.8410 0.0000 7.9465 0.0000
# 4 0.0000 0.0000 0.0000 24.0309 0.0000 5.3119
# 5 11.2092 -1.7905 7.9465 0.0000 24.1225 0.0000
# 6 0.0000 0.0000 0.0000 5.3119 0.0000 23.7600
#
#
#
# Elastic Compliance Matrix: (Units=1/GPa)
#
#
# Indices 1 2 3 4 5 6 
#
# 1 0.008573 -0.003618 -0.003384 0.000000 -0.003137 0.000000
# 2 -0.003618 0.016201 -0.003831 0.000000 0.004146 0.000000
# 3 -0.003384 -0.003831 0.033320 0.000000 -0.009689 0.000000
# 4 0.000000 0.000000 0.000000 0.043776 0.000000 -0.009787
# 5 -0.003137 0.004146 -0.009689 0.000000 0.046412 0.000000
# 6 0.000000 0.000000 0.000000 -0.009787 0.000000 0.044276
#
#
# Mechanical properties :
#
#
# Convention : Reuss Voigt Hill
#
# Bulk Modulus (GPa) = 27.45191 43.05061 35.25126
# Shear Modulus (GPa) = 22.08793 26.69652 24.39223
#
# Velocity S-wave (km/s) = 3.31979 3.64972 3.48866
# Velocity P-wave (km/s) = 5.32842 6.26427 5.81520
#
# Compressibility (1/GPa) = 0.03642733
#
# Stress axis : x y z
#
# Youngs Moduli (GPa) = 116.64873 61.72363 30.01174
#
# Poissons Ratio (x) = 0.22333 0.10155
# Poissons Ratio (y) = 0.42206 0.11499
# Poissons Ratio (z) = 0.39471 0.23649
#
# Static dielectric constant tensor:
#      x y z
#    x 1.710290 0.000000 -0.011200 
#    y 0.000000 1.714510 0.000000 
#    z -0.011200 0.000000 1.750180 
# 
# From -- ./inp_files/198881.got.cif
#   From: 2010.05.17/outbox.cif.g08.bks.cpg/sg12_100_cif.got.tgz:198881.got - 2010.06.03 13:09:07.
