data_PCOD9202418
_publ_section_title
;
Structure prediction by ZEFSAII (Michael W. Deem and Ramdas Pophale) SiO2 
 PCOD9202418
Probable space group: C 2/M
;
_chemical_formula_sum "Si O2"
_cell_formula_units_Z 50
_cell_length_a 29.371741
_cell_length_b 12.400445
_cell_length_c 8.756619
_cell_angle_alpha 90.000000
_cell_angle_beta 124.572508
_cell_angle_gamma 90.000000
_cell_volume 2626.146120
_symmetry_space_group_name_H-M "C 2/M"
_symmetry_group_IT_number 12
_symmetry_cell_setting 'monoclinic'
loop_
_space_group_symop_operation_xyz
x,y,z
-x,y,-z
-x,-y,-z
x,-y,z
1/2+x,1/2+y,z
1/2-x,1/2+y,-z
1/2-x,1/2-y,-z
1/2+x,1/2-y,z
loop_
_atom_site_type_symbol
_atom_site_label
_atom_site_fract_x
_atom_site_fract_y
_atom_site_fract_z
Si Si1 0.193963 0.124117 0.613130
Si Si2 0.371966 0.704087 0.228096
Si Si3 0.053373 0.877600 0.891220
Si Si4 0.036963 0.699631 0.369938
Si Si5 0.500000 0.000000 0.500000
Si Si6 0.176116 0.625821 0.093933
Si Si7 0.385846 0.239514 0.750695
O O1 0.168472 0.143658 0.732611
O O2 0.259527 0.142367 0.743896
O O3 0.162667 0.204378 0.439261
O O4 0.183906 0.000000 0.548546
O O5 0.399743 0.630911 0.150875
O O6 0.420755 0.754260 0.423239
O O7 0.340987 0.800315 0.080997
O O8 0.006262 0.793545 0.752718
O O9 0.033523 0.000000 0.866657
O O10 0.080049 0.832962 0.097495
O O11 0.008467 0.595106 0.385431
O O12 0.073489 0.679373 0.288513
O O13 0.166988 0.500000 0.042472
O O14 0.139401 0.663529 0.167299
#
# Coordination Sequence:
#
# PCOD9202418 Si02
#       7
#     8   8   8   8   2   8   8
#     4  10  20  38  61  87 117 154 193 244 296 348
#     4  10  21  38  58  88 116 157 193 241 293 345
#     4  11  22  40  61  91 123 153 196 245 296 356
#     4  11  24  39  61  86 117 161 198 244 295 346
#     4  12  24  44  60  84 124 156 206 250 288 348
#     4  10  22  38  60  86 118 154 198 242 289 352
#     4  10  23  39  59  89 118 156 194 240 303 349
#
# _framework density 19.039306
#
# number of rings (size 3 to 8) (size 9 to 14) (size 15 to 20)
#    0.000    1.600    1.600    2.400    2.240    5.120 
#    0.000    0.800    0.000    9.600    0.000    0.000 
#    0.000    0.000    0.000    0.000    0.000    0.000 
#
# Total GULP energy -139420.486961 kJ/mol
# GULP energy per Si atom -5576.819478 kJ/mol
# Density = 1.899597 g / cm^3
# Si number density = 19.039306 Si / 1000 Ang^3
#
#
#
# Elastic Constant Matrix: (Units=GPa)
#
#
# Indices 1 2 3 4 5 6 
#
# 1 61.0433 19.5865 9.9660 0.0000 -0.9337 0.0000
# 2 19.5865 108.5179 27.0866 0.0000 19.1595 0.0000
# 3 9.9660 27.0866 69.7204 0.0000 0.9851 0.0000
# 4 0.0000 0.0000 0.0000 17.5829 0.0000 -7.0466
# 5 -0.9337 19.1595 0.9851 0.0000 27.7088 0.0000
# 6 0.0000 0.0000 0.0000 -7.0466 0.0000 6.7193
#
#
#
# Elastic Compliance Matrix: (Units=1/GPa)
#
#
# Indices 1 2 3 4 5 6 
#
# 1 0.017729 -0.003419 -0.001248 0.000000 0.003006 0.000000
# 2 -0.003419 0.012388 -0.004203 0.000000 -0.008531 0.000000
# 3 -0.001248 -0.004203 0.016122 0.000000 0.002291 0.000000
# 4 0.000000 0.000000 0.000000 0.098105 0.000000 0.102884
# 5 0.003006 -0.008531 0.002291 0.000000 0.042008 0.000000
# 6 0.000000 0.000000 0.000000 0.102884 0.000000 0.256720
#
#
# Mechanical properties :
#
#
# Convention : Reuss Voigt Hill
#
# Bulk Modulus (GPa) = 35.09149 39.17331 37.13240
# Shear Modulus (GPa) = 10.63123 22.57837 16.60480
#
# Velocity S-wave (km/s) = 2.36558 3.44740 2.95639
# Velocity P-wave (km/s) = 5.09238 6.03869 5.58561
#
# Compressibility (1/GPa) = 0.02849693
#
# Stress axis : x y z
#
# Youngs Moduli (GPa) = 56.40600 80.72596 62.02666
#
# Poissons Ratio (x) = 0.27600 0.07743
# Poissons Ratio (y) = 0.19285 0.26072
# Poissons Ratio (z) = 0.07041 0.33932
#
# Static dielectric constant tensor:
#      x y z
#    x 1.679980 0.000000 0.000870 
#    y 0.000000 1.619830 0.000000 
#    z 0.000870 0.000000 1.640460 
# 
# From -- ./inp_files/103093.got.cif
#   From: 2010.05.17/outbox.cif.g08.bks.cpg/sg12_52_cif.got.tgz:103093.got - 2010.06.03 13:09:07.
