data_PCOD9202838
_publ_section_title
;
Structure prediction by ZEFSAII (Michael W. Deem and Ramdas Pophale) SiO2 
 PCOD9202838
Probable space group: C 2/M
;
_chemical_formula_sum "Si O2"
_cell_formula_units_Z 48
_cell_length_a 15.881375
_cell_length_b 15.704956
_cell_length_c 11.189078
_cell_angle_alpha 90.000000
_cell_angle_beta 53.990154
_cell_angle_gamma 90.000000
_cell_volume 2257.472861
_symmetry_space_group_name_H-M "C 2/M"
_symmetry_group_IT_number 12
_symmetry_cell_setting 'monoclinic'
loop_
_space_group_symop_operation_xyz
x,y,z
-x,y,-z
-x,-y,-z
x,-y,z
1/2+x,1/2+y,z
1/2-x,1/2+y,-z
1/2-x,1/2-y,-z
1/2+x,1/2-y,z
loop_
_atom_site_type_symbol
_atom_site_label
_atom_site_fract_x
_atom_site_fract_y
_atom_site_fract_z
Si Si1 0.879747 0.900501 0.114612
Si Si2 0.454690 0.270894 0.667693
Si Si3 0.407394 0.094328 0.795691
Si Si4 0.587895 0.092429 0.825667
Si Si5 0.201404 0.098197 0.086723
Si Si6 0.657213 0.738489 0.669913
O O1 0.828624 0.842533 0.257228
O O2 0.877480 0.000000 0.149908
O O3 0.830850 0.890737 0.025064
O O4 0.000000 0.873763 0.000000
O O5 0.500000 0.290528 0.500000
O O6 0.408664 0.174934 0.708636
O O7 0.364923 0.336297 0.781456
O O8 0.548617 0.273258 0.687041
O O9 0.521027 0.089085 0.759089
O O10 0.381097 0.000000 0.768069
O O11 0.325371 0.110909 0.972187
O O12 0.653263 0.177550 0.756789
O O13 0.641171 0.000000 0.796710
O O14 0.500000 0.100182 0.000000
O O15 0.179706 0.000000 0.138248
O O16 0.750000 0.750000 0.500000
#
# Coordination Sequence:
#
# PCOD9202838 Si02
#       6
#     8   8   8   8   8   8
#     4  10  20  38  64  85 109 149 197 242 280 329
#     4  11  24  38  55  85 122 154 185 233 290 342
#     4   9  20  38  60  86 112 146 192 236 280 337
#     4   9  19  37  60  84 112 148 189 233 281 335
#     4  10  21  39  63  88 111 147 195 239 284 337
#     4  11  24  37  56  85 119 153 190 232 285 336
#
# _framework density 21.262716000000001
#
# number of rings (size 3 to 8) (size 9 to 14) (size 15 to 20)
#    0.000    2.000    1.667    1.000    4.667    2.667 
#    0.000    0.000    0.000    0.000    0.000    0.000 
#    0.000    0.000    0.000    0.000    0.000    0.000 
#
# Total GULP energy -134067.764253 kJ/mol
# GULP energy per Si atom -5586.156844 kJ/mol
# Density = 2.121432 g / cm^3
# Si number density = 21.262716 Si / 1000 Ang^3
#
#
#
# Elastic Constant Matrix: (Units=GPa)
#
#
# Indices 1 2 3 4 5 6 
#
# 1 62.6683 10.0088 -0.7682 0.0000 -2.7416 0.0000
# 2 10.0088 109.7371 71.9193 0.0000 4.6780 0.0000
# 3 -0.7682 71.9193 97.1477 0.0000 1.6424 0.0000
# 4 0.0000 0.0000 0.0000 -9.7251 0.0000 3.0406
# 5 -2.7416 4.6780 1.6424 0.0000 25.2876 0.0000
# 6 0.0000 0.0000 0.0000 3.0406 0.0000 1.7924
#
#
#
# Elastic Compliance Matrix: (Units=1/GPa)
#
#
# Indices 1 2 3 4 5 6 
#
# 1 0.016604 -0.003246 0.002496 0.000000 0.002238 0.000000
# 2 -0.003246 0.018485 -0.013662 0.000000 -0.002884 0.000000
# 3 0.002496 -0.013662 0.020402 0.000000 0.001473 0.000000
# 4 0.000000 0.000000 0.000000 -0.067191 0.000000 0.113979
# 5 0.002238 -0.002884 0.001473 0.000000 0.040226 0.000000
# 6 0.000000 0.000000 0.000000 0.113979 0.000000 0.364553
#
#
# Mechanical properties :
#
#
# Convention : Reuss Voigt Hill
#
# Bulk Modulus (GPa) = 37.49651 47.98587 42.74119
# Shear Modulus (GPa) = 11.60656 16.03054 13.81855
#
# Velocity S-wave (km/s) = 2.33891 2.74875 2.55207
# Velocity P-wave (km/s) = 4.99671 5.71763 5.36928
#
# Compressibility (1/GPa) = 0.02666915
#
# Stress axis : x y z
#
# Youngs Moduli (GPa) = 60.22661 54.09708 49.01401
#
# Poissons Ratio (x) = 0.17559 -0.12236
# Poissons Ratio (y) = 0.19549 0.66962
# Poissons Ratio (z) = -0.15035 0.73906
#
# Static dielectric constant tensor:
#      x y z
#    x 1.864670 0.000000 -0.017450 
#    y 0.000000 1.786010 0.000000 
#    z -0.017450 0.000000 1.737760 
# 
# From -- ./inp_files/167531.got.cif
#   From: 2010.05.17/outbox.cif.g08.bks.cpg/sg12_84_cif.got.tgz:167531.got - 2010.06.03 13:09:07.
