data_PCOD9202887
_publ_section_title
;
Structure prediction by ZEFSAII (Michael W. Deem and Ramdas Pophale) SiO2 
 PCOD9202887
Probable space group: C 2/M
;
_chemical_formula_sum "Si O2"
_cell_formula_units_Z 64
_cell_length_a 11.445903
_cell_length_b 28.322154
_cell_length_c 17.705990
_cell_angle_alpha 90.000000
_cell_angle_beta 32.952226
_cell_angle_gamma 90.000000
_cell_volume 3122.102765
_symmetry_space_group_name_H-M "C 2/M"
_symmetry_group_IT_number 12
_symmetry_cell_setting 'monoclinic'
loop_
_space_group_symop_operation_xyz
x,y,z
-x,y,-z
-x,-y,-z
x,-y,z
1/2+x,1/2+y,z
1/2-x,1/2+y,-z
1/2-x,1/2-y,-z
1/2+x,1/2-y,z
loop_
_atom_site_type_symbol
_atom_site_label
_atom_site_fract_x
_atom_site_fract_y
_atom_site_fract_z
Si Si1 0.148676 0.447441 0.801678
Si Si2 0.021874 0.553104 0.693247
Si Si3 0.615203 0.293352 0.301662
Si Si4 0.063761 0.111839 0.554400
Si Si5 0.127287 0.782058 0.128061
Si Si6 0.751466 0.636857 0.847566
Si Si7 0.451038 0.851848 0.903580
Si Si8 0.866604 0.301263 0.641289
O O1 0.127587 0.500000 0.845386
O O2 0.087875 0.450836 0.745765
O O3 0.388071 0.426387 0.676807
O O4 0.003124 0.403764 0.905979
O O5 0.019301 0.500000 0.663723
O O6 0.207392 0.587331 0.561322
O O7 0.800249 0.581563 0.805983
O O8 0.457441 0.338296 0.391306
O O9 0.651033 0.268114 0.201780
O O10 0.533346 0.250328 0.396391
O O11 0.842222 0.317781 0.200941
O O12 0.000000 0.120871 0.500000
O O13 0.879141 0.788871 0.246066
O O14 0.250000 0.750000 0.000000
O O15 0.251223 0.831441 0.056640
O O16 0.883450 0.647611 0.852474
O O17 0.842836 0.666407 0.727985
O O18 0.500000 0.646332 0.000000
O O19 0.000000 0.323110 0.500000
#
# Coordination Sequence:
#
# PCOD9202887 Si02
#       8
#     8   8   8   8   8   8   8   8
#     4   8  15  29  54  90 124 150 192 254 317 376
#     4   9  18  33  59  90 121 159 205 260 315 365
#     4  11  24  39  64  92 125 160 207 260 312 377
#     4   9  17  33  57  91 127 161 195 250 324 383
#     4  12  24  42  65  87 120 173 219 259 310 381
#     4  11  23  41  64  89 127 169 215 263 310 373
#     4  10  20  38  64  91 118 163 210 255 314 371
#     4  12  28  42  61  93 129 170 213 262 314 373
#
# _framework density 20.499005
#
# number of rings (size 3 to 8) (size 9 to 14) (size 15 to 20)
#    0.000    1.750    2.500    2.625    1.750    2.250 
#    0.000    0.000    0.000    7.125    0.000    0.000 
#    0.000    0.000    0.000    0.000    0.000    0.000 
#
# Total GULP energy -178559.733039 kJ/mol
# GULP energy per Si atom -5579.991657 kJ/mol
# Density = 2.045235 g / cm^3
# Si number density = 20.499005 Si / 1000 Ang^3
#
#
#
# Elastic Constant Matrix: (Units=GPa)
#
#
# Indices 1 2 3 4 5 6 
#
# 1 56.0946 3.3263 15.1720 -0.0002 12.6366 0.0002
# 2 3.3263 93.9361 26.1277 -0.0002 7.1438 0.0004
# 3 15.1720 26.1277 78.5166 -0.0015 16.5824 0.0005
# 4 -0.0002 -0.0002 -0.0015 18.6112 0.0007 3.5903
# 5 12.6366 7.1438 16.5824 0.0007 22.4402 -0.0002
# 6 0.0002 0.0004 0.0005 3.5903 -0.0002 0.4330
#
#
#
# Elastic Compliance Matrix: (Units=1/GPa)
#
#
# Indices 1 2 3 4 5 6 
#
# 1 0.020666 0.000615 -0.002013 -0.000005 -0.010346 0.000027
# 2 0.000615 0.011769 -0.003757 -0.000003 -0.001317 0.000013
# 3 -0.002013 -0.003757 0.016451 -0.000009 -0.009827 0.000054
# 4 -0.000005 -0.000003 -0.000009 -0.089614 0.000019 0.743064
# 5 -0.010346 -0.001317 -0.009827 0.000019 0.058070 -0.000115
# 6 0.000027 0.000013 0.000054 0.743064 -0.000115 -3.851845
#
#
# Mechanical properties :
#
#
# Convention : Reuss Voigt Hill
#
# Bulk Modulus (GPa) = 25.92355 35.31104 30.61730
# Shear Modulus (GPa) = -1.31188 20.55830 9.62321
#
# Velocity S-wave (km/s) = -0.80085 3.17028 2.16903
# Velocity P-wave (km/s) = 3.43781 5.53751 4.60883
#
# Compressibility (1/GPa) = 0.03857497
#
# Stress axis : x y z
#
# Youngs Moduli (GPa) = 48.38964 84.96990 60.78752
#
# Poissons Ratio (x) = -0.05225 0.12236
# Poissons Ratio (y) = -0.02975 0.22838
# Poissons Ratio (z) = 0.09741 0.31924
#
# Static dielectric constant tensor:
#      x y z
#    x 1.827500 0.000000 0.034920 
#    y 0.000000 1.769250 0.000000 
#    z 0.034920 0.000000 1.765120 
# 
# From -- ./inp_files/266263.got.cif
#   From: 2010.05.17/outbox.cif.g08.bks.cpg/sg12_134_cif.got.tgz:266263.got - 2010.06.03 13:09:07.
