data_PCOD9202836
_publ_section_title
;
Structure prediction by ZEFSAII (Michael W. Deem and Ramdas Pophale) SiO2 
 PCOD9202836
Probable space group: C 2/M
;
_chemical_formula_sum "Si O2"
_cell_formula_units_Z 44
_cell_length_a 14.384463
_cell_length_b 7.514937
_cell_length_c 17.141261
_cell_angle_alpha 90.000000
_cell_angle_beta 66.840923
_cell_angle_gamma 90.000000
_cell_volume 1703.625165
_symmetry_space_group_name_H-M "C 2/M"
_symmetry_group_IT_number 12
_symmetry_cell_setting 'monoclinic'
loop_
_space_group_symop_operation_xyz
x,y,z
-x,y,-z
-x,-y,-z
x,-y,z
1/2+x,1/2+y,z
1/2-x,1/2+y,-z
1/2-x,1/2-y,-z
1/2+x,1/2-y,z
loop_
_atom_site_type_symbol
_atom_site_label
_atom_site_fract_x
_atom_site_fract_y
_atom_site_fract_z
Si Si1 0.645706 0.288189 0.581543
Si Si2 0.993944 0.286378 0.874299
Si Si3 0.651716 0.707850 0.198691
Si Si4 0.345062 0.783754 0.059348
Si Si5 0.500000 0.251088 0.500000
Si Si6 0.197619 0.705685 0.356585
O O1 0.620539 0.500000 0.589139
O O2 0.750000 0.250000 0.500000
O O3 0.554521 0.193772 0.565103
O O4 0.690110 0.238096 0.652451
O O5 0.991938 0.500000 0.874614
O O6 0.958929 0.227400 0.800977
O O7 0.099154 0.233461 0.878322
O O8 0.911947 0.218525 0.965446
O O9 0.671263 0.500000 0.203318
O O10 0.730929 0.777889 0.107678
O O11 0.676870 0.791961 0.272357
O O12 0.346985 0.000000 0.052587
O O13 0.605787 0.313357 0.426879
O O14 0.183977 0.500000 0.388173
#
# Coordination Sequence:
#
# PCOD9202836 Si02
#       6
#     8   8   8   8   4   8
#     4   9  19  35  57  82 108 136 173 218 269 325
#     4   9  17  35  60  81 105 146 190 223 260 318
#     4  11  22  35  52  81 115 144 177 225 276 320
#     4   8  17  34  56  80 109 145 185 223 266 319
#     4  10  20  38  64  84 102 134 182 236 278 318
#     4  10  22  39  56  79 108 143 183 222 269 331
#
# _framework density 25.827278
#
# number of rings (size 3 to 8) (size 9 to 14) (size 15 to 20)
#    0.000    2.545    0.000    2.727    0.000    5.818 
#    0.000    8.182    0.000    0.000    0.000    0.000 
#    0.000    0.000    0.000    0.000    0.000    0.000 
#
# Total GULP energy -122516.756564 kJ/mol
# GULP energy per Si atom -5568.943480 kJ/mol
# Density = 2.576849 g / cm^3
# Si number density = 25.827278 Si / 1000 Ang^3
#
#
#
# Elastic Constant Matrix: (Units=GPa)
#
#
# Indices 1 2 3 4 5 6 
#
# 1 204.4925 7.9324 41.8889 0.0000 49.1155 0.0000
# 2 7.9324 102.4180 -1.9799 0.0000 2.3394 0.0000
# 3 41.8889 -1.9799 48.3865 0.0000 29.3858 0.0000
# 4 0.0000 0.0000 0.0000 13.5026 0.0000 6.9385
# 5 49.1155 2.3394 29.3858 0.0000 64.7238 0.0000
# 6 0.0000 0.0000 0.0000 6.9385 0.0000 -1.8878
#
#
#
# Elastic Compliance Matrix: (Units=1/GPa)
#
#
# Indices 1 2 3 4 5 6 
#
# 1 0.006424 -0.000495 -0.003634 0.000000 -0.003207 0.000000
# 2 -0.000495 0.009835 0.001130 0.000000 -0.000493 0.000000
# 3 -0.003634 0.001130 0.030664 0.000000 -0.011205 0.000000
# 4 0.000000 0.000000 0.000000 0.025638 0.000000 0.094231
# 5 -0.003207 -0.000493 -0.011205 0.000000 0.022989 0.000000
# 6 0.000000 0.000000 0.000000 0.094231 0.000000 -0.183378
#
#
# Mechanical properties :
#
#
# Convention : Reuss Voigt Hill
#
# Bulk Modulus (GPa) = 24.43362 50.10887 37.27124
# Shear Modulus (GPa) = -73.32631 35.76478 -18.78076
#
# Velocity S-wave (km/s) = -5.33410 3.72528 -2.69953
# Velocity P-wave (km/s) = 5.33441 6.16014 2.17846
#
# Compressibility (1/GPa) = 0.04092722
#
# Stress axis : x y z
#
# Youngs Moduli (GPa) = 155.66619 101.67431 32.61123
#
# Poissons Ratio (x) = 0.05028 0.11850
# Poissons Ratio (y) = 0.07698 -0.03686
# Poissons Ratio (z) = 0.56567 -0.11491
#
# Static dielectric constant tensor:
#      x y z
#    x 2.004870 0.000000 0.046020 
#    y 0.000000 2.115870 0.000000 
#    z 0.046020 0.000000 2.112260 
# 
# From -- ./inp_files/267171.got.cif
#   From: 2010.05.17/outbox.cif.g08.bks.cpg/sg12_134_cif.got.tgz:267171.got - 2010.06.03 13:09:07.
