data_PCOD9202021
_publ_section_title
;
Structure prediction by ZEFSAII (Michael W. Deem and Ramdas Pophale) SiO2 
 PCOD9202021
Probable space group: C 2/M
;
_chemical_formula_sum "Si O2"
_cell_formula_units_Z 40
_cell_length_a 14.855625
_cell_length_b 9.212989
_cell_length_c 31.107275
_cell_angle_alpha 90.000000
_cell_angle_beta 147.058563
_cell_angle_gamma 90.000000
_cell_volume 2315.143432
_symmetry_space_group_name_H-M "C 2/M"
_symmetry_group_IT_number 12
_symmetry_cell_setting 'monoclinic'
loop_
_space_group_symop_operation_xyz
x,y,z
-x,y,-z
-x,-y,-z
x,-y,z
1/2+x,1/2+y,z
1/2-x,1/2+y,-z
1/2-x,1/2-y,-z
1/2+x,1/2-y,z
loop_
_atom_site_type_symbol
_atom_site_label
_atom_site_fract_x
_atom_site_fract_y
_atom_site_fract_z
Si Si1 0.720725 0.174432 0.625646
Si Si2 0.578832 0.826749 0.918513
Si Si3 0.383570 0.330011 0.911758
Si Si4 0.989150 0.672290 0.206513
Si Si5 0.846851 0.675152 0.499660
O O1 0.542184 0.213901 0.574690
O O2 0.722059 0.214525 0.575496
O O3 0.870189 0.244893 0.711271
O O4 0.731464 0.000000 0.631650
O O5 0.444521 0.773576 0.898694
O O6 0.523138 0.784622 0.848329
O O7 0.602135 0.000000 0.928644
O O8 0.750000 0.750000 0.000000
O O9 0.403658 0.500000 0.907558
O O10 0.193548 0.304121 0.847479
O O11 0.500000 0.307038 0.000000
O O12 0.022830 0.500000 0.221836
O O13 0.835522 0.500000 0.499529
O O14 0.750000 0.750000 0.500000
#
# Coordination Sequence:
#
# PCOD9202021 Si02
#       5
#     8   8   8   8   8
#     4   9  20  38  57  81 114 147 182 224 273 328
#     4  11  22  37  56  80 108 144 189 234 280 331
#     4  10  20  38  57  76 108 147 185 232 283 327
#     4  10  22  38  56  80 114 148 184 232 280 327
#     4   9  19  37  60  84 112 146 181 222 271 329
#
# _framework density 17.277546999999998
#
# number of rings (size 3 to 8) (size 9 to 14) (size 15 to 20)
#    0.000    2.200    2.000    1.800    0.000    6.000 
#    0.000   10.000    0.000    0.000    0.000    0.000 
#    0.000    0.000    0.000    0.000    0.000    0.000 
#
# Total GULP energy -111608.727319 kJ/mol
# GULP energy per Si atom -5580.436366 kJ/mol
# Density = 1.723822 g / cm^3
# Si number density = 17.277547 Si / 1000 Ang^3
#
#
#
# Elastic Constant Matrix: (Units=GPa)
#
#
# Indices 1 2 3 4 5 6 
#
# 1 126.0819 54.8007 72.3714 0.0000 -11.3156 0.0000
# 2 54.8007 41.4056 61.4840 0.0000 -5.7338 0.0000
# 3 72.3714 61.4840 168.9751 0.0000 -6.7710 0.0000
# 4 0.0000 0.0000 0.0000 34.9611 0.0000 1.1038
# 5 -11.3156 -5.7338 -6.7710 0.0000 14.3004 0.0000
# 6 0.0000 0.0000 0.0000 1.1038 0.0000 37.5979
#
#
#
# Elastic Compliance Matrix: (Units=1/GPa)
#
#
# Indices 1 2 3 4 5 6 
#
# 1 0.019385 -0.028121 0.002133 0.000000 0.005074 0.000000
# 2 -0.028121 0.095523 -0.022497 0.000000 0.005397 0.000000
# 3 0.002133 -0.022497 0.013146 0.000000 -0.001108 0.000000
# 4 0.000000 0.000000 0.000000 0.028630 0.000000 -0.000840
# 5 0.005074 0.005397 -0.001108 0.000000 0.075582 0.000000
# 6 0.000000 0.000000 0.000000 -0.000840 0.000000 0.026622
#
#
# Mechanical properties :
#
#
# Convention : Reuss Voigt Hill
#
# Bulk Modulus (GPa) = 32.17072 79.30830 55.73951
# Shear Modulus (GPa) = 13.65302 27.22565 20.43933
#
# Velocity S-wave (km/s) = 2.81413 3.97392 3.44321
# Velocity P-wave (km/s) = 5.40550 8.18891 6.93822
#
# Compressibility (1/GPa) = 0.03108416
#
# Stress axis : x y z
#
# Youngs Moduli (GPa) = 51.58653 10.46865 76.06872
#
# Poissons Ratio (x) = 0.29439 -0.16225
# Poissons Ratio (y) = 1.45065 1.71133
# Poissons Ratio (z) = -0.11003 0.23552
#
# Static dielectric constant tensor:
#      x y z
#    x 1.580700 0.000000 0.003900 
#    y 0.000000 1.575080 0.000000 
#    z 0.003900 0.000000 1.563870 
# 
# From -- ./inp_files/211364.got.cif
#   From: 2010.05.17/outbox.cif.g08.bks.cpg/sg12_106_cif.got.tgz:211364.got - 2010.06.03 13:09:07.
