data_PCOD9202410
_publ_section_title
;
Structure prediction by ZEFSAII (Michael W. Deem and Ramdas Pophale) SiO2 
 PCOD9202410
Probable space group: C 2/M
;
_chemical_formula_sum "Si O2"
_cell_formula_units_Z 56
_cell_length_a 20.723240
_cell_length_b 14.319765
_cell_length_c 9.462652
_cell_angle_alpha 90.000000
_cell_angle_beta 100.586975
_cell_angle_gamma 90.000000
_cell_volume 2760.259002
_symmetry_space_group_name_H-M "C 2/M"
_symmetry_group_IT_number 12
_symmetry_cell_setting 'monoclinic'
loop_
_space_group_symop_operation_xyz
x,y,z
-x,y,-z
-x,-y,-z
x,-y,z
1/2+x,1/2+y,z
1/2-x,1/2+y,-z
1/2-x,1/2-y,-z
1/2+x,1/2-y,z
loop_
_atom_site_type_symbol
_atom_site_label
_atom_site_fract_x
_atom_site_fract_y
_atom_site_fract_z
Si Si1 0.619879 0.107930 0.750348
Si Si2 0.351555 0.106189 0.733618
Si Si3 0.319018 0.610917 0.844695
Si Si4 0.227644 0.609192 0.040624
Si Si5 0.466636 0.604555 0.833852
Si Si6 0.714609 0.166215 0.568135
Si Si7 0.507761 0.802585 0.175002
O O1 0.651936 0.176685 0.647188
O O2 0.548443 0.136980 0.773784
O O3 0.620646 0.000000 0.698362
O O4 0.668258 0.110173 0.904722
O O5 0.301022 0.150771 0.827124
O O6 0.314597 0.105421 0.570467
O O7 0.420280 0.159475 0.757723
O O8 0.366244 0.000000 0.785504
O O9 0.322576 0.500000 0.870264
O O10 0.392040 0.637398 0.832054
O O11 0.269300 0.625432 0.695491
O O12 0.288969 0.651258 0.978637
O O13 0.243730 0.500000 0.079241
O O14 0.467936 0.500000 0.769148
O O15 0.499895 0.694733 0.778263
O O16 0.500000 0.595478 0.000000
O O17 0.750000 0.250000 0.500000
O O18 0.500000 0.806374 0.000000
#
# Coordination Sequence:
#
# PCOD9202410 Si02
#       7
#     8   8   8   8   8   8   8
#     4  10  20  38  61  86 121 164 200 242 306 368
#     4  11  21  35  57  90 125 156 200 254 299 354
#     4   9  17  36  61  81 109 155 198 241 308 360
#     4   8  16  31  55  86 114 146 194 248 299 357
#     4   9  19  36  58  85 117 152 197 250 299 358
#     4  11  23  39  55  83 121 162 203 242 292 357
#     4  11  21  35  58  92 123 160 199 247 307 358
#
# _framework density 20.287952000000001
#
# number of rings (size 3 to 8) (size 9 to 14) (size 15 to 20)
#    0.000    2.143    1.429    3.429    0.000    1.143 
#    5.143    3.571    0.000    1.714    0.000    3.000 
#    0.000    0.000    0.000    0.000    0.000    0.000 
#
# Total GULP energy -156058.189788 kJ/mol
# GULP energy per Si atom -5573.506778 kJ/mol
# Density = 2.024178 g / cm^3
# Si number density = 20.287952 Si / 1000 Ang^3
#
#
#
# Elastic Constant Matrix: (Units=GPa)
#
#
# Indices 1 2 3 4 5 6 
#
# 1 75.4544 19.2205 29.5760 0.0000 -1.6891 0.0000
# 2 19.2205 70.5196 2.5768 0.0000 -6.5233 0.0000
# 3 29.5760 2.5768 77.3597 0.0000 -12.6606 0.0000
# 4 0.0000 0.0000 0.0000 23.3942 0.0000 -4.6409
# 5 -1.6891 -6.5233 -12.6606 0.0000 27.9552 0.0000
# 6 0.0000 0.0000 0.0000 -4.6409 0.0000 24.9307
#
#
#
# Elastic Compliance Matrix: (Units=1/GPa)
#
#
# Indices 1 2 3 4 5 6 
#
# 1 0.017081 -0.004699 -0.006896 0.000000 -0.003187 0.000000
# 2 -0.004699 0.015786 0.001973 0.000000 0.004293 0.000000
# 3 -0.006896 0.001973 0.016746 0.000000 0.007628 0.000000
# 4 0.000000 0.000000 0.000000 0.044385 0.000000 0.008262
# 5 -0.003187 0.004293 0.007628 0.000000 0.040035 0.000000
# 6 0.000000 0.000000 0.000000 0.008262 0.000000 0.041649
#
#
# Mechanical properties :
#
#
# Convention : Reuss Voigt Hill
#
# Bulk Modulus (GPa) = 32.92601 36.23112 34.57857
# Shear Modulus (GPa) = 24.38451 26.72004 25.55228
#
# Velocity S-wave (km/s) = 3.47063 3.63304 3.55277
# Velocity P-wave (km/s) = 5.68551 5.95784 5.82327
#
# Compressibility (1/GPa) = 0.03037113
#
# Stress axis : x y z
#
# Youngs Moduli (GPa) = 58.54309 63.34682 59.71721
#
# Poissons Ratio (x) = 0.29764 0.41179
# Poissons Ratio (y) = 0.27506 -0.11783
# Poissons Ratio (z) = 0.40369 -0.12499
#
# Static dielectric constant tensor:
#      x y z
#    x 1.716040 0.000000 -0.057700 
#    y 0.000000 1.786640 0.000000 
#    z -0.057700 0.000000 1.678530 
# 
# From -- ./inp_files/86359.got.cif
#   From: 2010.05.17/outbox.cif.g08.bks.cpg/sg12_44_cif.got.tgz:86359.got - 2010.06.03 13:09:07.
