data_PCOD9202536
_publ_section_title
;
Structure prediction by ZEFSAII (Michael W. Deem and Ramdas Pophale) SiO2 
 PCOD9202536
Probable space group: C 2/M
;
_chemical_formula_sum "Si O2"
_cell_formula_units_Z 58
_cell_length_a 23.982322
_cell_length_b 9.093716
_cell_length_c 25.865288
_cell_angle_alpha 90.000000
_cell_angle_beta 32.028874
_cell_angle_gamma 90.000000
_cell_volume 2991.642523
_symmetry_space_group_name_H-M "C 2/M"
_symmetry_group_IT_number 12
_symmetry_cell_setting 'monoclinic'
loop_
_space_group_symop_operation_xyz
x,y,z
-x,y,-z
-x,-y,-z
x,-y,z
1/2+x,1/2+y,z
1/2-x,1/2+y,-z
1/2-x,1/2-y,-z
1/2+x,1/2-y,z
loop_
_atom_site_type_symbol
_atom_site_label
_atom_site_fract_x
_atom_site_fract_y
_atom_site_fract_z
Si Si1 0.863430 0.833711 0.007591
Si Si2 0.074263 0.167934 0.491615
Si Si3 0.000000 0.500000 0.000000
Si Si4 0.407169 0.823030 0.691935
Si Si5 0.867074 0.324003 0.841077
Si Si6 0.677271 0.254516 0.845820
Si Si7 0.289501 0.668979 0.297185
Si Si8 0.488434 0.824819 0.178529
O O1 0.950514 0.718876 0.921728
O O2 0.887834 0.000000 0.970266
O O3 0.754306 0.777390 0.067927
O O4 0.847898 0.840816 0.081285
O O5 0.183394 0.240137 0.388911
O O6 0.000000 0.164016 0.500000
O O7 0.010817 0.266464 0.582338
O O8 0.089458 0.000000 0.497952
O O9 0.908011 0.625655 0.084083
O O10 0.415565 0.797251 0.746656
O O11 0.304181 0.733409 0.753220
O O12 0.389895 0.000000 0.696818
O O13 0.861003 0.500000 0.852210
O O14 0.937670 0.270003 0.832652
O O15 0.672399 0.323324 0.792600
O O16 0.271875 0.500000 0.324398
O O17 0.378769 0.742228 0.262083
O O18 0.474203 0.000000 0.192662
#
# Coordination Sequence:
#
# PCOD9202536 Si02
#       8
#     8   8   2   8   8   8   8   8
#     4  10  20  38  62  86 117 158 214 259 304 363
#     4  11  24  40  64  98 128 155 196 256 316 375
#     4  12  28  36  54  86 136 164 202 248 304 372
#     4  10  20  41  70  93 120 158 210 258 306 364
#     4   8  18  38  62  88 117 158 207 259 304 355
#     4  11  24  38  61  86 125 163 207 248 310 357
#     4  12  25  41  63  88 125 167 208 250 307 374
#     4  11  23  38  58  86 124 163 203 254 313 361
#
# _framework density 19.387343000000001
#
# number of rings (size 3 to 8) (size 9 to 14) (size 15 to 20)
#    0.000    1.517    1.379    4.552    5.793    0.552 
#    0.000    6.552    0.000    0.000    0.000    0.000 
#    0.000    0.000    0.000    0.000    0.000    0.000 
#
# Total GULP energy -161517.529317 kJ/mol
# GULP energy per Si atom -5569.569976 kJ/mol
# Density = 1.934322 g / cm^3
# Si number density = 19.387343 Si / 1000 Ang^3
#
#
#
# Elastic Constant Matrix: (Units=GPa)
#
#
# Indices 1 2 3 4 5 6 
#
# 1 81.9926 29.4276 34.0342 -0.0019 -16.9966 0.0031
# 2 29.4276 85.1035 49.7476 -0.0026 -17.3568 0.0047
# 3 34.0342 49.7476 108.8622 -0.0011 -14.2180 0.0021
# 4 -0.0019 -0.0026 -0.0011 16.1175 0.0004 -3.2253
# 5 -16.9966 -17.3568 -14.2180 0.0004 23.1060 -0.0008
# 6 0.0031 0.0047 0.0021 -3.2253 -0.0008 -5.7058
#
#
#
# Elastic Compliance Matrix: (Units=1/GPa)
#
#
# Indices 1 2 3 4 5 6 
#
# 1 0.015883 -0.002085 -0.002927 0.000002 0.008316 0.000004
# 2 -0.002085 0.017873 -0.006484 0.000004 0.007902 0.000008
# 3 -0.002927 -0.006484 0.013208 -0.000001 0.001104 -0.000002
# 4 0.000002 0.000004 -0.000001 0.055739 0.000001 -0.031507
# 5 0.008316 0.007902 0.001104 0.000001 0.056012 0.000003
# 6 0.000004 0.000008 -0.000002 -0.031507 0.000003 -0.157449
#
#
# Mechanical properties :
#
#
# Convention : Reuss Voigt Hill
#
# Bulk Modulus (GPa) = 41.71279 55.81967 48.76623
# Shear Modulus (GPa) = 155.04394 17.55346 86.29870
#
# Velocity S-wave (km/s) = 8.95239 3.01226 6.67904
# Velocity P-wave (km/s) = 11.33237 6.39942 9.20259
#
# Compressibility (1/GPa) = 0.02397346
#
# Stress axis : x y z
#
# Youngs Moduli (GPa) = 62.95881 55.94968 75.71206
#
# Poissons Ratio (x) = 0.11668 0.22158
# Poissons Ratio (y) = 0.13129 0.49088
# Poissons Ratio (z) = 0.18425 0.36275
#
# Static dielectric constant tensor:
#      x y z
#    x 1.713880 0.000000 0.002620 
#    y 0.000000 1.662440 0.000000 
#    z 0.002620 0.000000 1.677910 
# 
# From -- ./inp_files/367526.got.cif
#   From: 2010.05.17/outbox.cif.g08.bks.cpg/sg12_184_cif.got.tgz:367526.got - 2010.06.03 13:09:07.
