data_PCOD9202431
_publ_section_title
;
Structure prediction by ZEFSAII (Michael W. Deem and Ramdas Pophale) SiO2 
 PCOD9202431
Probable space group: C 2/M
;
_chemical_formula_sum "Si O2"
_cell_formula_units_Z 40
_cell_length_a 13.506561
_cell_length_b 11.828070
_cell_length_c 17.389663
_cell_angle_alpha 90.000000
_cell_angle_beta 33.926047
_cell_angle_gamma 90.000000
_cell_volume 1550.526787
_symmetry_space_group_name_H-M "C 2/M"
_symmetry_group_IT_number 12
_symmetry_cell_setting 'monoclinic'
loop_
_space_group_symop_operation_xyz
x,y,z
-x,y,-z
-x,-y,-z
x,-y,z
1/2+x,1/2+y,z
1/2-x,1/2+y,-z
1/2-x,1/2-y,-z
1/2+x,1/2-y,z
loop_
_atom_site_type_symbol
_atom_site_label
_atom_site_fract_x
_atom_site_fract_y
_atom_site_fract_z
Si Si1 0.336270 0.373004 0.532856
Si Si2 0.674472 0.378696 0.073260
Si Si3 0.759572 0.706028 0.857361
Si Si4 0.097680 0.376862 0.839154
Si Si5 0.064216 0.377083 0.568895
O O1 0.426190 0.500000 0.474480
O O2 0.211024 0.369324 0.688604
O O3 0.216632 0.374796 0.534488
O O4 0.432358 0.250234 0.469006
O O5 0.598757 0.500000 0.139128
O O6 0.653690 0.352298 0.996231
O O7 0.888541 0.377155 0.951493
O O8 0.609796 0.288432 0.176847
O O9 0.658878 0.783153 0.860274
O O10 0.877740 0.620971 0.733805
O O11 0.135410 0.500000 0.850260
O O12 0.088344 0.500000 0.512959
#
# Coordination Sequence:
#
# PCOD9202431 Si02
#       5
#     8   8   8   8   8
#     4   9  19  37  63  88 117 158 207 253 296 360
#     4  10  21  39  59  84 120 161 202 250 304 362
#     4  11  21  33  61  90 115 154 203 249 300 360
#     4  10  20  38  62  89 119 158 207 256 299 354
#     4  10  20  38  61  87 123 162 198 248 313 367
#
# _framework density 25.797682999999999
#
# number of rings (size 3 to 8) (size 9 to 14) (size 15 to 20)
#    0.000    2.000    2.000    1.800    0.000    4.000 
#    0.000    5.000    0.000   25.200    0.000    0.000 
#    0.000    0.000    0.000    0.000    0.000    0.000 
#
# Total GULP energy -111601.733998 kJ/mol
# GULP energy per Si atom -5580.086700 kJ/mol
# Density = 2.573897 g / cm^3
# Si number density = 25.797683 Si / 1000 Ang^3
#
#
#
# Elastic Constant Matrix: (Units=GPa)
#
#
# Indices 1 2 3 4 5 6 
#
# 1 142.9143 37.8659 11.2589 -0.0001 18.8626 0.0000
# 2 37.8659 232.9937 36.1712 -0.0001 4.1210 0.0000
# 3 11.2589 36.1712 69.4005 -0.0002 12.7307 0.0000
# 4 -0.0001 -0.0001 -0.0002 23.3347 0.0001 -4.6810
# 5 18.8626 4.1210 12.7307 0.0001 30.2782 0.0000
# 6 0.0000 0.0000 0.0000 -4.6810 0.0000 -2.3514
#
#
#
# Elastic Compliance Matrix: (Units=1/GPa)
#
#
# Indices 1 2 3 4 5 6 
#
# 1 0.007953 -0.001246 0.000257 0.000000 -0.004893 0.000000
# 2 -0.001246 0.004870 -0.002554 0.000000 0.001187 0.000000
# 3 0.000257 -0.002554 0.016973 0.000000 -0.006949 -0.000001
# 4 0.000000 0.000000 0.000000 0.030625 0.000000 -0.060966
# 5 -0.004893 0.001187 -0.006949 0.000000 0.038835 0.000001
# 6 0.000000 0.000000 -0.000001 -0.060966 0.000001 -0.303912
#
#
# Mechanical properties :
#
#
# Convention : Reuss Voigt Hill
#
# Bulk Modulus (GPa) = 44.03350 68.43339 56.23345
# Shear Modulus (GPa) = -26.31575 34.25314 3.96869
#
# Velocity S-wave (km/s) = -3.19734 3.64780 1.24166
# Velocity P-wave (km/s) = 1.86419 6.65781 4.88885
#
# Compressibility (1/GPa) = 0.02270998
#
# Stress axis : x y z
#
# Youngs Moduli (GPa) = 125.74135 205.34308 58.91639
#
# Poissons Ratio (x) = 0.25581 -0.01512
# Poissons Ratio (y) = 0.15665 0.15046
# Poissons Ratio (z) = -0.03227 0.52441
#
# Static dielectric constant tensor:
#      x y z
#    x 1.975790 0.000000 -0.023560 
#    y 0.000000 2.159190 0.000000 
#    z -0.023560 0.000000 2.048650 
# 
# From -- ./inp_files/268413.got.cif
#   From: 2010.05.17/outbox.cif.g08.bks.cpg/sg12_135_cif.got.tgz:268413.got - 2010.06.03 13:09:07.
