data_PCOD9202725
_publ_section_title
;
Structure prediction by ZEFSAII (Michael W. Deem and Ramdas Pophale) SiO2 
 PCOD9202725
Probable space group: C 2/M
;
_chemical_formula_sum "Si O2"
_cell_formula_units_Z 48
_cell_length_a 30.362316
_cell_length_b 8.494128
_cell_length_c 9.615900
_cell_angle_alpha 90.000000
_cell_angle_beta 82.985716
_cell_angle_gamma 90.000000
_cell_volume 2461.393433
_symmetry_space_group_name_H-M "C 2/M"
_symmetry_group_IT_number 12
_symmetry_cell_setting 'monoclinic'
loop_
_space_group_symop_operation_xyz
x,y,z
-x,y,-z
-x,-y,-z
x,-y,z
1/2+x,1/2+y,z
1/2-x,1/2+y,-z
1/2-x,1/2-y,-z
1/2+x,1/2-y,z
loop_
_atom_site_type_symbol
_atom_site_label
_atom_site_fract_x
_atom_site_fract_y
_atom_site_fract_z
Si Si1 0.292023 0.188863 0.571388
Si Si2 0.209128 0.310181 0.106652
Si Si3 0.527586 0.815407 0.630455
Si Si4 0.965545 0.679033 0.888232
Si Si5 0.125780 0.691105 0.949695
Si Si6 0.874794 0.186750 0.364092
O O1 0.250000 0.250000 0.500000
O O2 0.290226 0.244644 0.733099
O O3 0.337268 0.240877 0.478264
O O4 0.290414 0.000000 0.573147
O O5 0.210557 0.500000 0.109425
O O6 0.250000 0.250000 0.000000
O O7 0.164984 0.264706 0.039410
O O8 0.500000 0.811708 0.500000
O O9 0.493891 0.742525 0.756081
O O10 0.575564 0.736397 0.609712
O O11 0.535791 0.000000 0.665397
O O12 0.954083 0.500000 0.843951
O O13 0.920411 0.748510 0.965323
O O14 0.000000 0.666974 0.000000
O O15 0.123864 0.500000 0.939487
O O16 0.131917 0.755331 0.792077
O O17 0.870555 0.000000 0.369575
#
# Coordination Sequence:
#
# PCOD9202725 Si02
#       6
#     8   8   8   8   8   8
#     4  11  24  43  66  93 124 159 202 248 302 364
#     4  10  23  40  64  92 120 151 194 249 301 358
#     4  10  21  37  62  89 118 159 207 257 304 358
#     4   9  16  31  58  88 114 146 196 248 297 351
#     4  10  20  38  63  89 117 154 203 256 302 355
#     4  12  25  40  59  88 127 167 204 246 302 363
#
# _framework density 19.501149000000002
#
# number of rings (size 3 to 8) (size 9 to 14) (size 15 to 20)
#    0.000    1.667    1.667    3.000    2.333    5.000 
#    0.000    1.667    0.000    0.000    0.000    0.000 
#    0.000    0.000    0.000    0.000    0.000    0.000 
#
# Total GULP energy -133995.336911 kJ/mol
# GULP energy per Si atom -5583.139038 kJ/mol
# Density = 1.945676 g / cm^3
# Si number density = 19.501149 Si / 1000 Ang^3
#
#
#
# Elastic Constant Matrix: (Units=GPa)
#
#
# Indices 1 2 3 4 5 6 
#
# 1 177.6835 32.2094 108.7753 0.0000 -14.6273 0.0000
# 2 32.2094 44.0020 30.1864 0.0000 0.4759 0.0000
# 3 108.7753 30.1864 158.7365 0.0000 -16.6078 0.0000
# 4 0.0000 0.0000 0.0000 18.9026 0.0000 -2.3147
# 5 -14.6273 0.4759 -16.6078 0.0000 41.1800 0.0000
# 6 0.0000 0.0000 0.0000 -2.3147 0.0000 49.6891
#
#
#
# Elastic Compliance Matrix: (Units=1/GPa)
#
#
# Indices 1 2 3 4 5 6 
#
# 1 0.010081 -0.003143 -0.006194 0.000000 0.001119 0.000000
# 2 -0.003143 0.027346 -0.003337 0.000000 -0.002778 0.000000
# 3 -0.006194 -0.003337 0.011435 0.000000 0.002450 0.000000
# 4 0.000000 0.000000 0.000000 0.053206 0.000000 0.002479
# 5 0.001119 -0.002778 0.002450 0.000000 0.025702 0.000000
# 6 0.000000 0.000000 0.000000 0.002479 0.000000 0.020241
#
#
# Mechanical properties :
#
#
# Convention : Reuss Voigt Hill
#
# Bulk Modulus (GPa) = 42.52581 80.30715 61.41648
# Shear Modulus (GPa) = 27.59424 35.90441 31.74933
#
# Velocity S-wave (km/s) = 3.76574 4.29551 4.03932
# Velocity P-wave (km/s) = 6.38450 8.11616 7.30184
#
# Compressibility (1/GPa) = 0.02351513
#
# Stress axis : x y z
#
# Youngs Moduli (GPa) = 99.19159 36.56799 87.45066
#
# Poissons Ratio (x) = 0.11492 0.54164
# Poissons Ratio (y) = 0.31173 0.29186
# Poissons Ratio (z) = 0.61436 0.12204
#
# Static dielectric constant tensor:
#      x y z
#    x 1.689310 0.000000 0.012770 
#    y 0.000000 1.697240 0.000000 
#    z 0.012770 0.000000 1.654830 
# 
# From -- ./inp_files/108624.got.cif
#   From: 2010.05.17/outbox.cif.g08.bks.cpg/sg12_55_cif.got.tgz:108624.got - 2010.06.03 13:09:07.
