data_PCOD9202345
_publ_section_title
;
Structure prediction by ZEFSAII (Michael W. Deem and Ramdas Pophale) SiO2 
 PCOD9202345
Probable space group: C 2/M
;
_chemical_formula_sum "Si O2"
_cell_formula_units_Z 48
_cell_length_a 24.265385
_cell_length_b 8.639894
_cell_length_c 21.014241
_cell_angle_alpha 90.000000
_cell_angle_beta 140.151920
_cell_angle_gamma 90.000000
_cell_volume 2822.934224
_symmetry_space_group_name_H-M "C 2/M"
_symmetry_group_IT_number 12
_symmetry_cell_setting 'monoclinic'
loop_
_space_group_symop_operation_xyz
x,y,z
-x,y,-z
-x,-y,-z
x,-y,z
1/2+x,1/2+y,z
1/2-x,1/2+y,-z
1/2-x,1/2-y,-z
1/2+x,1/2-y,z
loop_
_atom_site_type_symbol
_atom_site_label
_atom_site_fract_x
_atom_site_fract_y
_atom_site_fract_z
Si Si1 0.300275 0.815064 0.863295
Si Si2 0.822447 0.686517 0.610791
Si Si3 0.486027 0.820262 0.082186
Si Si4 0.014639 0.318887 0.767655
Si Si5 0.829673 0.181642 0.757223
Si Si6 0.801733 0.313173 0.107121
O O1 0.283272 0.753481 0.777476
O O2 0.242942 0.740335 0.867601
O O3 0.291373 0.000000 0.857788
O O4 0.399851 0.779059 0.968855
O O5 0.823737 0.500000 0.611232
O O6 0.750000 0.750000 0.500000
O O7 0.918051 0.744747 0.674697
O O8 0.807459 0.740650 0.670012
O O9 0.466565 0.812131 0.140132
O O10 0.568656 0.716217 0.143396
O O11 0.509340 0.000000 0.088573
O O12 0.009273 0.500000 0.745038
O O13 0.099275 0.254840 0.808719
O O14 0.813905 0.000000 0.739781
O O15 0.801798 0.500000 0.103201
O O16 0.750000 0.250000 0.000000
#
# Coordination Sequence:
#
# PCOD9202345 Si02
#       6
#     8   8   8   8   8   8
#     4  11  21  34  50  72 106 149 183 217 265 314
#     4  10  20  38  61  83 105 135 171 219 274 326
#     4   9  17  32  50  70 103 146 180 213 263 318
#     4   8  16  32  52  75 106 141 176 211 262 317
#     4  11  22  34  50  78 107 136 177 223 267 319
#     4  11  20  33  51  76 108 148 187 220 253 307
#
# _framework density 17.003585000000001
#
# number of rings (size 3 to 8) (size 9 to 14) (size 15 to 20)
#    0.000    2.000    1.667    4.500    0.000    3.333 
#    0.000    2.500    0.000    1.000    0.000    7.000 
#    0.000    0.000    0.000    0.000    0.000    0.000 
#
# Total GULP energy -133879.399373 kJ/mol
# GULP energy per Si atom -5578.308307 kJ/mol
# Density = 1.696488 g / cm^3
# Si number density = 17.003585 Si / 1000 Ang^3
#
#
#
# Elastic Constant Matrix: (Units=GPa)
#
#
# Indices 1 2 3 4 5 6 
#
# 1 120.3403 43.3025 64.6657 0.0000 -11.9497 0.0000
# 2 43.3025 56.7757 37.8184 0.0000 -4.3851 0.0000
# 3 64.6657 37.8184 117.9644 0.0000 -2.0704 0.0000
# 4 0.0000 0.0000 0.0000 24.0156 0.0000 -1.3055
# 5 -11.9497 -4.3851 -2.0704 0.0000 10.0037 0.0000
# 6 0.0000 0.0000 0.0000 -1.3055 0.0000 26.1005
#
#
#
# Elastic Compliance Matrix: (Units=1/GPa)
#
#
# Indices 1 2 3 4 5 6 
#
# 1 0.015333 -0.006569 -0.006051 0.000000 0.014184 0.000000
# 2 -0.006569 0.025929 -0.004667 0.000000 0.002553 0.000000
# 3 -0.006051 -0.004667 0.013175 0.000000 -0.006547 0.000000
# 4 0.000000 0.000000 0.000000 0.041753 0.000000 0.002088
# 5 0.014184 0.002553 -0.006547 0.000000 0.116672 0.000000
# 6 0.000000 0.000000 0.000000 0.002088 0.000000 0.038418
#
#
# Mechanical properties :
#
#
# Convention : Reuss Voigt Hill
#
# Bulk Modulus (GPa) = 50.33988 65.18373 57.76181
# Shear Modulus (GPa) = 17.09552 21.97687 19.53619
#
# Velocity S-wave (km/s) = 3.17425 3.59901 3.39329
# Velocity P-wave (km/s) = 6.56538 7.46251 7.02827
#
# Compressibility (1/GPa) = 0.01986496
#
# Stress axis : x y z
#
# Youngs Moduli (GPa) = 65.21775 38.56688 75.90020
#
# Poissons Ratio (x) = 0.25334 0.45924
# Poissons Ratio (y) = 0.42840 0.35422
# Poissons Ratio (z) = 0.39460 0.17999
#
# Static dielectric constant tensor:
#      x y z
#    x 1.591570 0.000000 0.014140 
#    y 0.000000 1.577800 0.000000 
#    z 0.014140 0.000000 1.559740 
# 
# From -- ./inp_files/323867.got.cif
#   From: 2010.05.17/outbox.cif.g08.bks.cpg/sg12_162_cif.got.tgz:323867.got - 2010.06.03 13:09:07.
