data_PCOD9202646
_publ_section_title
;
Structure prediction by ZEFSAII (Michael W. Deem and Ramdas Pophale) SiO2 
 PCOD9202646
Probable space group: C 2/M
;
_chemical_formula_sum "Si O2"
_cell_formula_units_Z 40
_cell_length_a 8.460679
_cell_length_b 18.547402
_cell_length_c 14.734624
_cell_angle_alpha 90.000000
_cell_angle_beta 45.196093
_cell_angle_gamma 90.000000
_cell_volume 1640.565774
_symmetry_space_group_name_H-M "C 2/M"
_symmetry_group_IT_number 12
_symmetry_cell_setting 'monoclinic'
loop_
_space_group_symop_operation_xyz
x,y,z
-x,y,-z
-x,-y,-z
x,-y,z
1/2+x,1/2+y,z
1/2-x,1/2+y,-z
1/2-x,1/2-y,-z
1/2+x,1/2-y,z
loop_
_atom_site_type_symbol
_atom_site_label
_atom_site_fract_x
_atom_site_fract_y
_atom_site_fract_z
Si Si1 0.658353 0.579798 0.716315
Si Si2 0.249067 0.845712 0.065791
Si Si3 0.057195 0.217607 0.681524
Si Si4 0.213215 0.854473 0.366349
Si Si5 0.831239 0.581212 0.851093
O O1 0.722069 0.500000 0.659217
O O2 0.719770 0.649031 0.631198
O O3 0.744858 0.591175 0.783688
O O4 0.389066 0.588498 0.831203
O O5 0.243571 0.864108 0.962125
O O6 0.500000 0.839542 0.000000
O O7 0.089896 0.781099 0.165410
O O8 0.171832 0.293195 0.617934
O O9 0.882907 0.193687 0.676361
O O10 0.403296 0.908401 0.259902
O O11 0.000000 0.889002 0.500000
O O12 0.771886 0.500000 0.903041
#
# Coordination Sequence:
#
# PCOD9202646 Si02
#       5
#     8   8   8   8   8
#     4   9  20  38  63  97 131 163 199 248 314 379
#     4  10  20  38  62  93 131 159 201 251 316 370
#     4  10  24  41  64  94 120 164 213 257 317 368
#     4  12  25  45  66  87 123 169 215 263 307 365
#     4  11  22  40  65  97 130 165 204 253 314 375
#
# _framework density 24.381834000000001
#
# number of rings (size 3 to 8) (size 9 to 14) (size 15 to 20)
#    1.200    0.400    2.000    3.000    0.000    6.800 
#    0.000    0.000    0.000    3.000    0.000    0.000 
#    0.000    0.000    0.000    0.000    0.000    0.000 
#
# Total GULP energy -111652.812585 kJ/mol
# GULP energy per Si atom -5582.640629 kJ/mol
# Density = 2.432634 g / cm^3
# Si number density = 24.381834 Si / 1000 Ang^3
#
#
#
# Elastic Constant Matrix: (Units=GPa)
#
#
# Indices 1 2 3 4 5 6 
#
# 1 85.4278 11.3235 2.3994 0.0000 -9.0848 0.0000
# 2 11.3235 58.9413 0.6362 0.0000 4.1720 0.0000
# 3 2.3994 0.6362 93.3138 0.0001 -18.8511 0.0000
# 4 0.0000 0.0000 0.0001 21.7920 0.0000 -1.6059
# 5 -9.0848 4.1720 -18.8511 0.0000 30.2844 0.0000
# 6 0.0000 0.0000 0.0000 -1.6059 0.0000 22.0859
#
#
#
# Elastic Compliance Matrix: (Units=1/GPa)
#
#
# Indices 1 2 3 4 5 6 
#
# 1 0.012531 -0.002734 0.000608 0.000000 0.004514 0.000000
# 2 -0.002734 0.017767 -0.000813 0.000000 -0.003774 0.000000
# 3 0.000608 -0.000813 0.012314 0.000000 0.007960 0.000000
# 4 0.000000 0.000000 0.000000 0.046136 0.000000 0.003355
# 5 0.004514 -0.003774 0.007960 0.000000 0.039849 0.000000
# 6 0.000000 0.000000 0.000000 0.003355 0.000000 0.045522
#
#
# Mechanical properties :
#
#
# Convention : Reuss Voigt Hill
#
# Bulk Modulus (GPa) = 27.22124 29.60013 28.41068
# Shear Modulus (GPa) = 26.00899 29.72071 27.86485
#
# Velocity S-wave (km/s) = 3.26964 3.49516 3.38428
# Velocity P-wave (km/s) = 5.04409 5.33430 5.19122
#
# Compressibility (1/GPa) = 0.03673602
#
# Stress axis : x y z
#
# Youngs Moduli (GPa) = 79.80128 56.28384 81.20522
#
# Poissons Ratio (x) = 0.15385 -0.04941
# Poissons Ratio (y) = 0.21814 0.06604
# Poissons Ratio (z) = -0.04855 0.04577
#
# Static dielectric constant tensor:
#      x y z
#    x 1.955000 0.000000 0.034400 
#    y 0.000000 1.907640 0.000000 
#    z 0.034400 0.000000 2.009970 
# 
# From -- ./inp_files/257856.got.cif
#   From: 2010.05.17/outbox.cif.g08.bks.cpg/sg12_129_cif.got.tgz:257856.got - 2010.06.03 13:09:07.
