data_PCOD9202307
_publ_section_title
;
Structure prediction by ZEFSAII (Michael W. Deem and Ramdas Pophale) SiO2 
 PCOD9202307
Probable space group: C 2/M
;
_chemical_formula_sum "Si O2"
_cell_formula_units_Z 44
_cell_length_a 9.996949
_cell_length_b 9.561426
_cell_length_c 28.231398
_cell_angle_alpha 90.000000
_cell_angle_beta 127.447667
_cell_angle_gamma 90.000000
_cell_volume 2142.364077
_symmetry_space_group_name_H-M "C 2/M"
_symmetry_group_IT_number 12
_symmetry_cell_setting 'monoclinic'
loop_
_space_group_symop_operation_xyz
x,y,z
-x,y,-z
-x,-y,-z
x,-y,z
1/2+x,1/2+y,z
1/2-x,1/2+y,-z
1/2-x,1/2-y,-z
1/2+x,1/2-y,z
loop_
_atom_site_type_symbol
_atom_site_label
_atom_site_fract_x
_atom_site_fract_y
_atom_site_fract_z
Si Si1 0.273722 0.500000 0.825732
Si Si2 0.000000 0.248336 0.000000
Si Si3 0.076296 0.335908 0.463647
Si Si4 0.088197 0.000000 0.959408
Si Si5 0.323621 0.000000 0.918091
Si Si6 0.349310 0.661227 0.342522
Si Si7 0.530588 0.773880 0.732237
Si Si8 0.518771 0.500000 0.788695
O O1 0.394138 0.500000 0.897815
O O2 0.152401 0.367621 0.791268
O O3 0.401870 0.500000 0.809317
O O4 0.074633 0.356037 0.054500
O O5 0.883457 0.138138 0.003036
O O6 0.099245 0.500000 0.455566
O O7 0.250000 0.250000 0.500000
O O8 0.000000 0.331879 0.500000
O O9 0.949459 0.256700 0.401128
O O10 0.206753 0.000000 0.939730
O O11 0.210816 0.000000 0.847771
O O12 0.411802 0.500000 0.355006
O O13 0.380144 0.731122 0.297628
O O14 0.152242 0.657562 0.313977
O O15 0.488813 0.634055 0.751138
#
# Coordination Sequence:
#
# PCOD9202307 Si02
#       8
#     4   4   8   4   4   8   8   4
#     4  11  23  40  62  92 127 171 211 265 325 376
#     4  10  20  38  60  90 118 160 210 258 310 384
#     4  11  26  46  70 100 132 168 213 261 314 377
#     4  10  21  37  61  88 124 160 206 262 316 377
#     4  10  21  37  61  88 122 164 205 259 322 372
#     4  12  26  42  67  96 131 170 213 262 317 372
#     4  12  24  41  63  94 128 170 217 263 317 382
#     4  11  23  40  62  90 131 168 212 269 317 381
#
# _framework density 20.538059000000001
#
# number of rings (size 3 to 8) (size 9 to 14) (size 15 to 20)
#    0.000    0.909    3.636    3.273    2.545    4.364 
#    0.000    0.000    4.000    0.000    0.000    0.000 
#    0.000    0.000    0.000    0.000    0.000    0.000 
#
# Total GULP energy -122897.581356 kJ/mol
# GULP energy per Si atom -5586.253698 kJ/mol
# Density = 2.049131 g / cm^3
# Si number density = 20.538059 Si / 1000 Ang^3
#
#
#
# Elastic Constant Matrix: (Units=GPa)
#
#
# Indices 1 2 3 4 5 6 
#
# 1 65.1917 22.2842 -0.2763 0.0000 6.0061 0.0000
# 2 22.2842 164.0959 31.3417 0.0000 6.3572 0.0000
# 3 -0.2763 31.3417 65.3247 0.0000 10.7569 0.0000
# 4 0.0000 0.0000 0.0000 -23.1167 0.0000 62.8477
# 5 6.0061 6.3572 10.7569 0.0000 35.2346 0.0000
# 6 0.0000 0.0000 0.0000 62.8477 0.0000 -65.5542
#
#
#
# Elastic Compliance Matrix: (Units=1/GPa)
#
#
# Indices 1 2 3 4 5 6 
#
# 1 0.016450 -0.002451 0.001721 0.000000 -0.002887 0.000000
# 2 -0.002451 0.007076 -0.003437 0.000000 0.000190 0.000000
# 3 0.001721 -0.003437 0.017806 0.000000 -0.005109 0.000000
# 4 0.000000 0.000000 0.000000 0.026928 0.000000 0.025816
# 5 -0.002887 0.000190 -0.005109 0.000000 0.030399 0.000000
# 6 0.000000 0.000000 0.000000 0.025816 0.000000 0.009496
#
#
# Mechanical properties :
#
#
# Convention : Reuss Voigt Hill
#
# Bulk Modulus (GPa) = 30.30407 44.59017 37.44712
# Shear Modulus (GPa) = 39.21972 5.39691 22.30832
#
# Velocity S-wave (km/s) = 4.37465 1.62280 3.29932
# Velocity P-wave (km/s) = 6.34853 5.02687 5.72596
#
# Compressibility (1/GPa) = 0.03299887
#
# Stress axis : x y z
#
# Youngs Moduli (GPa) = 60.78869 141.32655 56.16223
#
# Poissons Ratio (x) = 0.34636 -0.09665
# Poissons Ratio (y) = 0.14898 0.19300
# Poissons Ratio (z) = -0.10461 0.48568
#
# Static dielectric constant tensor:
#      x y z
#    x 1.725820 0.000000 0.033700 
#    y 0.000000 1.705420 0.000000 
#    z 0.033700 0.000000 1.717030 
# 
# From -- ./inp_files/371889.got.cif
#   From: 2010.05.17/outbox.cif.g08.bks.cpg/sg12_186_cif.got.tgz:371889.got - 2010.06.03 13:09:07.
