data_PCOD9202729
_publ_section_title
;
Structure prediction by ZEFSAII (Michael W. Deem and Ramdas Pophale) SiO2 
 PCOD9202729
Probable space group: C 2/M
;
_chemical_formula_sum "Si O2"
_cell_formula_units_Z 60
_cell_length_a 17.745441
_cell_length_b 26.501363
_cell_length_c 17.543493
_cell_angle_alpha 90.000000
_cell_angle_beta 156.413667
_cell_angle_gamma 90.000000
_cell_volume 3301.206292
_symmetry_space_group_name_H-M "C 2/M"
_symmetry_group_IT_number 12
_symmetry_cell_setting 'monoclinic'
loop_
_space_group_symop_operation_xyz
x,y,z
-x,y,-z
-x,-y,-z
x,-y,z
1/2+x,1/2+y,z
1/2-x,1/2+y,-z
1/2-x,1/2-y,-z
1/2+x,1/2-y,z
loop_
_atom_site_type_symbol
_atom_site_label
_atom_site_fract_x
_atom_site_fract_y
_atom_site_fract_z
Si Si1 0.669318 0.057754 0.959308
Si Si2 0.755641 0.197239 0.551999
Si Si3 0.712365 0.942008 0.295272
Si Si4 0.135346 0.651534 0.836176
Si Si5 0.985183 0.123067 0.653633
Si Si6 0.691932 0.191055 0.059930
Si Si7 0.547297 0.300491 0.955946
Si Si8 0.500000 0.876809 0.000000
O O1 0.856477 0.085366 0.164760
O O2 0.708715 0.000000 0.975814
O O3 0.494359 0.057635 0.856233
O O4 0.602928 0.093670 0.829132
O O5 0.750000 0.250000 0.500000
O O6 0.544934 0.177416 0.367789
O O7 0.862417 0.153770 0.601916
O O8 0.866925 0.204424 0.733818
O O9 0.853090 0.909292 0.476483
O O10 0.674889 0.913065 0.181627
O O11 0.772618 0.000000 0.341889
O O12 0.170816 0.680588 0.950051
O O13 0.318326 0.656889 0.954162
O O14 0.109109 0.167569 0.730526
O O15 0.663609 0.248751 0.052834
O O16 0.537150 0.159100 0.962629
O O17 0.500000 0.307763 0.000000
#
# Coordination Sequence:
#
# PCOD9202729 Si02
#       8
#     8   8   8   8   8   8   8   4
#     4  10  20  38  63  89 118 156 210 263 310 370
#     4  12  22  36  67  92 123 168 208 249 312 382
#     4  11  23  39  59  89 127 166 211 263 310 361
#     4  11  21  42  63  89 121 164 207 251 312 370
#     4  11  21  39  61  90 118 166 213 255 303 376
#     4  11  21  39  60  86 124 165 208 248 299 369
#     4  12  25  41  63  94 128 161 206 263 312 371
#     4  12  21  40  56  86 130 166 205 262 304 364
#
# _framework density 18.175174999999999
#
# number of rings (size 3 to 8) (size 9 to 14) (size 15 to 20)
#    0.000    0.800    8.667    1.800    0.000    1.067 
#    0.000    2.000    0.000    0.400    0.000    0.933 
#    0.000    0.000    0.000    0.000    0.000    0.000 
#
# Total GULP energy -167502.826780 kJ/mol
# GULP energy per Si atom -5583.427559 kJ/mol
# Density = 1.813381 g / cm^3
# Si number density = 18.175175 Si / 1000 Ang^3
#
#
#
# Elastic Constant Matrix: (Units=GPa)
#
#
# Indices 1 2 3 4 5 6 
#
# 1 75.6274 10.4508 20.5427 0.0001 -6.1345 0.0001
# 2 10.4508 78.7654 22.0874 0.0000 -7.3359 0.0000
# 3 20.5427 22.0874 112.7921 0.0002 -6.6595 0.0001
# 4 0.0001 0.0000 0.0002 29.2588 0.0001 7.3193
# 5 -6.1345 -7.3359 -6.6595 0.0001 21.1479 0.0000
# 6 0.0001 0.0000 0.0001 7.3193 0.0000 18.5053
#
#
#
# Elastic Compliance Matrix: (Units=1/GPa)
#
#
# Indices 1 2 3 4 5 6 
#
# 1 0.014210 -0.000977 -0.002214 0.000000 0.003086 0.000000
# 2 -0.000977 0.013825 -0.002306 0.000000 0.003786 0.000000
# 3 -0.002214 -0.002306 0.009818 0.000000 0.001650 0.000000
# 4 0.000000 0.000000 0.000000 0.037931 0.000000 -0.015003
# 5 0.003086 0.003786 0.001650 0.000000 0.050014 0.000000
# 6 0.000000 0.000000 0.000000 -0.015003 0.000000 0.059973
#
#
# Mechanical properties :
#
#
# Convention : Reuss Voigt Hill
#
# Bulk Modulus (GPa) = 37.23286 41.48295 39.35791
# Shear Modulus (GPa) = 24.30529 28.05600 26.18064
#
# Velocity S-wave (km/s) = 3.66085 3.93319 3.79946
# Velocity P-wave (km/s) = 6.19670 6.59546 6.39919
#
# Compressibility (1/GPa) = 0.02685799
#
# Stress axis : x y z
#
# Youngs Moduli (GPa) = 70.37530 72.33398 101.85275
#
# Poissons Ratio (x) = 0.07067 0.22555
# Poissons Ratio (y) = 0.06876 0.23485
# Poissons Ratio (z) = 0.15584 0.16678
#
# Static dielectric constant tensor:
#      x y z
#    x 1.632250 0.000000 0.023370 
#    y 0.000000 1.647890 0.000000 
#    z 0.023370 0.000000 1.658380 
# 
# From -- ./inp_files/219241.got.cif
#   From: 2010.05.17/outbox.cif.g08.bks.cpg/sg12_110_cif.got.tgz:219241.got - 2010.06.03 13:09:07.
