data_PCOD9202780
_publ_section_title
;
Structure prediction by ZEFSAII (Michael W. Deem and Ramdas Pophale) SiO2 
 PCOD9202780
Probable space group: C 2/M
;
_chemical_formula_sum "Si O2"
_cell_formula_units_Z 40
_cell_length_a 10.739587
_cell_length_b 17.574888
_cell_length_c 11.120672
_cell_angle_alpha 90.000000
_cell_angle_beta 107.361901
_cell_angle_gamma 90.000000
_cell_volume 2003.361575
_symmetry_space_group_name_H-M "C 2/M"
_symmetry_group_IT_number 12
_symmetry_cell_setting 'monoclinic'
loop_
_space_group_symop_operation_xyz
x,y,z
-x,y,-z
-x,-y,-z
x,-y,z
1/2+x,1/2+y,z
1/2-x,1/2+y,-z
1/2-x,1/2-y,-z
1/2+x,1/2-y,z
loop_
_atom_site_type_symbol
_atom_site_label
_atom_site_fract_x
_atom_site_fract_y
_atom_site_fract_z
Si Si1 0.736476 0.722416 0.792618
Si Si2 0.869717 0.172909 0.004579
Si Si3 0.148736 0.697793 0.543283
Si Si4 0.139230 0.589458 0.328438
Si Si5 0.092870 0.589350 0.913777
O O1 0.851354 0.756014 0.908872
O O2 0.697327 0.790388 0.692271
O O3 0.774273 0.647500 0.727389
O O4 0.624749 0.701069 0.856286
O O5 0.732873 0.128943 0.955718
O O6 0.000000 0.131217 0.000000
O O7 0.250000 0.750000 0.500000
O O8 0.145870 0.619104 0.467723
O O9 0.000000 0.727160 0.500000
O O10 0.173267 0.500000 0.326579
O O11 0.994862 0.599919 0.230618
O O12 0.118552 0.500000 0.933907
O O13 0.000000 0.609639 0.000000
#
# Coordination Sequence:
#
# PCOD9202780 Si02
#       5
#     8   8   8   8   8
#     4  10  23  38  60  93 131 160 206 256 311 368
#     4  11  24  35  62  95 128 165 208 254 310 366
#     4  10  22  39  63  90 123 158 202 255 308 362
#     4  10  21  40  67  91 119 165 209 253 310 373
#     4  10  20  38  63  91 126 165 206 254 309 370
#
# _framework density 19.966439999999999
#
# number of rings (size 3 to 8) (size 9 to 14) (size 15 to 20)
#    0.000    1.800    2.000    1.200   11.200    0.800 
#    0.000    1.000    0.000   10.800    0.000    0.000 
#    0.000    0.000    0.000    0.000    0.000    0.000 
#
# Total GULP energy -111477.590631 kJ/mol
# GULP energy per Si atom -5573.879532 kJ/mol
# Density = 1.992100 g / cm^3
# Si number density = 19.966440 Si / 1000 Ang^3
#
#
#
# Elastic Constant Matrix: (Units=GPa)
#
#
# Indices 1 2 3 4 5 6 
#
# 1 132.2095 49.6504 35.4289 0.0000 -10.1196 0.0000
# 2 49.6504 118.0771 56.8204 0.0000 -6.8830 0.0000
# 3 35.4289 56.8204 124.6328 0.0000 -22.6100 0.0000
# 4 0.0000 0.0000 0.0000 32.7946 0.0000 1.1163
# 5 -10.1196 -6.8830 -22.6100 0.0000 20.9837 0.0000
# 6 0.0000 0.0000 0.0000 1.1163 0.0000 21.0770
#
#
#
# Elastic Compliance Matrix: (Units=1/GPa)
#
#
# Indices 1 2 3 4 5 6 
#
# 1 0.009216 -0.003450 -0.000554 0.000000 0.002716 0.000000
# 2 -0.003450 0.012223 -0.005179 0.000000 -0.003234 0.000000
# 3 -0.000554 -0.005179 0.012660 0.000000 0.011675 0.000000
# 4 0.000000 0.000000 0.000000 0.030548 0.000000 -0.001618
# 5 0.002716 -0.003234 0.011675 0.000000 0.060485 0.000000
# 6 0.000000 0.000000 0.000000 -0.001618 0.000000 0.047531
#
#
# Mechanical properties :
#
#
# Convention : Reuss Voigt Hill
#
# Bulk Modulus (GPa) = 63.55957 73.19099 68.37528
# Shear Modulus (GPa) = 25.47470 30.50573 27.99021
#
# Velocity S-wave (km/s) = 3.57582 3.91301 3.74821
# Velocity P-wave (km/s) = 6.99649 7.55990 7.28365
#
# Compressibility (1/GPa) = 0.01573327
#
# Stress axis : x y z
#
# Youngs Moduli (GPa) = 108.50920 81.81082 78.98820
#
# Poissons Ratio (x) = 0.28226 0.04377
# Poissons Ratio (y) = 0.37438 0.40905
# Poissons Ratio (z) = 0.06013 0.42367
#
# Static dielectric constant tensor:
#      x y z
#    x 1.672280 0.000000 -0.007760 
#    y 0.000000 1.724960 0.000000 
#    z -0.007760 0.000000 1.770530 
# 
# From -- ./inp_files/120413.got.cif
#   From: 2010.05.17/outbox.cif.g08.bks.cpg/sg12_61_cif.got.tgz:120413.got - 2010.06.03 13:09:07.
