data_PCOD9202881
_publ_section_title
;
Structure prediction by ZEFSAII (Michael W. Deem and Ramdas Pophale) SiO2 
 PCOD9202881
Probable space group: C 2/M
;
_chemical_formula_sum "Si O2"
_cell_formula_units_Z 52
_cell_length_a 18.688535
_cell_length_b 11.941945
_cell_length_c 11.441924
_cell_angle_alpha 90.000000
_cell_angle_beta 104.988163
_cell_angle_gamma 90.000000
_cell_volume 2466.704880
_symmetry_space_group_name_H-M "C 2/M"
_symmetry_group_IT_number 12
_symmetry_cell_setting 'monoclinic'
loop_
_space_group_symop_operation_xyz
x,y,z
-x,y,-z
-x,-y,-z
x,-y,z
1/2+x,1/2+y,z
1/2-x,1/2+y,-z
1/2-x,1/2-y,-z
1/2+x,1/2-y,z
loop_
_atom_site_type_symbol
_atom_site_label
_atom_site_fract_x
_atom_site_fract_y
_atom_site_fract_z
Si Si1 0.810918 0.781645 0.620746
Si Si2 0.010841 0.000000 0.187469
Si Si3 0.312638 0.500000 0.768644
Si Si4 0.337361 0.747010 0.053776
Si Si5 0.040578 0.370164 0.761209
Si Si6 0.390871 0.866972 0.842927
Si Si7 0.973462 0.176410 0.610015
Si Si8 0.140830 0.000000 0.961389
O O1 0.750000 0.750000 0.500000
O O2 0.787787 0.887512 0.692146
O O3 0.837988 0.680740 0.717250
O O4 0.885244 0.817687 0.583372
O O5 0.097380 0.000000 0.195281
O O6 0.000529 0.893448 0.267011
O O7 0.948280 0.000000 0.063343
O O8 0.303499 0.500000 0.904131
O O9 0.374311 0.786569 0.946149
O O10 0.250000 0.750000 0.000000
O O11 0.380309 0.824894 0.162984
O O12 0.347988 0.618233 0.094284
O O13 0.045093 0.500000 0.736287
O O14 0.975821 0.356095 0.833347
O O15 0.010317 0.297293 0.642049
O O16 0.378127 0.000000 0.862652
O O17 0.000000 0.127177 0.500000
#
# Coordination Sequence:
#
# PCOD9202881 Si02
#       8
#     8   4   4   8   8   8   8   4
#     4  10  22  39  60  89 121 160 203 252 306 363
#     4  10  20  38  64  90 122 156 201 253 305 375
#     4  10  21  39  63  90 119 158 207 259 300 362
#     4  12  26  40  60  93 130 157 199 259 320 377
#     4  10  22  42  66  88 118 166 215 255 305 367
#     4  10  22  42  66  88 118 165 214 254 301 372
#     4  10  21  39  61  90 121 157 206 253 303 367
#     4  12  23  41  63  92 123 163 204 247 322 370
#
# _framework density 21.080756000000001
#
# number of rings (size 3 to 8) (size 9 to 14) (size 15 to 20)
#    0.000    1.538    3.077    1.385    3.231    4.000 
#    0.000    0.000    0.000    0.000    0.000    0.000 
#    0.000    0.000    0.000    0.000    0.000    0.000 
#
# Total GULP energy -145046.428106 kJ/mol
# GULP energy per Si atom -5578.708773 kJ/mol
# Density = 2.103277 g / cm^3
# Si number density = 21.080756 Si / 1000 Ang^3
#
#
#
# Elastic Constant Matrix: (Units=GPa)
#
#
# Indices 1 2 3 4 5 6 
#
# 1 40.2868 15.1038 12.0048 0.0000 27.7363 0.0000
# 2 15.1038 135.0074 13.2226 0.0000 17.3777 0.0000
# 3 12.0048 13.2226 75.1769 0.0000 28.0150 0.0000
# 4 0.0000 0.0000 0.0000 112.1329 0.0000 -43.7974
# 5 27.7363 17.3777 28.0150 0.0000 40.2275 0.0000
# 6 0.0000 0.0000 0.0000 -43.7974 0.0000 55.6697
#
#
#
# Elastic Compliance Matrix: (Units=1/GPa)
#
#
# Indices 1 2 3 4 5 6 
#
# 1 0.049705 -0.001275 0.006554 0.000000 -0.038284 0.000000
# 2 -0.001275 0.007877 -0.000326 0.000000 -0.002297 0.000000
# 3 0.006554 -0.000326 0.018831 0.000000 -0.017492 0.000000
# 4 0.000000 0.000000 0.000000 0.012874 0.000000 0.010128
# 5 -0.038284 -0.002297 -0.017492 0.000000 0.064429 0.000000
# 6 0.000000 0.000000 0.000000 0.010128 0.000000 0.025932
#
#
# Mechanical properties :
#
#
# Convention : Reuss Voigt Hill
#
# Bulk Modulus (GPa) = 11.58493 36.79261 24.18877
# Shear Modulus (GPa) = 25.18707 55.61534 40.40120
#
# Velocity S-wave (km/s) = 3.46032 5.14192 4.38253
# Velocity P-wave (km/s) = 4.63385 7.26247 6.09163
#
# Compressibility (1/GPa) = 0.08631903
#
# Stress axis : x y z
#
# Youngs Moduli (GPa) = 20.11890 126.94891 53.10305
#
# Poissons Ratio (x) = 0.16182 -0.34802
# Poissons Ratio (y) = 0.02565 0.01731
# Poissons Ratio (z) = -0.13185 0.04138
#
# Static dielectric constant tensor:
#      x y z
#    x 1.790990 0.000000 -0.027690 
#    y 0.000000 1.835940 0.000000 
#    z -0.027690 0.000000 1.757680 
# 
# From -- ./inp_files/165803.got.cif
#   From: 2010.05.17/outbox.cif.g08.bks.cpg/sg12_83_cif.got.tgz:165803.got - 2010.06.03 13:09:07.
