data_PCOD9202988
_publ_section_title
;
Structure prediction by ZEFSAII (Michael W. Deem and Ramdas Pophale) SiO2 
 PCOD9202988
Probable space group: C 2/M
;
_chemical_formula_sum "Si O2"
_cell_formula_units_Z 50
_cell_length_a 17.725009
_cell_length_b 14.157613
_cell_length_c 8.945527
_cell_angle_alpha 90.000000
_cell_angle_beta 98.566860
_cell_angle_gamma 90.000000
_cell_volume 2219.778532
_symmetry_space_group_name_H-M "C 2/M"
_symmetry_group_IT_number 12
_symmetry_cell_setting 'monoclinic'
loop_
_space_group_symop_operation_xyz
x,y,z
-x,y,-z
-x,-y,-z
x,-y,z
1/2+x,1/2+y,z
1/2-x,1/2+y,-z
1/2-x,1/2-y,-z
1/2+x,1/2-y,z
loop_
_atom_site_type_symbol
_atom_site_label
_atom_site_fract_x
_atom_site_fract_y
_atom_site_fract_z
Si Si1 0.293408 0.109613 0.789472
Si Si2 0.265624 0.393536 0.561777
Si Si3 0.893368 0.339953 0.335258
Si Si4 0.651858 0.687979 0.901088
Si Si5 0.500000 0.000000 0.500000
Si Si6 0.035942 0.846481 0.649549
Si Si7 0.388601 0.279162 0.777013
O O1 0.248412 0.115650 0.618605
O O2 0.239276 0.162846 0.891776
O O3 0.371187 0.167667 0.787241
O O4 0.305479 0.000000 0.829294
O O5 0.292666 0.500000 0.600487
O O6 0.183599 0.377921 0.613800
O O7 0.324198 0.320836 0.648884
O O8 0.871259 0.293144 0.167916
O O9 0.957464 0.417551 0.383782
O O10 0.923242 0.243210 0.418447
O O11 0.601814 0.618334 0.779460
O O12 0.627851 0.678789 0.064016
O O13 0.970421 0.808413 0.740475
O O14 0.000000 0.901049 0.500000
#
# Coordination Sequence:
#
# PCOD9202988 Si02
#       7
#     8   8   8   8   2   8   8
#     4  11  24  39  63  93 126 168 218 269 316 379
#     4  11  23  39  64  96 125 168 219 272 314 387
#     4  10  21  35  62  90 130 162 211 256 323 371
#     4  10  23  42  57  92 126 177 209 261 326 383
#     4  12  20  36  64 102 126 172 214 268 304 404
#     4  10  20  38  65  90 117 170 209 261 315 377
#     4  12  22  41  65  90 134 168 215 264 334 382
#
# _framework density 22.524768999999999
#
# number of rings (size 3 to 8) (size 9 to 14) (size 15 to 20)
#    0.960    0.320    3.200    3.360    0.000    0.640 
#    1.440    0.800    0.000    6.720    0.000    0.000 
#    0.000    0.000    0.000    0.000    0.000    0.000 
#
# Total GULP energy -139237.787391 kJ/mol
# GULP energy per Si atom -5569.511496 kJ/mol
# Density = 2.247350 g / cm^3
# Si number density = 22.524769 Si / 1000 Ang^3
#
#
#
# Elastic Constant Matrix: (Units=GPa)
#
#
# Indices 1 2 3 4 5 6 
#
# 1 87.9913 10.2930 17.4153 0.0000 -14.9932 0.0000
# 2 10.2930 115.2284 7.7525 0.0000 -3.7347 0.0000
# 3 17.4153 7.7525 77.6599 0.0000 -19.5255 0.0000
# 4 0.0000 0.0000 0.0000 10.6112 0.0000 1.4129
# 5 -14.9932 -3.7347 -19.5255 0.0000 34.7921 0.0000
# 6 0.0000 0.0000 0.0000 1.4129 0.0000 -2.1629
#
#
#
# Elastic Compliance Matrix: (Units=1/GPa)
#
#
# Indices 1 2 3 4 5 6 
#
# 1 0.012537 -0.000868 -0.001618 0.000000 0.004401 0.000000
# 2 -0.000868 0.008805 -0.000630 0.000000 0.000218 0.000000
# 3 -0.001618 -0.000630 0.015264 0.000000 0.007801 0.000000
# 4 0.000000 0.000000 0.000000 0.086699 0.000000 0.056635
# 5 0.004401 0.000218 0.007801 0.000000 0.035040 0.000000
# 6 0.000000 0.000000 0.000000 0.056635 0.000000 -0.425337
#
#
# Mechanical properties :
#
#
# Convention : Reuss Voigt Hill
#
# Bulk Modulus (GPa) = 32.92317 39.08903 36.00610
# Shear Modulus (GPa) = -19.94923 25.00933 2.53005
#
# Velocity S-wave (km/s) = -2.97923 3.33574 1.06098
# Velocity P-wave (km/s) = 1.67743 5.67694 4.18577
#
# Compressibility (1/GPa) = 0.03037375
#
# Stress axis : x y z
#
# Youngs Moduli (GPa) = 79.76693 113.56672 65.51460
#
# Poissons Ratio (x) = 0.09861 0.10601
# Poissons Ratio (y) = 0.06926 0.04124
# Poissons Ratio (z) = 0.12907 0.07150
#
# Static dielectric constant tensor:
#      x y z
#    x 1.854930 0.000000 0.032820 
#    y 0.000000 1.851970 0.000000 
#    z 0.032820 0.000000 1.876620 
# 
# From -- ./inp_files/85919.got.cif
#   From: 2010.05.17/outbox.cif.g08.bks.cpg/sg12_43_cif.got.tgz:85919.got - 2010.06.03 13:09:07.
