data_PCOD9202566
_publ_section_title
;
Structure prediction by ZEFSAII (Michael W. Deem and Ramdas Pophale) SiO2 
 PCOD9202566
Probable space group: C 2/M
;
_chemical_formula_sum "Si O2"
_cell_formula_units_Z 58
_cell_length_a 19.311694
_cell_length_b 7.499680
_cell_length_c 24.440452
_cell_angle_alpha 90.000000
_cell_angle_beta 43.632820
_cell_angle_gamma 90.000000
_cell_volume 2442.547311
_symmetry_space_group_name_H-M "C 2/M"
_symmetry_group_IT_number 12
_symmetry_cell_setting 'monoclinic'
loop_
_space_group_symop_operation_xyz
x,y,z
-x,y,-z
-x,-y,-z
x,-y,z
1/2+x,1/2+y,z
1/2-x,1/2+y,-z
1/2-x,1/2-y,-z
1/2+x,1/2-y,z
loop_
_atom_site_type_symbol
_atom_site_label
_atom_site_fract_x
_atom_site_fract_y
_atom_site_fract_z
Si Si1 0.763746 0.785863 0.244905
Si Si2 0.500000 0.000000 0.500000
Si Si3 0.969173 0.793573 0.076294
Si Si4 0.318863 0.211502 0.012514
Si Si5 0.165629 0.787663 0.189248
Si Si6 0.741696 0.781138 0.380794
Si Si7 0.551821 0.716120 0.679639
Si Si8 0.959177 0.202387 0.441157
O O1 0.685614 0.743885 0.241716
O O2 0.740611 0.720631 0.318730
O O3 0.871540 0.716644 0.161348
O O4 0.770462 0.000000 0.246101
O O5 0.519349 0.844053 0.442474
O O6 0.943515 0.000000 0.080119
O O7 0.069667 0.787906 0.054689
O O8 0.000000 0.712195 0.000000
O O9 0.257673 0.282507 0.100345
O O10 0.331356 0.000000 0.010786
O O11 0.250000 0.250000 0.000000
O O12 0.055423 0.719433 0.236406
O O13 0.164753 0.000000 0.180855
O O14 0.848334 0.730151 0.345950
O O15 0.651059 0.707359 0.468321
O O16 0.727912 0.000000 0.390411
O O17 0.551227 0.500000 0.683081
O O18 0.554002 0.759992 0.614154
O O19 0.998605 0.000000 0.420547
#
# Coordination Sequence:
#
# PCOD9202566 Si02
#       8
#     8   2   8   8   8   8   8   8
#     4  10  22  37  62  92 124 167 209 259 319 381
#     4  12  26  44  68 102 136 168 218 280 322 388
#     4  10  20  38  62  87 120 162 206 253 310 379
#     4  11  24  39  62  88 121 163 208 261 320 382
#     4  10  22  40  61  88 123 165 207 262 322 377
#     4  10  21  41  66  94 130 171 214 263 321 387
#     4   9  21  41  66  92 127 170 214 261 319 388
#     4  11  24  43  70  99 132 176 222 268 327 387
#
# _framework density 23.745702999999999
#
# number of rings (size 3 to 8) (size 9 to 14) (size 15 to 20)
#    0.000    1.793    2.069    1.034    3.862    1.931 
#    1.241    0.000    0.000    0.000    0.000    0.000 
#    0.000    0.000    0.000    0.000    0.000    0.000 
#
# Total GULP energy -162018.279542 kJ/mol
# GULP energy per Si atom -5586.837226 kJ/mol
# Density = 2.369166 g / cm^3
# Si number density = 23.745703 Si / 1000 Ang^3
#
#
#
# Elastic Constant Matrix: (Units=GPa)
#
#
# Indices 1 2 3 4 5 6 
#
# 1 101.6983 0.4154 26.6530 0.0001 -6.9515 0.0002
# 2 0.4154 91.7951 -0.7695 0.0004 5.0103 0.0019
# 3 26.6530 -0.7695 94.1342 -0.0002 -19.3772 0.0000
# 4 0.0001 0.0004 -0.0002 9.5320 -0.0001 -1.0386
# 5 -6.9515 5.0103 -19.3772 -0.0001 38.6968 0.0001
# 6 0.0002 0.0019 0.0000 -1.0386 0.0001 27.3578
#
#
#
# Elastic Compliance Matrix: (Units=1/GPa)
#
#
# Indices 1 2 3 4 5 6 
#
# 1 0.010629 -0.000098 -0.002915 0.000000 0.000462 0.000000
# 2 -0.000098 0.010977 -0.000199 -0.000001 -0.001539 -0.000001
# 3 -0.002915 -0.000199 0.012648 0.000000 0.005836 0.000000
# 4 0.000000 -0.000001 0.000000 0.105346 0.000001 0.003999
# 5 0.000462 -0.001539 0.005836 0.000001 0.029046 0.000000
# 6 0.000000 -0.000001 0.000000 0.003999 0.000000 0.036705
#
#
# Mechanical properties :
#
#
# Convention : Reuss Voigt Hill
#
# Bulk Modulus (GPa) = 35.93331 37.80285 36.86808
# Shear Modulus (GPa) = 22.61918 32.53923 27.57920
#
# Velocity S-wave (km/s) = 3.08970 3.70580 3.41169
# Velocity P-wave (km/s) = 5.28145 5.85363 5.57489
#
# Compressibility (1/GPa) = 0.02782933
#
# Stress axis : x y z
#
# Youngs Moduli (GPa) = 94.08226 91.10308 79.06316
#
# Poissons Ratio (x) = 0.00891 0.23048
# Poissons Ratio (y) = 0.00920 0.01576
# Poissons Ratio (z) = 0.27426 0.01816
#
# Static dielectric constant tensor:
#      x y z
#    x 1.904370 0.000000 -0.049020 
#    y 0.000000 1.898940 0.000000 
#    z -0.049020 0.000000 1.938210 
# 
# From -- ./inp_files/346469.got.cif
#   From: 2010.05.17/outbox.cif.g08.bks.cpg/sg12_174_cif.got.tgz:346469.got - 2010.06.03 13:09:07.
