data_PCOD9202693
_publ_section_title
;
Structure prediction by ZEFSAII (Michael W. Deem and Ramdas Pophale) SiO2 
 PCOD9202693
Probable space group: C 2/M
;
_chemical_formula_sum "Si O2"
_cell_formula_units_Z 56
_cell_length_a 19.241480
_cell_length_b 17.263814
_cell_length_c 9.012130
_cell_angle_alpha 90.000000
_cell_angle_beta 68.123746
_cell_angle_gamma 90.000000
_cell_volume 2778.090060
_symmetry_space_group_name_H-M "C 2/M"
_symmetry_group_IT_number 12
_symmetry_cell_setting 'monoclinic'
loop_
_space_group_symop_operation_xyz
x,y,z
-x,y,-z
-x,-y,-z
x,-y,z
1/2+x,1/2+y,z
1/2-x,1/2+y,-z
1/2-x,1/2-y,-z
1/2+x,1/2-y,z
loop_
_atom_site_type_symbol
_atom_site_label
_atom_site_fract_x
_atom_site_fract_y
_atom_site_fract_z
Si Si1 0.083975 0.090190 0.420106
Si Si2 0.414770 0.086302 0.621126
Si Si3 0.796048 0.292369 0.666515
Si Si4 0.089454 0.735734 0.915756
Si Si5 0.838165 0.410164 0.000129
Si Si6 0.683174 0.322956 0.096620
Si Si7 0.661972 0.329685 0.607377
O O1 0.128279 0.133835 0.256214
O O2 0.121872 0.102583 0.550919
O O3 0.000000 0.121946 0.500000
O O4 0.081151 0.000000 0.385625
O O5 0.500000 0.091863 0.500000
O O6 0.369544 0.157200 0.590391
O O7 0.394089 0.092660 0.812882
O O8 0.388265 0.000000 0.597620
O O9 0.789130 0.252946 0.832523
O O10 0.727625 0.346605 0.671915
O O11 0.800598 0.219762 0.553951
O O12 0.107542 0.773815 0.742883
O O13 0.128564 0.651881 0.909514
O O14 0.130226 0.791329 0.005896
O O15 0.000000 0.730136 0.000000
O O16 0.834995 0.500000 0.052399
O O17 0.754325 0.381166 0.022239
#
# Coordination Sequence:
#
# PCOD9202693 Si02
#       7
#     8   8   8   8   8   8   8
#     4  10  22  41  64  92 128 170 212 261 326 392
#     4  10  22  38  59  88 124 168 213 258 318 384
#     4  10  20  38  63  86 119 163 213 263 309 380
#     4  12  24  38  63  98 131 168 212 271 330 383
#     4  11  23  41  65  93 127 172 221 267 322 389
#     4  11  21  42  69  92 125 173 222 268 314 393
#     4  10  22  37  59  93 123 155 210 264 320 376
#
# _framework density 20.157733
#
# number of rings (size 3 to 8) (size 9 to 14) (size 15 to 20)
#    0.000    1.429    2.857    2.571    2.000    3.143 
#    0.000    2.143    0.000    3.857    0.000    0.000 
#    0.000    0.000    0.000    0.000    0.000    0.000 
#
# Total GULP energy -156087.330325 kJ/mol
# GULP energy per Si atom -5574.547512 kJ/mol
# Density = 2.011185 g / cm^3
# Si number density = 20.157733 Si / 1000 Ang^3
#
#
#
# Elastic Constant Matrix: (Units=GPa)
#
#
# Indices 1 2 3 4 5 6 
#
# 1 88.0773 21.1646 24.2483 0.0000 -12.5569 0.0000
# 2 21.1646 70.5885 18.2449 0.0000 -6.3471 0.0000
# 3 24.2483 18.2449 78.9603 0.0000 -6.8097 0.0000
# 4 0.0000 0.0000 0.0000 8.8778 0.0000 -20.8765
# 5 -12.5569 -6.3471 -6.8097 0.0000 33.6245 0.0000
# 6 0.0000 0.0000 0.0000 -20.8765 0.0000 13.6335
#
#
#
# Elastic Compliance Matrix: (Units=1/GPa)
#
#
# Indices 1 2 3 4 5 6 
#
# 1 0.013457 -0.002878 -0.003136 0.000000 0.003847 0.000000
# 2 -0.002878 0.015840 -0.002657 0.000000 0.001377 0.000000
# 3 -0.003136 -0.002657 0.014348 0.000000 0.001233 0.000000
# 4 0.000000 0.000000 0.000000 -0.043309 0.000000 -0.066318
# 5 0.003847 0.001377 0.001233 0.000000 0.031687 0.000000
# 6 0.000000 0.000000 0.000000 -0.066318 0.000000 -0.028202
#
#
# Mechanical properties :
#
#
# Convention : Reuss Voigt Hill
#
# Bulk Modulus (GPa) = 38.01967 40.54908 39.28437
# Shear Modulus (GPa) = 167.05095 22.82504 94.93800
#
# Velocity S-wave (km/s) = 9.11328 3.36865 6.87021
# Velocity P-wave (km/s) = 11.38586 5.94054 9.08096
#
# Compressibility (1/GPa) = 0.02630218
#
# Stress axis : x y z
#
# Youngs Moduli (GPa) = 74.31023 63.13002 69.69644
#
# Poissons Ratio (x) = 0.18172 0.21855
# Poissons Ratio (y) = 0.21390 0.18521
# Poissons Ratio (z) = 0.23302 0.16776
#
# Static dielectric constant tensor:
#      x y z
#    x 1.756500 0.000000 0.001920 
#    y 0.000000 1.703470 0.000000 
#    z 0.001920 0.000000 1.779070 
# 
# From -- ./inp_files/75831.got.cif
#   From: 2010.05.17/outbox.cif.g08.bks.cpg/sg12_38_cif.got.tgz:75831.got - 2010.06.03 13:09:07.
