data_PCOD9202659
_publ_section_title
;
Structure prediction by ZEFSAII (Michael W. Deem and Ramdas Pophale) SiO2 
 PCOD9202659
Probable space group: C 2/M
;
_chemical_formula_sum "Si O2"
_cell_formula_units_Z 34
_cell_length_a 14.350382
_cell_length_b 11.783105
_cell_length_c 10.754638
_cell_angle_alpha 90.000000
_cell_angle_beta 117.518426
_cell_angle_gamma 90.000000
_cell_volume 1612.780248
_symmetry_space_group_name_H-M "C 2/M"
_symmetry_group_IT_number 12
_symmetry_cell_setting 'monoclinic'
loop_
_space_group_symop_operation_xyz
x,y,z
-x,y,-z
-x,-y,-z
x,-y,z
1/2+x,1/2+y,z
1/2-x,1/2+y,-z
1/2-x,1/2-y,-z
1/2+x,1/2-y,z
loop_
_atom_site_type_symbol
_atom_site_label
_atom_site_fract_x
_atom_site_fract_y
_atom_site_fract_z
Si Si1 0.363594 0.000000 0.562266
Si Si2 0.330103 0.833016 0.754631
Si Si3 0.029524 0.128866 0.164211
Si Si4 0.882040 0.500000 0.288907
Si Si5 0.500000 0.000000 0.000000
Si Si6 0.331777 0.750320 0.162562
O O1 0.324772 0.106300 0.618743
O O2 0.339579 0.000000 0.402791
O O3 0.491241 0.000000 0.642513
O O4 0.367937 0.704754 0.761668
O O5 0.221429 0.823659 0.761531
O O6 0.419191 0.901251 0.890462
O O7 0.938748 0.193407 0.183257
O O8 0.041738 0.000000 0.214099
O O9 0.000000 0.126710 0.000000
O O10 0.848085 0.382445 0.205437
O O11 0.250000 0.750000 0.000000
#
# Coordination Sequence:
#
# PCOD9202659 Si02
#       6
#     4   8   8   4   2   8
#     4  10  24  47  69  89 129 191 229 265 316 402
#     4  11  22  39  68  92 131 178 217 274 325 390
#     4  11  23  39  56  94 142 167 204 268 342 396
#     4  11  26  45  68  96 133 174 228 274 328 397
#     4  10  20  38  62  96 126 162 220 268 318 380
#     4  12  25  38  68 103 130 168 217 282 336 392
#
# _framework density 21.081607999999999
#
# number of rings (size 3 to 8) (size 9 to 14) (size 15 to 20)
#    0.000    0.941    5.882    0.000    9.882    0.941 
#    0.000    0.000    0.000    1.412    0.000    0.000 
#    0.000    0.000    0.000    0.000    0.000    0.000 
#
# Total GULP energy -94818.402845 kJ/mol
# GULP energy per Si atom -5577.553109 kJ/mol
# Density = 2.103363 g / cm^3
# Si number density = 21.081608 Si / 1000 Ang^3
#
#
#
# Elastic Constant Matrix: (Units=GPa)
#
#
# Indices 1 2 3 4 5 6 
#
# 1 124.0154 33.2347 23.4427 0.0000 -28.5739 0.0000
# 2 33.2347 175.4372 50.1738 0.0000 -16.9150 0.0000
# 3 23.4427 50.1738 48.7684 0.0000 -19.9510 0.0000
# 4 0.0000 0.0000 0.0000 12.8378 0.0000 -19.3584
# 5 -28.5739 -16.9150 -19.9510 0.0000 29.1275 0.0000
# 6 0.0000 0.0000 0.0000 -19.3584 0.0000 40.9387
#
#
#
# Elastic Compliance Matrix: (Units=1/GPa)
#
#
# Indices 1 2 3 4 5 6 
#
# 1 0.010603 -0.001066 0.000003 0.000000 0.009784 0.000000
# 2 -0.001066 0.008224 -0.008923 0.000000 -0.002382 0.000000
# 3 0.000003 -0.008923 0.038297 0.000000 0.021052 0.000000
# 4 0.000000 0.000000 0.000000 0.271448 0.000000 0.128357
# 5 0.009784 -0.002382 0.021052 0.000000 0.056967 0.000000
# 6 0.000000 0.000000 0.000000 0.128357 0.000000 0.085122
#
#
# Mechanical properties :
#
#
# Convention : Reuss Voigt Hill
#
# Bulk Modulus (GPa) = 26.91750 62.43596 44.67673
# Shear Modulus (GPa) = 9.94002 32.67212 21.30607
#
# Velocity S-wave (km/s) = 2.17376 3.94101 3.18252
# Velocity P-wave (km/s) = 4.36993 7.09855 5.89431
#
# Compressibility (1/GPa) = 0.03715055
#
# Stress axis : x y z
#
# Youngs Moduli (GPa) = 94.31242 121.59016 26.11202
#
# Poissons Ratio (x) = 0.12962 -0.00007
# Poissons Ratio (y) = 0.10054 0.23301
# Poissons Ratio (z) = -0.00025 1.08498
#
# Static dielectric constant tensor:
#      x y z
#    x 1.649390 0.000000 -0.002800 
#    y 0.000000 1.759250 0.000000 
#    z -0.002800 0.000000 1.765570 
# 
# From -- ./inp_files/140684.got.cif
#   From: 2010.05.17/outbox.cif.g08.bks.cpg/sg12_71_cif.got.tgz:140684.got - 2010.06.03 13:09:07.
