data_PCOD9202128
_publ_section_title
;
Structure prediction by ZEFSAII (Michael W. Deem and Ramdas Pophale) SiO2 
 PCOD9202128
Probable space group: C 2/M
;
_chemical_formula_sum "Si O2"
_cell_formula_units_Z 64
_cell_length_a 13.808682
_cell_length_b 17.290124
_cell_length_c 13.610914
_cell_angle_alpha 90.000000
_cell_angle_beta 94.954515
_cell_angle_gamma 90.000000
_cell_volume 3237.515660
_symmetry_space_group_name_H-M "C 2/M"
_symmetry_group_IT_number 12
_symmetry_cell_setting 'monoclinic'
loop_
_space_group_symop_operation_xyz
x,y,z
-x,y,-z
-x,-y,-z
x,-y,z
1/2+x,1/2+y,z
1/2-x,1/2+y,-z
1/2-x,1/2-y,-z
1/2+x,1/2-y,z
loop_
_atom_site_type_symbol
_atom_site_label
_atom_site_fract_x
_atom_site_fract_y
_atom_site_fract_z
Si Si1 0.297666 0.300619 0.693378
Si Si2 0.608156 0.091279 0.017784
Si Si3 0.633297 0.315453 0.653515
Si Si4 0.472221 0.197847 0.700398
Si Si5 0.658740 0.588345 0.471293
Si Si6 0.643484 0.907780 0.795587
Si Si7 0.366252 0.917144 0.587541
Si Si8 0.237723 0.412096 0.207691
O O1 0.221922 0.242443 0.633245
O O2 0.380836 0.242693 0.742634
O O3 0.351162 0.356919 0.622262
O O4 0.229036 0.356022 0.754148
O O5 0.676082 0.119920 0.111392
O O6 0.594833 0.000000 0.041607
O O7 0.500000 0.125815 0.000000
O O8 0.654023 0.096152 0.914156
O O9 0.544952 0.263901 0.675759
O O10 0.612577 0.374363 0.564170
O O11 0.672035 0.360753 0.752341
O O12 0.539220 0.132649 0.760129
O O13 0.433763 0.156348 0.597984
O O14 0.628532 0.500000 0.452958
O O15 0.774557 0.587710 0.508154
O O16 0.644526 0.000000 0.767675
O O17 0.324786 0.916813 0.696544
O O18 0.415254 0.000000 0.576235
O O19 0.267845 0.500000 0.187392
#
# Coordination Sequence:
#
# PCOD9202128 Si02
#       8
#     8   8   8   8   8   8   8   8
#     4  11  22  38  56  82 120 156 188 238 302 347
#     4   9  17  30  59  93 114 141 190 243 287 335
#     4  10  21  35  56  83 116 150 192 235 292 347
#     4  11  21  35  57  82 118 153 192 235 295 344
#     4  10  20  38  59  80 108 149 198 242 284 339
#     4  10  22  40  60  87 119 153 196 240 287 351
#     4   9  17  32  59  84 108 144 188 235 288 340
#     4   9  16  32  57  83 111 143 186 236 280 333
#
# _framework density 19.768243999999999
#
# number of rings (size 3 to 8) (size 9 to 14) (size 15 to 20)
#    0.000    2.125    2.500    3.000    0.000    2.500 
#    2.250    5.625    2.750    3.750    0.000    2.625 
#    0.000    0.000    0.000    0.000    0.000    0.000 
#
# Total GULP energy -178376.935705 kJ/mol
# GULP energy per Si atom -5574.279241 kJ/mol
# Density = 1.972325 g / cm^3
# Si number density = 19.768244 Si / 1000 Ang^3
#
#
#
# Elastic Constant Matrix: (Units=GPa)
#
#
# Indices 1 2 3 4 5 6 
#
# 1 74.6821 44.3795 12.6385 0.0000 2.2681 0.0000
# 2 44.3795 135.7033 34.4613 0.0000 6.8067 0.0000
# 3 12.6385 34.4613 45.3103 0.0000 7.7527 0.0000
# 4 0.0000 0.0000 0.0000 11.3167 0.0000 8.2384
# 5 2.2681 6.8067 7.7527 0.0000 11.5202 0.0000
# 6 0.0000 0.0000 0.0000 8.2384 0.0000 27.6760
#
#
#
# Elastic Compliance Matrix: (Units=1/GPa)
#
#
# Indices 1 2 3 4 5 6 
#
# 1 0.016635 -0.005285 -0.000672 0.000000 0.000300 0.000000
# 2 -0.005285 0.010819 -0.006598 0.000000 -0.000911 0.000000
# 3 -0.000672 -0.006598 0.030046 0.000000 -0.016189 0.000000
# 4 0.000000 0.000000 0.000000 0.112812 0.000000 -0.033581
# 5 0.000300 -0.000911 -0.016189 0.000000 0.098178 0.000000
# 6 0.000000 0.000000 0.000000 -0.033581 0.000000 0.046129
#
#
# Mechanical properties :
#
#
# Convention : Reuss Voigt Hill
#
# Bulk Modulus (GPa) = 30.87401 48.73936 39.80668
# Shear Modulus (GPa) = 14.26438 21.05036 17.65737
#
# Velocity S-wave (km/s) = 2.68914 3.26676 2.99192
# Velocity P-wave (km/s) = 5.02930 6.24002 5.66708
#
# Compressibility (1/GPa) = 0.03238970
#
# Stress axis : x y z
#
# Youngs Moduli (GPa) = 60.11402 92.43389 33.28256
#
# Poissons Ratio (x) = 0.48847 0.02237
# Poissons Ratio (y) = 0.31768 0.21960
# Poissons Ratio (z) = 0.04040 0.60990
#
# Static dielectric constant tensor:
#      x y z
#    x 1.759470 0.000000 0.006650 
#    y 0.000000 1.744620 0.000000 
#    z 0.006650 0.000000 1.683960 
# 
# From -- ./inp_files/215920.got.cif
#   From: 2010.05.17/outbox.cif.g08.bks.cpg/sg12_108_cif.got.tgz:215920.got - 2010.06.03 13:09:07.
