data_PCOD9202484
_publ_section_title
;
Structure prediction by ZEFSAII (Michael W. Deem and Ramdas Pophale) SiO2 
 PCOD9202484
Probable space group: C 2/M
;
_chemical_formula_sum "Si O2"
_cell_formula_units_Z 42
_cell_length_a 5.701462
_cell_length_b 28.536312
_cell_length_c 10.059210
_cell_angle_alpha 90.000000
_cell_angle_beta 95.521478
_cell_angle_gamma 90.000000
_cell_volume 1629.026783
_symmetry_space_group_name_H-M "C 2/M"
_symmetry_group_IT_number 12
_symmetry_cell_setting 'monoclinic'
loop_
_space_group_symop_operation_xyz
x,y,z
-x,y,-z
-x,-y,-z
x,-y,z
1/2+x,1/2+y,z
1/2-x,1/2+y,-z
1/2-x,1/2-y,-z
1/2+x,1/2-y,z
loop_
_atom_site_type_symbol
_atom_site_label
_atom_site_fract_x
_atom_site_fract_y
_atom_site_fract_z
Si Si1 0.255356 0.329423 0.470131
Si Si2 0.304266 0.421125 0.655131
Si Si3 0.171240 0.948916 0.884384
Si Si4 0.479588 0.764722 0.149991
Si Si5 0.549639 0.869115 0.189056
Si Si6 0.000000 0.500000 0.500000
O O1 0.500000 0.301321 0.500000
O O2 0.304097 0.372948 0.572913
O O3 0.207768 0.351566 0.322776
O O4 0.000000 0.309158 0.500000
O O5 0.535248 0.441716 0.737184
O O6 0.185034 0.459439 0.558082
O O7 0.132796 0.407199 0.766736
O O8 0.299740 0.899162 0.905091
O O9 0.297896 0.000000 0.881649
O O10 0.000000 0.952454 0.000000
O O11 0.249750 0.744474 0.212527
O O12 0.437959 0.820323 0.138540
O O13 0.500000 0.744801 0.000000
#
# Coordination Sequence:
#
# PCOD9202484 Si02
#       6
#     8   8   8   8   8   2
#     4  10  20  38  61  97 127 172 225 285 332 411
#     4  11  23  39  63  97 137 181 245 285 350 410
#     4  11  26  40  59  98 144 190 237 288 348 430
#     4  10  25  46  72 106 137 178 240 302 359 435
#     4  11  24  40  70  96 138 183 233 295 368 416
#     4  12  20  40  64 102 132 190 250 306 326 420
#
# _framework density 25.782264999999999
#
# number of rings (size 3 to 8) (size 9 to 14) (size 15 to 20)
#    0.000    1.333    5.714    0.000    6.667    0.762 
#    0.000    4.286    0.000   14.857    0.000    0.000 
#    0.000    0.000    0.000    0.000    0.000    0.000 
#
# Total GULP energy -117051.714587 kJ/mol
# GULP energy per Si atom -5573.891171 kJ/mol
# Density = 2.572358 g / cm^3
# Si number density = 25.782265 Si / 1000 Ang^3
#
#
#
# Elastic Constant Matrix: (Units=GPa)
#
#
# Indices 1 2 3 4 5 6 
#
# 1 144.6071 39.8764 7.6900 0.0000 11.2468 0.0000
# 2 39.8764 132.8794 -12.4313 0.0000 -3.6058 0.0000
# 3 7.6900 -12.4313 74.1939 0.0000 22.3097 0.0000
# 4 0.0000 0.0000 0.0000 2.1025 0.0000 22.3899
# 5 11.2468 -3.6058 22.3097 0.0000 52.0103 0.0000
# 6 0.0000 0.0000 0.0000 22.3899 0.0000 22.4651
#
#
#
# Elastic Compliance Matrix: (Units=1/GPa)
#
#
# Indices 1 2 3 4 5 6 
#
# 1 0.007745 -0.002436 -0.000754 0.000000 -0.001520 0.000000
# 2 -0.002436 0.008412 0.001525 0.000000 0.000456 0.000000
# 3 -0.000754 0.001525 0.015764 0.000000 -0.006493 0.000000
# 4 0.000000 0.000000 0.000000 -0.049474 0.000000 0.049309
# 5 -0.001520 0.000456 -0.006493 0.000000 0.022373 0.000000
# 6 0.000000 0.000000 0.000000 0.049309 0.000000 -0.004630
#
#
# Mechanical properties :
#
#
# Convention : Reuss Voigt Hill
#
# Bulk Modulus (GPa) = 34.97576 46.88340 40.92958
# Shear Modulus (GPa) = 383.14403 36.41861 209.78132
#
# Velocity S-wave (km/s) = 12.20370 3.76246 9.03013
# Velocity P-wave (km/s) = 14.56602 6.09087 11.16395
#
# Compressibility (1/GPa) = 0.02859123
#
# Stress axis : x y z
#
# Youngs Moduli (GPa) = 129.10886 118.88194 63.43435
#
# Poissons Ratio (x) = 0.28961 0.04782
# Poissons Ratio (y) = 0.31453 -0.09672
# Poissons Ratio (z) = 0.09732 -0.18127
#
# Static dielectric constant tensor:
#      x y z
#    x 2.014360 0.000000 0.061270 
#    y 0.000000 1.908890 0.000000 
#    z 0.061270 0.000000 2.055940 
# 
# From -- ./inp_files/116124.got.cif
#   From: 2010.05.17/outbox.cif.g08.bks.cpg/sg12_59_cif.got.tgz:116124.got - 2010.06.03 13:09:07.
