data_PCOD9202392
_publ_section_title
;
Structure prediction by ZEFSAII (Michael W. Deem and Ramdas Pophale) SiO2 
 PCOD9202392
Probable space group: C 2/M
;
_chemical_formula_sum "Si O2"
_cell_formula_units_Z 50
_cell_length_a 13.723001
_cell_length_b 8.264472
_cell_length_c 20.959428
_cell_angle_alpha 90.000000
_cell_angle_beta 109.663040
_cell_angle_gamma 90.000000
_cell_volume 2238.466390
_symmetry_space_group_name_H-M "C 2/M"
_symmetry_group_IT_number 12
_symmetry_cell_setting 'monoclinic'
loop_
_space_group_symop_operation_xyz
x,y,z
-x,y,-z
-x,-y,-z
x,-y,z
1/2+x,1/2+y,z
1/2-x,1/2+y,-z
1/2-x,1/2-y,-z
1/2+x,1/2-y,z
loop_
_atom_site_type_symbol
_atom_site_label
_atom_site_fract_x
_atom_site_fract_y
_atom_site_fract_z
Si Si1 0.752874 0.688986 0.689547
Si Si2 0.547743 0.813259 0.207860
Si Si3 0.326862 0.688381 0.571080
Si Si4 0.500000 0.000000 0.000000
Si Si5 0.650728 0.321207 0.900507
Si Si6 0.466239 0.816515 0.334881
Si Si7 0.362836 0.317716 0.948551
O O1 0.778142 0.500000 0.684226
O O2 0.833834 0.745836 0.761846
O O3 0.775185 0.780001 0.628561
O O4 0.634104 0.707069 0.680966
O O5 0.462408 0.720921 0.149242
O O6 0.510113 0.803795 0.273021
O O7 0.544498 0.000000 0.186744
O O8 0.345262 0.500000 0.566155
O O9 0.250000 0.750000 0.500000
O O10 0.438518 0.774015 0.598127
O O11 0.426660 0.850098 0.952215
O O12 0.679082 0.500000 0.884852
O O13 0.743854 0.204502 0.900105
O O14 0.644969 0.320039 0.975880
O O15 0.432404 0.000000 0.338767
O O16 0.400309 0.500000 0.937100
#
# Coordination Sequence:
#
# PCOD9202392 Si02
#       7
#     8   8   8   2   8   8   8
#     4  10  21  39  59  86 119 154 195 241 292 347
#     4   9  20  37  59  83 117 158 198 242 293 350
#     4  11  22  38  61  87 116 153 193 239 292 348
#     4  12  22  40  60  94 116 154 194 252 306 354
#     4  10  20  38  61  86 112 158 200 238 294 365
#     4  10  21  39  59  86 120 154 195 242 292 347
#     4  10  22  39  61  86 122 154 196 248 303 356
#
# _framework density 22.336721000000001
#
# number of rings (size 3 to 8) (size 9 to 14) (size 15 to 20)
#    0.000    1.920    0.800    4.080    2.240    4.480 
#    2.880    3.200    0.000    0.000    0.000    0.000 
#    0.000    0.000    0.000    0.000    0.000    0.000 
#
# Total GULP energy -139375.692001 kJ/mol
# GULP energy per Si atom -5575.027680 kJ/mol
# Density = 2.228588 g / cm^3
# Si number density = 22.336721 Si / 1000 Ang^3
#
#
#
# Elastic Constant Matrix: (Units=GPa)
#
#
# Indices 1 2 3 4 5 6 
#
# 1 84.3383 16.8796 32.1834 0.0000 31.4008 0.0000
# 2 16.8796 113.2511 27.4679 0.0000 4.2188 0.0000
# 3 32.1834 27.4679 102.7042 0.0000 38.0486 0.0000
# 4 0.0000 0.0000 0.0000 26.6880 0.0000 8.7749
# 5 31.4008 4.2188 38.0486 0.0000 32.1133 0.0000
# 6 0.0000 0.0000 0.0000 8.7749 0.0000 36.1781
#
#
#
# Elastic Compliance Matrix: (Units=1/GPa)
#
#
# Indices 1 2 3 4 5 6 
#
# 1 0.019564 -0.002769 0.002785 0.000000 -0.022066 0.000000
# 2 -0.002769 0.010013 -0.004146 0.000000 0.006305 0.000000
# 3 0.002785 -0.004146 0.019213 0.000000 -0.024943 0.000000
# 4 0.000000 0.000000 0.000000 0.040717 0.000000 -0.009876
# 5 -0.022066 0.006305 -0.024943 0.000000 0.081440 0.000000
# 6 0.000000 0.000000 0.000000 -0.009876 0.000000 0.030036
#
#
# Mechanical properties :
#
#
# Convention : Reuss Voigt Hill
#
# Bulk Modulus (GPa) = 24.67330 50.37280 37.52305
# Shear Modulus (GPa) = 22.44613 33.91340 28.17977
#
# Velocity S-wave (km/s) = 3.17345 3.90074 3.55574
# Velocity P-wave (km/s) = 4.94952 6.54891 5.80457
#
# Compressibility (1/GPa) = 0.04052965
#
# Stress axis : x y z
#
# Youngs Moduli (GPa) = 51.11402 99.86646 52.04710
#
# Poissons Ratio (x) = 0.27656 -0.14493
# Poissons Ratio (y) = 0.14155 0.21578
# Poissons Ratio (z) = -0.14233 0.41403
#
# Static dielectric constant tensor:
#      x y z
#    x 1.726410 0.000000 -0.075790 
#    y 0.000000 1.813020 0.000000 
#    z -0.075790 0.000000 1.761520 
# 
# From -- ./inp_files/338248.got.cif
#   From: 2010.05.17/outbox.cif.g08.bks.cpg/sg12_170_cif.got.tgz:338248.got - 2010.06.03 13:09:07.
