data_PCOD9202574
_publ_section_title
;
Structure prediction by ZEFSAII (Michael W. Deem and Ramdas Pophale) SiO2 
 PCOD9202574
Probable space group: C 2/M
;
_chemical_formula_sum "Si O2"
_cell_formula_units_Z 42
_cell_length_a 8.853393
_cell_length_b 14.806521
_cell_length_c 15.901871
_cell_angle_alpha 90.000000
_cell_angle_beta 101.363383
_cell_angle_gamma 90.000000
_cell_volume 2043.680966
_symmetry_space_group_name_H-M "C 2/M"
_symmetry_group_IT_number 12
_symmetry_cell_setting 'monoclinic'
loop_
_space_group_symop_operation_xyz
x,y,z
-x,y,-z
-x,-y,-z
x,-y,z
1/2+x,1/2+y,z
1/2-x,1/2+y,-z
1/2-x,1/2-y,-z
1/2+x,1/2-y,z
loop_
_atom_site_type_symbol
_atom_site_label
_atom_site_fract_x
_atom_site_fract_y
_atom_site_fract_z
Si Si1 0.962722 0.151243 0.407249
Si Si2 0.188346 0.652726 0.595710
Si Si3 0.500000 0.000000 0.500000
Si Si4 0.600241 0.151944 0.769657
Si Si5 0.850222 0.500000 0.097503
Si Si6 0.737251 0.648917 0.767107
Si Si7 0.781740 0.500000 0.902063
O O1 0.884761 0.247930 0.421544
O O2 0.850343 0.110865 0.324711
O O3 0.000000 0.105161 0.500000
O O4 0.128873 0.164399 0.383023
O O5 0.131802 0.580793 0.521602
O O6 0.129461 0.615217 0.678974
O O7 0.675413 0.087637 0.847645
O O8 0.670051 0.251990 0.777021
O O9 0.418060 0.154636 0.766398
O O10 0.033393 0.500000 0.095342
O O11 0.761521 0.500000 0.999692
O O12 0.716715 0.586407 0.845998
#
# Coordination Sequence:
#
# PCOD9202574 Si02
#       7
#     8   8   2   8   4   8   4
#     4  11  22  39  63  82 115 165 202 241 288 356
#     4  11  23  39  60  84 119 155 201 248 294 345
#     4  12  26  34  56  84 116 150 192 260 286 344
#     4  10  20  38  62  88 117 161 194 246 299 360
#     4   9  19  38  64  86 119 156 196 237 303 369
#     4  10  21  37  62  88 121 156 200 248 298 348
#     4   9  20  39  60  89 119 154 195 248 295 365
#
# _framework density 20.551152999999999
#
# number of rings (size 3 to 8) (size 9 to 14) (size 15 to 20)
#    0.000    1.714    0.952    5.714    2.667    1.524 
#    0.000    3.810    0.000    8.000    0.000    0.000 
#    0.000    0.000    0.000    0.000    0.000    0.000 
#
# Total GULP energy -117028.407855 kJ/mol
# GULP energy per Si atom -5572.781326 kJ/mol
# Density = 2.050438 g / cm^3
# Si number density = 20.551153 Si / 1000 Ang^3
#
#
#
# Elastic Constant Matrix: (Units=GPa)
#
#
# Indices 1 2 3 4 5 6 
#
# 1 96.3372 15.3850 21.6370 0.0000 9.3334 0.0000
# 2 15.3850 85.2486 32.5411 0.0000 13.0806 0.0000
# 3 21.6370 32.5411 156.6053 0.0000 7.4446 0.0000
# 4 0.0000 0.0000 0.0000 33.5683 0.0000 -1.1106
# 5 9.3334 13.0806 7.4446 0.0000 23.9806 0.0000
# 6 0.0000 0.0000 0.0000 -1.1106 0.0000 -12.4747
#
#
#
# Elastic Compliance Matrix: (Units=1/GPa)
#
#
# Indices 1 2 3 4 5 6 
#
# 1 0.011137 -0.001045 -0.001160 0.000000 -0.003405 0.000000
# 2 -0.001045 0.013824 -0.002425 0.000000 -0.006381 0.000000
# 3 -0.001160 -0.002425 0.007070 0.000000 -0.000421 0.000000
# 4 0.000000 0.000000 0.000000 0.029702 0.000000 -0.002644
# 5 -0.003405 -0.006381 -0.000421 0.000000 0.046637 0.000000
# 6 0.000000 0.000000 0.000000 -0.002644 0.000000 -0.079927
#
#
# Mechanical properties :
#
#
# Convention : Reuss Voigt Hill
#
# Bulk Modulus (GPa) = 43.91390 53.03526 48.47458
# Shear Modulus (GPa) = 110.39375 26.92338 68.65857
#
# Velocity S-wave (km/s) = 7.33711 3.62341 5.78629
# Velocity P-wave (km/s) = 9.65360 6.58544 8.26317
#
# Compressibility (1/GPa) = 0.02277183
#
# Stress axis : x y z
#
# Youngs Moduli (GPa) = 89.78741 72.33992 141.45156
#
# Poissons Ratio (x) = 0.07558 0.16406
# Poissons Ratio (y) = 0.09381 0.34298
# Poissons Ratio (z) = 0.10414 0.17540
#
# Static dielectric constant tensor:
#      x y z
#    x 1.722720 0.000000 -0.005570 
#    y 0.000000 1.744490 0.000000 
#    z -0.005570 0.000000 1.778500 
# 
# From -- ./inp_files/255544.got.cif
#   From: 2010.05.17/outbox.cif.g08.bks.cpg/sg12_128_cif.got.tgz:255544.got - 2010.06.03 13:09:07.
