data_PCOD9202312
_publ_section_title
;
Structure prediction by ZEFSAII (Michael W. Deem and Ramdas Pophale) SiO2 
 PCOD9202312
Probable space group: C 2/M
;
_chemical_formula_sum "Si O2"
_cell_formula_units_Z 40
_cell_length_a 5.495182
_cell_length_b 19.116583
_cell_length_c 18.329843
_cell_angle_alpha 90.000000
_cell_angle_beta 127.868441
_cell_angle_gamma 90.000000
_cell_volume 1520.059169
_symmetry_space_group_name_H-M "C 2/M"
_symmetry_group_IT_number 12
_symmetry_cell_setting 'monoclinic'
loop_
_space_group_symop_operation_xyz
x,y,z
-x,y,-z
-x,-y,-z
x,-y,z
1/2+x,1/2+y,z
1/2-x,1/2+y,-z
1/2-x,1/2-y,-z
1/2+x,1/2-y,z
loop_
_atom_site_type_symbol
_atom_site_label
_atom_site_fract_x
_atom_site_fract_y
_atom_site_fract_z
Si Si1 0.345647 0.783742 0.370705
Si Si2 0.972451 0.578252 0.215199
Si Si3 0.648658 0.079042 0.414359
Si Si4 0.166692 0.082600 0.957363
Si Si5 0.014123 0.727988 0.837860
O O1 0.669743 0.751422 0.404825
O O2 0.406405 0.864493 0.397738
O O3 0.143783 0.768852 0.260306
O O4 0.035976 0.500000 0.196515
O O5 0.599876 0.584943 0.152526
O O6 0.066274 0.646087 0.186818
O O7 0.121260 0.583282 0.321623
O O8 0.000000 0.094114 0.500000
O O9 0.572861 0.000000 0.422856
O O10 0.219497 0.000000 0.981345
O O11 0.500000 0.112998 0.000000
O O12 0.000000 0.109373 0.000000
O O13 0.371267 0.741264 0.884757
#
# Coordination Sequence:
#
# PCOD9202312 Si02
#       5
#     8   8   8   8   8
#     4  10  20  40  62  89 120 170 212 264 305 372
#     4  10  20  38  65  95 129 171 211 264 327 374
#     4  10  21  39  63  97 135 170 215 266 317 379
#     4   9  19  37  61  93 124 156 208 265 314 376
#     4  10  20  38  60  91 123 166 208 263 305 379
#
# _framework density 26.314767
#
# number of rings (size 3 to 8) (size 9 to 14) (size 15 to 20)
#    0.000    2.200    4.000    0.000    0.000    2.400 
#    0.000    8.000    0.000    6.000    0.000    0.000 
#    0.000    0.000    0.000    0.000    0.000    0.000 
#
# Total GULP energy -111978.001363 kJ/mol
# GULP energy per Si atom -5598.900068 kJ/mol
# Density = 2.625487 g / cm^3
# Si number density = 26.314767 Si / 1000 Ang^3
#
#
#
# Elastic Constant Matrix: (Units=GPa)
#
#
# Indices 1 2 3 4 5 6 
#
# 1 163.4539 49.4134 40.1927 0.0000 25.4119 0.0000
# 2 49.4134 177.8573 12.1906 0.0000 5.8084 0.0000
# 3 40.1927 12.1906 148.5133 0.0000 -3.7662 0.0000
# 4 0.0000 0.0000 0.0000 32.1683 0.0000 5.5082
# 5 25.4119 5.8084 -3.7662 0.0000 30.1933 0.0000
# 6 0.0000 0.0000 0.0000 5.5082 0.0000 -0.2059
#
#
#
# Elastic Compliance Matrix: (Units=1/GPa)
#
#
# Indices 1 2 3 4 5 6 
#
# 1 0.008339 -0.001935 -0.002274 0.000000 -0.006930 0.000000
# 2 -0.001935 0.006143 0.000031 0.000000 0.000450 0.000000
# 3 -0.002274 0.000031 0.007418 0.000000 0.002833 0.000000
# 4 0.000000 0.000000 0.000000 0.005571 0.000000 0.149015
# 5 -0.006930 0.000450 0.002833 0.000000 0.039219 0.000000
# 6 0.000000 0.000000 0.000000 0.149015 0.000000 -0.870256
#
#
# Mechanical properties :
#
#
# Convention : Reuss Voigt Hill
#
# Bulk Modulus (GPa) = 73.82769 77.04642 75.43706
# Shear Modulus (GPa) = -6.32356 38.29964 15.98804
#
# Velocity S-wave (km/s) = -1.55186 3.81917 2.46757
# Velocity P-wave (km/s) = 4.99054 6.98501 6.07025
#
# Compressibility (1/GPa) = 0.01354505
#
# Stress axis : x y z
#
# Youngs Moduli (GPa) = 119.91305 162.78205 134.80532
#
# Poissons Ratio (x) = 0.31494 0.30653
# Poissons Ratio (y) = 0.23200 -0.00415
# Poissons Ratio (z) = 0.27266 -0.00501
#
# Static dielectric constant tensor:
#      x y z
#    x 2.055660 0.000000 0.036010 
#    y 0.000000 2.084590 0.000000 
#    z 0.036010 0.000000 2.099920 
# 
# From -- ./inp_files/331303.got.cif
#   From: 2010.05.17/outbox.cif.g08.bks.cpg/sg12_166_cif.got.tgz:331303.got - 2010.06.03 13:09:07.
