data_PCOD9202227
_publ_section_title
;
Structure prediction by ZEFSAII (Michael W. Deem and Ramdas Pophale) SiO2 
 PCOD9202227
Probable space group: C 2/M
;
_chemical_formula_sum "Si O2"
_cell_formula_units_Z 48
_cell_length_a 30.687302
_cell_length_b 8.710699
_cell_length_c 19.278421
_cell_angle_alpha 90.000000
_cell_angle_beta 150.434429
_cell_angle_gamma 90.000000
_cell_volume 2542.724489
_symmetry_space_group_name_H-M "C 2/M"
_symmetry_group_IT_number 12
_symmetry_cell_setting 'monoclinic'
loop_
_space_group_symop_operation_xyz
x,y,z
-x,y,-z
-x,-y,-z
x,-y,z
1/2+x,1/2+y,z
1/2-x,1/2+y,-z
1/2-x,1/2-y,-z
1/2+x,1/2-y,z
loop_
_atom_site_type_symbol
_atom_site_label
_atom_site_fract_x
_atom_site_fract_y
_atom_site_fract_z
Si Si1 0.954644 0.824751 0.362662
Si Si2 0.902360 0.812816 0.887872
Si Si3 0.731179 0.181148 0.899604
Si Si4 0.760035 0.684997 0.436061
Si Si5 0.554068 0.314399 0.359210
Si Si6 0.105657 0.812820 0.964493
O O1 0.868646 0.723566 0.254038
O O2 0.000000 0.827993 0.500000
O O3 0.016301 0.774191 0.383572
O O4 0.926938 0.000000 0.306254
O O5 0.823223 0.765011 0.727148
O O6 0.892457 0.761562 0.953534
O O7 0.901052 0.000000 0.885431
O O8 0.000000 0.764420 0.000000
O O9 0.805014 0.240724 0.949004
O O10 0.741562 0.000000 0.916450
O O11 0.750000 0.250000 0.000000
O O12 0.759725 0.500000 0.438811
O O13 0.750000 0.750000 0.500000
O O14 0.852006 0.741305 0.529744
O O15 0.563296 0.500000 0.369515
O O16 0.479761 0.268498 0.199411
O O17 0.104582 0.000000 0.963803
#
# Coordination Sequence:
#
# PCOD9202227 Si02
#       6
#     8   8   8   8   8   8
#     4  10  22  39  58  84 121 162 201 242 296 354
#     4   9  18  34  58  84 107 139 185 233 278 334
#     4  11  21  36  59  85 118 157 202 248 290 346
#     4  11  23  38  60  87 115 146 187 234 287 348
#     4  10  20  38  60  82 115 155 190 232 290 347
#     4   9  18  34  57  83 111 147 192 237 284 336
#
# _framework density 18.877389999999998
#
# number of rings (size 3 to 8) (size 9 to 14) (size 15 to 20)
#    0.000    2.000    1.667    2.000    2.333    3.667 
#    0.000    0.000    0.000    9.000    0.000    0.000 
#    0.000    0.000    0.000    0.000    0.000    0.000 
#
# Total GULP energy -133911.908660 kJ/mol
# GULP energy per Si atom -5579.662861 kJ/mol
# Density = 1.883442 g / cm^3
# Si number density = 18.877390 Si / 1000 Ang^3
#
#
#
# Elastic Constant Matrix: (Units=GPa)
#
#
# Indices 1 2 3 4 5 6 
#
# 1 210.1380 31.1873 116.5674 0.0000 4.2816 0.0000
# 2 31.1873 24.4546 34.7243 0.0000 4.0061 0.0000
# 3 116.5674 34.7243 158.1944 0.0000 2.3360 0.0000
# 4 0.0000 0.0000 0.0000 24.0938 0.0000 7.9368
# 5 4.2816 4.0061 2.3360 0.0000 37.1401 0.0000
# 6 0.0000 0.0000 0.0000 7.9368 0.0000 25.5786
#
#
#
# Elastic Compliance Matrix: (Units=1/GPa)
#
#
# Indices 1 2 3 4 5 6 
#
# 1 0.008175 -0.002655 -0.005436 0.000000 -0.000314 0.000000
# 2 -0.002655 0.061455 -0.011451 0.000000 -0.005603 0.000000
# 3 -0.005436 -0.011451 0.012825 0.000000 0.001055 0.000000
# 4 0.000000 0.000000 0.000000 0.046230 0.000000 -0.014345
# 5 -0.000314 -0.005603 0.001055 0.000000 0.027499 0.000000
# 6 0.000000 0.000000 0.000000 -0.014345 0.000000 0.043546
#
#
# Mechanical properties :
#
#
# Convention : Reuss Voigt Hill
#
# Bulk Modulus (GPa) = 23.05679 84.19389 53.62534
# Shear Modulus (GPa) = 19.74176 31.38305 25.56241
#
# Velocity S-wave (km/s) = 3.23737 4.08176 3.68384
# Velocity P-wave (km/s) = 5.12002 8.17995 6.82372
#
# Compressibility (1/GPa) = 0.04337118
#
# Stress axis : x y z
#
# Youngs Moduli (GPa) = 122.32698 16.27214 77.97213
#
# Poissons Ratio (x) = 0.04320 0.42389
# Poissons Ratio (y) = 0.32473 0.89284
# Poissons Ratio (z) = 0.66501 0.18633
#
# Static dielectric constant tensor:
#      x y z
#    x 1.631820 0.000000 -0.028410 
#    y 0.000000 1.669250 0.000000 
#    z -0.028410 0.000000 1.617280 
# 
# From -- ./inp_files/229969.got.cif
#   From: 2010.05.17/outbox.cif.g08.bks.cpg/sg12_115_cif.got.tgz:229969.got - 2010.06.03 13:09:07.
