data_PCOD9202796
_publ_section_title
;
Structure prediction by ZEFSAII (Michael W. Deem and Ramdas Pophale) SiO2 
 PCOD9202796
Probable space group: C 2/M
;
_chemical_formula_sum "Si O2"
_cell_formula_units_Z 56
_cell_length_a 15.337457
_cell_length_b 28.782385
_cell_length_c 5.392994
_cell_angle_alpha 90.000000
_cell_angle_beta 82.710594
_cell_angle_gamma 90.000000
_cell_volume 2361.488362
_symmetry_space_group_name_H-M "C 2/M"
_symmetry_group_IT_number 12
_symmetry_cell_setting 'monoclinic'
loop_
_space_group_symop_operation_xyz
x,y,z
-x,y,-z
-x,-y,-z
x,-y,z
1/2+x,1/2+y,z
1/2-x,1/2+y,-z
1/2-x,1/2-y,-z
1/2+x,1/2-y,z
loop_
_atom_site_type_symbol
_atom_site_label
_atom_site_fract_x
_atom_site_fract_y
_atom_site_fract_z
Si Si1 0.229906 0.322394 0.597353
Si Si2 0.447375 0.591811 0.770740
Si Si3 0.090142 0.803390 0.343469
Si Si4 0.100683 0.269410 0.959284
Si Si5 0.747059 0.077796 0.793610
Si Si6 0.580148 0.147561 0.301639
Si Si7 0.145067 0.448473 0.321395
O O1 0.331669 0.314665 0.492081
O O2 0.234619 0.366062 0.786396
O O3 0.172905 0.341610 0.394214
O O4 0.171248 0.279562 0.720367
O O5 0.500000 0.581901 0.500000
O O6 0.434275 0.648134 0.778648
O O7 0.351248 0.569934 0.771442
O O8 0.500000 0.578314 0.000000
O O9 0.137240 0.766089 0.149433
O O10 0.000000 0.785658 0.500000
O O11 0.083539 0.321670 0.059339
O O12 0.000000 0.250086 0.000000
O O13 0.698908 0.059835 0.559763
O O14 0.706681 0.056922 0.057647
O O15 0.500000 0.165273 0.500000
O O16 0.575094 0.092364 0.293926
O O17 0.107399 0.500000 0.342673
#
# Coordination Sequence:
#
# PCOD9202796 Si02
#       7
#     8   8   8   8   8   8   8
#     4  10  22  41  63  87 123 174 215 263 322 381
#     4  10  20  38  63  92 128 172 216 266 319 378
#     4  10  23  40  58  92 129 170 223 267 310 373
#     4  12  22  39  61  89 126 170 213 270 322 376
#     4  10  21  40  65  94 126 166 217 263 323 392
#     4  11  23  41  64  90 126 164 211 265 326 393
#     4  11  23  41  66  94 126 164 209 266 326 393
#
# _framework density 23.713856
#
# number of rings (size 3 to 8) (size 9 to 14) (size 15 to 20)
#    0.000    1.429    2.857    2.571    0.000    2.000 
#    2.571    0.000    0.000   11.571    0.000    0.000 
#    0.000    0.000    0.000    0.000    0.000    0.000 
#
# Total GULP energy -156262.036975 kJ/mol
# GULP energy per Si atom -5580.787035 kJ/mol
# Density = 2.365988 g / cm^3
# Si number density = 23.713856 Si / 1000 Ang^3
#
#
#
# Elastic Constant Matrix: (Units=GPa)
#
#
# Indices 1 2 3 4 5 6 
#
# 1 70.7087 -26.9197 3.3418 0.0000 -3.1791 0.0000
# 2 -26.9197 30.3747 -9.3114 0.0000 -10.6213 0.0000
# 3 3.3418 -9.3114 90.4710 0.0000 -5.9302 0.0000
# 4 0.0000 0.0000 0.0000 16.0371 0.0000 5.7841
# 5 -3.1791 -10.6213 -5.9302 0.0000 34.3071 0.0000
# 6 0.0000 0.0000 0.0000 5.7841 0.0000 5.5898
#
#
#
# Elastic Compliance Matrix: (Units=1/GPa)
#
#
# Indices 1 2 3 4 5 6 
#
# 1 0.024523 0.026297 0.002512 0.000000 0.010848 0.000000
# 2 0.026297 0.067114 0.007543 0.000000 0.024519 0.000000
# 3 0.002512 0.007543 0.012042 0.000000 0.004650 0.000000
# 4 0.000000 0.000000 0.000000 0.099482 0.000000 -0.102940
# 5 0.010848 0.024519 0.004650 0.000000 0.038548 0.000000
# 6 0.000000 0.000000 0.000000 -0.102940 0.000000 0.285416
#
#
# Mechanical properties :
#
#
# Convention : Reuss Voigt Hill
#
# Bulk Modulus (GPa) = 5.66946 13.97508 9.82227
# Shear Modulus (GPa) = 9.74249 26.14971 17.94610
#
# Velocity S-wave (km/s) = 2.02911 3.32432 2.75394
# Velocity P-wave (km/s) = 2.80814 4.54322 3.77667
#
# Compressibility (1/GPa) = 0.17638372
#
# Stress axis : x y z
#
# Youngs Moduli (GPa) = 40.77768 14.89995 83.04521
#
# Poissons Ratio (x) = -0.39183 -0.20859
# Poissons Ratio (y) = -1.07234 -0.62644
# Poissons Ratio (z) = -0.10242 -0.11240
#
# Static dielectric constant tensor:
#      x y z
#    x 2.001390 0.000000 0.026210 
#    y 0.000000 1.921090 0.000000 
#    z 0.026210 0.000000 1.946990 
# 
# From -- ./inp_files/13151.got.cif
#   From: 2010.05.17/outbox.cif.g08.bks.cpg/sg12_7_cif.got.tgz:13151.got - 2010.06.03 13:09:07.
