data_PCOD9202051
_publ_section_title
;
Structure prediction by ZEFSAII (Michael W. Deem and Ramdas Pophale) SiO2 
 PCOD9202051
Probable space group: C 2/M
;
_chemical_formula_sum "Si O2"
_cell_formula_units_Z 56
_cell_length_a 15.590981
_cell_length_b 7.587644
_cell_length_c 25.378246
_cell_angle_alpha 90.000000
_cell_angle_beta 121.017437
_cell_angle_gamma 90.000000
_cell_volume 2572.931022
_symmetry_space_group_name_H-M "C 2/M"
_symmetry_group_IT_number 12
_symmetry_cell_setting 'monoclinic'
loop_
_space_group_symop_operation_xyz
x,y,z
-x,y,-z
-x,-y,-z
x,-y,z
1/2+x,1/2+y,z
1/2-x,1/2+y,-z
1/2-x,1/2-y,-z
1/2+x,1/2-y,z
loop_
_atom_site_type_symbol
_atom_site_label
_atom_site_fract_x
_atom_site_fract_y
_atom_site_fract_z
Si Si1 0.388672 0.702029 0.225466
Si Si2 0.594779 0.710410 0.994220
Si Si3 0.705191 0.717025 0.697501
Si Si4 0.028381 0.785269 0.567393
Si Si5 0.389926 0.201025 0.698209
Si Si6 0.833877 0.791051 0.569465
Si Si7 0.824759 0.213152 0.092178
O O1 0.353177 0.500000 0.211258
O O2 0.333645 0.781001 0.258582
O O3 0.506207 0.701344 0.275208
O O4 0.368697 0.778577 0.161517
O O5 0.579832 0.500000 0.985856
O O6 0.613281 0.777771 0.939757
O O7 0.500000 0.776567 0.000000
O O8 0.706379 0.741561 0.053030
O O9 0.703348 0.500000 0.696405
O O10 0.630206 0.773935 0.627137
O O11 0.817093 0.773039 0.719770
O O12 0.000000 0.723112 0.500000
O O13 0.938734 0.734535 0.577570
O O14 0.031148 0.000000 0.565928
O O15 0.326561 0.205049 0.624100
O O16 0.416140 0.000000 0.718543
O O17 0.750000 0.750000 0.500000
O O18 0.835543 0.000000 0.578252
O O19 0.831456 0.000000 0.092201
#
# Coordination Sequence:
#
# PCOD9202051 Si02
#       7
#     8   8   8   8   8   8   8
#     4  10  20  38  58  77 109 148 187 226 272 327
#     4   9  18  34  55  81 116 151 181 221 277 329
#     4   9  18  34  54  75 102 141 180 217 268 332
#     4   9  16  29  52  75  95 130 175 211 256 322
#     4  11  22  36  56  81 108 139 181 227 275 330
#     4  11  21  35  56  79 107 141 178 224 280 334
#     4   9  19  34  55  82 109 146 190 229 265 317
#
# _framework density 21.765060999999999
#
# number of rings (size 3 to 8) (size 9 to 14) (size 15 to 20)
#    0.000    2.286    1.429    1.714    0.000    4.286 
#    0.000    1.429    0.000    1.714    0.000    0.000 
#    0.000    0.000    0.000    0.000    0.000    0.000 
#
# Total GULP energy -156230.209933 kJ/mol
# GULP energy per Si atom -5579.650355 kJ/mol
# Density = 2.171552 g / cm^3
# Si number density = 21.765061 Si / 1000 Ang^3
#
#
#
# Elastic Constant Matrix: (Units=GPa)
#
#
# Indices 1 2 3 4 5 6 
#
# 1 164.0162 8.1451 47.9749 0.0000 -30.1671 0.0000
# 2 8.1451 49.3257 -3.6100 0.0000 -5.0643 0.0000
# 3 47.9749 -3.6100 120.9067 0.0000 -29.6574 0.0000
# 4 0.0000 0.0000 0.0000 7.9333 0.0000 8.5695
# 5 -30.1671 -5.0643 -29.6574 0.0000 24.9290 0.0000
# 6 0.0000 0.0000 0.0000 8.5695 0.0000 9.2339
#
#
#
# Elastic Compliance Matrix: (Units=1/GPa)
#
#
# Indices 1 2 3 4 5 6 
#
# 1 0.007964 -0.000570 -0.001188 0.000000 0.008108 0.000000
# 2 -0.000570 0.021221 0.002468 -0.000003 0.006558 0.000003
# 3 -0.001188 0.002468 0.012124 0.000000 0.013488 0.000000
# 4 0.000000 -0.000003 0.000000-51.053675 -0.000001 47.380278
# 5 0.008108 0.006558 0.013488 -0.000001 0.067304 0.000001
# 6 0.000000 0.000003 0.000000 47.380278 0.000001-43.862892
#
#
# Mechanical properties :
#
#
# Convention : Reuss Voigt Hill
#
# Bulk Modulus (GPa) = 23.40222 48.80762 36.10492
# Shear Modulus (GPa) = -0.05275 27.20183 13.57454
#
# Velocity S-wave (km/s) = -0.15584 3.53908 2.50008
# Velocity P-wave (km/s) = 3.27768 6.25888 4.99583
#
# Compressibility (1/GPa) = 0.04273098
#
# Stress axis : x y z
#
# Youngs Moduli (GPa) = 125.56286 47.12215 82.47819
#
# Poissons Ratio (x) = 0.02684 0.09800
# Poissons Ratio (y) = 0.07152 -0.20358
# Poissons Ratio (z) = 0.14920 -0.11631
#
# Static dielectric constant tensor:
#      x y z
#    x 1.790700 0.000000 -0.026230 
#    y 0.000000 1.824480 0.000000 
#    z -0.026230 0.000000 1.781850 
# 
# From -- ./inp_files/339084.got.cif
#   From: 2010.05.17/outbox.cif.g08.bks.cpg/sg12_170_cif.got.tgz:339084.got - 2010.06.03 13:09:07.
