data_PCOD9202041
_publ_section_title
;
Structure prediction by ZEFSAII (Michael W. Deem and Ramdas Pophale) SiO2 
 PCOD9202041
Probable space group: C 2/M
;
_chemical_formula_sum "Si O2"
_cell_formula_units_Z 58
_cell_length_a 12.950259
_cell_length_b 12.776503
_cell_length_c 16.544895
_cell_angle_alpha 90.000000
_cell_angle_beta 94.360569
_cell_angle_gamma 90.000000
_cell_volume 2729.577953
_symmetry_space_group_name_H-M "C 2/M"
_symmetry_group_IT_number 12
_symmetry_cell_setting 'monoclinic'
loop_
_space_group_symop_operation_xyz
x,y,z
-x,y,-z
-x,-y,-z
x,-y,z
1/2+x,1/2+y,z
1/2-x,1/2+y,-z
1/2-x,1/2-y,-z
1/2+x,1/2-y,z
loop_
_atom_site_type_symbol
_atom_site_label
_atom_site_fract_x
_atom_site_fract_y
_atom_site_fract_z
Si Si1 0.904903 0.286603 0.039826
Si Si2 0.500000 0.500000 0.500000
Si Si3 0.876532 0.165559 0.743061
Si Si4 0.082655 0.118250 0.824345
Si Si5 0.799656 0.883491 0.917237
Si Si6 0.288929 0.884295 0.737024
Si Si7 0.151901 0.840980 0.572976
Si Si8 0.775711 0.617159 0.414045
O O1 0.821148 0.364362 0.071924
O O2 0.940270 0.207072 0.112054
O O3 0.853655 0.208559 0.970952
O O4 0.000000 0.339652 0.000000
O O5 0.548515 0.407827 0.562059
O O6 0.994962 0.128924 0.750552
O O7 0.827420 0.127040 0.824703
O O8 0.870083 0.291273 0.743979
O O9 0.804553 0.128529 0.665204
O O10 0.198313 0.133719 0.797644
O O11 0.075529 0.000000 0.856396
O O12 0.830430 0.000000 0.946041
O O13 0.227492 0.877640 0.648854
O O14 0.332547 0.000000 0.750921
O O15 0.145754 0.715236 0.582228
O O16 0.208527 0.868755 0.491598
O O17 0.820441 0.500000 0.415426
#
# Coordination Sequence:
#
# PCOD9202041 Si02
#       8
#     8   2   8   8   8   8   8   8
#     4  11  23  40  60  84 117 149 194 245 292 354
#     4  12  20  36  58  92 116 150 206 248 286 344
#     4  11  22  36  61  91 118 154 198 244 300 352
#     4  11  22  36  60  89 114 152 196 245 289 348
#     4  11  23  40  60  85 117 155 193 242 299 356
#     4  10  21  40  59  84 123 158 195 244 293 349
#     4  10  22  34  61  87 120 156 200 246 293 340
#     4  10  20  38  57  88 120 161 196 241 299 361
#
# _framework density 21.248705000000001
#
# number of rings (size 3 to 8) (size 9 to 14) (size 15 to 20)
#    0.000    1.379    4.138    1.655    1.931    0.828 
#    0.000    1.034    0.000    0.000    0.000    0.000 
#    0.000    0.000    0.000    0.000    0.000    0.000 
#
# Total GULP energy -161749.502395 kJ/mol
# GULP energy per Si atom -5577.569048 kJ/mol
# Density = 2.120034 g / cm^3
# Si number density = 21.248705 Si / 1000 Ang^3
#
#
#
# Elastic Constant Matrix: (Units=GPa)
#
#
# Indices 1 2 3 4 5 6 
#
# 1 22.3048 -2.1864 -8.0212 0.0000 2.4930 0.0000
# 2 -2.1864 123.6684 -12.8147 0.0000 3.4707 0.0000
# 3 -8.0212 -12.8147 67.1717 0.0000 0.4154 0.0000
# 4 0.0000 0.0000 0.0000 19.5296 0.0000 4.0685
# 5 2.4930 3.4707 0.4154 0.0000 21.5213 0.0000
# 6 0.0000 0.0000 0.0000 4.0685 0.0000 9.4758
#
#
#
# Elastic Compliance Matrix: (Units=1/GPa)
#
#
# Indices 1 2 3 4 5 6 
#
# 1 0.047836 0.001640 0.006062 0.000000 -0.005923 0.000000
# 2 0.001640 0.008345 0.001798 0.000000 -0.001571 0.000000
# 3 0.006062 0.001798 0.015962 0.000000 -0.001300 0.000000
# 4 0.000000 0.000000 0.000000 0.056234 0.000000 -0.024145
# 5 -0.005923 -0.001571 -0.001300 0.000000 0.047430 0.000000
# 6 0.000000 0.000000 0.000000 -0.024145 0.000000 0.115899
#
#
# Mechanical properties :
#
#
# Convention : Reuss Voigt Hill
#
# Bulk Modulus (GPa) = 10.97179 18.56669 14.76924
# Shear Modulus (GPa) = 16.49679 25.84980 21.17329
#
# Velocity S-wave (km/s) = 2.78936 3.49167 3.16009
# Velocity P-wave (km/s) = 3.94319 5.00124 4.50340
#
# Compressibility (1/GPa) = 0.09114285
#
# Stress axis : x y z
#
# Youngs Moduli (GPa) = 20.90468 119.82519 62.64847
#
# Poissons Ratio (x) = -0.19652 -0.37976
# Poissons Ratio (y) = -0.03429 -0.11262
# Poissons Ratio (z) = -0.12672 -0.21541
#
# Static dielectric constant tensor:
#      x y z
#    x 1.784610 0.000000 -0.010050 
#    y 0.000000 1.789470 0.000000 
#    z -0.010050 0.000000 1.765880 
# 
# From -- ./inp_files/268800.got.cif
#   From: 2010.05.17/outbox.cif.g08.bks.cpg/sg12_135_cif.got.tgz:268800.got - 2010.06.03 13:09:07.
