data_PCOD9202355
_publ_section_title
;
Structure prediction by ZEFSAII (Michael W. Deem and Ramdas Pophale) SiO2 
 PCOD9202355
Probable space group: C 2/M
;
_chemical_formula_sum "Si O2"
_cell_formula_units_Z 48
_cell_length_a 14.028364
_cell_length_b 19.229953
_cell_length_c 14.539140
_cell_angle_alpha 90.000000
_cell_angle_beta 30.768194
_cell_angle_gamma 90.000000
_cell_volume 2006.437363
_symmetry_space_group_name_H-M "C 2/M"
_symmetry_group_IT_number 12
_symmetry_cell_setting 'monoclinic'
loop_
_space_group_symop_operation_xyz
x,y,z
-x,y,-z
-x,-y,-z
x,-y,z
1/2+x,1/2+y,z
1/2-x,1/2+y,-z
1/2-x,1/2-y,-z
1/2+x,1/2-y,z
loop_
_atom_site_type_symbol
_atom_site_label
_atom_site_fract_x
_atom_site_fract_y
_atom_site_fract_z
Si Si1 0.332635 0.916025 0.511728
Si Si2 0.323171 0.700491 0.699532
Si Si3 0.144028 0.138237 0.055798
Si Si4 0.257040 0.583130 0.214421
Si Si5 0.051077 0.285517 0.097107
Si Si6 0.965781 0.078659 0.372201
O O1 0.239101 0.890183 0.684301
O O2 0.547881 0.903277 0.350821
O O3 0.233363 0.893341 0.500089
O O4 0.311730 0.000000 0.527649
O O5 0.500000 0.736760 0.500000
O O6 0.421681 0.630444 0.655837
O O7 0.147987 0.691712 0.776715
O O8 0.206324 0.728100 0.885965
O O9 0.128200 0.113861 0.964675
O O10 0.351562 0.159167 0.917358
O O11 0.036010 0.211173 0.158539
O O12 0.076307 0.080830 0.183572
O O13 0.284070 0.500000 0.195149
O O14 0.952440 0.000000 0.418699
#
# Coordination Sequence:
#
# PCOD9202355 Si02
#       6
#     8   8   8   8   8   8
#     4   8  17  32  49  82 126 149 187 246 291 371
#     4  10  22  42  65  87 124 169 208 260 309 364
#     4  10  20  38  61  83 121 162 197 264 306 360
#     4   9  17  32  55  85 118 157 195 240 312 372
#     4   9  22  43  57  89 124 155 218 261 296 360
#     4  10  21  38  61  94 125 158 204 254 315 381
#
# _framework density 23.922999999999998
#
# number of rings (size 3 to 8) (size 9 to 14) (size 15 to 20)
#    0.000    2.667    0.000    1.500    2.333    3.667 
#    6.000   12.500    0.000    0.000    0.000    0.000 
#    0.000    0.000    0.000    0.000    0.000    0.000 
#
# Total GULP energy -133863.937177 kJ/mol
# GULP energy per Si atom -5577.664049 kJ/mol
# Density = 2.386855 g / cm^3
# Si number density = 23.923000 Si / 1000 Ang^3
#
#
#
# Elastic Constant Matrix: (Units=GPa)
#
#
# Indices 1 2 3 4 5 6 
#
# 1 145.3733 22.2696 23.2663 -0.0055 -21.6544 0.0036
# 2 22.2696 36.9380 6.4753 -0.0115 -0.0757 0.0041
# 3 23.2663 6.4753 112.0740 -0.0226 -7.4622 0.0153
# 4 -0.0055 -0.0115 -0.0226 15.3784 0.0115 -1.4326
# 5 -21.6544 -0.0757 -7.4622 0.0115 48.8194 -0.0071
# 6 0.0036 0.0041 0.0153 -1.4326 -0.0071 23.3237
#
#
#
# Elastic Compliance Matrix: (Units=1/GPa)
#
#
# Indices 1 2 3 4 5 6 
#
# 1 0.008331 -0.004802 -0.001219 -0.000005 0.003502 0.000001
# 2 -0.004802 0.030119 -0.000891 0.000021 -0.002219 -0.000003
# 3 -0.001219 -0.000891 0.009286 0.000011 0.000877 -0.000005
# 4 -0.000005 0.000021 0.000011 0.065401 -0.000015 0.004017
# 5 0.003502 -0.002219 0.000877 -0.000015 0.022167 0.000005
# 6 0.000001 -0.000003 -0.000005 0.004017 0.000005 0.043122
#
#
# Mechanical properties :
#
#
# Convention : Reuss Voigt Hill
#
# Bulk Modulus (GPa) = 29.48815 44.26755 36.87785
# Shear Modulus (GPa) = 24.56358 33.66256 29.11307
#
# Velocity S-wave (km/s) = 3.20781 3.75523 3.49226
# Velocity P-wave (km/s) = 5.10618 6.11119 5.63115
#
# Compressibility (1/GPa) = 0.03391193
#
# Stress axis : x y z
#
# Youngs Moduli (GPa) = 120.03200 33.20155 107.69338
#
# Poissons Ratio (x) = 0.15943 0.13127
# Poissons Ratio (y) = 0.57638 0.09597
# Poissons Ratio (z) = 0.14631 0.02959
#
# Static dielectric constant tensor:
#      x y z
#    x 1.970480 0.000000 -0.101300 
#    y 0.000000 1.850600 0.000010 
#    z -0.101300 0.000010 2.118420 
# 
# From -- ./inp_files/218432.got.cif
#   From: 2010.05.17/outbox.cif.g08.bks.cpg/sg12_110_cif.got.tgz:218432.got - 2010.06.03 13:09:07.
