data_PCOD9202792
_publ_section_title
;
Structure prediction by ZEFSAII (Michael W. Deem and Ramdas Pophale) SiO2 
 PCOD9202792
Probable space group: C 2/M
;
_chemical_formula_sum "Si O2"
_cell_formula_units_Z 56
_cell_length_a 8.402644
_cell_length_b 18.458438
_cell_length_c 18.403991
_cell_angle_alpha 90.000000
_cell_angle_beta 125.327044
_cell_angle_gamma 90.000000
_cell_volume 2328.847716
_symmetry_space_group_name_H-M "C 2/M"
_symmetry_group_IT_number 12
_symmetry_cell_setting 'monoclinic'
loop_
_space_group_symop_operation_xyz
x,y,z
-x,y,-z
-x,-y,-z
x,-y,z
1/2+x,1/2+y,z
1/2-x,1/2+y,-z
1/2-x,1/2-y,-z
1/2+x,1/2-y,z
loop_
_atom_site_type_symbol
_atom_site_label
_atom_site_fract_x
_atom_site_fract_y
_atom_site_fract_z
Si Si1 0.056785 0.586952 0.190824
Si Si2 0.223370 0.170541 0.030588
Si Si3 0.691216 0.663499 0.262135
Si Si4 0.824845 0.915158 0.118379
Si Si5 0.500725 0.277732 0.650277
Si Si6 0.230354 0.856871 0.606304
Si Si7 0.982667 0.418667 0.574169
O O1 0.004223 0.500000 0.180190
O O2 0.197690 0.596658 0.157507
O O3 0.173145 0.609239 0.294586
O O4 0.876105 0.643695 0.133074
O O5 0.274877 0.112708 0.980996
O O6 0.250000 0.250000 0.000000
O O7 0.000000 0.166040 0.000000
O O8 0.525490 0.630419 0.169446
O O9 0.581242 0.672276 0.309376
O O10 0.793409 0.740084 0.271940
O O11 0.868384 0.610991 0.326634
O O12 0.867960 0.000000 0.126051
O O13 0.350088 0.212049 0.606437
O O14 0.535496 0.321583 0.586372
O O15 0.269170 0.914189 0.553258
O O16 0.046921 0.500000 0.580295
O O17 0.000000 0.380797 0.500000
#
# Coordination Sequence:
#
# PCOD9202792 Si02
#       7
#     8   8   8   8   8   8   8
#     4  11  24  42  65  93 130 167 211 266 323 383
#     4  12  29  44  65  93 123 171 215 270 321 382
#     4  10  20  38  63  92 125 164 210 256 319 375
#     4  11  24  42  65  93 130 167 211 266 323 383
#     4   9  20  35  61  94 123 158 206 265 300 383
#     4  10  20  38  63  92 125 164 210 256 319 375
#     4  10  22  41  64  92 128 169 214 267 325 385
#
# _framework density 24.046225
#
# number of rings (size 3 to 8) (size 9 to 14) (size 15 to 20)
#    0.000    1.571    1.429    2.571    8.000    2.286 
#    0.000   12.143    0.000    1.714    0.000    0.000 
#    0.000    0.000    0.000    0.000    0.000    0.000 
#
# Total GULP energy -156310.894971 kJ/mol
# GULP energy per Si atom -5582.531963 kJ/mol
# Density = 2.399150 g / cm^3
# Si number density = 24.046225 Si / 1000 Ang^3
#
#
#
# Elastic Constant Matrix: (Units=GPa)
#
#
# Indices 1 2 3 4 5 6 
#
# 1 127.9876 13.8665 11.4452 0.0000 -9.9724 0.0000
# 2 13.8665 55.8818 8.5053 0.0000 11.9640 0.0000
# 3 11.4452 8.5053 68.8481 0.0000 5.6014 0.0000
# 4 0.0000 0.0000 0.0000 35.8134 0.0000 -9.4145
# 5 -9.9724 11.9640 5.6014 0.0000 42.5643 0.0000
# 6 0.0000 0.0000 0.0000 -9.4145 0.0000 35.6100
#
#
#
# Elastic Compliance Matrix: (Units=1/GPa)
#
#
# Indices 1 2 3 4 5 6 
#
# 1 0.008425 -0.002499 -0.001324 0.000000 0.002850 0.000000
# 2 -0.002499 0.020041 -0.001571 0.000000 -0.006012 0.000000
# 3 -0.001324 -0.001571 0.015090 0.000000 -0.001854 0.000000
# 4 0.000000 0.000000 0.000000 0.030008 0.000000 0.007933
# 5 0.002850 -0.006012 -0.001854 0.000000 0.026096 0.000000
# 6 0.000000 0.000000 0.000000 0.007933 0.000000 0.030179
#
#
# Mechanical properties :
#
#
# Convention : Reuss Voigt Hill
#
# Bulk Modulus (GPa) = 30.51824 35.59463 33.05644
# Shear Modulus (GPa) = 32.99257 37.39091 35.19174
#
# Velocity S-wave (km/s) = 3.70813 3.94758 3.82973
# Velocity P-wave (km/s) = 5.57250 5.96762 5.77344
#
# Compressibility (1/GPa) = 0.03276729
#
# Stress axis : x y z
#
# Youngs Moduli (GPa) = 118.70140 49.89680 66.27022
#
# Poissons Ratio (x) = 0.12471 0.08772
# Poissons Ratio (y) = 0.29667 0.10413
# Poissons Ratio (z) = 0.15712 0.07840
#
# Static dielectric constant tensor:
#      x y z
#    x 2.083250 0.000000 -0.134930 
#    y 0.000000 1.927280 0.000000 
#    z -0.134930 0.000000 2.396730 
# 
# From -- ./inp_files/301805.got.cif
#   From: 2010.05.17/outbox.cif.g08.bks.cpg/sg12_151_cif.got.tgz:301805.got - 2010.06.03 13:09:07.
