data_PCOD9202986
_publ_section_title
;
Structure prediction by ZEFSAII (Michael W. Deem and Ramdas Pophale) SiO2 
 PCOD9202986
Probable space group: C 2/M
;
_chemical_formula_sum "Si O2"
_cell_formula_units_Z 58
_cell_length_a 18.435829
_cell_length_b 20.542428
_cell_length_c 8.225786
_cell_angle_alpha 90.000000
_cell_angle_beta 111.768642
_cell_angle_gamma 90.000000
_cell_volume 2893.091197
_symmetry_space_group_name_H-M "C 2/M"
_symmetry_group_IT_number 12
_symmetry_cell_setting 'monoclinic'
loop_
_space_group_symop_operation_xyz
x,y,z
-x,y,-z
-x,-y,-z
x,-y,z
1/2+x,1/2+y,z
1/2-x,1/2+y,-z
1/2-x,1/2-y,-z
1/2+x,1/2-y,z
loop_
_atom_site_type_symbol
_atom_site_label
_atom_site_fract_x
_atom_site_fract_y
_atom_site_fract_z
Si Si1 0.445987 0.572828 0.611880
Si Si2 0.492617 0.698274 0.183515
Si Si3 0.241694 0.694727 0.630572
Si Si4 0.931177 0.314371 0.560621
Si Si5 0.619538 0.119703 0.139985
Si Si6 0.500000 0.000000 0.000000
Si Si7 0.267229 0.425142 0.434299
Si Si8 0.664202 0.251936 0.007312
O O1 0.500000 0.577325 0.500000
O O2 0.450539 0.500000 0.685388
O O3 0.473690 0.627180 0.759384
O O4 0.358189 0.582443 0.475270
O O5 0.538857 0.746613 0.340112
O O6 0.500000 0.716919 0.000000
O O7 0.400767 0.707695 0.142757
O O8 0.250000 0.750000 0.500000
O O9 0.150150 0.696007 0.604145
O O10 0.252363 0.622933 0.570655
O O11 0.312051 0.710774 0.808564
O O12 0.912658 0.356954 0.707968
O O13 0.000000 0.340180 0.500000
O O14 0.708522 0.097566 0.245711
O O15 0.626926 0.181774 0.025648
O O16 0.567464 0.058674 0.043092
O O17 0.250150 0.500000 0.458951
O O18 0.750000 0.250000 0.000000
#
# Coordination Sequence:
#
# PCOD9202986 Si02
#       8
#     8   8   8   8   8   2   8   8
#     4  10  23  39  60  89 124 163 222 270 322 407
#     4  12  22  38  60  94 129 164 208 280 337 399
#     4  11  20  39  64  89 123 167 219 273 321 401
#     4  11  22  39  66  93 125 171 225 278 334 396
#     4  11  23  41  68  96 133 178 224 274 334 417
#     4  12  24  44  70 100 142 192 216 280 362 416
#     4  10  20  38  65  90 116 170 218 264 329 392
#     4  12  25  40  65 100 136 170 218 280 344 403
#
# _framework density 20.047761000000001
#
# number of rings (size 3 to 8) (size 9 to 14) (size 15 to 20)
#    0.000    0.966    4.828    3.724    1.931    0.276 
#    0.000    1.034    7.586    0.000    0.000    0.000 
#    0.000    0.000    0.000    0.000    0.000    0.000 
#
# Total GULP energy -161588.891991 kJ/mol
# GULP energy per Si atom -5572.030758 kJ/mol
# Density = 2.000213 g / cm^3
# Si number density = 20.047761 Si / 1000 Ang^3
#
#
#
# Elastic Constant Matrix: (Units=GPa)
#
#
# Indices 1 2 3 4 5 6 
#
# 1 125.9285 43.0097 13.3429 0.0000 19.5688 0.0000
# 2 43.0097 99.9424 31.8764 0.0000 25.7967 0.0000
# 3 13.3429 31.8764 30.9723 0.0000 20.8393 0.0000
# 4 0.0000 0.0000 0.0000 24.2037 0.0000 13.2788
# 5 19.5688 25.7967 20.8393 0.0000 40.6561 0.0000
# 6 0.0000 0.0000 0.0000 13.2788 0.0000 29.5715
#
#
#
# Elastic Compliance Matrix: (Units=1/GPa)
#
#
# Indices 1 2 3 4 5 6 
#
# 1 0.009565 -0.003967 0.002085 0.000000 -0.003156 0.000000
# 2 -0.003967 0.016700 -0.014705 0.000000 -0.001149 0.000000
# 3 0.002085 -0.014705 0.062462 0.000000 -0.023690 0.000000
# 4 0.000000 0.000000 0.000000 0.054821 0.000000 -0.024617
# 5 -0.003156 -0.001149 -0.023690 0.000000 0.038988 0.000000
# 6 0.000000 0.000000 0.000000 -0.024617 0.000000 0.044870
#
#
# Mechanical properties :
#
#
# Convention : Reuss Voigt Hill
#
# Bulk Modulus (GPa) = 18.00040 48.14456 33.07248
# Shear Modulus (GPa) = 17.91490 30.12720 24.02105
#
# Velocity S-wave (km/s) = 2.99258 3.88077 3.46525
# Velocity P-wave (km/s) = 4.57591 6.64436 5.70467
#
# Compressibility (1/GPa) = 0.05555431
#
# Stress axis : x y z
#
# Youngs Moduli (GPa) = 104.54416 59.88153 16.00973
#
# Poissons Ratio (x) = 0.23755 -0.03339
# Poissons Ratio (y) = 0.41472 0.23542
# Poissons Ratio (z) = -0.21801 0.88054
#
# Static dielectric constant tensor:
#      x y z
#    x 1.794490 0.000000 -0.021520 
#    y 0.000000 1.695960 0.000000 
#    z -0.021520 0.000000 1.768610 
# 
# From -- ./inp_files/77591.got.cif
#   From: 2010.05.17/outbox.cif.g08.bks.cpg/sg12_39_cif.got.tgz:77591.got - 2010.06.03 13:09:07.
