data_PCOD9202266
_publ_section_title
;
Structure prediction by ZEFSAII (Michael W. Deem and Ramdas Pophale) SiO2 
 PCOD9202266
Probable space group: C 2/M
;
_chemical_formula_sum "Si O2"
_cell_formula_units_Z 36
_cell_length_a 20.869308
_cell_length_b 11.856266
_cell_length_c 19.985047
_cell_angle_alpha 90.000000
_cell_angle_beta 158.920531
_cell_angle_gamma 90.000000
_cell_volume 1778.509901
_symmetry_space_group_name_H-M "C 2/M"
_symmetry_group_IT_number 12
_symmetry_cell_setting 'monoclinic'
loop_
_space_group_symop_operation_xyz
x,y,z
-x,y,-z
-x,-y,-z
x,-y,z
1/2+x,1/2+y,z
1/2-x,1/2+y,-z
1/2-x,1/2-y,-z
1/2+x,1/2-y,z
loop_
_atom_site_type_symbol
_atom_site_label
_atom_site_fract_x
_atom_site_fract_y
_atom_site_fract_z
Si Si1 0.821966 0.797143 0.141063
Si Si2 0.297246 0.623857 0.519126
Si Si3 0.879967 0.372038 0.319670
Si Si4 0.500000 0.689870 0.000000
Si Si5 0.964290 0.378351 0.859805
O O1 0.883590 0.703671 0.256190
O O2 0.993587 0.870796 0.291784
O O3 0.750000 0.750000 0.000000
O O4 0.657916 0.861463 0.015356
O O5 0.260546 0.500000 0.518079
O O6 0.250000 0.750000 0.500000
O O7 0.182147 0.620769 0.340095
O O8 0.938171 0.500000 0.361519
O O9 0.673322 0.373306 0.141923
O O10 0.000000 0.331286 0.500000
O O11 0.432688 0.773449 0.876667
O O12 0.956788 0.500000 0.886431
#
# Coordination Sequence:
#
# PCOD9202266 Si02
#       5
#     8   8   8   4   8
#     4  11  22  39  61  89 125 162 211 258 319 377
#     4  11  23  40  60  89 124 164 205 256 314 379
#     4  10  22  39  61  88 123 163 207 259 316 378
#     4  10  20  38  60  86 116 154 208 248 316 366
#     4  10  21  38  60  86 120 158 204 256 310 374
#
# _framework density 20.241664
#
# number of rings (size 3 to 8) (size 9 to 14) (size 15 to 20)
#    0.000    1.556    2.222    2.667    0.000    2.667 
#    0.000    1.111    0.000   10.667    0.000    0.000 
#    0.000    0.000    0.000    0.000    0.000    0.000 
#
# Total GULP energy -100302.961667 kJ/mol
# GULP energy per Si atom -5572.386759 kJ/mol
# Density = 2.019559 g / cm^3
# Si number density = 20.241664 Si / 1000 Ang^3
#
#
#
# Elastic Constant Matrix: (Units=GPa)
#
#
# Indices 1 2 3 4 5 6 
#
# 1 61.7654 44.9637 18.4492 0.0000 -22.2737 -0.0003
# 2 44.9637 133.2271 33.0741 0.0005 -21.3918 0.0003
# 3 18.4492 33.0741 100.4470 0.0006 -21.0714 0.0007
# 4 0.0000 0.0005 0.0006 3.3136 0.0003 4.1768
# 5 -22.2737 -21.3918 -21.0714 0.0003 40.3468 0.0001
# 6 -0.0003 0.0003 0.0007 4.1768 0.0001 -25.3658
#
#
#
# Elastic Compliance Matrix: (Units=1/GPa)
#
#
# Indices 1 2 3 4 5 6 
#
# 1 0.024727 -0.006681 -0.000248 0.000000 0.009978 0.000000
# 2 -0.006681 0.010387 -0.002034 -0.000001 0.000756 0.000000
# 3 -0.000248 -0.002034 0.011697 -0.000002 0.004893 0.000000
# 4 0.000000 -0.000001 -0.000002 0.249918 -0.000004 0.041152
# 5 0.009978 0.000756 0.004893 -0.000004 0.033250 0.000000
# 6 0.000000 0.000000 0.000000 0.041152 0.000000 -0.032647
#
#
# Mechanical properties :
#
#
# Convention : Reuss Voigt Hill
#
# Bulk Modulus (GPa) = 34.62200 54.26815 44.44508
# Shear Modulus (GPa) = 15.38987 16.92241 16.15614
#
# Velocity S-wave (km/s) = 2.76036 2.89454 2.82824
# Velocity P-wave (km/s) = 5.22502 6.16761 5.71578
#
# Compressibility (1/GPa) = 0.02888337
#
# Stress axis : x y z
#
# Youngs Moduli (GPa) = 40.44205 96.27029 85.48836
#
# Poissons Ratio (x) = 0.64322 0.02123
# Poissons Ratio (y) = 0.27021 0.17392
# Poissons Ratio (z) = 0.01005 0.19585
#
# Static dielectric constant tensor:
#      x y z
#    x 1.713180 0.000000 0.000380 
#    y 0.000000 1.768790 0.000000 
#    z 0.000380 0.000000 1.677010 
# 
# From -- ./inp_files/321622.got.cif
#   From: 2010.05.17/outbox.cif.g08.bks.cpg/sg12_161_cif.got.tgz:321622.got - 2010.06.03 13:09:07.
