data_PCOD9202520
_publ_section_title
;
Structure prediction by ZEFSAII (Michael W. Deem and Ramdas Pophale) SiO2 
 PCOD9202520
Probable space group: C 2/M
;
_chemical_formula_sum "Si O2"
_cell_formula_units_Z 40
_cell_length_a 23.242628
_cell_length_b 7.659295
_cell_length_c 14.930760
_cell_angle_alpha 90.000000
_cell_angle_beta 41.974264
_cell_angle_gamma 90.000000
_cell_volume 1777.665675
_symmetry_space_group_name_H-M "C 2/M"
_symmetry_group_IT_number 12
_symmetry_cell_setting 'monoclinic'
loop_
_space_group_symop_operation_xyz
x,y,z
-x,y,-z
-x,-y,-z
x,-y,z
1/2+x,1/2+y,z
1/2-x,1/2+y,-z
1/2-x,1/2-y,-z
1/2+x,1/2-y,z
loop_
_atom_site_type_symbol
_atom_site_label
_atom_site_fract_x
_atom_site_fract_y
_atom_site_fract_z
Si Si1 0.025940 0.296555 0.198275
Si Si2 0.928073 0.713913 0.655343
Si Si3 0.336760 0.293205 0.452624
Si Si4 0.913657 0.199550 0.059004
Si Si5 0.725241 0.205365 0.282653
O O1 0.049934 0.500000 0.164523
O O2 0.922889 0.280778 0.308762
O O3 0.050219 0.230588 0.269227
O O4 0.071811 0.199837 0.064126
O O5 0.928906 0.500000 0.654305
O O6 0.835707 0.774451 0.725375
O O7 0.000000 0.768775 0.500000
O O8 0.346448 0.500000 0.445451
O O9 0.250000 0.250000 0.500000
O O10 0.326136 0.221810 0.565251
O O11 0.820553 0.281835 0.184753
O O12 0.910760 0.000000 0.098672
O O13 0.000000 0.282679 0.000000
O O14 0.738045 0.000000 0.248758
#
# Coordination Sequence:
#
# PCOD9202520 Si02
#       5
#     8   8   8   8   8
#     4  11  22  38  62  88 118 158 201 246 297 354
#     4   9  17  34  60  87 118 155 199 244 297 357
#     4  12  24  38  59  88 119 152 199 250 299 353
#     4  10  22  39  58  84 121 160 199 249 305 356
#     4  10  20  38  62  85 117 162 202 241 298 358
#
# _framework density 22.501418999999999
#
# number of rings (size 3 to 8) (size 9 to 14) (size 15 to 20)
#    0.000    1.600    2.000    3.600    0.000    3.600 
#    0.000    3.000    0.000    0.000    0.000    0.000 
#    0.000    0.000    0.000    0.000    0.000    0.000 
#
# Total GULP energy -111804.606821 kJ/mol
# GULP energy per Si atom -5590.230341 kJ/mol
# Density = 2.245020 g / cm^3
# Si number density = 22.501419 Si / 1000 Ang^3
#
#
#
# Elastic Constant Matrix: (Units=GPa)
#
#
# Indices 1 2 3 4 5 6 
#
# 1 80.9811 7.1163 -18.8061 -0.0092 -5.3195 0.0047
# 2 7.1163 51.8372 -5.4503 -0.0178 -10.9966 0.0143
# 3 -18.8061 -5.4503 60.6741 -0.0191 -8.9564 0.0125
# 4 -0.0092 -0.0178 -0.0191 15.4910 0.0079 10.3457
# 5 -5.3195 -10.9966 -8.9564 0.0079 35.8425 -0.0029
# 6 0.0047 0.0143 0.0125 10.3457 -0.0029 11.0320
#
#
#
# Elastic Compliance Matrix: (Units=1/GPa)
#
#
# Indices 1 2 3 4 5 6 
#
# 1 0.013679 -0.000769 0.004606 0.000047 0.002945 -0.000054
# 2 -0.000769 0.021179 0.002706 0.000114 0.007060 -0.000135
# 3 0.004606 0.002706 0.019079 0.000115 0.006281 -0.000134
# 4 0.000047 0.000114 0.000115 0.172743 0.000020 -0.161997
# 5 0.002945 0.007060 0.006281 0.000020 0.032073 -0.000027
# 6 -0.000054 -0.000135 -0.000134 -0.161997 -0.000027 0.242565
#
#
# Mechanical properties :
#
#
# Convention : Reuss Voigt Hill
#
# Bulk Modulus (GPa) = 14.92006 17.69024 16.30515
# Shear Modulus (GPa) = 9.79291 26.51527 18.15409
#
# Velocity S-wave (km/s) = 2.08844 3.43648 2.84350
# Velocity P-wave (km/s) = 3.52995 4.86053 4.24767
#
# Compressibility (1/GPa) = 0.06702388
#
# Stress axis : x y z
#
# Youngs Moduli (GPa) = 73.10400 47.21654 52.41249
#
# Poissons Ratio (x) = 0.03630 -0.24139
# Poissons Ratio (y) = 0.05621 -0.14185
# Poissons Ratio (z) = -0.33669 -0.12779
#
# Static dielectric constant tensor:
#      x y z
#    x 1.855330 0.000000 -0.027440 
#    y 0.000000 1.825900 0.000000 
#    z -0.027440 0.000000 1.782770 
# 
# From -- ./inp_files/221210.got.cif
#   From: 2010.05.17/outbox.cif.g08.bks.cpg/sg12_111_cif.got.tgz:221210.got - 2010.06.03 13:09:07.
