data_PCOD9202619
_publ_section_title
;
Structure prediction by ZEFSAII (Michael W. Deem and Ramdas Pophale) SiO2 
 PCOD9202619
Probable space group: C 2/M
;
_chemical_formula_sum "Si O2"
_cell_formula_units_Z 64
_cell_length_a 30.400304
_cell_length_b 9.209856
_cell_length_c 16.395131
_cell_angle_alpha 90.000000
_cell_angle_beta 135.628115
_cell_angle_gamma 90.000000
_cell_volume 3210.088836
_symmetry_space_group_name_H-M "C 2/M"
_symmetry_group_IT_number 12
_symmetry_cell_setting 'monoclinic'
loop_
_space_group_symop_operation_xyz
x,y,z
-x,y,-z
-x,-y,-z
x,-y,z
1/2+x,1/2+y,z
1/2-x,1/2+y,-z
1/2-x,1/2-y,-z
1/2+x,1/2-y,z
loop_
_atom_site_type_symbol
_atom_site_label
_atom_site_fract_x
_atom_site_fract_y
_atom_site_fract_z
Si Si1 0.872688 0.173651 0.487682
Si Si2 0.601123 0.829212 0.177882
Si Si3 0.208097 0.167926 0.063371
Si Si4 0.925599 0.671101 0.398733
Si Si5 0.254783 0.172827 0.593466
Si Si6 0.329614 0.667014 0.177055
Si Si7 0.966287 0.827578 0.763008
Si Si8 0.411409 0.172315 0.025891
O O1 0.894571 0.259302 0.437597
O O2 0.803208 0.217698 0.426156
O O3 0.921761 0.200997 0.626386
O O4 0.872481 0.000000 0.471586
O O5 0.676227 0.802205 0.278047
O O6 0.569508 0.731029 0.204435
O O7 0.575586 0.805035 0.053136
O O8 0.590967 0.000000 0.184899
O O9 0.274558 0.249808 0.152543
O O10 0.154596 0.252818 0.040952
O O11 0.213587 0.000000 0.096077
O O12 0.187064 0.170231 0.940447
O O13 0.912901 0.500000 0.377761
O O14 0.894132 0.751664 0.280852
O O15 0.000000 0.694010 0.500000
O O16 0.250000 0.250000 0.500000
O O17 0.247916 0.000000 0.571479
O O18 0.332671 0.500000 0.207296
O O19 0.976732 0.000000 0.782326
O O20 0.032693 0.745133 0.848967
O O21 0.407883 0.000000 0.035947
#
# Coordination Sequence:
#
# PCOD9202619 Si02
#       8
#     8   8   8   8   8   8   8   8
#     4  10  23  41  63  91 123 162 208 253 311 379
#     4  10  22  39  60  87 122 162 205 248 303 367
#     4  10  22  41  65  95 123 157 205 255 308 366
#     4  11  26  44  64  95 129 163 209 261 312 370
#     4  10  20  38  62  90 122 159 203 253 305 368
#     4  10  22  42  67  91 123 162 201 250 312 371
#     4  11  23  40  61  88 122 161 207 256 307 366
#     4  11  24  39  60  89 122 163 208 253 305 365
#
# _framework density 19.937142999999999
#
# number of rings (size 3 to 8) (size 9 to 14) (size 15 to 20)
#    0.000    1.625    1.250    2.250    3.500    6.500 
#    0.000    0.000    0.000    0.000    0.000    0.000 
#    0.000    0.000    0.000    0.000    0.000    0.000 
#
# Total GULP energy -178950.389858 kJ/mol
# GULP energy per Si atom -5592.199683 kJ/mol
# Density = 1.989176 g / cm^3
# Si number density = 19.937143 Si / 1000 Ang^3
#
#
#
# Elastic Constant Matrix: (Units=GPa)
#
#
# Indices 1 2 3 4 5 6 
#
# 1 48.2011 25.3291 -7.5118 0.0000 0.4799 0.0000
# 2 25.3291 79.5105 40.2376 0.0000 8.4045 0.0000
# 3 -7.5118 40.2376 65.6136 0.0000 7.5818 0.0000
# 4 0.0000 0.0000 0.0000 32.7070 0.0000 2.3532
# 5 0.4799 8.4045 7.5818 0.0000 15.8272 0.0000
# 6 0.0000 0.0000 0.0000 2.3532 0.0000 33.9792
#
#
#
# Elastic Compliance Matrix: (Units=1/GPa)
#
#
# Indices 1 2 3 4 5 6 
#
# 1 0.032295 -0.017736 0.014396 0.000000 0.001543 0.000000
# 2 -0.017736 0.028296 -0.018747 0.000000 -0.005508 0.000000
# 3 0.014396 -0.018747 0.028884 0.000000 -0.004318 0.000000
# 4 0.000000 0.000000 0.000000 0.030728 0.000000 -0.002128
# 5 0.001543 -0.005508 -0.004318 0.000000 0.068129 0.000000
# 6 0.000000 0.000000 0.000000 -0.002128 0.000000 0.029577
#
#
# Mechanical properties :
#
#
# Convention : Reuss Voigt Hill
#
# Bulk Modulus (GPa) = 22.07474 34.38167 28.22820
# Shear Modulus (GPa) = 18.03858 25.52070 21.77964
#
# Velocity S-wave (km/s) = 3.01121 3.58167 3.30876
# Velocity P-wave (km/s) = 4.81519 5.86404 5.36530
#
# Compressibility (1/GPa) = 0.04530065
#
# Stress axis : x y z
#
# Youngs Moduli (GPa) = 30.96491 35.34029 34.62085
#
# Poissons Ratio (x) = 0.62680 -0.49839
# Poissons Ratio (y) = 0.54920 0.64903
# Poissons Ratio (z) = -0.44576 0.66252
#
# Static dielectric constant tensor:
#      x y z
#    x 1.680650 0.000000 0.005610 
#    y 0.000000 1.664790 0.000000 
#    z 0.005610 0.000000 1.712690 
# 
# From -- ./inp_files/295818.got.cif
#   From: 2010.05.17/outbox.cif.g08.bks.cpg/sg12_148_cif.got.tgz:295818.got - 2010.06.03 13:09:07.
