data_PCOD9202746
_publ_section_title
;
Structure prediction by ZEFSAII (Michael W. Deem and Ramdas Pophale) SiO2 
 PCOD9202746
Probable space group: C 2/M
;
_chemical_formula_sum "Si O2"
_cell_formula_units_Z 56
_cell_length_a 16.531879
_cell_length_b 23.834823
_cell_length_c 8.882681
_cell_angle_alpha 90.000000
_cell_angle_beta 130.490863
_cell_angle_gamma 90.000000
_cell_volume 2661.845669
_symmetry_space_group_name_H-M "C 2/M"
_symmetry_group_IT_number 12
_symmetry_cell_setting 'monoclinic'
loop_
_space_group_symop_operation_xyz
x,y,z
-x,y,-z
-x,-y,-z
x,-y,z
1/2+x,1/2+y,z
1/2-x,1/2+y,-z
1/2-x,1/2-y,-z
1/2+x,1/2-y,z
loop_
_atom_site_type_symbol
_atom_site_label
_atom_site_fract_x
_atom_site_fract_y
_atom_site_fract_z
Si Si1 0.466217 0.213969 0.787893
Si Si2 0.820760 0.415491 0.337902
Si Si3 0.991557 0.164322 0.807530
Si Si4 0.696440 0.062987 0.186024
Si Si5 0.860939 0.938105 0.106038
Si Si6 0.980855 0.408861 0.252991
Si Si7 0.242517 0.339996 0.482419
O O1 0.519512 0.271487 0.796189
O O2 0.498649 0.157290 0.743942
O O3 0.337622 0.211887 0.635646
O O4 0.500000 0.207617 0.000000
O O5 0.898515 0.411719 0.290291
O O6 0.777805 0.360729 0.371169
O O7 0.907436 0.437379 0.565626
O O8 0.715341 0.440552 0.134362
O O9 0.868039 0.162147 0.614270
O O10 0.059395 0.113979 0.818351
O O11 0.000000 0.160336 0.000000
O O12 0.785257 0.070261 0.160763
O O13 0.705914 0.112057 0.319097
O O14 0.710921 0.000000 0.264945
O O15 0.582490 0.067403 0.965274
O O16 0.912598 0.000000 0.182795
#
# Coordination Sequence:
#
# PCOD9202746 Si02
#       7
#     8   8   8   8   8   8   8
#     4  10  20  38  63  90 121 154 194 245 305 357
#     4   9  19  35  60  87 121 155 202 239 294 358
#     4  11  23  40  60  89 119 158 205 247 295 357
#     4  10  22  39  62  90 123 159 201 245 300 359
#     4  10  22  42  61  86 122 162 203 249 292 347
#     4   9  18  38  60  88 124 161 191 248 302 353
#     4  11  21  39  60  90 120 156 197 249 302 350
#
# _framework density 21.038032999999999
#
# number of rings (size 3 to 8) (size 9 to 14) (size 15 to 20)
#    0.000    2.000    2.857    0.429    0.000    2.571 
#    0.000   19.286    0.000    0.000    0.000    0.000 
#    0.000    0.000    0.000    0.000    0.000    0.000 
#
# Total GULP energy -155914.906419 kJ/mol
# GULP energy per Si atom -5568.389515 kJ/mol
# Density = 2.099015 g / cm^3
# Si number density = 21.038033 Si / 1000 Ang^3
#
#
#
# Elastic Constant Matrix: (Units=GPa)
#
#
# Indices 1 2 3 4 5 6 
#
# 1 53.6498 33.2155 11.7571 0.0000 14.0546 0.0000
# 2 33.2155 131.8452 21.3756 0.0000 12.9144 0.0000
# 3 11.7571 21.3756 71.0168 0.0000 10.8438 0.0000
# 4 0.0000 0.0000 0.0000 -19.8046 0.0000 15.1193
# 5 14.0546 12.9144 10.8438 0.0000 32.3136 0.0000
# 6 0.0000 0.0000 0.0000 15.1193 0.0000 37.0759
#
#
#
# Elastic Compliance Matrix: (Units=1/GPa)
#
#
# Indices 1 2 3 4 5 6 
#
# 1 0.024181 -0.005102 -0.001236 0.000000 -0.008064 0.000000
# 2 -0.005102 0.009248 -0.001806 0.000000 -0.000871 0.000000
# 3 -0.001236 -0.001806 0.015428 0.000000 -0.003918 0.000000
# 4 0.000000 0.000000 0.000000 -0.038506 0.000000 0.015702
# 5 -0.008064 -0.000871 -0.003918 0.000000 0.036117 0.000000
# 6 0.000000 0.000000 0.000000 0.015702 0.000000 0.020568
#
#
# Mechanical properties :
#
#
# Convention : Reuss Voigt Hill
#
# Bulk Modulus (GPa) = 30.70424 43.24536 36.97480
# Shear Modulus (GPa) = 53.08932 22.59455 37.84193
#
# Velocity S-wave (km/s) = 5.02889 3.28073 4.24576
# Velocity P-wave (km/s) = 6.95312 5.91196 6.45357
#
# Compressibility (1/GPa) = 0.03256880
#
# Stress axis : x y z
#
# Youngs Moduli (GPa) = 41.35427 108.13119 64.81863
#
# Poissons Ratio (x) = 0.55165 0.08015
# Poissons Ratio (y) = 0.21097 0.11706
# Poissons Ratio (z) = 0.05113 0.19528
#
# Static dielectric constant tensor:
#      x y z
#    x 1.757440 0.000000 0.038510 
#    y 0.000000 1.796560 0.000000 
#    z 0.038510 0.000000 1.795500 
# 
# From -- ./inp_files/79143.got.cif
#   From: 2010.05.17/outbox.cif.g08.bks.cpg/sg12_40_cif.got.tgz:79143.got - 2010.06.03 13:09:07.
