data_PCOD9202298
_publ_section_title
;
Structure prediction by ZEFSAII (Michael W. Deem and Ramdas Pophale) SiO2 
 PCOD9202298
Probable space group: C 2/M
;
_chemical_formula_sum "Si O2"
_cell_formula_units_Z 64
_cell_length_a 14.523261
_cell_length_b 16.230363
_cell_length_c 16.066559
_cell_angle_alpha 90.000000
_cell_angle_beta 54.250287
_cell_angle_gamma 90.000000
_cell_volume 3073.582893
_symmetry_space_group_name_H-M "C 2/M"
_symmetry_group_IT_number 12
_symmetry_cell_setting 'monoclinic'
loop_
_space_group_symop_operation_xyz
x,y,z
-x,y,-z
-x,-y,-z
x,-y,z
1/2+x,1/2+y,z
1/2-x,1/2+y,-z
1/2-x,1/2-y,-z
1/2+x,1/2-y,z
loop_
_atom_site_type_symbol
_atom_site_label
_atom_site_fract_x
_atom_site_fract_y
_atom_site_fract_z
Si Si1 0.648849 0.272324 0.615435
Si Si2 0.438162 0.249494 0.608762
Si Si3 0.267198 0.679215 0.176989
Si Si4 0.601736 0.594681 0.760157
Si Si5 0.859829 0.094713 0.857521
Si Si6 0.848687 0.398157 0.926670
Si Si7 0.825449 0.911040 0.681720
Si Si8 0.100819 0.673779 0.810289
O O1 0.750000 0.250000 0.500000
O O2 0.535292 0.272042 0.622006
O O3 0.666940 0.358910 0.652164
O O4 0.625867 0.213067 0.706190
O O5 0.500000 0.204919 0.500000
O O6 0.339763 0.202056 0.708324
O O7 0.379317 0.333522 0.606633
O O8 0.336297 0.607034 0.185618
O O9 0.212723 0.646271 0.120195
O O10 0.352694 0.758349 0.146395
O O11 0.591221 0.500000 0.744014
O O12 0.474753 0.633605 0.832366
O O13 0.869208 0.095801 0.753501
O O14 0.860456 0.000000 0.885873
O O15 0.739301 0.124964 0.953107
O O16 0.857953 0.500000 0.912802
O O17 0.972261 0.359026 0.880433
O O18 0.691028 0.900402 0.764398
O O19 0.854201 0.000000 0.631129
#
# Coordination Sequence:
#
# PCOD9202298 Si02
#       8
#     8   8   8   8   8   8   8   8
#     4  11  21  39  62  85 119 160 200 248 316 371
#     4  11  21  38  61  84 117 161 199 246 316 371
#     4  10  22  39  61  89 124 164 204 257 312 365
#     4  10  20  39  63  89 119 157 207 257 301 364
#     4   9  20  37  62  90 124 163 202 257 316 359
#     4  11  22  41  66  91 125 172 216 258 313 375
#     4  10  20  38  60  89 122 155 203 256 302 369
#     4  10  22  39  60  89 125 166 198 257 318 368
#
# _framework density 20.822603999999998
#
# number of rings (size 3 to 8) (size 9 to 14) (size 15 to 20)
#    0.000    1.750    2.500    3.000    0.000    1.250 
#    0.000   20.000    0.000    1.500    0.000    0.000 
#    0.000    0.000    0.000    0.000    0.000    0.000 
#
# Total GULP energy -178354.499844 kJ/mol
# GULP energy per Si atom -5573.578120 kJ/mol
# Density = 2.077521 g / cm^3
# Si number density = 20.822604 Si / 1000 Ang^3
#
#
#
# Elastic Constant Matrix: (Units=GPa)
#
#
# Indices 1 2 3 4 5 6 
#
# 1 124.8967 22.0908 18.4734 0.0000 -20.7050 0.0000
# 2 22.0908 72.0355 27.9665 0.0000 -9.4754 0.0000
# 3 18.4734 27.9665 63.1941 0.0000 -23.9881 0.0000
# 4 0.0000 0.0000 0.0000 19.4069 0.0000 0.8118
# 5 -20.7050 -9.4754 -23.9881 0.0000 35.3164 0.0000
# 6 0.0000 0.0000 0.0000 0.8118 0.0000 22.0442
#
#
#
# Elastic Compliance Matrix: (Units=1/GPa)
#
#
# Indices 1 2 3 4 5 6 
#
# 1 0.009190 -0.002237 0.000163 0.000000 0.004898 0.000000
# 2 -0.002237 0.017321 -0.007741 0.000000 -0.001922 0.000000
# 3 0.000163 -0.007741 0.024860 0.000000 0.014904 0.000000
# 4 0.000000 0.000000 0.000000 0.051608 0.000000 -0.001900
# 5 0.004898 -0.001922 0.014904 0.000000 0.040795 0.000000
# 6 0.000000 0.000000 0.000000 -0.001900 0.000000 0.045433
#
#
# Mechanical properties :
#
#
# Convention : Reuss Voigt Hill
#
# Bulk Modulus (GPa) = 31.50572 44.13197 37.81885
# Shear Modulus (GPa) = 22.78761 28.12653 25.45707
#
# Velocity S-wave (km/s) = 3.31171 3.67927 3.50032
# Velocity P-wave (km/s) = 5.45771 6.26814 5.87692
#
# Compressibility (1/GPa) = 0.03174027
#
# Stress axis : x y z
#
# Youngs Moduli (GPa) = 108.81063 57.73487 40.22530
#
# Poissons Ratio (x) = 0.12917 -0.00655
# Poissons Ratio (y) = 0.24344 0.31138
# Poissons Ratio (z) = -0.01773 0.44692
#
# Static dielectric constant tensor:
#      x y z
#    x 1.798050 0.000000 -0.019410 
#    y 0.000000 1.803190 0.000000 
#    z -0.019410 0.000000 1.748700 
# 
# From -- ./inp_files/216787.got.cif
#   From: 2010.05.17/outbox.cif.g08.bks.cpg/sg12_109_cif.got.tgz:216787.got - 2010.06.03 13:09:07.
