data_PCOD9202700
_publ_section_title
;
Structure prediction by ZEFSAII (Michael W. Deem and Ramdas Pophale) SiO2 
 PCOD9202700
Probable space group: C 2/M
;
_chemical_formula_sum "Si O2"
_cell_formula_units_Z 48
_cell_length_a 19.114267
_cell_length_b 13.616992
_cell_length_c 17.944545
_cell_angle_alpha 90.000000
_cell_angle_beta 29.747922
_cell_angle_gamma 90.000000
_cell_volume 2317.474297
_symmetry_space_group_name_H-M "C 2/M"
_symmetry_group_IT_number 12
_symmetry_cell_setting 'monoclinic'
loop_
_space_group_symop_operation_xyz
x,y,z
-x,y,-z
-x,-y,-z
x,-y,z
1/2+x,1/2+y,z
1/2-x,1/2+y,-z
1/2-x,1/2-y,-z
1/2+x,1/2-y,z
loop_
_atom_site_type_symbol
_atom_site_label
_atom_site_fract_x
_atom_site_fract_y
_atom_site_fract_z
Si Si1 0.840338 0.612671 0.675904
Si Si2 0.423569 0.201516 0.897300
Si Si3 0.394640 0.111304 0.159189
Si Si4 0.594660 0.388137 0.485887
Si Si5 0.055069 0.887246 0.863551
Si Si6 0.379943 0.258575 0.773399
O O1 0.819673 0.500000 0.720342
O O2 0.723143 0.627530 0.720232
O O3 0.829771 0.685267 0.755042
O O4 0.000000 0.623410 0.500000
O O5 0.518880 0.118061 0.845023
O O6 0.483656 0.304131 0.877891
O O7 0.428219 0.206106 0.804393
O O8 0.262588 0.184795 0.071687
O O9 0.242707 0.154275 0.319153
O O10 0.366520 0.000000 0.159659
O O11 0.500000 0.156666 0.000000
O O12 0.500000 0.393043 0.500000
O O13 0.618535 0.500000 0.491294
O O14 0.506829 0.324823 0.625487
O O15 0.029330 0.000000 0.861537
O O16 0.000000 0.881121 0.000000
#
# Coordination Sequence:
#
# PCOD9202700 Si02
#       6
#     8   8   8   8   8   8
#     4  10  22  40  62  89 118 156 203 248 298 356
#     4  11  24  38  59  91 122 161 200 245 306 357
#     4  10  22  40  63  89 117 155 203 249 296 356
#     4  10  22  40  62  88 118 157 201 247 300 356
#     4  10  20  38  63  87 117 157 203 251 294 351
#     4  11  24  39  59  89 126 160 196 247 306 363
#
# _framework density 20.712202999999999
#
# number of rings (size 3 to 8) (size 9 to 14) (size 15 to 20)
#    0.000    1.667    1.667    2.000    4.667    4.000 
#    0.000    3.333    0.000    0.000    0.000    0.000 
#    0.000    0.000    0.000    0.000    0.000    0.000 
#
# Total GULP energy -133960.359428 kJ/mol
# GULP energy per Si atom -5581.681643 kJ/mol
# Density = 2.066506 g / cm^3
# Si number density = 20.712203 Si / 1000 Ang^3
#
#
#
# Elastic Constant Matrix: (Units=GPa)
#
#
# Indices 1 2 3 4 5 6 
#
# 1 62.0902 -9.0977 26.0445 0.0000 -2.5010 0.0000
# 2 -9.0977 74.5059 18.9366 0.0000 12.6259 0.0000
# 3 26.0445 18.9366 153.0181 -0.0001 -7.3981 0.0000
# 4 0.0000 0.0000 -0.0001 16.7271 0.0000 -6.4317
# 5 -2.5010 12.6259 -7.3981 0.0000 30.9711 0.0000
# 6 0.0000 0.0000 0.0000 -6.4317 0.0000 10.7561
#
#
#
# Elastic Compliance Matrix: (Units=1/GPa)
#
#
# Indices 1 2 3 4 5 6 
#
# 1 0.018014 0.003204 -0.003496 0.000000 -0.000687 0.000000
# 2 0.003204 0.015682 -0.002815 0.000000 -0.006807 0.000000
# 3 -0.003496 -0.002815 0.007608 0.000000 0.002683 0.000000
# 4 0.000000 0.000000 0.000000 0.077633 0.000000 0.046422
# 5 -0.000687 -0.006807 0.002683 0.000000 0.035648 0.000000
# 6 0.000000 0.000000 0.000000 0.046422 0.000000 0.120729
#
#
# Mechanical properties :
#
#
# Convention : Reuss Voigt Hill
#
# Bulk Modulus (GPa) = 28.49728 40.15344 34.32536
# Shear Modulus (GPa) = 17.05177 28.60624 22.82901
#
# Velocity S-wave (km/s) = 2.87238 3.72039 3.32354
# Velocity P-wave (km/s) = 4.97889 6.15496 5.59789
#
# Compressibility (1/GPa) = 0.03509107
#
# Stress axis : x y z
#
# Youngs Moduli (GPa) = 55.51290 63.76707 131.43563
#
# Poissons Ratio (x) = -0.20434 0.45948
# Poissons Ratio (y) = -0.17789 0.37002
# Poissons Ratio (z) = 0.19406 0.17952
#
# Static dielectric constant tensor:
#      x y z
#    x 1.714430 0.000000 -0.028640 
#    y 0.000000 1.819780 0.000000 
#    z -0.028640 0.000000 1.782450 
# 
# From -- ./inp_files/111773.got.cif
#   From: 2010.05.17/outbox.cif.g08.bks.cpg/sg12_56_cif.got.tgz:111773.got - 2010.06.03 13:09:07.
