data_PCOD9202343
_publ_section_title
;
Structure prediction by ZEFSAII (Michael W. Deem and Ramdas Pophale) SiO2 
 PCOD9202343
Probable space group: C 2/M
;
_chemical_formula_sum "Si O2"
_cell_formula_units_Z 60
_cell_length_a 8.884446
_cell_length_b 11.303107
_cell_length_c 29.679322
_cell_angle_alpha 90.000000
_cell_angle_beta 74.096743
_cell_angle_gamma 90.000000
_cell_volume 2866.377617
_symmetry_space_group_name_H-M "C 2/M"
_symmetry_group_IT_number 12
_symmetry_cell_setting 'monoclinic'
loop_
_space_group_symop_operation_xyz
x,y,z
-x,y,-z
-x,-y,-z
x,-y,z
1/2+x,1/2+y,z
1/2-x,1/2+y,-z
1/2-x,1/2-y,-z
1/2+x,1/2-y,z
loop_
_atom_site_type_symbol
_atom_site_label
_atom_site_fract_x
_atom_site_fract_y
_atom_site_fract_z
Si Si1 0.980720 0.365732 0.947558
Si Si2 0.050610 0.867819 0.807720
Si Si3 0.787168 0.829116 0.370353
Si Si4 0.341919 0.364992 0.673789
Si Si5 0.605715 0.000000 0.314859
Si Si6 0.812599 0.368208 0.518998
Si Si7 0.872347 0.292617 0.754389
Si Si8 0.340191 0.635149 0.913793
O O1 0.921186 0.500000 0.940997
O O2 0.883044 0.251022 0.939799
O O3 0.158354 0.355841 0.914539
O O4 0.000000 0.361875 0.000000
O O5 0.988080 0.775404 0.777102
O O6 0.954591 0.860466 0.861557
O O7 0.234078 0.844713 0.796558
O O8 0.031205 0.000000 0.790036
O O9 0.747827 0.694770 0.360498
O O10 0.680573 0.899658 0.343465
O O11 0.738376 0.859143 0.424823
O O12 0.970054 0.854531 0.348469
O O13 0.298656 0.500000 0.679185
O O14 0.306954 0.301836 0.723740
O O15 0.561654 0.896377 0.281884
O O16 0.761365 0.500000 0.506146
O O17 0.750000 0.250000 0.500000
O O18 0.000000 0.365625 0.500000
O O19 0.356998 0.500000 0.932516
#
# Coordination Sequence:
#
# PCOD9202343 Si02
#       8
#     8   8   8   8   4   8   8   8
#     4  10  21  39  62  91 127 163 209 266 318 370
#     4  11  23  42  61  85 127 163 204 255 306 365
#     4  11  22  43  65  86 125 163 190 252 307 349
#     4  11  23  39  62  89 120 156 204 249 299 357
#     4  10  20  38  61  82 115 156 194 238 299 348
#     4  11  24  42  67  95 127 162 203 247 304 371
#     4  11  22  39  62  84 118 161 200 250 303 354
#     4  10  22  39  61  90 124 167 211 257 315 375
#
# _framework density 20.932345000000002
#
# number of rings (size 3 to 8) (size 9 to 14) (size 15 to 20)
#    0.000    1.333    2.000    4.000    0.000    1.600 
#   13.200    0.000    0.000    0.000    0.000    0.000 
#    0.000    0.000    0.000    0.000    0.000    0.000 
#
# Total GULP energy -167012.196849 kJ/mol
# GULP energy per Si atom -5567.073228 kJ/mol
# Density = 2.088470 g / cm^3
# Si number density = 20.932345 Si / 1000 Ang^3
#
#
#
# Elastic Constant Matrix: (Units=GPa)
#
#
# Indices 1 2 3 4 5 6 
#
# 1 85.3518 37.9157 -48.8887 0.0000 -55.2487 0.0000
# 2 37.9157 203.0577 3.3958 0.0000 13.7715 0.0000
# 3 -48.8887 3.3958 105.1325 0.0000 42.7443 0.0000
# 4 0.0000 0.0000 0.0000 -298.5367 0.0000 28.5015
# 5 -55.2487 13.7715 42.7443 0.0000 83.2953 0.0000
# 6 0.0000 0.0000 0.0000 28.5015 0.0000 15.5124
#
#
#
# Elastic Compliance Matrix: (Units=1/GPa)
#
#
# Indices 1 2 3 4 5 6 
#
# 1 0.030282 -0.006965 0.007168 0.000000 0.017559 0.000000
# 2 -0.006965 0.006587 -0.001429 0.000000 -0.004976 0.000000
# 3 0.007168 -0.001429 0.013726 0.000000 -0.002053 0.000000
# 4 0.000000 0.000000 0.000000 -0.002850 0.000000 0.005236
# 5 0.017559 -0.004976 -0.002053 0.000000 0.025528 0.000000
# 6 0.000000 0.000000 0.000000 0.005236 0.000000 0.054844
#
#
# Mechanical properties :
#
#
# Convention : Reuss Voigt Hill
#
# Bulk Modulus (GPa) = 20.77184 42.04305 31.40744
# Shear Modulus (GPa) = 34.10249 -13.20453 10.44898
#
# Velocity S-wave (km/s) = 4.04068 -2.51434 2.23665
# Velocity P-wave (km/s) = 5.63155 3.42047 4.65908
#
# Compressibility (1/GPa) = 0.04814211
#
# Stress axis : x y z
#
# Youngs Moduli (GPa) = 33.02303 151.82336 72.85531
#
# Poissons Ratio (x) = 1.05746 -0.52220
# Poissons Ratio (y) = 0.23001 0.10409
# Poissons Ratio (z) = -0.23670 0.21690
#
# Static dielectric constant tensor:
#      x y z
#    x 1.672650 0.000000 -0.018920 
#    y 0.000000 1.812770 0.000000 
#    z -0.018920 0.000000 1.722770 
# 
# From -- ./inp_files/372133.got.cif
#   From: 2010.05.17/outbox.cif.g08.bks.cpg/sg12_187_cif.got.tgz:372133.got - 2010.06.03 13:09:07.
