data_PCOD9202115
_publ_section_title
;
Structure prediction by ZEFSAII (Michael W. Deem and Ramdas Pophale) SiO2 
 PCOD9202115
Probable space group: C 2/M
;
_chemical_formula_sum "Si O2"
_cell_formula_units_Z 36
_cell_length_a 16.918585
_cell_length_b 22.403078
_cell_length_c 5.553951
_cell_angle_alpha 90.000000
_cell_angle_beta 50.788499
_cell_angle_gamma 90.000000
_cell_volume 1631.072452
_symmetry_space_group_name_H-M "C 2/M"
_symmetry_group_IT_number 12
_symmetry_cell_setting 'monoclinic'
loop_
_space_group_symop_operation_xyz
x,y,z
-x,y,-z
-x,-y,-z
x,-y,z
1/2+x,1/2+y,z
1/2-x,1/2+y,-z
1/2-x,1/2-y,-z
1/2+x,1/2-y,z
loop_
_atom_site_type_symbol
_atom_site_label
_atom_site_fract_x
_atom_site_fract_y
_atom_site_fract_z
Si Si1 0.093735 0.239063 0.192812
Si Si2 0.731829 0.935063 0.089694
Si Si3 0.096916 0.880523 0.940467
Si Si4 0.751613 0.822920 0.734325
Si Si5 0.436892 0.000000 0.367705
O O1 0.170899 0.215172 0.248881
O O2 0.000000 0.271963 0.500000
O O3 0.052515 0.178321 0.154824
O O4 0.156577 0.278541 0.880725
O O5 0.841080 0.922587 0.999546
O O6 0.642014 0.944451 0.458070
O O7 0.734247 0.000000 0.957534
O O8 0.710333 0.878744 0.967158
O O9 0.184413 0.852490 0.601436
O O10 0.000000 0.909965 0.000000
O O11 0.500000 0.000000 0.500000
O O12 0.500000 0.000000 0.000000
#
# Coordination Sequence:
#
# PCOD9202115 Si02
#       5
#     8   8   8   8   4
#     4  10  20  38  58  91 123 163 216 270 337 398
#     4   9  24  41  62  96 125 171 221 270 327 404
#     4  11  21  38  65  91 130 171 211 273 340 397
#     4  10  21  38  63  86 127 166 215 272 327 404
#     4  10  24  46  73  93 137 181 224 286 337 395
#
# _framework density 22.071368
#
# number of rings (size 3 to 8) (size 9 to 14) (size 15 to 20)
#    0.667    1.333    2.222    0.667    3.111    2.222 
#    0.000    1.111    0.000    0.000    0.000    0.000 
#    0.000    0.000    0.000    0.000    0.000    0.000 
#
# Total GULP energy -100326.697260 kJ/mol
# GULP energy per Si atom -5573.705403 kJ/mol
# Density = 2.202113 g / cm^3
# Si number density = 22.071368 Si / 1000 Ang^3
#
#
#
# Elastic Constant Matrix: (Units=GPa)
#
#
# Indices 1 2 3 4 5 6 
#
# 1 48.3961 16.6661 -12.4770 0.0000 -9.3762 0.0000
# 2 16.6661 70.0653 19.8178 0.0000 -14.1107 0.0000
# 3 -12.4770 19.8178 109.3853 0.0000 -13.5822 0.0000
# 4 0.0000 0.0000 0.0000 36.0983 0.0000 -15.4138
# 5 -9.3762 -14.1107 -13.5822 0.0000 24.4927 0.0000
# 6 0.0000 0.0000 0.0000 -15.4138 0.0000 -80.5150
#
#
#
# Elastic Compliance Matrix: (Units=1/GPa)
#
#
# Indices 1 2 3 4 5 6 
#
# 1 0.025776 -0.005684 0.005143 0.000000 0.009445 0.000000
# 2 -0.005684 0.017776 -0.003079 0.000000 0.006357 0.000000
# 3 0.005143 -0.003079 0.011073 0.000000 0.006335 0.000000
# 4 0.000000 0.000000 0.000000 0.025609 0.000000 -0.004903
# 5 0.009445 0.006357 0.006335 0.000000 0.051620 0.000000
# 6 0.000000 0.000000 0.000000 -0.004903 0.000000 -0.011481
#
#
# Mechanical properties :
#
#
# Convention : Reuss Voigt Hill
#
# Bulk Modulus (GPa) = 21.10436 30.65116 25.87776
# Shear Modulus (GPa) = 34.86583 9.60452 22.23517
#
# Velocity S-wave (km/s) = 3.97884 2.08831 3.17743
# Velocity P-wave (km/s) = 5.53993 4.44209 5.02110
#
# Compressibility (1/GPa) = 0.04738356
#
# Stress axis : x y z
#
# Youngs Moduli (GPa) = 38.79631 56.25662 90.30897
#
# Poissons Ratio (x) = 0.31974 -0.46442
# Poissons Ratio (y) = 0.22050 0.27810
# Poissons Ratio (z) = -0.19951 0.17324
#
# Static dielectric constant tensor:
#      x y z
#    x 1.845680 0.000000 0.011760 
#    y 0.000000 1.786700 0.000000 
#    z 0.011760 0.000000 1.877070 
# 
# From -- ./inp_files/16497.got.cif
#   From: 2010.05.17/outbox.cif.g08.bks.cpg/sg12_9_cif.got.tgz:16497.got - 2010.06.03 13:09:07.
