data_PCOD9202378
_publ_section_title
;
Structure prediction by ZEFSAII (Michael W. Deem and Ramdas Pophale) SiO2 
 PCOD9202378
Probable space group: C 2/M
;
_chemical_formula_sum "Si O2"
_cell_formula_units_Z 58
_cell_length_a 16.968767
_cell_length_b 9.890221
_cell_length_c 18.331925
_cell_angle_alpha 90.000000
_cell_angle_beta 66.909790
_cell_angle_gamma 90.000000
_cell_volume 2830.085486
_symmetry_space_group_name_H-M "C 2/M"
_symmetry_group_IT_number 12
_symmetry_cell_setting 'monoclinic'
loop_
_space_group_symop_operation_xyz
x,y,z
-x,y,-z
-x,-y,-z
x,-y,z
1/2+x,1/2+y,z
1/2-x,1/2+y,-z
1/2-x,1/2-y,-z
1/2+x,1/2-y,z
loop_
_atom_site_type_symbol
_atom_site_label
_atom_site_fract_x
_atom_site_fract_y
_atom_site_fract_z
Si Si1 0.670163 0.348401 0.527909
Si Si2 0.465174 0.663250 0.173234
Si Si3 0.380357 0.342791 0.976333
Si Si4 0.002574 0.162661 0.677703
Si Si5 0.500000 0.000000 0.500000
Si Si6 0.264108 0.340275 0.238517
Si Si7 0.246863 0.657236 0.890363
Si Si8 0.875117 0.734804 0.601840
O O1 0.694974 0.500000 0.539794
O O2 0.750000 0.250000 0.500000
O O3 0.594343 0.302201 0.608924
O O4 0.636110 0.344387 0.457343
O O5 0.471796 0.500000 0.171990
O O6 0.525868 0.703269 0.084186
O O7 0.500702 0.713311 0.238119
O O8 0.364914 0.694062 0.205594
O O9 0.382698 0.500000 0.002797
O O10 0.320686 0.343176 0.925301
O O11 0.333753 0.239911 0.047381
O O12 0.930752 0.216513 0.650096
O O13 0.997173 0.000000 0.680936
O O14 0.428530 0.116083 0.545545
O O15 0.255131 0.500000 0.224046
O O16 0.226400 0.243182 0.189747
O O17 0.215349 0.312147 0.331707
O O18 0.228204 0.500000 0.880174
#
# Coordination Sequence:
#
# PCOD9202378 Si02
#       8
#     8   8   8   8   2   8   8   8
#     4  11  24  38  60  88 120 158 199 249 306 367
#     4   9  19  36  59  86 113 151 198 243 290 348
#     4   9  18  37  62  86 114 153 199 241 286 350
#     4  10  20  38  61  85 112 149 198 249 299 355
#     4  12  24  40  62  88 120 162 200 262 308 368
#     4  11  23  38  59  86 118 156 198 243 296 359
#     4  10  21  37  61  89 120 153 192 244 298 349
#     4  12  23  40  62  86 120 156 205 253 308 361
#
# _framework density 20.494081000000001
#
# number of rings (size 3 to 8) (size 9 to 14) (size 15 to 20)
#    0.000    1.655    2.069    2.483    0.966    5.517 
#    0.000    3.448    1.517    0.000    0.000    0.000 
#    0.000    0.000    0.000    0.000    0.000    0.000 
#
# Total GULP energy -161737.323836 kJ/mol
# GULP energy per Si atom -5577.149098 kJ/mol
# Density = 2.044744 g / cm^3
# Si number density = 20.494081 Si / 1000 Ang^3
#
#
#
# Elastic Constant Matrix: (Units=GPa)
#
#
# Indices 1 2 3 4 5 6 
#
# 1 48.0091 10.4401 13.9299 0.0000 -17.7064 0.0000
# 2 10.4401 63.4191 37.7982 0.0000 -10.3137 0.0000
# 3 13.9299 37.7982 98.3164 0.0000 -27.7119 0.0000
# 4 0.0000 0.0000 0.0000 -7.4983 0.0000 -44.5093
# 5 -17.7064 -10.3137 -27.7119 0.0000 46.5370 0.0000
# 6 0.0000 0.0000 0.0000 -44.5093 0.0000 -57.7919
#
#
#
# Elastic Compliance Matrix: (Units=1/GPa)
#
#
# Indices 1 2 3 4 5 6 
#
# 1 0.024644 -0.002624 -0.000004 0.000000 0.008792 0.000000
# 2 -0.002624 0.020736 -0.007915 0.000000 -0.001116 0.000000
# 3 -0.000004 -0.007915 0.015285 0.000000 0.007346 0.000000
# 4 0.000000 0.000000 0.000000 0.037340 0.000000 -0.028758
# 5 0.008792 -0.001116 0.007346 0.000000 0.028961 0.000000
# 6 0.000000 0.000000 0.000000 -0.028758 0.000000 0.004845
#
#
# Mechanical properties :
#
#
# Convention : Reuss Voigt Hill
#
# Bulk Modulus (GPa) = 25.26646 37.12012 31.19329
# Shear Modulus (GPa) = 30.10404 6.08780 18.09592
#
# Velocity S-wave (km/s) = 3.83680 1.72539 2.97473
# Velocity P-wave (km/s) = 5.65539 4.70332 5.20119
#
# Compressibility (1/GPa) = 0.03957816
#
# Stress axis : x y z
#
# Youngs Moduli (GPa) = 40.57766 48.22559 65.42180
#
# Poissons Ratio (x) = 0.12656 0.00029
# Poissons Ratio (y) = 0.10649 0.51780
# Poissons Ratio (z) = 0.00018 0.38169
#
# Static dielectric constant tensor:
#      x y z
#    x 1.768070 0.000000 0.011210 
#    y 0.000000 1.711410 0.000000 
#    z 0.011210 0.000000 1.743370 
# 
# From -- ./inp_files/314797.got.cif
#   From: 2010.05.17/outbox.cif.g08.bks.cpg/sg12_158_cif.got.tgz:314797.got - 2010.06.03 13:09:07.
