data_PCOD9202551
_publ_section_title
;
Structure prediction by ZEFSAII (Michael W. Deem and Ramdas Pophale) SiO2 
 PCOD9202551
Probable space group: C 2/M
;
_chemical_formula_sum "Si O2"
_cell_formula_units_Z 48
_cell_length_a 14.856561
_cell_length_b 8.329480
_cell_length_c 16.698696
_cell_angle_alpha 90.000000
_cell_angle_beta 100.622190
_cell_angle_gamma 90.000000
_cell_volume 2031.010560
_symmetry_space_group_name_H-M "C 2/M"
_symmetry_group_IT_number 12
_symmetry_cell_setting 'monoclinic'
loop_
_space_group_symop_operation_xyz
x,y,z
-x,y,-z
-x,-y,-z
x,-y,z
1/2+x,1/2+y,z
1/2-x,1/2+y,-z
1/2-x,1/2-y,-z
1/2+x,1/2-y,z
loop_
_atom_site_type_symbol
_atom_site_label
_atom_site_fract_x
_atom_site_fract_y
_atom_site_fract_z
Si Si1 0.026268 0.309146 0.627023
Si Si2 0.867465 0.310152 0.198674
Si Si3 0.690127 0.313967 0.563923
Si Si4 0.797852 0.194577 0.927220
Si Si5 0.534473 0.308726 0.137569
Si Si6 0.646913 0.313310 0.320507
O O1 0.010613 0.500000 0.630703
O O2 0.085406 0.246817 0.713393
O O3 0.094411 0.275011 0.565076
O O4 0.928845 0.224949 0.623688
O O5 0.857285 0.500000 0.209978
O O6 0.769804 0.247517 0.154651
O O7 0.939786 0.278657 0.139367
O O8 0.670422 0.500000 0.550584
O O9 0.750000 0.250000 0.500000
O O10 0.761584 0.285663 0.648612
O O11 0.901345 0.245141 0.924931
O O12 0.798887 0.000000 0.926287
O O13 0.750000 0.250000 0.000000
O O14 0.516257 0.500000 0.127522
O O15 0.596221 0.284225 0.227915
O O16 0.672875 0.500000 0.327881
#
# Coordination Sequence:
#
# PCOD9202551 Si02
#       6
#     8   8   8   8   8   8
#     4  10  20  38  62  87 113 145 185 233 282 333
#     4   9  19  36  58  81 108 141 181 226 275 326
#     4  12  25  40  58  84 116 152 189 228 276 332
#     4  10  21  36  52  76 110 148 183 222 272 326
#     4   9  19  36  58  81 108 141 181 226 275 326
#     4  10  20  38  62  87 113 145 185 233 282 333
#
# _framework density 23.633555999999999
#
# number of rings (size 3 to 8) (size 9 to 14) (size 15 to 20)
#    0.000    2.000    0.000    3.500    0.000    6.667 
#    0.000    8.333    0.000    0.000    0.000    0.000 
#    0.000    0.000    0.000    0.000    0.000    0.000 
#
# Total GULP energy -134208.685502 kJ/mol
# GULP energy per Si atom -5592.028563 kJ/mol
# Density = 2.357976 g / cm^3
# Si number density = 23.633556 Si / 1000 Ang^3
#
#
#
# Elastic Constant Matrix: (Units=GPa)
#
#
# Indices 1 2 3 4 5 6 
#
# 1 122.0120 -2.0546 8.1358 0.0000 -22.2943 0.0000
# 2 -2.0546 25.4911 -5.4901 0.0000 4.2743 0.0000
# 3 8.1358 -5.4901 51.0265 0.0000 -20.2527 0.0000
# 4 0.0000 0.0000 0.0000 24.6809 0.0000 -4.5791
# 5 -22.2943 4.2743 -20.2527 0.0000 42.5116 0.0000
# 6 0.0000 0.0000 0.0000 -4.5791 0.0000 30.7381
#
#
#
# Elastic Compliance Matrix: (Units=1/GPa)
#
#
# Indices 1 2 3 4 5 6 
#
# 1 0.009077 0.000008 0.000546 0.000000 0.005019 0.000000
# 2 0.000008 0.040366 0.003370 0.000000 -0.002449 0.000000
# 3 0.000546 0.003370 0.024481 0.000000 0.011610 0.000000
# 4 0.000000 0.000000 0.000000 0.041669 0.000000 0.006207
# 5 0.005019 -0.002449 0.011610 0.000000 0.031933 0.000000
# 6 0.000000 0.000000 0.000000 0.006207 0.000000 0.033458
#
#
# Mechanical properties :
#
#
# Convention : Reuss Voigt Hill
#
# Bulk Modulus (GPa) = 12.22928 22.19019 17.20973
# Shear Modulus (GPa) = 24.95076 32.78202 28.86639
#
# Velocity S-wave (km/s) = 3.25273 3.72841 3.49867
# Velocity P-wave (km/s) = 4.39236 5.28625 4.85990
#
# Compressibility (1/GPa) = 0.08177099
#
# Stress axis : x y z
#
# Youngs Moduli (GPa) = 110.17095 24.77303 40.84727
#
# Poissons Ratio (x) = -0.00019 -0.02229
# Poissons Ratio (y) = -0.00083 -0.13765
# Poissons Ratio (z) = -0.06013 -0.08348
#
# Static dielectric constant tensor:
#      x y z
#    x 1.916550 0.000000 0.015130 
#    y 0.000000 1.813020 0.000000 
#    z 0.015130 0.000000 2.013920 
# 
# From -- ./inp_files/267655.got.cif
#   From: 2010.05.17/outbox.cif.g08.bks.cpg/sg12_134_cif.got.tgz:267655.got - 2010.06.03 13:09:07.
