data_PCOD9202552
_publ_section_title
;
Structure prediction by ZEFSAII (Michael W. Deem and Ramdas Pophale) SiO2 
 PCOD9202552
Probable space group: C 2/M
;
_chemical_formula_sum "Si O2"
_cell_formula_units_Z 56
_cell_length_a 23.238563
_cell_length_b 8.368403
_cell_length_c 17.704312
_cell_angle_alpha 90.000000
_cell_angle_beta 125.647049
_cell_angle_gamma 90.000000
_cell_volume 2797.819788
_symmetry_space_group_name_H-M "C 2/M"
_symmetry_group_IT_number 12
_symmetry_cell_setting 'monoclinic'
loop_
_space_group_symop_operation_xyz
x,y,z
-x,y,-z
-x,-y,-z
x,-y,z
1/2+x,1/2+y,z
1/2-x,1/2+y,-z
1/2-x,1/2-y,-z
1/2+x,1/2-y,z
loop_
_atom_site_type_symbol
_atom_site_label
_atom_site_fract_x
_atom_site_fract_y
_atom_site_fract_z
Si Si1 0.398054 0.684389 0.153679
Si Si2 0.720718 0.307531 0.684138
Si Si3 0.953558 0.691307 0.711959
Si Si4 0.227051 0.316314 0.848272
Si Si5 0.618259 0.813226 0.020685
Si Si6 0.321822 0.692089 0.514222
Si Si7 0.113460 0.693759 0.183481
O O1 0.381833 0.500000 0.153768
O O2 0.471100 0.732719 0.249411
O O3 0.332146 0.784260 0.134747
O O4 0.407056 0.720636 0.071932
O O5 0.716264 0.500000 0.689403
O O6 0.695780 0.225269 0.741912
O O7 0.682700 0.261868 0.577503
O O8 0.804104 0.265231 0.740295
O O9 0.960957 0.500000 0.719564
O O10 0.890084 0.737491 0.607832
O O11 0.930651 0.748315 0.778441
O O12 0.250459 0.500000 0.868873
O O13 0.296353 0.206940 0.911603
O O14 0.592582 0.753827 0.083226
O O15 0.599369 0.000000 0.997987
O O16 0.323713 0.500000 0.519816
O O17 0.250000 0.750000 0.500000
O O18 0.109961 0.500000 0.179315
#
# Coordination Sequence:
#
# PCOD9202552 Si02
#       7
#     8   8   8   8   8   8   8
#     4  12  25  41  57  81 116 157 197 240 291 346
#     4   9  18  36  59  86 118 153 189 234 289 342
#     4  11  22  39  59  85 119 156 195 239 290 348
#     4  11  22  38  61  89 115 148 194 245 290 338
#     4  10  20  38  62  87 115 152 194 238 287 344
#     4  11  21  36  60  90 121 155 193 235 286 342
#     4   8  16  33  57  84 115 151 187 228 285 343
#
# _framework density 20.015585000000002
#
# number of rings (size 3 to 8) (size 9 to 14) (size 15 to 20)
#    0.000    1.714    1.429    5.143    0.000    1.714 
#    0.000    5.714    0.000    4.286    0.000    0.000 
#    0.000    0.000    0.000    0.000    0.000    0.000 
#
# Total GULP energy -156461.792864 kJ/mol
# GULP energy per Si atom -5587.921174 kJ/mol
# Density = 1.997003 g / cm^3
# Si number density = 20.015585 Si / 1000 Ang^3
#
#
#
# Elastic Constant Matrix: (Units=GPa)
#
#
# Indices 1 2 3 4 5 6 
#
# 1 21.2264 -2.6175 21.1279 0.0000 -2.7123 0.0000
# 2 -2.6175 37.1521 -1.3786 0.0000 -7.4048 0.0000
# 3 21.1279 -1.3786 91.1403 0.0000 -5.7757 0.0000
# 4 0.0000 0.0000 0.0000 31.1469 0.0000 -1.7036
# 5 -2.7123 -7.4048 -5.7757 0.0000 24.8292 0.0000
# 6 0.0000 0.0000 0.0000 -1.7036 0.0000 20.4330
#
#
#
# Elastic Compliance Matrix: (Units=1/GPa)
#
#
# Indices 1 2 3 4 5 6 
#
# 1 0.062347 0.004865 -0.014063 0.000000 0.004990 0.000000
# 2 0.004865 0.029085 -0.000106 0.000000 0.009181 0.000000
# 3 -0.014063 -0.000106 0.014343 0.000000 0.001769 0.000000
# 4 0.000000 0.000000 0.000000 0.032253 0.000000 0.002689
# 5 0.004990 0.009181 0.001769 0.000000 0.043970 0.000000
# 6 0.000000 0.000000 0.000000 0.002689 0.000000 0.049165
#
#
# Mechanical properties :
#
#
# Convention : Reuss Voigt Hill
#
# Bulk Modulus (GPa) = 11.47233 20.42028 15.94631
# Shear Modulus (GPa) = 17.93237 24.10762 21.01999
#
# Velocity S-wave (km/s) = 2.99644 3.47427 3.24417
# Velocity P-wave (km/s) = 4.20900 5.13015 4.69223
#
# Compressibility (1/GPa) = 0.08716625
#
# Stress axis : x y z
#
# Youngs Moduli (GPa) = 16.03932 34.38191 69.72199
#
# Poissons Ratio (x) = -0.16728 0.98052
# Poissons Ratio (y) = -0.07803 0.00740
# Poissons Ratio (z) = 0.22557 0.00365
#
# Static dielectric constant tensor:
#      x y z
#    x 1.697300 0.000000 -0.016550 
#    y 0.000000 1.693880 0.000000 
#    z -0.016550 0.000000 1.716160 
# 
# From -- ./inp_files/288404.got.cif
#   From: 2010.05.17/outbox.cif.g08.bks.cpg/sg12_145_cif.got.tgz:288404.got - 2010.06.03 13:09:07.
