data_PCOD9202262
_publ_section_title
;
Structure prediction by ZEFSAII (Michael W. Deem and Ramdas Pophale) SiO2 
 PCOD9202262
Probable space group: C 2/M
;
_chemical_formula_sum "Si O2"
_cell_formula_units_Z 56
_cell_length_a 11.287296
_cell_length_b 27.603024
_cell_length_c 12.350527
_cell_angle_alpha 90.000000
_cell_angle_beta 132.919330
_cell_angle_gamma 90.000000
_cell_volume 2817.921753
_symmetry_space_group_name_H-M "C 2/M"
_symmetry_group_IT_number 12
_symmetry_cell_setting 'monoclinic'
loop_
_space_group_symop_operation_xyz
x,y,z
-x,y,-z
-x,-y,-z
x,-y,z
1/2+x,1/2+y,z
1/2-x,1/2+y,-z
1/2-x,1/2-y,-z
1/2+x,1/2-y,z
loop_
_atom_site_type_symbol
_atom_site_label
_atom_site_fract_x
_atom_site_fract_y
_atom_site_fract_z
Si Si1 0.841322 0.111688 0.643895
Si Si2 0.171178 0.443447 0.367301
Si Si3 0.625563 0.272436 0.337510
Si Si4 0.870937 0.278058 0.318482
Si Si5 0.679513 0.630230 0.130310
Si Si6 0.186031 0.555036 0.950528
Si Si7 0.856981 0.056894 0.271584
O O1 0.691284 0.091442 0.481826
O O2 0.863165 0.169454 0.650857
O O3 0.824693 0.100483 0.760094
O O4 0.994964 0.086036 0.685805
O O5 0.199422 0.500000 0.414422
O O6 0.299045 0.428469 0.354251
O O7 0.997111 0.441013 0.203367
O O8 0.750000 0.250000 0.500000
O O9 0.705609 0.258124 0.271806
O O10 0.454132 0.253676 0.276071
O O11 0.815318 0.328926 0.232449
O O12 0.000000 0.283794 0.500000
O O13 0.715996 0.595022 0.054156
O O14 0.500000 0.651919 0.000000
O O15 0.242390 0.500000 0.961328
O O16 0.212223 0.561790 0.094584
O O17 0.898580 0.000000 0.303314
#
# Coordination Sequence:
#
# PCOD9202262 Si02
#       7
#     8   8   8   8   8   8   8
#     4  11  22  37  60  91 120 151 201 248 295 356
#     4  10  22  37  58  89 122 156 197 250 296 344
#     4   9  20  37  59  90 118 155 197 247 307 358
#     4   9  20  39  64  86 119 156 201 249 301 362
#     4  11  23  40  60  84 120 159 197 243 306 356
#     4  10  22  38  59  85 119 162 202 238 291 363
#     4  10  20  38  60  85 121 161 196 241 299 355
#
# _framework density 19.872802
#
# number of rings (size 3 to 8) (size 9 to 14) (size 15 to 20)
#    0.000    2.000    1.429    1.286    6.000    7.714 
#    0.000    4.286    0.000    0.000    0.000    0.000 
#    0.000    0.000    0.000    0.000    0.000    0.000 
#
# Total GULP energy -156172.496688 kJ/mol
# GULP energy per Si atom -5577.589167 kJ/mol
# Density = 1.982757 g / cm^3
# Si number density = 19.872802 Si / 1000 Ang^3
#
#
#
# Elastic Constant Matrix: (Units=GPa)
#
#
# Indices 1 2 3 4 5 6 
#
# 1 90.6430 31.8188 7.1585 0.0000 -12.9047 0.0000
# 2 31.8188 34.3561 10.4091 0.0000 -6.8423 0.0000
# 3 7.1585 10.4091 80.0901 0.0000 -3.9602 0.0000
# 4 0.0000 0.0000 0.0000 22.0125 0.0000 2.5509
# 5 -12.9047 -6.8423 -3.9602 0.0000 25.6702 0.0000
# 6 0.0000 0.0000 0.0000 2.5509 0.0000 8.2059
#
#
#
# Elastic Compliance Matrix: (Units=1/GPa)
#
#
# Indices 1 2 3 4 5 6 
#
# 1 0.016868 -0.014904 0.000657 0.000000 0.004609 0.000000
# 2 -0.014904 0.044983 -0.004325 0.000000 0.003831 0.000000
# 3 0.000657 -0.004325 0.013048 0.000000 0.001191 0.000000
# 4 0.000000 0.000000 0.000000 0.047126 0.000000 -0.014650
# 5 0.004609 0.003831 0.001191 0.000000 0.042477 0.000000
# 6 0.000000 0.000000 0.000000 -0.014650 0.000000 0.126418
#
#
# Mechanical properties :
#
#
# Convention : Reuss Voigt Hill
#
# Bulk Modulus (GPa) = 26.48524 33.76245 30.12384
# Shear Modulus (GPa) = 14.67784 21.55791 18.11787
#
# Velocity S-wave (km/s) = 2.72065 3.29720 3.02270
# Velocity P-wave (km/s) = 4.81929 5.61440 5.23197
#
# Compressibility (1/GPa) = 0.03775688
#
# Stress axis : x y z
#
# Youngs Moduli (GPa) = 59.28292 22.23046 76.63919
#
# Poissons Ratio (x) = 0.33132 -0.05037
# Poissons Ratio (y) = 0.88354 0.33145
# Poissons Ratio (z) = -0.03896 0.09614
#
# Static dielectric constant tensor:
#      x y z
#    x 1.740110 0.000000 0.039930 
#    y 0.000000 1.681400 0.000000 
#    z 0.039930 0.000000 1.737750 
# 
# From -- ./inp_files/53265.got.cif
#   From: 2010.05.17/outbox.cif.g08.bks.cpg/sg12_27_cif.got.tgz:53265.got - 2010.06.03 13:09:07.
