data_PCOD9202471
_publ_section_title
;
Structure prediction by ZEFSAII (Michael W. Deem and Ramdas Pophale) SiO2 
 PCOD9202471
Probable space group: C 2/M
;
_chemical_formula_sum "Si O2"
_cell_formula_units_Z 52
_cell_length_a 17.898256
_cell_length_b 21.126497
_cell_length_c 9.666241
_cell_angle_alpha 90.000000
_cell_angle_beta 41.957721
_cell_angle_gamma 90.000000
_cell_volume 2443.714920
_symmetry_space_group_name_H-M "C 2/M"
_symmetry_group_IT_number 12
_symmetry_cell_setting 'monoclinic'
loop_
_space_group_symop_operation_xyz
x,y,z
-x,y,-z
-x,-y,-z
x,-y,z
1/2+x,1/2+y,z
1/2-x,1/2+y,-z
1/2-x,1/2-y,-z
1/2+x,1/2-y,z
loop_
_atom_site_type_symbol
_atom_site_label
_atom_site_fract_x
_atom_site_fract_y
_atom_site_fract_z
Si Si1 0.888758 0.926601 0.557703
Si Si2 0.896075 0.728335 0.825906
Si Si3 0.500000 0.132966 0.500000
Si Si4 0.881385 0.279407 0.167826
Si Si5 0.263319 0.925546 0.744944
Si Si6 0.184032 0.854178 0.099521
Si Si7 0.322864 0.346206 0.397986
O O1 0.800254 0.892147 0.780653
O O2 0.892328 0.889256 0.408784
O O3 0.000000 0.924129 0.500000
O O4 0.862062 0.000000 0.570086
O O5 0.908219 0.799512 0.754536
O O6 0.993084 0.681632 0.640827
O O7 0.867716 0.735020 0.025721
O O8 0.790087 0.689463 0.914391
O O9 0.610586 0.091308 0.376011
O O10 0.780340 0.317306 0.373103
O O11 0.888862 0.213917 0.244136
O O12 0.000000 0.314712 0.000000
O O13 0.228091 0.886568 0.657783
O O14 0.255439 0.000000 0.731368
O O15 0.177985 0.903647 0.983737
#
# Coordination Sequence:
#
# PCOD9202471 Si02
#       7
#     8   8   4   8   8   8   8
#     4  11  25  43  63  90 127 174 226 268 316 393
#     4  10  20  38  61  92 128 154 208 268 317 387
#     4  10  23  36  68 100 123 174 218 264 334 388
#     4  11  23  39  65  96 133 165 211 280 328 397
#     4  11  22  41  64  91 133 171 217 265 319 397
#     4  10  21  38  62  89 120 169 206 262 327 369
#     4  11  24  42  66  96 131 176 217 269 340 384
#
# _framework density 21.279077000000001
#
# number of rings (size 3 to 8) (size 9 to 14) (size 15 to 20)
#    0.000    1.385    3.077    2.077    3.231    0.000 
#    0.000    0.000    0.000    5.538    0.000    0.000 
#    0.000    0.000    0.000    0.000    0.000    0.000 
#
# Total GULP energy -145046.831639 kJ/mol
# GULP energy per Si atom -5578.724294 kJ/mol
# Density = 2.123064 g / cm^3
# Si number density = 21.279077 Si / 1000 Ang^3
#
#
#
# Elastic Constant Matrix: (Units=GPa)
#
#
# Indices 1 2 3 4 5 6 
#
# 1 73.7492 15.6721 14.9916 0.0000 16.0577 0.0000
# 2 15.6721 117.9845 27.5721 0.0000 10.2918 0.0000
# 3 14.9916 27.5721 87.5677 0.0000 17.6436 0.0000
# 4 0.0000 0.0000 0.0000 21.7701 0.0000 6.9430
# 5 16.0577 10.2918 17.6436 0.0000 41.1700 0.0000
# 6 0.0000 0.0000 0.0000 6.9430 0.0000 23.2195
#
#
#
# Elastic Compliance Matrix: (Units=1/GPa)
#
#
# Indices 1 2 3 4 5 6 
#
# 1 0.015182 -0.001300 -0.001163 0.000000 -0.005098 0.000000
# 2 -0.001300 0.009310 -0.002564 0.000000 -0.000722 0.000000
# 3 -0.001163 -0.002564 0.013359 0.000000 -0.004631 0.000000
# 4 0.000000 0.000000 0.000000 0.050777 0.000000 -0.015183
# 5 -0.005098 -0.000722 -0.004631 0.000000 0.028443 0.000000
# 6 0.000000 0.000000 0.000000 -0.015183 0.000000 0.047607
#
#
# Mechanical properties :
#
#
# Convention : Reuss Voigt Hill
#
# Bulk Modulus (GPa) = 35.97266 43.97480 39.97373
# Shear Modulus (GPa) = 27.17428 31.96965 29.57196
#
# Velocity S-wave (km/s) = 3.57745 3.88028 3.73194
# Velocity P-wave (km/s) = 5.83147 6.38640 6.11523
#
# Compressibility (1/GPa) = 0.02779889
#
# Stress axis : x y z
#
# Youngs Moduli (GPa) = 65.86671 107.40635 74.85614
#
# Poissons Ratio (x) = 0.13966 0.08702
# Poissons Ratio (y) = 0.08564 0.19190
# Poissons Ratio (z) = 0.07657 0.27534
#
# Static dielectric constant tensor:
#      x y z
#    x 1.937720 0.000000 -0.036340 
#    y 0.000000 1.775860 0.000000 
#    z -0.036340 0.000000 1.810040 
# 
# From -- ./inp_files/77963.got.cif
#   From: 2010.05.17/outbox.cif.g08.bks.cpg/sg12_39_cif.got.tgz:77963.got - 2010.06.03 13:09:07.
