data_PCOD9202143
_publ_section_title
;
Structure prediction by ZEFSAII (Michael W. Deem and Ramdas Pophale) SiO2 
 PCOD9202143
Probable space group: C 2/M
;
_chemical_formula_sum "Si O2"
_cell_formula_units_Z 50
_cell_length_a 17.796850
_cell_length_b 7.334680
_cell_length_c 14.894305
_cell_angle_alpha 90.000000
_cell_angle_beta 81.122929
_cell_angle_gamma 90.000000
_cell_volume 1920.927779
_symmetry_space_group_name_H-M "C 2/M"
_symmetry_group_IT_number 12
_symmetry_cell_setting 'monoclinic'
loop_
_space_group_symop_operation_xyz
x,y,z
-x,y,-z
-x,-y,-z
x,-y,z
1/2+x,1/2+y,z
1/2-x,1/2+y,-z
1/2-x,1/2-y,-z
1/2+x,1/2-y,z
loop_
_atom_site_type_symbol
_atom_site_label
_atom_site_fract_x
_atom_site_fract_y
_atom_site_fract_z
Si Si1 0.021772 0.221440 0.278501
Si Si2 0.412670 0.711455 0.552288
Si Si3 0.141674 0.706383 0.119711
Si Si4 0.645340 0.276935 0.620500
Si Si5 0.000000 0.000000 0.000000
Si Si6 0.891508 0.284061 0.073047
Si Si7 0.759512 0.785187 0.237827
O O1 0.076793 0.287303 0.350272
O O2 0.060253 0.294789 0.182248
O O3 0.935094 0.274702 0.317196
O O4 0.023094 0.000000 0.277204
O O5 0.500000 0.715276 0.500000
O O6 0.391340 0.500000 0.566578
O O7 0.361141 0.787233 0.481442
O O8 0.169683 0.500000 0.101746
O O9 0.194833 0.795945 0.185399
O O10 0.139575 0.783004 0.019621
O O11 0.645705 0.500000 0.618746
O O12 0.715807 0.215186 0.668727
O O13 0.036413 0.841533 0.929579
O O14 0.906174 0.500000 0.065514
O O15 0.833273 0.240540 0.162008
O O16 0.743386 0.000000 0.252939
#
# Coordination Sequence:
#
# PCOD9202143 Si02
#       7
#     8   8   8   8   2   8   8
#     4   9  17  29  54  82 108 142 191 248 302 351
#     4   7  11  24  45  78 109 136 182 243 298 356
#     4  10  23  38  54  80 117 158 199 242 297 358
#     4   8  15  28  54  81 106 142 193 246 300 356
#     4  12  26  44  68  94 120 150 204 244 296 354
#     4  11  25  42  63  91 124 157 194 246 298 349
#     4  10  20  38  59  82 114 161 204 242 295 357
#
# _framework density 26.029088000000002
#
# number of rings (size 3 to 8) (size 9 to 14) (size 15 to 20)
#    0.000    2.720    0.800    2.640    3.360    0.640 
#    0.000    0.800    0.000    5.280    0.000    0.000 
#    0.000    0.000    0.000    0.000    0.000    0.000 
#
# Total GULP energy -139451.399714 kJ/mol
# GULP energy per Si atom -5578.055989 kJ/mol
# Density = 2.596984 g / cm^3
# Si number density = 26.029088 Si / 1000 Ang^3
#
#
#
# Elastic Constant Matrix: (Units=GPa)
#
#
# Indices 1 2 3 4 5 6 
#
# 1 58.7695 17.3873 51.7354 0.0000 42.9109 0.0000
# 2 17.3873 117.2550 -10.9766 0.0000 7.2934 0.0000
# 3 51.7354 -10.9766 120.5441 0.0000 53.4484 0.0000
# 4 0.0000 0.0000 0.0000 -21.0380 0.0000 -51.7527
# 5 42.9109 7.2934 53.4484 0.0000 73.3863 0.0000
# 6 0.0000 0.0000 0.0000 -51.7527 0.0000 -102.0644
#
#
#
# Elastic Compliance Matrix: (Units=1/GPa)
#
#
# Indices 1 2 3 4 5 6 
#
# 1 0.038576 -0.005861 -0.010851 0.000000 -0.014071 0.000000
# 2 -0.005861 0.009718 0.003410 0.000000 -0.000023 0.000000
# 3 -0.010851 0.003410 0.015656 0.000000 -0.005397 0.000000
# 4 0.000000 0.000000 0.000000 0.192173 0.000000 -0.097443
# 5 -0.014071 -0.000023 -0.005397 0.000000 0.025787 0.000000
# 6 0.000000 0.000000 0.000000 -0.097443 0.000000 0.039612
#
#
# Mechanical properties :
#
#
# Convention : Reuss Voigt Hill
#
# Bulk Modulus (GPa) = 26.77549 45.87342 36.32445
# Shear Modulus (GPa) = 13.86684 5.95161 9.90923
#
# Velocity S-wave (km/s) = 2.31063 1.51377 1.95327
# Velocity P-wave (km/s) = 4.17466 4.55165 4.36722
#
# Compressibility (1/GPa) = 0.03734759
#
# Stress axis : x y z
#
# Youngs Moduli (GPa) = 25.92316 102.90023 63.87291
#
# Poissons Ratio (x) = 0.60307 0.69306
# Poissons Ratio (y) = 0.15193 -0.21783
# Poissons Ratio (z) = 0.28128 -0.35092
#
# Static dielectric constant tensor:
#      x y z
#    x 2.133950 0.000000 0.082920 
#    y 0.000000 3.425800 0.000000 
#    z 0.082920 0.000000 2.072880 
# 
# From -- ./inp_files/230039.got.cif
#   From: 2010.05.17/outbox.cif.g08.bks.cpg/sg12_116_cif.got.tgz:230039.got - 2010.06.03 13:09:07.
