data_PCOD9202989
_publ_section_title
;
Structure prediction by ZEFSAII (Michael W. Deem and Ramdas Pophale) SiO2 
 PCOD9202989
Probable space group: C 2/M
;
_chemical_formula_sum "Si O2"
_cell_formula_units_Z 56
_cell_length_a 10.064728
_cell_length_b 17.598868
_cell_length_c 17.093154
_cell_angle_alpha 90.000000
_cell_angle_beta 105.110980
_cell_angle_gamma 90.000000
_cell_volume 2922.984308
_symmetry_space_group_name_H-M "C 2/M"
_symmetry_group_IT_number 12
_symmetry_cell_setting 'monoclinic'
loop_
_space_group_symop_operation_xyz
x,y,z
-x,y,-z
-x,-y,-z
x,-y,z
1/2+x,1/2+y,z
1/2-x,1/2+y,-z
1/2-x,1/2-y,-z
1/2+x,1/2-y,z
loop_
_atom_site_type_symbol
_atom_site_label
_atom_site_fract_x
_atom_site_fract_y
_atom_site_fract_z
Si Si1 0.537528 0.167842 0.160412
Si Si2 0.345678 0.823319 0.506509
Si Si3 0.048752 0.847564 0.185857
Si Si4 0.763384 0.911088 0.099047
Si Si5 0.246610 0.411186 0.659049
Si Si6 0.563444 0.089350 0.326428
Si Si7 0.251259 0.588866 0.914087
O O1 0.540109 0.257939 0.170155
O O2 0.634002 0.138690 0.105474
O O3 0.591937 0.128644 0.248257
O O4 0.383553 0.138313 0.123045
O O5 0.500000 0.803359 0.500000
O O6 0.250000 0.750000 0.500000
O O7 0.280917 0.878196 0.430942
O O8 0.363201 0.867479 0.590971
O O9 0.137572 0.865822 0.276297
O O10 0.129383 0.886153 0.126114
O O11 0.897524 0.883241 0.165591
O O12 0.734832 0.000000 0.109522
O O13 0.790878 0.902195 0.010826
O O14 0.282615 0.500000 0.662079
O O15 0.100854 0.404371 0.682200
O O16 0.597748 0.000000 0.330788
O O17 0.218416 0.500000 0.895238
#
# Coordination Sequence:
#
# PCOD9202989 Si02
#       7
#     8   8   8   8   8   8   8
#     4  12  24  39  62  92 125 159 205 259 312 362
#     4  10  21  39  63  93 125 156 198 252 302 352
#     4  12  24  39  62  92 125 159 205 259 312 362
#     4  11  25  41  61  90 123 160 205 259 315 365
#     4  10  20  38  65  90 118 161 210 247 290 363
#     4  10  20  38  65  90 118 161 210 247 290 363
#     4  11  23  43  65  84 117 168 213 249 303 381
#
# _framework density 19.158501999999999
#
# number of rings (size 3 to 8) (size 9 to 14) (size 15 to 20)
#    0.000    1.143    1.429    5.571    0.000    7.429 
#    2.571    0.000    0.000    0.857    0.000    0.000 
#    0.000    0.000    0.000    0.000    0.000    0.000 
#
# Total GULP energy -156624.042518 kJ/mol
# GULP energy per Si atom -5593.715804 kJ/mol
# Density = 1.911490 g / cm^3
# Si number density = 19.158502 Si / 1000 Ang^3
#
#
#
# Elastic Constant Matrix: (Units=GPa)
#
#
# Indices 1 2 3 4 5 6 
#
# 1 30.8200 8.1790 -6.2289 0.0000 8.4713 0.0000
# 2 8.1790 100.7933 20.9560 0.0000 25.9566 0.0000
# 3 -6.2289 20.9560 69.8339 0.0000 12.9660 0.0000
# 4 0.0000 0.0000 0.0000 26.3789 0.0000 4.8913
# 5 8.4713 25.9566 12.9660 0.0000 22.7502 0.0000
# 6 0.0000 0.0000 0.0000 4.8913 0.0000 30.7139
#
#
#
# Elastic Compliance Matrix: (Units=1/GPa)
#
#
# Indices 1 2 3 4 5 6 
#
# 1 0.038902 0.000218 0.006867 0.000000 -0.018648 0.000000
# 2 0.000218 0.014172 -0.001360 0.000000 -0.015475 0.000000
# 3 0.006867 -0.001360 0.017364 0.000000 -0.010902 0.000000
# 4 0.000000 0.000000 0.000000 0.039063 0.000000 -0.006221
# 5 -0.018648 -0.015475 -0.010902 0.000000 0.074769 0.000000
# 6 0.000000 0.000000 0.000000 -0.006221 0.000000 0.033549
#
#
# Mechanical properties :
#
#
# Convention : Reuss Voigt Hill
#
# Bulk Modulus (GPa) = 12.21191 27.47326 19.84258
# Shear Modulus (GPa) = 21.39817 27.87134 24.63476
#
# Velocity S-wave (km/s) = 3.34563 3.81829 3.58975
# Velocity P-wave (km/s) = 4.61653 5.81466 5.24989
#
# Compressibility (1/GPa) = 0.08188728
#
# Stress axis : x y z
#
# Youngs Moduli (GPa) = 25.70558 70.56403 57.58896
#
# Poissons Ratio (x) = -0.01537 -0.39546
# Poissons Ratio (y) = -0.00560 0.07832
# Poissons Ratio (z) = -0.17652 0.09597
#
# Static dielectric constant tensor:
#      x y z
#    x 1.651170 0.000000 0.002760 
#    y 0.000000 1.629550 0.000000 
#    z 0.002760 0.000000 1.670100 
# 
# From -- ./inp_files/257143.got.cif
#   From: 2010.05.17/outbox.cif.g08.bks.cpg/sg12_129_cif.got.tgz:257143.got - 2010.06.03 13:09:07.
