data_PCOD9202056
_publ_section_title
;
Structure prediction by ZEFSAII (Michael W. Deem and Ramdas Pophale) SiO2 
 PCOD9202056
Probable space group: C 2/M
;
_chemical_formula_sum "Si O2"
_cell_formula_units_Z 40
_cell_length_a 14.806779
_cell_length_b 9.232861
_cell_length_c 30.488948
_cell_angle_alpha 90.000000
_cell_angle_beta 146.678010
_cell_angle_gamma 90.000000
_cell_volume 2289.725221
_symmetry_space_group_name_H-M "C 2/M"
_symmetry_group_IT_number 12
_symmetry_cell_setting 'monoclinic'
loop_
_space_group_symop_operation_xyz
x,y,z
-x,y,-z
-x,-y,-z
x,-y,z
1/2+x,1/2+y,z
1/2-x,1/2+y,-z
1/2-x,1/2-y,-z
1/2+x,1/2-y,z
loop_
_atom_site_type_symbol
_atom_site_label
_atom_site_fract_x
_atom_site_fract_y
_atom_site_fract_z
Si Si1 0.622223 0.673449 0.509893
Si Si2 0.692229 0.668307 0.088494
Si Si3 0.265377 0.670703 0.790640
Si Si4 0.363593 0.327518 0.082131
Si Si5 0.542651 0.672439 0.376648
O O1 0.500000 0.715561 0.500000
O O2 0.649649 0.500000 0.524534
O O3 0.547786 0.702289 0.431215
O O4 0.796988 0.754393 0.580219
O O5 0.726410 0.500000 0.090580
O O6 0.727160 0.687349 0.153860
O O7 0.799291 0.774411 0.102707
O O8 0.500000 0.693082 0.000000
O O9 0.239001 0.500000 0.770475
O O10 0.445988 0.712102 0.846832
O O11 0.120997 0.762310 0.710684
O O12 0.349745 0.500000 0.071062
O O13 0.250000 0.250000 0.000000
O O14 0.550120 0.500000 0.373891
#
# Coordination Sequence:
#
# PCOD9202056 Si02
#       5
#     8   8   8   8   8
#     4   9  19  38  62  84 112 150 186 221 276 342
#     4  10  20  38  58  78 107 147 193 236 285 340
#     4  10  22  39  57  78 115 155 186 230 287 342
#     4  11  22  37  57  82 110 147 193 239 287 337
#     4  10  21  36  57  87 116 143 185 235 277 329
#
# _framework density 17.469345000000001
#
# number of rings (size 3 to 8) (size 9 to 14) (size 15 to 20)
#    0.000    2.000    2.000    1.200    0.000    5.600 
#    0.000    6.000    0.000    0.000    0.000    0.000 
#    0.000    0.000    0.000    0.000    0.000    0.000 
#
# Total GULP energy -111656.656083 kJ/mol
# GULP energy per Si atom -5582.832804 kJ/mol
# Density = 1.742958 g / cm^3
# Si number density = 17.469345 Si / 1000 Ang^3
#
#
#
# Elastic Constant Matrix: (Units=GPa)
#
#
# Indices 1 2 3 4 5 6 
#
# 1 124.7712 59.3519 65.6822 0.0000 22.0138 0.0000
# 2 59.3519 59.5092 76.0886 0.0000 14.9015 0.0000
# 3 65.6822 76.0886 148.7667 0.0000 21.4221 0.0000
# 4 0.0000 0.0000 0.0000 34.6204 0.0000 0.8835
# 5 22.0138 14.9015 21.4221 0.0000 17.3417 0.0000
# 6 0.0000 0.0000 0.0000 0.8835 0.0000 32.5673
#
#
#
# Elastic Compliance Matrix: (Units=1/GPa)
#
#
# Indices 1 2 3 4 5 6 
#
# 1 0.016877 -0.019286 0.003784 0.000000 -0.009527 0.000000
# 2 -0.019286 0.073316 -0.028508 0.000000 -0.003302 0.000000
# 3 0.003784 -0.028508 0.020431 0.000000 -0.005545 0.000000
# 4 0.000000 0.000000 0.000000 0.028905 0.000000 -0.000784
# 5 -0.009527 -0.003302 -0.005545 0.000000 0.079445 0.000000
# 6 0.000000 0.000000 0.000000 -0.000784 0.000000 0.030727
#
#
# Mechanical properties :
#
#
# Convention : Reuss Voigt Hill
#
# Bulk Modulus (GPa) = 44.23813 81.69914 62.96863
# Shear Modulus (GPa) = 14.48202 25.70083 20.09143
#
# Velocity S-wave (km/s) = 2.88235 3.83978 3.39499
# Velocity P-wave (km/s) = 6.03784 8.15642 7.17575
#
# Compressibility (1/GPa) = 0.02260493
#
# Stress axis : x y z
#
# Youngs Moduli (GPa) = 59.25087 13.63952 48.94642
#
# Poissons Ratio (x) = 0.26305 -0.18522
# Poissons Ratio (y) = 1.14269 1.39538
# Poissons Ratio (z) = -0.22422 0.38884
#
# Static dielectric constant tensor:
#      x y z
#    x 1.587030 0.000000 -0.010590 
#    y 0.000000 1.580870 0.000000 
#    z -0.010590 0.000000 1.564560 
# 
# From -- ./inp_files/211218.got.cif
#   From: 2010.05.17/outbox.cif.g08.bks.cpg/sg12_106_cif.got.tgz:211218.got - 2010.06.03 13:09:07.
