data_PCOD9202999
_publ_section_title
;
Structure prediction by ZEFSAII (Michael W. Deem and Ramdas Pophale) SiO2 
 PCOD9202999
Probable space group: C 2/M
;
_chemical_formula_sum "Si O2"
_cell_formula_units_Z 44
_cell_length_a 19.802305
_cell_length_b 9.075472
_cell_length_c 23.051111
_cell_angle_alpha 90.000000
_cell_angle_beta 151.531780
_cell_angle_gamma 90.000000
_cell_volume 1974.675671
_symmetry_space_group_name_H-M "C 2/M"
_symmetry_group_IT_number 12
_symmetry_cell_setting 'monoclinic'
loop_
_space_group_symop_operation_xyz
x,y,z
-x,y,-z
-x,-y,-z
x,-y,z
1/2+x,1/2+y,z
1/2-x,1/2+y,-z
1/2-x,1/2-y,-z
1/2+x,1/2-y,z
loop_
_atom_site_type_symbol
_atom_site_label
_atom_site_fract_x
_atom_site_fract_y
_atom_site_fract_z
Si Si1 0.560859 0.259479 0.709030
Si Si2 0.410471 0.500000 0.041916
Si Si3 0.684374 0.000000 0.356978
Si Si4 0.611925 0.000000 0.837930
Si Si5 0.724964 0.500000 0.326030
Si Si6 0.342049 0.500000 0.589600
Si Si7 0.880132 0.331298 0.958899
Si Si8 0.601832 0.734146 0.530124
O O1 0.590662 0.136851 0.779197
O O2 0.444371 0.364629 0.650967
O O3 0.490090 0.215050 0.594664
O O4 0.715858 0.327912 0.814047
O O5 0.565752 0.500000 0.184899
O O6 0.399039 0.665318 0.002865
O O7 0.273686 0.500000 0.981469
O O8 0.771359 0.863848 0.398302
O O9 0.519803 0.000000 0.218446
O O10 0.710853 0.000000 0.446166
O O11 0.712614 0.500000 0.386671
O O12 0.817605 0.363316 0.376548
O O13 0.894439 0.500000 0.997158
O O14 0.000000 0.329955 0.000000
O O15 0.500000 0.660348 0.500000
#
# Coordination Sequence:
#
# PCOD9202999 Si02
#       8
#     8   4   4   4   4   4   8   8
#     4  10  20  38  66  92 123 167 219 282 323 397
#     4  10  25  43  63 102 136 178 231 282 330 405
#     4  10  21  42  66  94 123 172 218 282 332 398
#     4  10  20  39  66  91 122 163 231 267 329 388
#     4  12  25  42  62  94 136 179 211 276 342 402
#     4  10  20  38  65  91 125 160 222 272 330 397
#     4  10  21  41  70  96 130 182 234 277 333 399
#     4  11  24  40  62  96 134 168 212 271 344 405
#
# _framework density 22.282139999999998
#
# number of rings (size 3 to 8) (size 9 to 14) (size 15 to 20)
#    0.000    1.636    0.909    3.545    2.545    2.909 
#    1.636    8.182    0.000    0.000    0.000    0.000 
#    0.000    0.000    0.000    0.000    0.000    0.000 
#
# Total GULP energy -122568.869387 kJ/mol
# GULP energy per Si atom -5571.312245 kJ/mol
# Density = 2.223142 g / cm^3
# Si number density = 22.282140 Si / 1000 Ang^3
#
#
#
# Elastic Constant Matrix: (Units=GPa)
#
#
# Indices 1 2 3 4 5 6 
#
# 1 62.0813 3.6423 46.1442 0.0000 29.8840 0.0000
# 2 3.6423 118.5158 48.4935 0.0000 0.1161 0.0000
# 3 46.1442 48.4935 131.7249 0.0001 29.2535 0.0000
# 4 0.0000 0.0000 0.0001 29.5654 0.0000 7.8419
# 5 29.8840 0.1161 29.2535 0.0000 35.1610 0.0000
# 6 0.0000 0.0000 0.0000 7.8419 0.0000 10.7224
#
#
#
# Elastic Compliance Matrix: (Units=1/GPa)
#
#
# Indices 1 2 3 4 5 6 
#
# 1 0.031165 0.001949 -0.007054 0.000000 -0.020625 0.000000
# 2 0.001949 0.010463 -0.005102 0.000000 0.002553 0.000000
# 3 -0.007054 -0.005102 0.013009 0.000000 -0.004811 0.000000
# 4 0.000000 0.000000 0.000000 0.041963 0.000000 -0.030690
# 5 -0.020625 0.002553 -0.004811 0.000000 0.049965 0.000000
# 6 0.000000 0.000000 0.000000 -0.030690 0.000000 0.115708
#
#
# Mechanical properties :
#
#
# Convention : Reuss Voigt Hill
#
# Bulk Modulus (GPa) = 29.21993 56.54245 42.88119
# Shear Modulus (GPa) = 17.00125 29.35924 23.18025
#
# Velocity S-wave (km/s) = 2.76524 3.63383 3.22888
# Velocity P-wave (km/s) = 4.83089 6.56027 5.76084
#
# Compressibility (1/GPa) = 0.03422322
#
# Stress axis : x y z
#
# Youngs Moduli (GPa) = 32.08683 95.57744 76.86773
#
# Poissons Ratio (x) = -0.18627 0.54226
# Poissons Ratio (y) = -0.06253 0.39215
# Poissons Ratio (z) = 0.22636 0.48759
#
# Static dielectric constant tensor:
#      x y z
#    x 1.796990 0.000000 -0.010330 
#    y 0.000000 1.162560 0.000000 
#    z -0.010330 0.000000 1.794990 
# 
# From -- ./inp_files/382636.got.cif
#   From: 2010.05.17/outbox.cif.g08.bks.cpg/sg12_192_cif.got.tgz:382636.got - 2010.06.03 13:09:07.
