data_PCOD9202910
_publ_section_title
;
Structure prediction by ZEFSAII (Michael W. Deem and Ramdas Pophale) SiO2 
 PCOD9202910
Probable space group: C 2/M
;
_chemical_formula_sum "Si O2"
_cell_formula_units_Z 48
_cell_length_a 22.793046
_cell_length_b 14.889294
_cell_length_c 19.223186
_cell_angle_alpha 90.000000
_cell_angle_beta 159.413378
_cell_angle_gamma 90.000000
_cell_volume 2293.924987
_symmetry_space_group_name_H-M "C 2/M"
_symmetry_group_IT_number 12
_symmetry_cell_setting 'monoclinic'
loop_
_space_group_symop_operation_xyz
x,y,z
-x,y,-z
-x,-y,-z
x,-y,z
1/2+x,1/2+y,z
1/2-x,1/2+y,-z
1/2-x,1/2-y,-z
1/2+x,1/2-y,z
loop_
_atom_site_type_symbol
_atom_site_label
_atom_site_fract_x
_atom_site_fract_y
_atom_site_fract_z
Si Si1 0.872892 0.270182 0.917263
Si Si2 0.594670 0.159730 0.541101
Si Si3 0.931776 0.274224 0.227957
Si Si4 0.977480 0.397223 0.149938
Si Si5 0.359695 0.600176 0.577032
Si Si6 0.094573 0.900208 0.206222
O O1 0.868851 0.337602 0.977179
O O2 0.963976 0.177686 0.042757
O O3 0.697411 0.242916 0.688937
O O4 0.000000 0.307716 0.000000
O O5 0.500000 0.112653 0.500000
O O6 0.455432 0.190191 0.331619
O O7 0.739562 0.111394 0.656823
O O8 0.984619 0.351676 0.233135
O O9 0.041657 0.184830 0.342015
O O10 0.750000 0.250000 0.000000
O O11 0.922160 0.500000 0.092259
O O12 0.170368 0.394868 0.340097
O O13 0.426622 0.500000 0.634760
O O14 0.362089 0.607794 0.663978
O O15 0.025075 0.000000 0.117079
#
# Coordination Sequence:
#
# PCOD9202910 Si02
#       6
#     8   8   8   8   8   8
#     4  10  21  38  62  90 127 165 202 254 319 378
#     4  11  24  39  58  90 130 170 210 253 318 377
#     4  12  24  41  67  89 127 168 212 263 317 372
#     4  11  22  40  67  95 122 161 214 265 311 371
#     4  10  20  38  67  97 121 157 213 269 315 365
#     4  10  20  38  64  92 124 162 208 258 311 373
#
# _framework density 20.924835000000002
#
# number of rings (size 3 to 8) (size 9 to 14) (size 15 to 20)
#    0.000    1.333    3.333    3.500    0.000    4.333 
#    0.000    0.833    0.000    2.000    0.000    0.000 
#    0.000    0.000    0.000    0.000    0.000    0.000 
#
# Total GULP energy -134093.909439 kJ/mol
# GULP energy per Si atom -5587.246227 kJ/mol
# Density = 2.087721 g / cm^3
# Si number density = 20.924835 Si / 1000 Ang^3
#
#
#
# Elastic Constant Matrix: (Units=GPa)
#
#
# Indices 1 2 3 4 5 6 
#
# 1 69.9623 32.1293 -6.9809 -0.0001 -16.7341 -0.0018
# 2 32.1293 117.4450 19.0390 0.0011 -10.2151 -0.0026
# 3 -6.9809 19.0390 71.4017 0.0052 -19.2481 -0.0049
# 4 -0.0001 0.0011 0.0052 6.2707 0.0015 1.8610
# 5 -16.7341 -10.2151 -19.2481 0.0015 36.0479 -0.0032
# 6 -0.0018 -0.0026 -0.0049 1.8610 -0.0032 -39.2555
#
#
#
# Elastic Compliance Matrix: (Units=1/GPa)
#
#
# Indices 1 2 3 4 5 6 
#
# 1 0.020212 -0.005604 0.006509 -0.000006 0.011270 -0.000003
# 2 -0.005604 0.010520 -0.003797 0.000002 -0.001648 0.000000
# 3 0.006509 -0.003797 0.018899 -0.000016 0.012037 -0.000004
# 4 -0.000006 0.000002 -0.000016 0.157259 -0.000017 0.007455
# 5 0.011270 -0.001648 0.012037 -0.000017 0.038933 -0.000006
# 6 -0.000003 0.000000 -0.000004 0.007455 -0.000006 -0.025121
#
#
# Mechanical properties :
#
#
# Convention : Reuss Voigt Hill
#
# Bulk Modulus (GPa) = 22.80753 38.57597 30.69175
# Shear Modulus (GPa) = 20.73797 14.92073 17.82935
#
# Velocity S-wave (km/s) = 3.15154 2.67322 2.92218
# Velocity P-wave (km/s) = 4.91593 5.29185 5.10735
#
# Compressibility (1/GPa) = 0.04384518
#
# Stress axis : x y z
#
# Youngs Moduli (GPa) = 49.47504 95.05682 52.91301
#
# Poissons Ratio (x) = 0.53273 -0.34439
# Poissons Ratio (y) = 0.27727 0.20093
# Poissons Ratio (z) = -0.32202 0.36096
#
# Static dielectric constant tensor:
#      x y z
#    x 1.785720 0.000000 0.019860 
#    y 0.000000 1.745740 0.000000 
#    z 0.019860 0.000000 1.769970 
# 
# From -- ./inp_files/325713.got.cif
#   From: 2010.05.17/outbox.cif.g08.bks.cpg/sg12_163_cif.got.tgz:325713.got - 2010.06.03 13:09:07.
