data_PCOD9202273
_publ_section_title
;
Structure prediction by ZEFSAII (Michael W. Deem and Ramdas Pophale) SiO2 
 PCOD9202273
Probable space group: C 2/M
;
_chemical_formula_sum "Si O2"
_cell_formula_units_Z 48
_cell_length_a 27.863729
_cell_length_b 7.733473
_cell_length_c 10.104718
_cell_angle_alpha 90.000000
_cell_angle_beta 89.438907
_cell_angle_gamma 90.000000
_cell_volume 2177.294542
_symmetry_space_group_name_H-M "C 2/M"
_symmetry_group_IT_number 12
_symmetry_cell_setting 'monoclinic'
loop_
_space_group_symop_operation_xyz
x,y,z
-x,y,-z
-x,-y,-z
x,-y,z
1/2+x,1/2+y,z
1/2-x,1/2+y,-z
1/2-x,1/2-y,-z
1/2+x,1/2-y,z
loop_
_atom_site_type_symbol
_atom_site_label
_atom_site_fract_x
_atom_site_fract_y
_atom_site_fract_z
Si Si1 0.183345 0.711496 0.759181
Si Si2 0.542623 0.200955 0.086868
Si Si3 0.848839 0.289247 0.948091
Si Si4 0.033384 0.198931 0.382849
Si Si5 0.289689 0.297779 0.689727
Si Si6 0.870051 0.300858 0.490178
O O1 0.183718 0.500000 0.756539
O O2 0.235808 0.769590 0.710378
O O3 0.143371 0.767231 0.654482
O O4 0.172016 0.762638 0.909092
O O5 0.596190 0.272978 0.066745
O O6 0.530152 0.210342 0.241897
O O7 0.546759 0.000000 0.046193
O O8 0.500000 0.279007 0.000000
O O9 0.848156 0.500000 0.939320
O O10 0.817145 0.221621 0.828284
O O11 0.087793 0.205619 0.434029
O O12 0.000000 0.272309 0.500000
O O13 0.018959 0.000000 0.361757
O O14 0.287294 0.500000 0.654422
O O15 0.321702 0.206908 0.578186
O O16 0.885542 0.500000 0.478736
#
# Coordination Sequence:
#
# PCOD9202273 Si02
#       6
#     8   8   8   8   8   8
#     4   9  21  37  58  88 120 157 201 246 290 343
#     4  10  22  39  64  93 118 152 196 243 294 349
#     4  10  20  38  60  86 120 154 197 246 289 348
#     4  11  25  43  62  88 122 156 191 240 298 355
#     4  11  21  37  59  86 122 160 196 241 298 353
#     4  11  22  39  63  88 116 156 201 246 292 344
#
# _framework density 22.045707
#
# number of rings (size 3 to 8) (size 9 to 14) (size 15 to 20)
#    0.000    1.667    1.667    2.500    2.333    1.667 
#    0.000    5.000    0.000    0.000    0.000    0.000 
#    0.000    0.000    0.000    0.000    0.000    0.000 
#
# Total GULP energy -134192.007236 kJ/mol
# GULP energy per Si atom -5591.333635 kJ/mol
# Density = 2.199553 g / cm^3
# Si number density = 22.045707 Si / 1000 Ang^3
#
#
#
# Elastic Constant Matrix: (Units=GPa)
#
#
# Indices 1 2 3 4 5 6 
#
# 1 83.2294 -5.7870 16.4456 0.0000 5.1879 0.0000
# 2 -5.7870 39.4392 -17.2799 0.0000 1.3346 0.0000
# 3 16.4456 -17.2799 74.5617 0.0000 7.9696 0.0000
# 4 0.0000 0.0000 0.0000 23.6090 0.0000 -27.4665
# 5 5.1879 1.3346 7.9696 0.0000 43.6956 0.0000
# 6 0.0000 0.0000 0.0000 -27.4665 0.0000 14.4407
#
#
#
# Elastic Compliance Matrix: (Units=1/GPa)
#
#
# Indices 1 2 3 4 5 6 
#
# 1 0.012628 0.000800 -0.002485 0.000000 -0.001070 0.000000
# 2 0.000800 0.028461 0.006652 0.000000 -0.002178 0.000000
# 3 -0.002485 0.006652 0.015800 0.000000 -0.002790 0.000000
# 4 0.000000 0.000000 0.000000 -0.034925 0.000000 -0.066428
# 5 -0.001070 -0.002178 -0.002790 0.000000 0.023588 0.000000
# 6 0.000000 0.000000 0.000000 -0.066428 0.000000 -0.057099
#
#
# Mechanical properties :
#
#
# Convention : Reuss Voigt Hill
#
# Bulk Modulus (GPa) = 14.96482 20.44306 17.70394
# Shear Modulus (GPa) = 6294.60014 29.93915 3162.26965
#
# Velocity S-wave (km/s) = 53.49251 3.68917 37.91476
# Velocity P-wave (km/s) = 61.82287 5.23830 43.87201
#
# Compressibility (1/GPa) = 0.06682340
#
# Stress axis : x y z
#
# Youngs Moduli (GPa) = 79.18613 35.13555 63.29203
#
# Poissons Ratio (x) = -0.02812 0.15731
# Poissons Ratio (y) = -0.06337 -0.42103
# Poissons Ratio (z) = 0.19682 -0.23373
#
# Static dielectric constant tensor:
#      x y z
#    x 1.794530 0.000000 -0.001520 
#    y 0.000000 1.813670 0.000000 
#    z -0.001520 0.000000 1.760780 
# 
# From -- ./inp_files/108613.got.cif
#   From: 2010.05.17/outbox.cif.g08.bks.cpg/sg12_55_cif.got.tgz:108613.got - 2010.06.03 13:09:07.
