data_PCOD9202168
_publ_section_title
;
Structure prediction by ZEFSAII (Michael W. Deem and Ramdas Pophale) SiO2 
 PCOD9202168
Probable space group: C 2/M
;
_chemical_formula_sum "Si O2"
_cell_formula_units_Z 36
_cell_length_a 12.419286
_cell_length_b 8.958635
_cell_length_c 15.462750
_cell_angle_alpha 90.000000
_cell_angle_beta 51.088202
_cell_angle_gamma 90.000000
_cell_volume 1338.653992
_symmetry_space_group_name_H-M "C 2/M"
_symmetry_group_IT_number 12
_symmetry_cell_setting 'monoclinic'
loop_
_space_group_symop_operation_xyz
x,y,z
-x,y,-z
-x,-y,-z
x,-y,z
1/2+x,1/2+y,z
1/2-x,1/2+y,-z
1/2-x,1/2-y,-z
1/2+x,1/2-y,z
loop_
_atom_site_type_symbol
_atom_site_label
_atom_site_fract_x
_atom_site_fract_y
_atom_site_fract_z
Si Si1 0.898774 0.500000 0.428354
Si Si2 0.249148 0.000000 0.046977
Si Si3 0.476112 0.500000 0.271089
Si Si4 0.095596 0.168196 0.536797
Si Si5 0.011453 0.500000 0.816145
Si Si6 0.215878 0.500000 0.284880
Si Si7 0.368275 0.245588 0.114761
O O1 0.844113 0.335253 0.485146
O O2 0.937417 0.500000 0.306656
O O3 0.056880 0.500000 0.386947
O O4 0.298768 0.859164 0.078235
O O5 0.084473 0.000000 0.138397
O O6 0.344827 0.000000 0.914180
O O7 0.488853 0.638332 0.331297
O O8 0.324426 0.500000 0.308498
O O9 0.000000 0.171965 0.500000
O O10 0.167356 0.000000 0.491691
O O11 0.072715 0.641306 0.837910
O O12 0.259188 0.356255 0.209072
O O13 0.500000 0.316884 0.000000
#
# Coordination Sequence:
#
# PCOD9202168 Si02
#       7
#     4   4   4   8   4   4   8
#     4  12  22  38  63  93 120 158 198 240 295 356
#     4   9  18  37  60  80 116 166 200 234 296 354
#     4  10  20  38  59  85 124 160 194 248 299 346
#     4   9  21  42  69  86 113 151 200 247 306 353
#     4   9  20  37  58  86 118 162 200 236 296 356
#     4  12  23  32  50  90 120 150 204 244 285 350
#     4   9  19  35  53  79 119 160 202 245 286 343
#
# _framework density 26.892683999999999
#
# number of rings (size 3 to 8) (size 9 to 14) (size 15 to 20)
#    0.667    1.556    0.000    4.667    0.000    1.778 
#    0.000    6.667    0.000    0.000    0.000    0.000 
#    0.000    0.000    0.000    0.000    0.000    0.000 
#
# Total GULP energy -100751.623881 kJ/mol
# GULP energy per Si atom -5597.312438 kJ/mol
# Density = 2.683147 g / cm^3
# Si number density = 26.892684 Si / 1000 Ang^3
#
#
#
# Elastic Constant Matrix: (Units=GPa)
#
#
# Indices 1 2 3 4 5 6 
#
# 1 71.5334 68.9428 57.3277 0.0000 15.6719 0.0000
# 2 68.9428 214.1270 63.1490 0.0000 -5.2342 0.0000
# 3 57.3277 63.1490 158.7689 0.0000 -7.8434 0.0000
# 4 0.0000 0.0000 0.0000 -2.2437 0.0000 -33.5540
# 5 15.6719 -5.2342 -7.8434 0.0000 58.9446 0.0000
# 6 0.0000 0.0000 0.0000 -33.5540 0.0000 24.4661
#
#
#
# Elastic Compliance Matrix: (Units=1/GPa)
#
#
# Indices 1 2 3 4 5 6 
#
# 1 0.029950 -0.007420 -0.008344 0.000000 -0.009732 0.000000
# 2 -0.007420 0.007131 -0.000029 0.000000 0.002602 0.000000
# 3 -0.008344 -0.000029 0.009494 0.000000 0.003479 0.000000
# 4 0.000000 0.000000 0.000000 -0.020721 0.000000 -0.028417
# 5 -0.009732 0.002602 0.003479 0.000000 0.020247 0.000000
# 6 0.000000 0.000000 0.000000 -0.028417 0.000000 0.001900
#
#
# Mechanical properties :
#
#
# Convention : Reuss Voigt Hill
#
# Bulk Modulus (GPa) = 66.70837 91.47426 79.09132
# Shear Modulus (GPa) = 59.11321 33.23406 46.17364
#
# Velocity S-wave (km/s) = 4.69349 3.51921 4.14812
# Velocity P-wave (km/s) = 7.36418 7.11348 7.23991
#
# Compressibility (1/GPa) = 0.01499062
#
# Stress axis : x y z
#
# Youngs Moduli (GPa) = 33.38919 140.22756 105.32534
#
# Poissons Ratio (x) = 1.04052 0.87879
# Poissons Ratio (y) = 0.24776 0.00301
# Poissons Ratio (z) = 0.27859 0.00401
#
# Static dielectric constant tensor:
#      x y z
#    x 2.475340 0.000000 -0.327310 
#    y 0.000000 2.036960 0.000000 
#    z -0.327310 0.000000 2.341250 
# 
# From -- ./inp_files/260927.got.cif
#   From: 2010.05.17/outbox.cif.g08.bks.cpg/sg12_131_cif.got.tgz:260927.got - 2010.06.03 13:09:07.
