data_PCOD9202869
_publ_section_title
;
Structure prediction by ZEFSAII (Michael W. Deem and Ramdas Pophale) SiO2 
 PCOD9202869
Probable space group: C 2/M
;
_chemical_formula_sum "Si O2"
_cell_formula_units_Z 64
_cell_length_a 35.723029
_cell_length_b 7.973369
_cell_length_c 19.367276
_cell_angle_alpha 90.000000
_cell_angle_beta 145.666320
_cell_angle_gamma 90.000000
_cell_volume 3111.334339
_symmetry_space_group_name_H-M "C 2/M"
_symmetry_group_IT_number 12
_symmetry_cell_setting 'monoclinic'
loop_
_space_group_symop_operation_xyz
x,y,z
-x,y,-z
-x,-y,-z
x,-y,z
1/2+x,1/2+y,z
1/2-x,1/2+y,-z
1/2-x,1/2-y,-z
1/2+x,1/2-y,z
loop_
_atom_site_type_symbol
_atom_site_label
_atom_site_fract_x
_atom_site_fract_y
_atom_site_fract_z
Si Si1 0.564714 0.701398 0.298224
Si Si2 0.670685 0.799733 0.048473
Si Si3 0.779397 0.800568 0.469986
Si Si4 0.561515 0.303864 0.638526
Si Si5 0.453894 0.196483 0.231626
Si Si6 0.286835 0.703044 0.127743
Si Si7 0.937155 0.806760 0.855486
Si Si8 0.830161 0.194430 0.795107
O O1 0.554636 0.500000 0.289442
O O2 0.642894 0.737125 0.418067
O O3 0.520903 0.783542 0.290299
O O4 0.543714 0.762529 0.189791
O O5 0.738220 0.738003 0.115127
O O6 0.666835 0.763818 0.123592
O O7 0.670396 0.000000 0.040487
O O8 0.606797 0.737404 0.908314
O O9 0.750000 0.750000 0.500000
O O10 0.740495 0.712435 0.348840
O O11 0.771074 0.000000 0.450357
O O12 0.500000 0.231393 0.500000
O O13 0.566501 0.500000 0.626182
O O14 0.543581 0.288580 0.691708
O O15 0.637191 0.234146 0.748617
O O16 0.442165 0.000000 0.228262
O O17 0.289947 0.500000 0.133395
O O18 0.250000 0.750000 0.000000
O O19 0.879418 0.725357 0.813041
O O20 0.915136 0.000000 0.806443
O O21 0.000000 0.811596 0.000000
O O22 0.849579 0.000000 0.831118
#
# Coordination Sequence:
#
# PCOD9202869 Si02
#       8
#     8   8   8   8   8   8   8   8
#     4  10  21  38  59  83 115 161 205 242 297 363
#     4  10  22  39  58  88 126 161 198 250 314 363
#     4  11  22  39  61  83 116 159 202 251 302 358
#     4  10  22  40  64  93 124 164 211 253 302 374
#     4  11  23  39  60  90 127 159 197 256 311 361
#     4  10  20  38  64  89 121 162 208 254 304 371
#     4   9  17  32  54  80 111 148 194 243 287 339
#     4  11  22  37  59  88 118 153 203 252 296 356
#
# _framework density 20.569953000000002
#
# number of rings (size 3 to 8) (size 9 to 14) (size 15 to 20)
#    0.000    1.750    2.500    1.875    0.000    4.750 
#    0.000    2.500    0.000    2.625    0.000    0.000 
#    0.000    0.000    0.000    0.000    0.000    0.000 
#
# Total GULP energy -178603.340833 kJ/mol
# GULP energy per Si atom -5581.354401 kJ/mol
# Density = 2.052314 g / cm^3
# Si number density = 20.569953 Si / 1000 Ang^3
#
#
#
# Elastic Constant Matrix: (Units=GPa)
#
#
# Indices 1 2 3 4 5 6 
#
# 1 96.4652 2.2867 33.6186 0.0000 6.0963 0.0000
# 2 2.2867 16.6227 5.5816 0.0000 6.6916 0.0000
# 3 33.6186 5.5816 111.3947 0.0000 -3.3101 0.0000
# 4 0.0000 0.0000 0.0000 19.3798 0.0000 -8.1060
# 5 6.0963 6.6916 -3.3101 0.0000 36.2783 0.0000
# 6 0.0000 0.0000 0.0000 -8.1060 0.0000 17.7631
#
#
#
# Elastic Compliance Matrix: (Units=1/GPa)
#
#
# Indices 1 2 3 4 5 6 
#
# 1 0.011780 0.000582 -0.003656 0.000000 -0.002420 0.000000
# 2 0.000582 0.066504 -0.003886 0.000000 -0.012719 0.000000
# 3 -0.003656 -0.003886 0.010343 0.000000 0.002275 0.000000
# 4 0.000000 0.000000 0.000000 0.063773 0.000000 0.029102
# 5 -0.002420 -0.012719 0.002275 0.000000 0.030525 0.000000
# 6 0.000000 0.000000 0.000000 0.029102 0.000000 0.069577
#
#
# Mechanical properties :
#
#
# Convention : Reuss Voigt Hill
#
# Bulk Modulus (GPa) = 13.38586 34.16181 23.77384
# Shear Modulus (GPa) = 17.16307 26.88396 22.02351
#
# Velocity S-wave (km/s) = 2.89169 3.61910 3.27565
# Velocity P-wave (km/s) = 4.20366 5.84017 5.08814
#
# Compressibility (1/GPa) = 0.07470567
#
# Stress axis : x y z
#
# Youngs Moduli (GPa) = 84.89112 15.03674 96.68555
#
# Poissons Ratio (x) = -0.00874 0.35350
# Poissons Ratio (y) = -0.04937 0.37570
# Poissons Ratio (z) = 0.31038 0.05843
#
# Static dielectric constant tensor:
#      x y z
#    x 1.731800 0.000000 0.035010 
#    y 0.000000 1.769890 0.000000 
#    z 0.035010 0.000000 1.767840 
# 
# From -- ./inp_files/295791.got.cif
#   From: 2010.05.17/outbox.cif.g08.bks.cpg/sg12_148_cif.got.tgz:295791.got - 2010.06.03 13:09:07.
