data_PCOD9202318
_publ_section_title
;
Structure prediction by ZEFSAII (Michael W. Deem and Ramdas Pophale) SiO2 
 PCOD9202318
Probable space group: C 2/M
;
_chemical_formula_sum "Si O2"
_cell_formula_units_Z 48
_cell_length_a 22.668796
_cell_length_b 11.323413
_cell_length_c 14.494994
_cell_angle_alpha 90.000000
_cell_angle_beta 141.302893
_cell_angle_gamma 90.000000
_cell_volume 2326.189380
_symmetry_space_group_name_H-M "C 2/M"
_symmetry_group_IT_number 12
_symmetry_cell_setting 'monoclinic'
loop_
_space_group_symop_operation_xyz
x,y,z
-x,y,-z
-x,-y,-z
x,-y,z
1/2+x,1/2+y,z
1/2-x,1/2+y,-z
1/2-x,1/2-y,-z
1/2+x,1/2-y,z
loop_
_atom_site_type_symbol
_atom_site_label
_atom_site_fract_x
_atom_site_fract_y
_atom_site_fract_z
Si Si1 0.257932 0.362974 0.805507
Si Si2 0.934291 0.636166 0.327142
Si Si3 0.031119 0.803410 0.937777
Si Si4 0.004342 0.126521 0.699540
Si Si5 0.810400 0.785965 0.443419
Si Si6 0.874726 0.633128 0.696910
O O1 0.284271 0.500000 0.826627
O O2 0.176786 0.355992 0.783340
O O3 0.206909 0.312246 0.653814
O O4 0.356329 0.294196 0.934054
O O5 0.952291 0.500000 0.315635
O O6 0.000000 0.648668 0.500000
O O7 0.954458 0.748159 0.285814
O O8 0.002444 0.871179 0.808940
O O9 0.970410 0.683835 0.856234
O O10 0.000000 0.854768 0.000000
O O11 0.898281 0.130647 0.530579
O O12 0.049498 0.000000 0.727304
O O13 0.843269 0.715601 0.574262
O O14 0.713053 0.853616 0.340886
O O15 0.885455 0.500000 0.679162
#
# Coordination Sequence:
#
# PCOD9202318 Si02
#       6
#     8   8   8   8   8   8
#     4  11  22  40  65  91 122 166 218 265 312 386
#     4  10  22  43  70  96 126 168 221 270 323 388
#     4  11  24  43  61  93 130 173 217 257 322 390
#     4  11  24  41  66  99 133 167 215 272 328 382
#     4  10  20  38  60  94 124 163 217 265 321 382
#     4  10  21  38  59  87 131 173 213 264 325 389
#
# _framework density 20.634605000000001
#
# number of rings (size 3 to 8) (size 9 to 14) (size 15 to 20)
#    0.000    1.500    3.333    1.500    0.000    5.333 
#    0.000    0.833    0.000    0.000    0.000    0.000 
#    0.000    0.000    0.000    0.000    0.000    0.000 
#
# Total GULP energy -133725.290448 kJ/mol
# GULP energy per Si atom -5571.887102 kJ/mol
# Density = 2.058764 g / cm^3
# Si number density = 20.634605 Si / 1000 Ang^3
#
#
#
# Elastic Constant Matrix: (Units=GPa)
#
#
# Indices 1 2 3 4 5 6 
#
# 1 68.6214 52.2134 34.2455 0.0000 15.4661 0.0000
# 2 52.2134 130.3120 36.3043 0.0000 4.0434 0.0000
# 3 34.2455 36.3043 99.4865 0.0000 20.0007 0.0000
# 4 0.0000 0.0000 0.0000 4.2189 0.0000 8.5963
# 5 15.4661 4.0434 20.0007 0.0000 34.1070 0.0000
# 6 0.0000 0.0000 0.0000 8.5963 0.0000 6.8130
#
#
#
# Elastic Compliance Matrix: (Units=1/GPa)
#
#
# Indices 1 2 3 4 5 6 
#
# 1 0.024857 -0.008656 -0.003784 0.000000 -0.008026 0.000000
# 2 -0.008656 0.011583 -0.001995 0.000000 0.003722 0.000000
# 3 -0.003784 -0.001995 0.013252 0.000000 -0.005819 0.000000
# 4 0.000000 0.000000 0.000000 -0.150884 0.000000 0.190380
# 5 -0.008026 0.003722 -0.005819 0.000000 0.035930 0.000000
# 6 0.000000 0.000000 0.000000 0.190380 0.000000 -0.093434
#
#
# Mechanical properties :
#
#
# Convention : Reuss Voigt Hill
#
# Bulk Modulus (GPa) = 48.02972 60.43848 54.23410
# Shear Modulus (GPa) = -40.68803 20.73822 -9.97490
#
# Velocity S-wave (km/s) = -4.44535 3.17365 -2.20104
# Velocity P-wave (km/s) = 1.73821 6.54086 4.45878
#
# Compressibility (1/GPa) = 0.02082044
#
# Stress axis : x y z
#
# Youngs Moduli (GPa) = 40.23092 86.33568 75.46028
#
# Poissons Ratio (x) = 0.74735 0.28552
# Poissons Ratio (y) = 0.34825 0.15057
# Poissons Ratio (z) = 0.15222 0.17227
#
# Static dielectric constant tensor:
#      x y z
#    x 1.800900 0.000000 0.015150 
#    y 0.000000 1.739520 0.000000 
#    z 0.015150 0.000000 1.743540 
# 
# From -- ./inp_files/292936.got.cif
#   From: 2010.05.17/outbox.cif.g08.bks.cpg/sg12_147_cif.got.tgz:292936.got - 2010.06.03 13:09:07.
