data_PCOD9202183
_publ_section_title
;
Structure prediction by ZEFSAII (Michael W. Deem and Ramdas Pophale) SiO2 
 PCOD9202183
Probable space group: C 2/M
;
_chemical_formula_sum "Si O2"
_cell_formula_units_Z 40
_cell_length_a 17.634929
_cell_length_b 12.278605
_cell_length_c 9.406166
_cell_angle_alpha 90.000000
_cell_angle_beta 84.792574
_cell_angle_gamma 90.000000
_cell_volume 2028.332668
_symmetry_space_group_name_H-M "C 2/M"
_symmetry_group_IT_number 12
_symmetry_cell_setting 'monoclinic'
loop_
_space_group_symop_operation_xyz
x,y,z
-x,y,-z
-x,-y,-z
x,-y,z
1/2+x,1/2+y,z
1/2-x,1/2+y,-z
1/2-x,1/2-y,-z
1/2+x,1/2-y,z
loop_
_atom_site_type_symbol
_atom_site_label
_atom_site_fract_x
_atom_site_fract_y
_atom_site_fract_z
Si Si1 0.962433 0.289490 0.860261
Si Si2 0.224030 0.711586 0.782430
Si Si3 0.915655 0.375474 0.359791
Si Si4 0.345687 0.123574 0.671290
Si Si5 0.846433 0.125080 0.977175
O O1 0.892151 0.359176 0.809739
O O2 0.924579 0.172815 0.898909
O O3 0.026501 0.295465 0.728887
O O4 0.000000 0.330943 0.000000
O O5 0.165978 0.641666 0.700517
O O6 0.278864 0.788689 0.680395
O O7 0.279417 0.640368 0.872428
O O8 0.176728 0.793615 0.891882
O O9 0.942558 0.500000 0.333015
O O10 0.902206 0.358867 0.529074
O O11 0.317220 0.000000 0.667749
O O12 0.852186 0.000000 0.019265
#
# Coordination Sequence:
#
# PCOD9202183 Si02
#       5
#     8   8   8   8   8
#     4  11  22  39  56  86 115 150 193 233 281 328
#     4  10  20  38  59  88 114 147 190 234 284 337
#     4  11  22  38  59  86 116 151 189 233 286 336
#     4  10  22  38  60  85 116 152 187 232 286 340
#     4  10  21  38  59  85 118 149 187 236 286 335
#
# _framework density 19.72063
#
# number of rings (size 3 to 8) (size 9 to 14) (size 15 to 20)
#    0.000    1.600    2.000    3.000    0.000    3.600 
#    0.000    0.000    0.000   12.000    0.000    0.000 
#    0.000    0.000    0.000    0.000    0.000    0.000 
#
# Total GULP energy -111690.242074 kJ/mol
# GULP energy per Si atom -5584.512104 kJ/mol
# Density = 1.967575 g / cm^3
# Si number density = 19.720630 Si / 1000 Ang^3
#
#
#
# Elastic Constant Matrix: (Units=GPa)
#
#
# Indices 1 2 3 4 5 6 
#
# 1 70.7208 18.2519 16.4663 0.0000 -0.5718 0.0000
# 2 18.2519 66.8743 26.5484 0.0000 -13.5509 0.0000
# 3 16.4663 26.5484 74.8681 0.0000 9.7003 0.0000
# 4 0.0000 0.0000 0.0000 17.6057 0.0000 -3.8445
# 5 -0.5718 -13.5509 9.7003 0.0000 32.7544 0.0000
# 6 0.0000 0.0000 0.0000 -3.8445 0.0000 11.5955
#
#
#
# Elastic Compliance Matrix: (Units=1/GPa)
#
#
# Indices 1 2 3 4 5 6 
#
# 1 0.015532 -0.003523 -0.002094 0.000000 -0.000566 0.000000
# 2 -0.003523 0.021505 -0.008315 0.000000 0.011298 0.000000
# 3 -0.002094 -0.008315 0.017903 0.000000 -0.008779 0.000000
# 4 0.000000 0.000000 0.000000 0.061233 0.000000 0.020302
# 5 -0.000566 0.011298 -0.008779 0.000000 0.037794 0.000000
# 6 0.000000 0.000000 0.000000 0.020302 0.000000 0.092972
#
#
# Mechanical properties :
#
#
# Convention : Reuss Voigt Hill
#
# Bulk Modulus (GPa) = 36.93019 37.22184 37.07601
# Shear Modulus (GPa) = 17.61634 22.47089 20.04362
#
# Velocity S-wave (km/s) = 2.99205 3.37925 3.19153
# Velocity P-wave (km/s) = 5.54110 5.84306 5.69408
#
# Compressibility (1/GPa) = 0.02707812
#
# Stress axis : x y z
#
# Youngs Moduli (GPa) = 64.38248 46.50062 55.85627
#
# Poissons Ratio (x) = 0.16381 0.11694
# Poissons Ratio (y) = 0.22681 0.46443
# Poissons Ratio (z) = 0.13479 0.38664
#
# Static dielectric constant tensor:
#      x y z
#    x 1.729090 0.000000 0.000930 
#    y 0.000000 1.642880 0.000000 
#    z 0.000930 0.000000 1.702930 
# 
# From -- ./inp_files/71196.got.cif
#   From: 2010.05.17/outbox.cif.g08.bks.cpg/sg12_36_cif.got.tgz:71196.got - 2010.06.03 13:09:07.
