data_PCOD9202500
_publ_section_title
;
Structure prediction by ZEFSAII (Michael W. Deem and Ramdas Pophale) SiO2 
 PCOD9202500
Probable space group: C 2/M
;
_chemical_formula_sum "Si O2"
_cell_formula_units_Z 56
_cell_length_a 23.416569
_cell_length_b 17.876163
_cell_length_c 15.804533
_cell_angle_alpha 90.000000
_cell_angle_beta 25.402067
_cell_angle_gamma 90.000000
_cell_volume 2837.944190
_symmetry_space_group_name_H-M "C 2/M"
_symmetry_group_IT_number 12
_symmetry_cell_setting 'monoclinic'
loop_
_space_group_symop_operation_xyz
x,y,z
-x,y,-z
-x,-y,-z
x,-y,z
1/2+x,1/2+y,z
1/2-x,1/2+y,-z
1/2-x,1/2-y,-z
1/2+x,1/2-y,z
loop_
_atom_site_type_symbol
_atom_site_label
_atom_site_fract_x
_atom_site_fract_y
_atom_site_fract_z
Si Si1 0.575912 0.589692 0.663481
Si Si2 0.403019 0.409943 0.554597
Si Si3 0.845582 0.411650 0.848902
Si Si4 0.355560 0.155838 0.023529
Si Si5 0.328348 0.332843 0.061435
Si Si6 0.863262 0.411759 0.345334
Si Si7 0.843284 0.586468 0.573066
O O1 0.562461 0.500000 0.691767
O O2 0.543706 0.609855 0.609438
O O3 0.729449 0.608988 0.475514
O O4 0.474554 0.631168 0.860392
O O5 0.500000 0.384211 0.500000
O O6 0.394784 0.500000 0.569321
O O7 0.257388 0.377212 0.764804
O O8 0.812613 0.500000 0.891886
O O9 0.834276 0.381565 0.959580
O O10 0.753633 0.367365 0.907421
O O11 0.000437 0.403410 0.615302
O O12 0.504185 0.133755 0.852913
O O13 0.338762 0.244287 0.040305
O O14 0.249676 0.358975 0.249910
O O15 0.891170 0.500000 0.293752
O O16 0.833763 0.403194 0.484962
O O17 0.808345 0.500000 0.640139
#
# Coordination Sequence:
#
# PCOD9202500 Si02
#       7
#     8   8   8   8   8   8   8
#     4  10  22  39  60  84 112 151 198 243 281 332
#     4  10  21  38  60  85 113 148 191 239 288 339
#     4  10  20  38  62  84 111 150 197 239 277 335
#     4  11  23  37  57  84 117 154 186 233 295 348
#     4  12  23  34  55  88 122 150 180 233 298 353
#     4   9  20  41  63  81 106 149 204 246 278 330
#     4   9  19  36  59  83 110 149 193 238 284 338
#
# _framework density 19.732593999999999
#
# number of rings (size 3 to 8) (size 9 to 14) (size 15 to 20)
#    0.000    1.857    0.000    5.143    0.000    7.429 
#    0.000    5.714    0.000    0.000    0.000    0.000 
#    0.000    0.000    0.000    0.000    0.000    0.000 
#
# Total GULP energy -156533.384903 kJ/mol
# GULP energy per Si atom -5590.478032 kJ/mol
# Density = 1.968768 g / cm^3
# Si number density = 19.732594 Si / 1000 Ang^3
#
#
#
# Elastic Constant Matrix: (Units=GPa)
#
#
# Indices 1 2 3 4 5 6 
#
# 1 39.9441 21.1370 11.6946 -0.0004 -19.5207 0.0000
# 2 21.1370 71.3577 48.7539 -0.0003 -1.1629 0.0000
# 3 11.6946 48.7539 87.9170 0.0001 2.8789 0.0000
# 4 -0.0004 -0.0003 0.0001 174.5463 -0.0001 60.9877
# 5 -19.5207 -1.1629 2.8789 -0.0001 22.3681 -0.0001
# 6 0.0000 0.0000 0.0000 60.9877 -0.0001 26.8542
#
#
#
# Elastic Compliance Matrix: (Units=1/GPa)
#
#
# Indices 1 2 3 4 5 6 
#
# 1 0.058051 -0.016085 -0.000435 0.000000 0.049881 0.000000
# 2 -0.016085 0.027195 -0.012581 0.000000 -0.011005 0.000000
# 3 -0.000435 -0.012581 0.018521 0.000000 -0.003418 0.000000
# 4 0.000000 0.000000 0.000000 0.027748 0.000000 -0.063017
# 5 0.049881 -0.011005 -0.003418 0.000000 0.088106 0.000001
# 6 0.000000 0.000000 0.000000 -0.063017 0.000001 0.180355
#
#
# Mechanical properties :
#
#
# Convention : Reuss Voigt Hill
#
# Bulk Modulus (GPa) = 21.94700 40.26552 31.10626
# Shear Modulus (GPa) = 10.56264 52.59594 31.57929
#
# Velocity S-wave (km/s) = 2.31614 5.16839 4.00479
# Velocity P-wave (km/s) = 4.27774 7.48773 6.09775
#
# Compressibility (1/GPa) = 0.04556432
#
# Stress axis : x y z
#
# Youngs Moduli (GPa) = 17.22615 36.77180 53.99345
#
# Poissons Ratio (x) = 0.59148 0.02351
# Poissons Ratio (y) = 0.27709 0.67928
# Poissons Ratio (z) = 0.00750 0.46262
#
# Static dielectric constant tensor:
#      x y z
#    x 1.701290 0.000000 -0.009520 
#    y 0.000000 1.653470 0.000000 
#    z -0.009520 0.000000 1.677540 
# 
# From -- ./inp_files/293846.got.cif
#   From: 2010.05.17/outbox.cif.g08.bks.cpg/sg12_147_cif.got.tgz:293846.got - 2010.06.03 13:09:07.
