data_PCOD9202382
_publ_section_title
;
Structure prediction by ZEFSAII (Michael W. Deem and Ramdas Pophale) SiO2 
 PCOD9202382
Probable space group: C 2/M
;
_chemical_formula_sum "Si O2"
_cell_formula_units_Z 40
_cell_length_a 8.201445
_cell_length_b 23.122501
_cell_length_c 14.836706
_cell_angle_alpha 90.000000
_cell_angle_beta 140.850687
_cell_angle_gamma 90.000000
_cell_volume 1776.349369
_symmetry_space_group_name_H-M "C 2/M"
_symmetry_group_IT_number 12
_symmetry_cell_setting 'monoclinic'
loop_
_space_group_symop_operation_xyz
x,y,z
-x,y,-z
-x,-y,-z
x,-y,z
1/2+x,1/2+y,z
1/2-x,1/2+y,-z
1/2-x,1/2-y,-z
1/2+x,1/2-y,z
loop_
_atom_site_type_symbol
_atom_site_label
_atom_site_fract_x
_atom_site_fract_y
_atom_site_fract_z
Si Si1 0.937169 0.936113 0.816489
Si Si2 0.421141 0.885494 0.665682
Si Si3 0.454337 0.568881 0.351223
Si Si4 0.723094 0.160833 0.040369
Si Si5 0.812342 0.277038 0.145770
O O1 0.644548 0.925926 0.720342
O O2 0.996732 0.927162 0.735249
O O3 0.100877 0.885714 0.931307
O O4 0.022039 0.000000 0.877835
O O5 0.179346 0.894033 0.495530
O O6 0.546775 0.820915 0.725877
O O7 0.308691 0.908014 0.714010
O O8 0.476945 0.500000 0.382153
O O9 0.866181 0.208249 0.165216
O O10 0.500000 0.130219 0.000000
O O11 0.587418 0.199404 0.906781
O O12 0.500000 0.283770 0.000000
#
# Coordination Sequence:
#
# PCOD9202382 Si02
#       5
#     8   8   8   8   8
#     4  11  22  38  62  91 123 157 202 252 299 360
#     4  11  20  38  64  89 116 160 206 246 296 358
#     4  10  22  39  61  88 124 164 199 245 307 365
#     4  10  21  38  60  84 119 162 197 244 303 358
#     4  10  20  38  61  85 117 157 202 247 297 361
#
# _framework density 22.518093
#
# number of rings (size 3 to 8) (size 9 to 14) (size 15 to 20)
#    0.000    1.600    2.000    4.200    0.000    2.000 
#    0.000    5.000    4.400    0.000    0.000    0.000 
#    0.000    0.000    0.000    0.000    0.000    0.000 
#
# Total GULP energy -111437.828371 kJ/mol
# GULP energy per Si atom -5571.891419 kJ/mol
# Density = 2.246684 g / cm^3
# Si number density = 22.518093 Si / 1000 Ang^3
#
#
#
# Elastic Constant Matrix: (Units=GPa)
#
#
# Indices 1 2 3 4 5 6 
#
# 1 120.5412 19.1577 12.7942 0.0000 22.5879 0.0000
# 2 19.1577 159.1791 43.8653 0.0000 15.2068 0.0000
# 3 12.7942 43.8653 43.1777 0.0000 14.7498 0.0000
# 4 0.0000 0.0000 0.0000 23.6425 0.0000 -1.2172
# 5 22.5879 15.2068 14.7498 0.0000 32.5354 0.0000
# 6 0.0000 0.0000 0.0000 -1.2172 0.0000 33.6663
#
#
#
# Elastic Compliance Matrix: (Units=1/GPa)
#
#
# Indices 1 2 3 4 5 6 
#
# 1 0.009582 -0.000503 -0.000161 0.000000 -0.006344 0.000000
# 2 -0.000503 0.008751 -0.008831 0.000000 0.000262 0.000000
# 3 -0.000161 -0.008831 0.036363 0.000000 -0.012245 0.000000
# 4 0.000000 0.000000 0.000000 0.042376 0.000000 0.001532
# 5 -0.006344 0.000262 -0.012245 0.000000 0.040569 0.000000
# 6 0.000000 0.000000 0.000000 0.001532 0.000000 0.029759
#
#
# Mechanical properties :
#
#
# Convention : Reuss Voigt Hill
#
# Bulk Modulus (GPa) = 28.00706 52.72579 40.36643
# Shear Modulus (GPa) = 25.21536 34.44088 29.82812
#
# Velocity S-wave (km/s) = 3.34994 3.91509 3.64349
# Velocity P-wave (km/s) = 5.23712 6.62593 5.97203
#
# Compressibility (1/GPa) = 0.03570528
#
# Stress axis : x y z
#
# Youngs Moduli (GPa) = 104.36513 114.26813 27.50048
#
# Poissons Ratio (x) = 0.05744 0.00444
# Poissons Ratio (y) = 0.05246 0.24287
# Poissons Ratio (z) = 0.01684 1.00914
#
# Static dielectric constant tensor:
#      x y z
#    x 1.930440 0.000000 -0.042760 
#    y 0.000000 1.931660 0.000000 
#    z -0.042760 0.000000 1.899020 
# 
# From -- ./inp_files/120396.got.cif
#   From: 2010.05.17/outbox.cif.g08.bks.cpg/sg12_61_cif.got.tgz:120396.got - 2010.06.03 13:09:07.
