data_PCOD9202023
_publ_section_title
;
Structure prediction by ZEFSAII (Michael W. Deem and Ramdas Pophale) SiO2 
 PCOD9202023
Probable space group: C 2/M
;
_chemical_formula_sum "Si O2"
_cell_formula_units_Z 48
_cell_length_a 29.022332
_cell_length_b 23.468438
_cell_length_c 12.574878
_cell_angle_alpha 90.000000
_cell_angle_beta 159.685804
_cell_angle_gamma 90.000000
_cell_volume 2973.445496
_symmetry_space_group_name_H-M "C 2/M"
_symmetry_group_IT_number 12
_symmetry_cell_setting 'monoclinic'
loop_
_space_group_symop_operation_xyz
x,y,z
-x,y,-z
-x,-y,-z
x,-y,z
1/2+x,1/2+y,z
1/2-x,1/2+y,-z
1/2-x,1/2-y,-z
1/2+x,1/2-y,z
loop_
_atom_site_type_symbol
_atom_site_label
_atom_site_fract_x
_atom_site_fract_y
_atom_site_fract_z
Si Si1 0.426353 0.000000 0.454292
Si Si2 0.196079 0.168713 0.671521
Si Si3 0.697446 0.202495 0.691929
Si Si4 0.450303 0.376824 0.270057
Si Si5 0.855834 0.758597 0.636702
Si Si6 0.483856 0.122174 0.337612
Si Si7 0.123266 0.000000 0.848008
O O1 0.500000 0.000000 0.500000
O O2 0.471031 0.059412 0.602944
O O3 0.266565 0.000000 0.100896
O O4 0.209508 0.231635 0.754520
O O5 0.169500 0.185388 0.490959
O O6 0.073451 0.137103 0.460445
O O7 0.332454 0.135404 0.981329
O O8 0.660938 0.209218 0.488277
O O9 0.580724 0.169375 0.498255
O O10 0.834065 0.168999 0.002450
O O11 0.500000 0.374131 0.500000
O O12 0.392792 0.440253 0.125931
O O13 0.750000 0.750000 0.500000
O O14 0.000000 0.759469 0.000000
O O15 0.500000 0.123811 0.500000
O O16 0.000000 0.000000 0.500000
#
# Coordination Sequence:
#
# PCOD9202023 Si02
#       7
#     4   8   8   8   8   8   4
#     4  10  22  36  56  76 108 160 200 216 254 310
#     4  10  23  33  54  87 108 143 191 214 287 334
#     4  10  21  35  54  83 112 140 193 211 284 338
#     4  11  21  35  53  80 120 151 185 220 258 325
#     4  10  20  38  57  78 109 139 183 234 278 332
#     4  11  21  35  53  80 120 150 181 222 259 321
#     4  10  22  36  56  76 108 161 200 214 256 309
#
# _framework density 16.142890000000001
#
# number of rings (size 3 to 8) (size 9 to 14) (size 15 to 20)
#    1.000    0.667    1.667    4.000    7.000    4.000 
#    0.000    0.000    0.000    0.000    0.000   23.333 
#    0.000    0.000    0.000    0.000    0.000    0.000 
#
# Total GULP energy -133713.881990 kJ/mol
# GULP energy per Si atom -5571.411750 kJ/mol
# Density = 1.610615 g / cm^3
# Si number density = 16.142890 Si / 1000 Ang^3
#
#
#
# Elastic Constant Matrix: (Units=GPa)
#
#
# Indices 1 2 3 4 5 6 
#
# 1 99.3292 25.6010 54.4794 0.0000 11.8231 0.0000
# 2 25.6010 96.6402 42.5990 0.0000 12.4092 0.0000
# 3 54.4794 42.5990 142.1582 0.0000 22.6932 0.0000
# 4 0.0000 0.0000 0.0000 23.1442 0.0000 17.2710
# 5 11.8231 12.4092 22.6932 0.0000 39.4480 0.0000
# 6 0.0000 0.0000 0.0000 17.2710 0.0000 4.9736
#
#
#
# Elastic Compliance Matrix: (Units=1/GPa)
#
#
# Indices 1 2 3 4 5 6 
#
# 1 0.012945 -0.001370 -0.004404 0.000000 -0.000915 0.000000
# 2 -0.001370 0.012194 -0.002843 0.000000 -0.001790 0.000000
# 3 -0.004404 -0.002843 0.010153 0.000000 -0.003626 0.000000
# 4 0.000000 0.000000 0.000000 -0.027151 0.000000 0.094285
# 5 -0.000915 -0.001790 -0.003626 0.000000 0.028273 0.000000
# 6 0.000000 0.000000 0.000000 0.094285 0.000000 -0.126347
#
#
# Mechanical properties :
#
#
# Convention : Reuss Voigt Hill
#
# Bulk Modulus (GPa) = 55.38168 64.83180 60.10674
# Shear Modulus (GPa) = -74.98657 27.87638 -23.55510
#
# Velocity S-wave (km/s) = -6.82295 4.16005 -3.82404
# Velocity P-wave (km/s) = 5.26199 7.95758 4.22105
#
# Compressibility (1/GPa) = 0.01805651
#
# Stress axis : x y z
#
# Youngs Moduli (GPa) = 77.24808 82.00944 98.49174
#
# Poissons Ratio (x) = 0.11239 0.43379
# Poissons Ratio (y) = 0.10586 0.28002
# Poissons Ratio (z) = 0.34022 0.23316
#
# Static dielectric constant tensor:
#      x y z
#    x 1.524340 0.000000 0.000010 
#    y 0.000000 1.569800 0.000000 
#    z 0.000010 0.000000 1.521900 
# 
# From -- ./inp_files/185108.got.cif
#   From: 2010.05.17/outbox.cif.g08.bks.cpg/sg12_93_cif.got.tgz:185108.got - 2010.06.03 13:09:07.
