data_PCOD9202081
_publ_section_title
;
Structure prediction by ZEFSAII (Michael W. Deem and Ramdas Pophale) SiO2 
 PCOD9202081
Probable space group: C 2/M
;
_chemical_formula_sum "Si O2"
_cell_formula_units_Z 64
_cell_length_a 14.939701
_cell_length_b 14.553805
_cell_length_c 15.709974
_cell_angle_alpha 90.000000
_cell_angle_beta 58.681250
_cell_angle_gamma 90.000000
_cell_volume 2918.089596
_symmetry_space_group_name_H-M "C 2/M"
_symmetry_group_IT_number 12
_symmetry_cell_setting 'monoclinic'
loop_
_space_group_symop_operation_xyz
x,y,z
-x,y,-z
-x,-y,-z
x,-y,z
1/2+x,1/2+y,z
1/2-x,1/2+y,-z
1/2-x,1/2-y,-z
1/2+x,1/2-y,z
loop_
_atom_site_type_symbol
_atom_site_label
_atom_site_fract_x
_atom_site_fract_y
_atom_site_fract_z
Si Si1 0.426336 0.608375 0.885875
Si Si2 0.486209 0.338520 0.419850
Si Si3 0.047926 0.610542 0.066095
Si Si4 0.261062 0.891372 0.909116
Si Si5 0.866304 0.105694 0.303898
Si Si6 0.181097 0.783812 0.212487
Si Si7 0.834434 0.609280 0.246029
Si Si8 0.286202 0.742628 0.577625
O O1 0.413381 0.500000 0.870116
O O2 0.549067 0.627380 0.812153
O O3 0.368852 0.670570 0.845528
O O4 0.360336 0.621969 0.004158
O O5 0.500000 0.398500 0.500000
O O6 0.426874 0.380733 0.365846
O O7 0.594102 0.300084 0.328356
O O8 0.408709 0.263764 0.499451
O O9 0.052651 0.500000 0.053699
O O10 0.161064 0.634331 0.049644
O O11 0.958034 0.630962 0.181076
O O12 0.000000 0.646262 0.000000
O O13 0.291820 0.820886 0.820645
O O14 0.276876 0.000000 0.883130
O O15 0.767739 0.172757 0.347990
O O16 0.835887 0.000000 0.312297
O O17 0.280914 0.843105 0.191170
O O18 0.821738 0.500000 0.248336
O O19 0.770224 0.652825 0.355275
O O20 0.250000 0.750000 0.500000
#
# Coordination Sequence:
#
# PCOD9202081 Si02
#       8
#     8   8   8   8   8   8   8   8
#     4   9  18  34  58  89 120 150 195 244 289 347
#     4  10  20  38  58  83 120 151 196 253 303 341
#     4   9  19  35  56  86 123 156 193 241 292 350
#     4  10  21  37  61  89 122 163 200 242 297 360
#     4   9  20  37  60  87 116 154 198 245 298 358
#     4  11  21  36  59  89 121 158 197 248 301 358
#     4  11  23  39  61  88 120 156 196 250 308 354
#     4  10  22  39  57  83 119 156 195 248 296 360
#
# _framework density 21.932157
#
# number of rings (size 3 to 8) (size 9 to 14) (size 15 to 20)
#    0.000    2.125    1.250    1.500    5.250    4.750 
#    0.000    1.250    0.000    0.750    0.000    2.625 
#    0.000    1.500    0.000    0.000    0.000    0.000 
#
# Total GULP energy -178382.030639 kJ/mol
# GULP energy per Si atom -5574.438457 kJ/mol
# Density = 2.188224 g / cm^3
# Si number density = 21.932157 Si / 1000 Ang^3
#
#
#
# Elastic Constant Matrix: (Units=GPa)
#
#
# Indices 1 2 3 4 5 6 
#
# 1 54.1923 26.9416 29.9436 0.0000 -29.0384 0.0000
# 2 26.9416 99.2679 50.1994 0.0000 -18.8689 0.0000
# 3 29.9436 50.1994 113.2550 0.0000 -25.8711 0.0000
# 4 0.0000 0.0000 0.0000 14.7231 0.0000 2.3817
# 5 -29.0384 -18.8689 -25.8711 0.0000 46.0522 0.0000
# 6 0.0000 0.0000 0.0000 2.3817 0.0000 16.9009
#
#
#
# Elastic Compliance Matrix: (Units=1/GPa)
#
#
# Indices 1 2 3 4 5 6 
#
# 1 0.030499 -0.003861 -0.002662 0.000000 0.016154 0.000000
# 2 -0.003861 0.013707 -0.004965 0.000000 0.000392 0.000000
# 3 -0.002662 -0.004965 0.012489 0.000000 0.003303 0.000000
# 4 0.000000 0.000000 0.000000 0.069505 0.000000 -0.009795
# 5 0.016154 0.000392 0.003303 0.000000 0.033917 0.000000
# 6 0.000000 0.000000 0.000000 -0.009795 0.000000 0.060549
#
#
# Mechanical properties :
#
#
# Convention : Reuss Voigt Hill
#
# Bulk Modulus (GPa) = 29.65739 53.43161 41.54450
# Shear Modulus (GPa) = 19.61699 26.17728 22.89713
#
# Velocity S-wave (km/s) = 2.99396 3.45854 3.23460
# Velocity P-wave (km/s) = 5.05009 6.35325 5.73878
#
# Compressibility (1/GPa) = 0.03371841
#
# Stress axis : x y z
#
# Youngs Moduli (GPa) = 32.78789 72.95545 80.07198
#
# Poissons Ratio (x) = 0.28165 0.21319
# Poissons Ratio (y) = 0.12658 0.39757
# Poissons Ratio (z) = 0.08730 0.36223
#
# Static dielectric constant tensor:
#      x y z
#    x 1.871150 0.000000 0.025590 
#    y 0.000000 1.820690 0.000000 
#    z 0.025590 0.000000 1.831720 
# 
# From -- ./inp_files/225677.got.cif
#   From: 2010.05.17/outbox.cif.g08.bks.cpg/sg12_113_cif.got.tgz:225677.got - 2010.06.03 13:09:07.
