data_PCOD9202054
_publ_section_title
;
Structure prediction by ZEFSAII (Michael W. Deem and Ramdas Pophale) SiO2 
 PCOD9202054
Probable space group: C 2/M
;
_chemical_formula_sum "Si O2"
_cell_formula_units_Z 40
_cell_length_a 5.498055
_cell_length_b 18.142113
_cell_length_c 18.377695
_cell_angle_alpha 90.000000
_cell_angle_beta 107.080974
_cell_angle_gamma 90.000000
_cell_volume 1752.250447
_symmetry_space_group_name_H-M "C 2/M"
_symmetry_group_IT_number 12
_symmetry_cell_setting 'monoclinic'
loop_
_space_group_symop_operation_xyz
x,y,z
-x,y,-z
-x,-y,-z
x,-y,z
1/2+x,1/2+y,z
1/2-x,1/2+y,-z
1/2-x,1/2-y,-z
1/2+x,1/2-y,z
loop_
_atom_site_type_symbol
_atom_site_label
_atom_site_fract_x
_atom_site_fract_y
_atom_site_fract_z
Si Si1 0.446592 0.087984 0.219416
Si Si2 0.150751 0.580097 0.088008
Si Si3 0.218949 0.164360 0.468373
Si Si4 0.119005 0.776032 0.911453
Si Si5 0.959442 0.090444 0.693492
O O1 0.459468 0.105811 0.134445
O O2 0.223431 0.112265 0.254423
O O3 0.739017 0.105017 0.268808
O O4 0.422673 0.000000 0.219647
O O5 0.252704 0.500000 0.117667
O O6 0.372216 0.636644 0.091917
O O7 0.000000 0.576065 0.000000
O O8 0.500000 0.131496 0.500000
O O9 0.250000 0.250000 0.500000
O O10 0.130427 0.143643 0.379799
O O11 0.000000 0.131395 0.500000
O O12 0.336711 0.750950 0.875330
O O13 0.250000 0.750000 0.000000
O O14 0.932430 0.000000 0.678225
#
# Coordination Sequence:
#
# PCOD9202054 Si02
#       5
#     8   8   8   8   8
#     4   9  20  37  58  88 124 161 202 254 308 363
#     4  10  20  38  65  94 122 164 222 277 324 368
#     4  10  21  37  62  87 122 157 188 242 296 349
#     4  10  20  38  58  77 117 156 192 255 325 372
#     4  10  20  38  62  88 123 162 199 241 301 368
#
# _framework density 22.827787000000001
#
# number of rings (size 3 to 8) (size 9 to 14) (size 15 to 20)
#    0.000    2.200    2.000    1.200    0.000    2.400 
#    0.000    5.000   26.400    0.000    0.000    0.000 
#    0.000    0.000    0.000    0.000    0.000    0.000 
#
# Total GULP energy -111455.809137 kJ/mol
# GULP energy per Si atom -5572.790457 kJ/mol
# Density = 2.277583 g / cm^3
# Si number density = 22.827787 Si / 1000 Ang^3
#
#
#
# Elastic Constant Matrix: (Units=GPa)
#
#
# Indices 1 2 3 4 5 6 
#
# 1 164.9969 20.9342 37.7248 0.0000 -14.7678 0.0000
# 2 20.9342 85.8475 15.9622 0.0000 -7.6931 0.0000
# 3 37.7248 15.9622 143.0688 0.0000 -19.7947 0.0000
# 4 0.0000 0.0000 0.0000 14.2873 0.0000 -7.0923
# 5 -14.7678 -7.6931 -19.7947 0.0000 28.3667 0.0000
# 6 0.0000 0.0000 0.0000 -7.0923 0.0000 11.5594
#
#
#
# Elastic Compliance Matrix: (Units=1/GPa)
#
#
# Indices 1 2 3 4 5 6 
#
# 1 0.006716 -0.001190 -0.001327 0.000000 0.002248 0.000000
# 2 -0.001190 0.012274 -0.000754 0.000000 0.002184 0.000000
# 3 -0.001327 -0.000754 0.008080 0.000000 0.004743 0.000000
# 4 0.000000 0.000000 0.000000 0.100645 0.000000 0.061751
# 5 0.002248 0.002184 0.004743 0.000000 0.040325 0.000000
# 6 0.000000 0.000000 0.000000 0.061751 0.000000 0.124397
#
#
# Mechanical properties :
#
#
# Convention : Reuss Voigt Hill
#
# Bulk Modulus (GPa) = 48.71000 60.35062 54.53031
# Shear Modulus (GPa) = 16.34940 32.12881 24.23910
#
# Velocity S-wave (km/s) = 2.67911 3.75566 3.26210
# Velocity P-wave (km/s) = 5.56368 6.73063 6.17478
#
# Compressibility (1/GPa) = 0.02052966
#
# Stress axis : x y z
#
# Youngs Moduli (GPa) = 148.89167 81.46995 123.76353
#
# Poissons Ratio (x) = 0.09691 0.16427
# Poissons Ratio (y) = 0.17712 0.09328
# Poissons Ratio (z) = 0.19762 0.06140
#
# Static dielectric constant tensor:
#      x y z
#    x 1.894440 0.000000 -0.003020 
#    y 0.000000 1.927060 0.000000 
#    z -0.003020 0.000000 1.897890 
# 
# From -- ./inp_files/252596.got.cif
#   From: 2010.05.17/outbox.cif.g08.bks.cpg/sg12_127_cif.got.tgz:252596.got - 2010.06.03 13:09:07.
