data_PCOD9202100
_publ_section_title
;
Structure prediction by ZEFSAII (Michael W. Deem and Ramdas Pophale) SiO2 
 PCOD9202100
Probable space group: C 2/M
;
_chemical_formula_sum "Si O2"
_cell_formula_units_Z 48
_cell_length_a 13.864533
_cell_length_b 23.086957
_cell_length_c 11.661014
_cell_angle_alpha 90.000000
_cell_angle_beta 38.958104
_cell_angle_gamma 90.000000
_cell_volume 2346.862284
_symmetry_space_group_name_H-M "C 2/M"
_symmetry_group_IT_number 12
_symmetry_cell_setting 'monoclinic'
loop_
_space_group_symop_operation_xyz
x,y,z
-x,y,-z
-x,-y,-z
x,-y,z
1/2+x,1/2+y,z
1/2-x,1/2+y,-z
1/2-x,1/2-y,-z
1/2+x,1/2-y,z
loop_
_atom_site_type_symbol
_atom_site_label
_atom_site_fract_x
_atom_site_fract_y
_atom_site_fract_z
Si Si1 0.926654 0.000000 0.749500
Si Si2 0.223272 0.333218 0.852732
Si Si3 0.235440 0.688441 0.446097
Si Si4 0.558874 0.374697 0.183677
Si Si5 0.754434 0.500000 0.317571
Si Si6 0.325724 0.704612 0.113678
Si Si7 0.582560 0.880122 0.766676
O O1 0.925444 0.943200 0.829068
O O2 0.793906 0.000000 0.773129
O O3 0.090739 0.000000 0.532966
O O4 0.385700 0.356381 0.741065
O O5 0.208209 0.267419 0.905918
O O6 0.183543 0.338331 0.756377
O O7 0.091831 0.372501 0.032616
O O8 0.250000 0.750000 0.500000
O O9 0.391231 0.651235 0.319650
O O10 0.221501 0.696503 0.322343
O O11 0.105468 0.647912 0.621557
O O12 0.668247 0.344532 0.988233
O O13 0.849826 0.443400 0.268887
O O14 0.500000 0.708297 0.000000
#
# Coordination Sequence:
#
# PCOD9202100 Si02
#       7
#     4   8   8   8   4   8   8
#     4  11  22  37  60  92 121 151 209 259 293 353
#     4  11  21  38  60  91 122 153 196 252 301 367
#     4  11  21  39  61  84 118 159 196 247 299 358
#     4  11  23  38  61  89 122 157 202 251 300 356
#     4  11  22  38  58  92 125 153 201 254 295 363
#     4  10  20  38  58  86 121 155 197 245 295 362
#     4  11  21  37  60  85 122 156 195 234 311 350
#
# _framework density 20.452840999999999
#
# number of rings (size 3 to 8) (size 9 to 14) (size 15 to 20)
#    0.000    1.167    6.667    1.500    0.000    2.667 
#    0.000    7.083    0.000    0.000    0.000    2.333 
#    0.000    0.000    0.000    0.000    0.000    0.000 
#
# Total GULP energy -133991.041631 kJ/mol
# GULP energy per Si atom -5582.960068 kJ/mol
# Density = 2.040629 g / cm^3
# Si number density = 20.452841 Si / 1000 Ang^3
#
#
#
# Elastic Constant Matrix: (Units=GPa)
#
#
# Indices 1 2 3 4 5 6 
#
# 1 31.1096 16.5227 -5.5800 0.0000 -1.3102 -0.0001
# 2 16.5227 180.7945 32.7330 0.0000 9.8012 0.0000
# 3 -5.5800 32.7330 70.1979 0.0000 20.1498 0.0000
# 4 0.0000 0.0000 0.0000 18.3929 0.0000 5.6517
# 5 -1.3102 9.8012 20.1498 0.0000 19.1157 0.0001
# 6 -0.0001 0.0000 0.0000 5.6517 0.0001 19.8702
#
#
#
# Elastic Compliance Matrix: (Units=1/GPa)
#
#
# Indices 1 2 3 4 5 6 
#
# 1 0.035147 -0.004059 0.004872 0.000000 -0.000645 0.000000
# 2 -0.004059 0.006510 -0.003327 0.000000 -0.000109 0.000000
# 3 0.004872 -0.003327 0.022366 0.000000 -0.021536 0.000000
# 4 0.000000 0.000000 0.000000 0.059576 0.000000 -0.016945
# 5 -0.000645 -0.000109 -0.021536 0.000000 0.075026 0.000000
# 6 0.000000 0.000000 0.000000 -0.016945 0.000000 0.055146
#
#
# Mechanical properties :
#
#
# Convention : Reuss Voigt Hill
#
# Bulk Modulus (GPa) = 16.95084 41.05038 29.00061
# Shear Modulus (GPa) = 17.95560 27.37084 22.66322
#
# Velocity S-wave (km/s) = 2.96616 3.66217 3.33238
# Velocity P-wave (km/s) = 4.47622 6.16411 5.38669
#
# Compressibility (1/GPa) = 0.05899411
#
# Stress axis : x y z
#
# Youngs Moduli (GPa) = 28.45197 153.60055 44.71113
#
# Poissons Ratio (x) = 0.62348 -0.21782
# Poissons Ratio (y) = 0.11549 0.14876
# Poissons Ratio (z) = -0.13861 0.51104
#
# Static dielectric constant tensor:
#      x y z
#    x 1.727820 0.000000 0.024800 
#    y 0.000000 1.733270 0.000000 
#    z 0.024800 0.000000 1.766540 
# 
# From -- ./inp_files/147953.got.cif
#   From: 2010.05.17/outbox.cif.g08.bks.cpg/sg12_74_cif.got.tgz:147953.got - 2010.06.03 13:09:07.
