data_PCOD9202953
_publ_section_title
;
Structure prediction by ZEFSAII (Michael W. Deem and Ramdas Pophale) SiO2 
 PCOD9202953
Probable space group: C 2/M
;
_chemical_formula_sum "Si O2"
_cell_formula_units_Z 50
_cell_length_a 9.288755
_cell_length_b 19.270116
_cell_length_c 14.524506
_cell_angle_alpha 90.000000
_cell_angle_beta 72.037475
_cell_angle_gamma 90.000000
_cell_volume 2473.100274
_symmetry_space_group_name_H-M "C 2/M"
_symmetry_group_IT_number 12
_symmetry_cell_setting 'monoclinic'
loop_
_space_group_symop_operation_xyz
x,y,z
-x,y,-z
-x,-y,-z
x,-y,z
1/2+x,1/2+y,z
1/2-x,1/2+y,-z
1/2-x,1/2-y,-z
1/2+x,1/2-y,z
loop_
_atom_site_type_symbol
_atom_site_label
_atom_site_fract_x
_atom_site_fract_y
_atom_site_fract_z
Si Si1 0.000000 0.500000 0.000000
Si Si2 0.361704 0.083543 0.225351
Si Si3 0.363693 0.327909 0.170486
Si Si4 0.851007 0.666441 0.404428
Si Si5 0.797634 0.687993 0.619842
Si Si6 0.285118 0.689793 0.876793
Si Si7 0.337599 0.121290 0.931549
O O1 0.119349 0.558841 0.011303
O O2 0.334403 0.103164 0.336626
O O3 0.243161 0.123792 0.184682
O O4 0.519327 0.120862 0.165237
O O5 0.373808 0.000000 0.203828
O O6 0.307895 0.347557 0.283308
O O7 0.538886 0.310595 0.134058
O O8 0.268694 0.258604 0.164139
O O9 0.309103 0.381873 0.103971
O O10 0.793181 0.653836 0.519495
O O11 0.761815 0.733286 0.382756
O O12 0.028564 0.685995 0.380437
O O13 0.187786 0.681498 0.989188
#
# Coordination Sequence:
#
# PCOD9202953 Si02
#       7
#     2   8   8   8   8   8   8
#     4  12  24  44  70  88 122 190 218 250 320 402
#     4  12  23  43  67  90 127 179 221 264 323 397
#     4  12  24  41  66  98 133 166 212 280 336 375
#     4  10  21  38  65  97 123 163 218 262 334 390
#     4  10  20  38  64  96 126 159 207 275 329 387
#     4  12  25  40  63 100 129 170 219 270 326 390
#     4  12  23  42  64  92 128 170 219 259 314 384
#
# _framework density 20.217538999999999
#
# number of rings (size 3 to 8) (size 9 to 14) (size 15 to 20)
#    0.000    0.640    5.600    2.880    0.000    1.280 
#    1.440    2.400    1.760    0.960    0.000    0.000 
#    0.000    0.000    0.000    0.000    0.000    0.000 
#
# Total GULP energy -139342.501258 kJ/mol
# GULP energy per Si atom -5573.700050 kJ/mol
# Density = 2.017152 g / cm^3
# Si number density = 20.217539 Si / 1000 Ang^3
#
#
#
# Elastic Constant Matrix: (Units=GPa)
#
#
# Indices 1 2 3 4 5 6 
#
# 1 132.3900 39.7002 26.9972 0.0000 14.6409 0.0000
# 2 39.7002 74.7236 29.7060 0.0000 9.5244 0.0000
# 3 26.9972 29.7060 123.5138 0.0000 5.2053 0.0000
# 4 0.0000 0.0000 0.0000 46.7432 0.0000 22.2074
# 5 14.6409 9.5244 5.2053 0.0000 30.3769 0.0000
# 6 0.0000 0.0000 0.0000 22.2074 0.0000 35.8870
#
#
#
# Elastic Compliance Matrix: (Units=1/GPa)
#
#
# Indices 1 2 3 4 5 6 
#
# 1 0.009336 -0.004217 -0.000899 0.000000 -0.003023 0.000000
# 2 -0.004217 0.017217 -0.003099 0.000000 -0.002834 0.000000
# 3 -0.000899 -0.003099 0.009044 0.000000 -0.000145 0.000000
# 4 0.000000 0.000000 0.000000 0.030302 0.000000 -0.018751
# 5 -0.003023 -0.002834 -0.000145 0.000000 0.035290 0.000000
# 6 0.000000 0.000000 0.000000 -0.018751 0.000000 0.039469
#
#
# Mechanical properties :
#
#
# Convention : Reuss Voigt Hill
#
# Bulk Modulus (GPa) = 52.17737 58.15937 55.16837
# Shear Modulus (GPa) = 30.58515 38.21636 34.40076
#
# Velocity S-wave (km/s) = 3.89370 4.35243 4.12944
# Velocity P-wave (km/s) = 6.78811 7.35441 7.07693
#
# Compressibility (1/GPa) = 0.01916540
#
# Stress axis : x y z
#
# Youngs Moduli (GPa) = 107.11523 58.08293 110.56709
#
# Poissons Ratio (x) = 0.24496 0.09938
# Poissons Ratio (y) = 0.45174 0.34270
# Poissons Ratio (z) = 0.09628 0.18003
#
# Static dielectric constant tensor:
#      x y z
#    x 1.702200 0.000000 0.009920 
#    y 0.000000 1.676150 0.000000 
#    z 0.009920 0.000000 1.827390 
# 
# From -- ./inp_files/196993.got.cif
#   From: 2010.05.17/outbox.cif.g08.bks.cpg/sg12_99_cif.got.tgz:196993.got - 2010.06.03 13:09:07.
