data_PCOD9202347
_publ_section_title
;
Structure prediction by ZEFSAII (Michael W. Deem and Ramdas Pophale) SiO2 
 PCOD9202347
Probable space group: C 2/M
;
_chemical_formula_sum "Si O2"
_cell_formula_units_Z 48
_cell_length_a 30.259941
_cell_length_b 10.386658
_cell_length_c 28.848745
_cell_angle_alpha 90.000000
_cell_angle_beta 17.567400
_cell_angle_gamma 90.000000
_cell_volume 2736.715408
_symmetry_space_group_name_H-M "C 2/M"
_symmetry_group_IT_number 12
_symmetry_cell_setting 'monoclinic'
loop_
_space_group_symop_operation_xyz
x,y,z
-x,y,-z
-x,-y,-z
x,-y,z
1/2+x,1/2+y,z
1/2-x,1/2+y,-z
1/2-x,1/2-y,-z
1/2+x,1/2-y,z
loop_
_atom_site_type_symbol
_atom_site_label
_atom_site_fract_x
_atom_site_fract_y
_atom_site_fract_z
Si Si1 0.424455 0.500000 0.769961
Si Si2 0.574953 0.742667 0.571808
Si Si3 0.425651 0.151216 0.526748
Si Si4 0.425040 0.242666 0.221722
Si Si5 0.075541 0.500000 0.118875
Si Si6 0.577221 0.500000 0.716093
Si Si7 0.922785 0.500000 0.370528
Si Si8 0.574349 0.651216 0.878050
O O1 0.488511 0.625539 0.680539
O O2 0.482634 0.500000 0.764424
O O3 0.249998 0.500000 0.943436
O O4 0.532842 0.770936 0.560712
O O5 0.749996 0.716623 0.398242
O O6 0.550295 0.873014 0.625789
O O7 0.500000 0.194826 0.500000
O O8 0.250000 0.157880 0.706963
O O9 0.463695 0.000000 0.481701
O O10 0.449699 0.373015 0.226386
O O11 0.467153 0.270933 0.126401
O O12 0.511483 0.125539 0.157568
O O13 0.017369 0.500000 0.229688
O O14 0.750003 0.500000 0.530542
O O15 0.536306 0.500000 0.909088
O O16 0.500000 0.694822 0.000000
#
# Coordination Sequence:
#
# PCOD9202347 Si02
#       8
#     4   8   8   8   4   4   4   8
#     4  12  26  38  51  80 119 150 182 228 283 332
#     4  10  20  38  61  83 109 146 190 228 267 326
#     4   9  17  32  56  86 113 138 176 225 274 325
#     4  10  20  38  61  83 109 146 190 228 267 326
#     4  12  26  38  51  80 119 150 182 228 283 332
#     4  10  20  38  63  84 104 142 194 234 268 322
#     4  10  20  38  63  84 104 142 194 234 268 322
#     4   9  17  32  56  86 113 138 176 225 274 325
#
# _framework density 17.539273999999999
#
# number of rings (size 3 to 8) (size 9 to 14) (size 15 to 20)
#    0.000    2.000    1.667    2.500    0.000    6.667 
#    0.000    0.833    0.000    0.000    0.000    0.000 
#    0.000    0.000    0.000    0.000    0.000    0.000 
#
# Total GULP energy -134016.191126 kJ/mol
# GULP energy per Si atom -5584.007964 kJ/mol
# Density = 1.749935 g / cm^3
# Si number density = 17.539274 Si / 1000 Ang^3
#
#
#
# Elastic Constant Matrix: (Units=GPa)
#
#
# Indices 1 2 3 4 5 6 
#
# 1 178.4779 73.6117 82.9161 0.0014 8.2330 -0.0005
# 2 73.6117 114.1139 72.9761 -0.0034 0.1822 0.0013
# 3 82.9161 72.9761 79.5328 -0.0077 19.8033 0.0029
# 4 0.0014 -0.0034 -0.0077 15.5161 0.0025 -0.0453
# 5 8.2330 0.1822 19.8033 0.0025 29.9769 -0.0005
# 6 -0.0005 0.0013 0.0029 -0.0453 -0.0005 15.3677
#
#
#
# Elastic Compliance Matrix: (Units=1/GPa)
#
#
# Indices 1 2 3 4 5 6 
#
# 1 0.012181 0.004051 -0.018643 -0.000011 0.008946 0.000004
# 2 0.004051 0.030558 -0.038226 -0.000016 0.023955 0.000005
# 3 -0.018643 -0.038226 0.078696 0.000040 -0.046636 -0.000013
# 4 -0.000011 -0.000016 0.000040 0.064450 -0.000028 0.000190
# 5 0.008946 0.023955 -0.046636 -0.000028 0.061565 0.000009
# 6 0.000004 0.000005 -0.000013 0.000190 0.000009 0.065072
#
#
# Mechanical properties :
#
#
# Convention : Reuss Voigt Hill
#
# Bulk Modulus (GPa) = 63.30000 92.34805 77.82402
# Shear Modulus (GPa) = 11.80851 21.68018 16.74434
#
# Velocity S-wave (km/s) = 2.59754 3.51963 3.09314
# Velocity P-wave (km/s) = 6.72050 8.32367 7.56467
#
# Compressibility (1/GPa) = 0.01579779
#
# Stress axis : x y z
#
# Youngs Moduli (GPa) = 82.09716 32.72509 12.70711
#
# Poissons Ratio (x) = -0.13255 0.23690
# Poissons Ratio (y) = -0.33253 0.48574
# Poissons Ratio (z) = 1.53053 1.25094
#
# Static dielectric constant tensor:
#      x y z
#    x 1.584040 0.000000 0.001010 
#    y 0.000000 1.574490 0.000000 
#    z 0.001010 0.000000 1.580460 
# 
# From -- ./inp_files/369291.got.cif
#   From: 2010.05.17/outbox.cif.g08.bks.cpg/sg12_185_cif.got.tgz:369291.got - 2010.06.03 13:09:07.
