data_PCOD9202617
_publ_section_title
;
Structure prediction by ZEFSAII (Michael W. Deem and Ramdas Pophale) SiO2 
 PCOD9202617
Probable space group: C 2/M
;
_chemical_formula_sum "Si O2"
_cell_formula_units_Z 56
_cell_length_a 29.929294
_cell_length_b 8.842131
_cell_length_c 12.952237
_cell_angle_alpha 90.000000
_cell_angle_beta 121.580522
_cell_angle_gamma 90.000000
_cell_volume 2920.043865
_symmetry_space_group_name_H-M "C 2/M"
_symmetry_group_IT_number 12
_symmetry_cell_setting 'monoclinic'
loop_
_space_group_symop_operation_xyz
x,y,z
-x,y,-z
-x,-y,-z
x,-y,z
1/2+x,1/2+y,z
1/2-x,1/2+y,-z
1/2-x,1/2-y,-z
1/2+x,1/2-y,z
loop_
_atom_site_type_symbol
_atom_site_label
_atom_site_fract_x
_atom_site_fract_y
_atom_site_fract_z
Si Si1 0.284399 0.820792 0.950922
Si Si2 0.054254 0.315464 0.013978
Si Si3 0.244370 0.181143 0.304243
Si Si4 0.635371 0.818038 0.504093
Si Si5 0.906143 0.320366 0.156592
Si Si6 0.560393 0.319203 0.586807
Si Si7 0.644391 0.817545 0.282201
O O1 0.270625 0.741723 0.826857
O O2 0.274478 0.000000 0.929860
O O3 0.250000 0.750000 0.000000
O O4 0.345386 0.800633 0.052591
O O5 0.054782 0.500000 0.013921
O O6 0.103590 0.268931 0.144177
O O7 0.061079 0.267661 0.903740
O O8 0.000000 0.266555 0.000000
O O9 0.304166 0.225430 0.401208
O O10 0.201341 0.248856 0.329561
O O11 0.241492 0.000000 0.303430
O O12 0.596617 0.745727 0.539756
O O13 0.623833 0.777698 0.371177
O O14 0.631763 0.000000 0.509447
O O15 0.915255 0.500000 0.182371
O O16 0.919493 0.237302 0.278105
O O17 0.500000 0.270243 0.500000
O O18 0.562451 0.500000 0.585680
O O19 0.648954 0.000000 0.283035
#
# Coordination Sequence:
#
# PCOD9202617 Si02
#       7
#     8   8   8   8   8   8   8
#     4  11  22  37  58  87 120 156 199 247 298 354
#     4   9  18  34  60  92 118 146 193 249 299 349
#     4  11  22  37  57  89 126 159 199 244 296 361
#     4  10  23  40  62  90 119 159 209 249 290 354
#     4  10  21  39  63  89 117 151 199 249 291 349
#     4  11  26  44  61  86 122 159 198 246 303 361
#     4  10  20  38  62  90 122 156 199 250 300 352
#
# _framework density 19.177795
#
# number of rings (size 3 to 8) (size 9 to 14) (size 15 to 20)
#    0.000    1.714    1.429    2.571    2.000    7.429 
#    0.000    0.000    0.000    0.857    0.000    0.000 
#    0.000    0.000    0.000    0.000    0.000    0.000 
#
# Total GULP energy -156477.952157 kJ/mol
# GULP energy per Si atom -5588.498291 kJ/mol
# Density = 1.913415 g / cm^3
# Si number density = 19.177795 Si / 1000 Ang^3
#
#
#
# Elastic Constant Matrix: (Units=GPa)
#
#
# Indices 1 2 3 4 5 6 
#
# 1 150.6701 34.2519 42.1993 0.0000 -28.3057 0.0000
# 2 34.2519 20.0457 24.2226 0.0000 -3.9774 0.0000
# 3 42.1993 24.2226 93.0651 0.0000 -26.8082 0.0000
# 4 0.0000 0.0000 0.0000 18.9927 0.0000 3.2991
# 5 -28.3057 -3.9774 -26.8082 0.0000 35.2132 0.0000
# 6 0.0000 0.0000 0.0000 3.2991 0.0000 17.3682
#
#
#
# Elastic Compliance Matrix: (Units=1/GPa)
#
#
# Indices 1 2 3 4 5 6 
#
# 1 0.013273 -0.024769 0.003453 0.000000 0.010501 0.000000
# 2 -0.024769 0.120772 -0.028191 0.000000 -0.027731 0.000000
# 3 0.003453 -0.028191 0.021006 0.000000 0.015583 0.000000
# 4 0.000000 0.000000 0.000000 0.054448 0.000000 -0.010343
# 5 0.010501 -0.027731 0.015583 0.000000 0.045571 0.000000
# 6 0.000000 0.000000 0.000000 -0.010343 0.000000 0.059541
#
#
# Mechanical properties :
#
#
# Convention : Reuss Voigt Hill
#
# Bulk Modulus (GPa) = 17.84538 51.68095 34.76317
# Shear Modulus (GPa) = 11.56594 25.18863 18.37728
#
# Velocity S-wave (km/s) = 2.45845 3.62805 3.09893
# Velocity P-wave (km/s) = 4.16942 6.67512 5.56513
#
# Compressibility (1/GPa) = 0.05603691
#
# Stress axis : x y z
#
# Youngs Moduli (GPa) = 75.33832 8.28008 47.60610
#
# Poissons Ratio (x) = 0.20509 -0.16438
# Poissons Ratio (y) = 1.86607 1.34205
# Poissons Ratio (z) = -0.26014 0.23342
#
# Static dielectric constant tensor:
#      x y z
#    x 1.714970 0.000000 -0.031720 
#    y 0.000000 1.645550 0.000000 
#    z -0.031720 0.000000 1.667970 
# 
# From -- ./inp_files/180867.got.cif
#   From: 2010.05.17/outbox.cif.g08.bks.cpg/sg12_91_cif.got.tgz:180867.got - 2010.06.03 13:09:07.
