data_PCOD9202211
_publ_section_title
;
Structure prediction by ZEFSAII (Michael W. Deem and Ramdas Pophale) SiO2 
 PCOD9202211
Probable space group: C 2/M
;
_chemical_formula_sum "Si O2"
_cell_formula_units_Z 56
_cell_length_a 17.244011
_cell_length_b 9.166758
_cell_length_c 16.816945
_cell_angle_alpha 90.000000
_cell_angle_beta 75.638920
_cell_angle_gamma 90.000000
_cell_volume 2575.216310
_symmetry_space_group_name_H-M "C 2/M"
_symmetry_group_IT_number 12
_symmetry_cell_setting 'monoclinic'
loop_
_space_group_symop_operation_xyz
x,y,z
-x,y,-z
-x,-y,-z
x,-y,z
1/2+x,1/2+y,z
1/2-x,1/2+y,-z
1/2-x,1/2-y,-z
1/2+x,1/2-y,z
loop_
_atom_site_type_symbol
_atom_site_label
_atom_site_fract_x
_atom_site_fract_y
_atom_site_fract_z
Si Si1 0.284270 0.664428 0.307402
Si Si2 0.282233 0.332195 0.120926
Si Si3 0.435048 0.835691 0.648253
Si Si4 0.047644 0.333371 0.905202
Si Si5 0.877949 0.662772 0.381580
Si Si6 0.395631 0.822208 0.838832
Si Si7 0.657884 0.328005 0.449705
O O1 0.285947 0.500000 0.337261
O O2 0.266067 0.662183 0.219870
O O3 0.366989 0.744707 0.304358
O O4 0.225341 0.763041 0.374058
O O5 0.293836 0.500000 0.090038
O O6 0.367507 0.247269 0.097475
O O7 0.195022 0.276092 0.109993
O O8 0.528986 0.850519 0.628261
O O9 0.405794 0.786834 0.742738
O O10 0.417623 0.724720 0.582254
O O11 0.400640 0.000000 0.640544
O O12 0.067039 0.500000 0.873869
O O13 0.976827 0.273485 0.864177
O O14 0.000000 0.340289 0.000000
O O15 0.844324 0.500000 0.383732
O O16 0.842462 0.747326 0.466098
O O17 0.395050 0.000000 0.845003
O O18 0.660999 0.500000 0.459013
#
# Coordination Sequence:
#
# PCOD9202211 Si02
#       7
#     8   8   8   8   8   8   8
#     4  11  22  39  60  82 113 152 201 252 303 362
#     4  10  21  39  65  90 120 163 206 250 304 366
#     4  10  20  38  60  80 109 155 203 246 300 369
#     4  10  22  40  64  96 131 163 200 246 296 361
#     4  11  23  37  57  83 114 156 202 249 307 367
#     4   9  18  38  64  88 121 165 203 243 305 369
#     4  12  24  37  55  81 116 153 197 255 308 358
#
# _framework density 21.745747999999999
#
# number of rings (size 3 to 8) (size 9 to 14) (size 15 to 20)
#    0.000    1.571    1.429    3.857    0.000    6.000 
#    0.000    1.429    0.000    0.000    0.000    0.000 
#    0.000    0.000    0.000    0.000    0.000    0.000 
#
# Total GULP energy -156091.033303 kJ/mol
# GULP energy per Si atom -5574.679761 kJ/mol
# Density = 2.169625 g / cm^3
# Si number density = 21.745748 Si / 1000 Ang^3
#
#
#
# Elastic Constant Matrix: (Units=GPa)
#
#
# Indices 1 2 3 4 5 6 
#
# 1 138.7142 33.5302 6.1087 0.0000 -18.4678 0.0000
# 2 33.5302 93.8126 2.0175 0.0000 -9.7887 0.0000
# 3 6.1087 2.0175 31.0300 0.0000 -11.5062 0.0000
# 4 0.0000 0.0000 0.0000 11.3964 0.0000 -11.1829
# 5 -18.4678 -9.7887 -11.5062 0.0000 33.6340 0.0000
# 6 0.0000 0.0000 0.0000 -11.1829 0.0000 13.3229
#
#
#
# Elastic Compliance Matrix: (Units=1/GPa)
#
#
# Indices 1 2 3 4 5 6 
#
# 1 0.008343 -0.002583 -0.000063 0.000000 0.003808 0.000000
# 2 -0.002583 0.011801 0.000560 0.000000 0.002208 0.000000
# 3 -0.000063 0.000560 0.036936 0.000000 0.012765 0.000000
# 4 0.000000 0.000000 0.000000 0.497588 0.000000 0.417663
# 5 0.003808 0.002208 0.012765 0.000000 0.036832 0.000000
# 6 0.000000 0.000000 0.000000 0.417663 0.000000 0.425635
#
#
# Mechanical properties :
#
#
# Convention : Reuss Voigt Hill
#
# Bulk Modulus (GPa) = 18.90055 38.54106 28.72081
# Shear Modulus (GPa) = 4.81258 26.46400 15.63829
#
# Velocity S-wave (km/s) = 1.48927 3.49230 2.68459
# Velocity P-wave (km/s) = 3.41580 5.83297 4.77971
#
# Compressibility (1/GPa) = 0.05290851
#
# Stress axis : x y z
#
# Youngs Moduli (GPa) = 119.85766 84.73724 27.07385
#
# Poissons Ratio (x) = 0.21890 0.00169
# Poissons Ratio (y) = 0.30963 -0.01516
# Poissons Ratio (z) = 0.00749 -0.04744
#
# Static dielectric constant tensor:
#      x y z
#    x 2.046710 0.000000 -0.005940 
#    y 0.000000 1.881330 0.000000 
#    z -0.005940 0.000000 1.778420 
# 
# From -- ./inp_files/275139.got.cif
#   From: 2010.05.17/outbox.cif.g08.bks.cpg/sg12_138_cif.got.tgz:275139.got - 2010.06.03 13:09:07.
