data_PCOD9202095
_publ_section_title
;
Structure prediction by ZEFSAII (Michael W. Deem and Ramdas Pophale) SiO2 
 PCOD9202095
Probable space group: C 2/M
;
_chemical_formula_sum "Si O2"
_cell_formula_units_Z 56
_cell_length_a 9.118459
_cell_length_b 24.745017
_cell_length_c 19.980460
_cell_angle_alpha 90.000000
_cell_angle_beta 137.390270
_cell_angle_gamma 90.000000
_cell_volume 3052.136665
_symmetry_space_group_name_H-M "C 2/M"
_symmetry_group_IT_number 12
_symmetry_cell_setting 'monoclinic'
loop_
_space_group_symop_operation_xyz
x,y,z
-x,y,-z
-x,-y,-z
x,-y,z
1/2+x,1/2+y,z
1/2-x,1/2+y,-z
1/2-x,1/2-y,-z
1/2+x,1/2-y,z
loop_
_atom_site_type_symbol
_atom_site_label
_atom_site_fract_x
_atom_site_fract_y
_atom_site_fract_z
Si Si1 0.656312 0.152228 0.776123
Si Si2 0.380944 0.938318 0.889297
Si Si3 0.220720 0.817680 0.559379
Si Si4 0.752205 0.435396 0.095218
Si Si5 0.761403 0.695602 0.417988
Si Si6 0.241516 0.763262 0.076938
Si Si7 0.546889 0.657346 0.801332
O O1 0.447964 0.158286 0.658659
O O2 0.671147 0.092942 0.811820
O O3 0.635299 0.193136 0.833561
O O4 0.874097 0.160103 0.804839
O O5 0.570323 0.919757 0.901539
O O6 0.183153 0.896977 0.833660
O O7 0.312838 0.000000 0.848186
O O8 0.500000 0.941166 0.000000
O O9 0.216852 0.758821 0.594119
O O10 0.196427 0.806905 0.472862
O O11 0.000000 0.849493 0.500000
O O12 0.752983 0.500000 0.098485
O O13 0.500000 0.418768 0.000000
O O14 0.594114 0.669191 0.311797
O O15 0.000000 0.670411 0.500000
O O16 0.286273 0.706158 0.128234
O O17 0.250000 0.750000 0.000000
O O18 0.000000 0.784412 0.000000
#
# Coordination Sequence:
#
# PCOD9202095 Si02
#       7
#     8   8   8   8   8   8   8
#     4  12  24  39  60  90 124 165 204 248 310 367
#     4  10  23  42  64  91 120 159 209 254 302 363
#     4  10  22  36  60  86 119 159 206 255 301 361
#     4  10  23  42  65  90 121 160 206 255 303 363
#     4  10  20  38  58  85 121 159 205 252 300 362
#     4  12  26  38  54  89 133 164 197 242 305 373
#     4  12  24  38  63  89 124 166 204 250 306 367
#
# _framework density 18.347804
#
# number of rings (size 3 to 8) (size 9 to 14) (size 15 to 20)
#    0.000    1.143    4.286    1.714    6.000    1.714 
#    0.000    0.000    0.000    1.714    0.000    0.000 
#    0.000    0.000    0.000    0.000    0.000    0.000 
#
# Total GULP energy -155874.994892 kJ/mol
# GULP energy per Si atom -5566.964103 kJ/mol
# Density = 1.830604 g / cm^3
# Si number density = 18.347804 Si / 1000 Ang^3
#
#
#
# Elastic Constant Matrix: (Units=GPa)
#
#
# Indices 1 2 3 4 5 6 
#
# 1 72.5129 32.6216 31.7037 0.0000 -2.3281 0.0000
# 2 32.6216 58.0200 38.8351 0.0000 7.7325 0.0000
# 3 31.7037 38.8351 119.5142 0.0000 -2.0502 0.0000
# 4 0.0000 0.0000 0.0000 3.8764 0.0000 1.1216
# 5 -2.3281 7.7325 -2.0502 0.0000 30.2316 0.0000
# 6 0.0000 0.0000 0.0000 1.1216 0.0000 17.5179
#
#
#
# Elastic Compliance Matrix: (Units=1/GPa)
#
#
# Indices 1 2 3 4 5 6 
#
# 1 0.019264 -0.010206 -0.001726 0.000000 0.003977 0.000000
# 2 -0.010206 0.028628 -0.006742 0.000000 -0.008566 0.000000
# 3 -0.001726 -0.006742 0.011056 0.000000 0.002341 0.000000
# 4 0.000000 0.000000 0.000000 0.262842 0.000000 -0.016828
# 5 0.003977 -0.008566 0.002341 0.000000 0.035734 0.000000
# 6 0.000000 0.000000 0.000000 -0.016828 0.000000 0.058162
#
#
# Mechanical properties :
#
#
# Convention : Reuss Voigt Hill
#
# Bulk Modulus (GPa) = 46.29512 50.70756 48.50134
# Shear Modulus (GPa) = 10.86403 20.11762 15.49083
#
# Velocity S-wave (km/s) = 2.43598 3.31487 2.90882
# Velocity P-wave (km/s) = 5.76184 6.50754 6.14601
#
# Compressibility (1/GPa) = 0.02160055
#
# Stress axis : x y z
#
# Youngs Moduli (GPa) = 51.90934 34.93068 90.44986
#
# Poissons Ratio (x) = 0.35652 0.15608
# Poissons Ratio (y) = 0.52981 0.60981
# Poissons Ratio (z) = 0.08957 0.23550
#
# Static dielectric constant tensor:
#      x y z
#    x 1.826550 0.000000 -0.020720 
#    y 0.000000 1.645920 0.000000 
#    z -0.020720 0.000000 1.667860 
# 
# From -- ./inp_files/259274.got.cif
#   From: 2010.05.17/outbox.cif.g08.bks.cpg/sg12_130_cif.got.tgz:259274.got - 2010.06.03 13:09:07.
