data_PCOD9202188
_publ_section_title
;
Structure prediction by ZEFSAII (Michael W. Deem and Ramdas Pophale) SiO2 
 PCOD9202188
Probable space group: C 2/M
;
_chemical_formula_sum "Si O2"
_cell_formula_units_Z 56
_cell_length_a 11.506957
_cell_length_b 14.626243
_cell_length_c 24.996886
_cell_angle_alpha 90.000000
_cell_angle_beta 139.462139
_cell_angle_gamma 90.000000
_cell_volume 2734.383267
_symmetry_space_group_name_H-M "C 2/M"
_symmetry_group_IT_number 12
_symmetry_cell_setting 'monoclinic'
loop_
_space_group_symop_operation_xyz
x,y,z
-x,y,-z
-x,-y,-z
x,-y,z
1/2+x,1/2+y,z
1/2-x,1/2+y,-z
1/2-x,1/2-y,-z
1/2+x,1/2-y,z
loop_
_atom_site_type_symbol
_atom_site_label
_atom_site_fract_x
_atom_site_fract_y
_atom_site_fract_z
Si Si1 0.437295 0.000000 0.040481
Si Si2 0.954900 0.714317 0.075447
Si Si3 0.735418 0.156915 0.838238
Si Si4 0.668889 0.103696 0.695586
Si Si5 0.101543 0.109342 0.616316
Si Si6 0.106842 0.263789 0.245976
Si Si7 0.260707 0.889456 0.554028
Si Si8 0.208776 0.000000 0.060737
O O1 0.488646 0.106446 0.074464
O O2 0.253256 0.000000 0.013151
O O3 0.500000 0.000000 0.000000
O O4 0.093505 0.779133 0.091721
O O5 0.015227 0.736317 0.156521
O O6 0.750000 0.750000 0.000000
O O7 0.736755 0.107072 0.781190
O O8 0.553519 0.214116 0.770800
O O9 0.715048 0.086741 0.880221
O O10 0.799176 0.168822 0.708877
O O11 0.465137 0.139214 0.619583
O O12 0.673805 0.000000 0.678833
O O13 0.235592 0.161598 0.701600
O O14 0.187061 0.129577 0.587721
O O15 0.895000 0.140405 0.541264
O O16 0.108206 0.000000 0.626827
O O17 0.263696 0.000000 0.551733
O O18 0.000000 0.000000 0.000000
#
# Coordination Sequence:
#
# PCOD9202188 Si02
#       8
#     4   8   8   8   8   8   8   4
#     4  12  28  44  68  96 129 167 198 275 341 384
#     4  11  27  47  63  93 126 165 218 267 326 396
#     4  11  23  41  64  90 121 161 212 268 307 389
#     4  10  20  38  59  89 123 159 207 258 308 373
#     4   9  17  30  56  91 123 159 200 258 316 378
#     4  11  23  36  63  90 124 158 210 259 325 377
#     4   8  15  30  55  86 122 159 205 256 309 368
#     4  12  24  44  70  94 116 170 226 268 324 388
#
# _framework density 20.479938000000001
#
# number of rings (size 3 to 8) (size 9 to 14) (size 15 to 20)
#    0.000    1.714    3.571    1.714    4.000    0.571 
#    2.571    0.000    0.000    0.000    0.000    2.000 
#    0.000    0.000    0.000    0.000    0.000    0.000 
#
# Total GULP energy -155876.436642 kJ/mol
# GULP energy per Si atom -5567.015594 kJ/mol
# Density = 2.043333 g / cm^3
# Si number density = 20.479938 Si / 1000 Ang^3
#
#
#
# Elastic Constant Matrix: (Units=GPa)
#
#
# Indices 1 2 3 4 5 6 
#
# 1 59.3381 29.0874 14.4901 0.0000 25.0544 0.0000
# 2 29.0874 104.6405 32.8855 0.0000 32.7009 0.0000
# 3 14.4901 32.8855 124.4692 0.0000 35.4978 0.0000
# 4 0.0000 0.0000 0.0000 30.9095 0.0000 9.5867
# 5 25.0544 32.7009 35.4978 0.0000 29.7922 0.0000
# 6 0.0000 0.0000 0.0000 9.5867 0.0000 26.0275
#
#
#
# Elastic Compliance Matrix: (Units=1/GPa)
#
#
# Indices 1 2 3 4 5 6 
#
# 1 0.028254 -0.000186 0.005268 0.000000 -0.029834 0.000000
# 2 -0.000186 0.014643 0.001048 0.000000 -0.017165 0.000000
# 3 0.005268 0.001048 0.013232 0.000000 -0.021347 0.000000
# 4 0.000000 0.000000 0.000000 0.036525 0.000000 -0.013453
# 5 -0.029834 -0.017165 -0.021347 0.000000 0.102932 0.000000
# 6 0.000000 0.000000 0.000000 -0.013453 0.000000 0.043376
#
#
# Mechanical properties :
#
#
# Convention : Reuss Voigt Hill
#
# Bulk Modulus (GPa) = 14.62204 49.04153 31.83178
# Shear Modulus (GPa) = 20.04020 31.47815 25.75917
#
# Velocity S-wave (km/s) = 3.13154 3.92474 3.55036
# Velocity P-wave (km/s) = 4.49784 6.67355 5.69064
#
# Compressibility (1/GPa) = 0.06838992
#
# Stress axis : x y z
#
# Youngs Moduli (GPa) = 35.39298 68.29153 75.57477
#
# Poissons Ratio (x) = 0.01273 -0.39816
# Poissons Ratio (y) = 0.00660 -0.07922
# Poissons Ratio (z) = -0.18647 -0.07159
#
# Static dielectric constant tensor:
#      x y z
#    x 1.795850 0.000000 0.023760 
#    y 0.000000 1.784430 0.000000 
#    z 0.023760 0.000000 1.770940 
# 
# From -- ./inp_files/358249.got.cif
#   From: 2010.05.17/outbox.cif.g08.bks.cpg/sg12_180_cif.got.tgz:358249.got - 2010.06.03 13:09:07.
