data_PCOD9202686
_publ_section_title
;
Structure prediction by ZEFSAII (Michael W. Deem and Ramdas Pophale) SiO2 
 PCOD9202686
Probable space group: C 2/M
;
_chemical_formula_sum "Si O2"
_cell_formula_units_Z 64
_cell_length_a 29.696303
_cell_length_b 9.079619
_cell_length_c 19.561618
_cell_angle_alpha 90.000000
_cell_angle_beta 140.066313
_cell_angle_gamma 90.000000
_cell_volume 3385.653814
_symmetry_space_group_name_H-M "C 2/M"
_symmetry_group_IT_number 12
_symmetry_cell_setting 'monoclinic'
loop_
_space_group_symop_operation_xyz
x,y,z
-x,y,-z
-x,-y,-z
x,-y,z
1/2+x,1/2+y,z
1/2-x,1/2+y,-z
1/2-x,1/2-y,-z
1/2+x,1/2-y,z
loop_
_atom_site_type_symbol
_atom_site_label
_atom_site_fract_x
_atom_site_fract_y
_atom_site_fract_z
Si Si1 0.571614 0.676075 0.122616
Si Si2 0.539485 0.170989 0.222050
Si Si3 0.376989 0.170690 0.038712
Si Si4 0.349413 0.323236 0.382866
Si Si5 0.924137 0.175265 0.336480
Si Si6 0.822696 0.826613 0.100770
Si Si7 0.547316 0.676593 0.378427
Si Si8 0.202510 0.824104 0.175024
O O1 0.565982 0.500000 0.125416
O O2 0.577497 0.750864 0.203280
O O3 0.639978 0.705920 0.156305
O O4 0.500000 0.723530 0.000000
O O5 0.548620 0.246958 0.306413
O O6 0.559159 0.000000 0.250116
O O7 0.456775 0.178356 0.106694
O O8 0.323809 0.248732 0.925378
O O9 0.357206 0.000000 0.025097
O O10 0.375670 0.255812 0.108574
O O11 0.340038 0.500000 0.362501
O O12 0.407200 0.273367 0.393201
O O13 0.382056 0.299860 0.495555
O O14 0.276234 0.242702 0.284814
O O15 0.852179 0.197307 0.210651
O O16 0.985388 0.231325 0.357748
O O17 0.938579 0.000000 0.358953
O O18 0.817794 0.000000 0.083797
O O19 0.750000 0.750000 0.000000
O O20 0.537280 0.500000 0.356907
O O21 0.208041 0.000000 0.172333
#
# Coordination Sequence:
#
# PCOD9202686 Si02
#       8
#     8   8   8   8   8   8   8   8
#     4  10  21  39  63  88 116 151 194 238 290 363
#     4  11  23  37  59  90 120 149 189 246 298 342
#     4  11  22  36  55  82 118 155 192 237 292 353
#     4  10  21  38  61  88 118 154 197 247 294 344
#     4   9  18  34  57  84 113 151 200 242 279 336
#     4  11  21  33  52  80 118 159 196 240 293 350
#     4  10  20  38  63  86 115 158 204 243 286 345
#     4  11  23  39  61  88 118 154 192 240 299 358
#
# _framework density 18.903289999999998
#
# number of rings (size 3 to 8) (size 9 to 14) (size 15 to 20)
#    0.000    1.625    2.500    2.625    0.000    5.250 
#    0.000    1.875    0.000    1.500    0.000    0.000 
#    0.000    0.000    0.000    0.000    0.000    0.000 
#
# Total GULP energy -178638.702920 kJ/mol
# GULP energy per Si atom -5582.459466 kJ/mol
# Density = 1.886027 g / cm^3
# Si number density = 18.903290 Si / 1000 Ang^3
#
#
#
# Elastic Constant Matrix: (Units=GPa)
#
#
# Indices 1 2 3 4 5 6 
#
# 1 69.2900 30.4448 43.9989 0.0000 -22.4320 0.0000
# 2 30.4448 50.0739 52.5161 0.0000 -11.1784 0.0000
# 3 43.9989 52.5161 104.0145 0.0000 -17.0243 0.0000
# 4 0.0000 0.0000 0.0000 25.1638 0.0000 2.3205
# 5 -22.4320 -11.1784 -17.0243 0.0000 27.7645 0.0000
# 6 0.0000 0.0000 0.0000 2.3205 0.0000 23.5108
#
#
#
# Elastic Compliance Matrix: (Units=1/GPa)
#
#
# Indices 1 2 3 4 5 6 
#
# 1 0.025323 -0.007235 -0.004654 0.000000 0.014693 0.000000
# 2 -0.007235 0.045001 -0.019620 0.000000 0.000242 0.000000
# 3 -0.004654 -0.019620 0.021765 0.000000 0.001686 0.000000
# 4 0.000000 0.000000 0.000000 0.040105 0.000000 -0.003958
# 5 0.014693 0.000242 0.001686 0.000000 0.049019 0.000000
# 6 0.000000 0.000000 0.000000 -0.003958 0.000000 0.042924
#
#
# Mechanical properties :
#
#
# Convention : Reuss Voigt Hill
#
# Bulk Modulus (GPa) = 34.40068 53.03312 43.71690
# Shear Modulus (GPa) = 16.84377 21.71574 19.27975
#
# Velocity S-wave (km/s) = 2.98828 3.39304 3.19708
# Velocity P-wave (km/s) = 5.49037 6.59289 6.06673
#
# Compressibility (1/GPa) = 0.02906920
#
# Stress axis : x y z
#
# Youngs Moduli (GPa) = 39.48966 22.22184 45.94587
#
# Poissons Ratio (x) = 0.16079 0.21383
# Poissons Ratio (y) = 0.28573 0.90147
# Poissons Ratio (z) = 0.18378 0.43600
#
# Static dielectric constant tensor:
#      x y z
#    x 1.653770 0.000000 0.026710 
#    y 0.000000 1.635270 0.000000 
#    z 0.026710 0.000000 1.649230 
# 
# From -- ./inp_files/295578.got.cif
#   From: 2010.05.17/outbox.cif.g08.bks.cpg/sg12_148_cif.got.tgz:295578.got - 2010.06.03 13:09:07.
