data_PCOD9202358
_publ_section_title
;
Structure prediction by ZEFSAII (Michael W. Deem and Ramdas Pophale) SiO2 
 PCOD9202358
Probable space group: C 2/M
;
_chemical_formula_sum "Si O2"
_cell_formula_units_Z 64
_cell_length_a 17.590464
_cell_length_b 15.000953
_cell_length_c 14.328536
_cell_angle_alpha 90.000000
_cell_angle_beta 117.321938
_cell_angle_gamma 90.000000
_cell_volume 3359.130131
_symmetry_space_group_name_H-M "C 2/M"
_symmetry_group_IT_number 12
_symmetry_cell_setting 'monoclinic'
loop_
_space_group_symop_operation_xyz
x,y,z
-x,y,-z
-x,-y,-z
x,-y,z
1/2+x,1/2+y,z
1/2-x,1/2+y,-z
1/2-x,1/2-y,-z
1/2+x,1/2-y,z
loop_
_atom_site_type_symbol
_atom_site_label
_atom_site_fract_x
_atom_site_fract_y
_atom_site_fract_z
Si Si1 0.673823 0.225166 0.265722
Si Si2 0.626585 0.896399 0.862015
Si Si3 0.880830 0.602549 0.487873
Si Si4 0.102646 0.395090 0.060242
Si Si5 0.524877 0.400349 0.405393
Si Si6 0.984595 0.278951 0.682279
Si Si7 0.725083 0.397665 0.544568
Si Si8 0.266611 0.102176 0.253548
O O1 0.644905 0.165261 0.162536
O O2 0.595728 0.230390 0.293669
O O3 0.749685 0.174056 0.363429
O O4 0.701742 0.322356 0.248261
O O5 0.554144 0.835780 0.775973
O O6 0.707909 0.888851 0.840078
O O7 0.597968 0.000000 0.842210
O O8 0.638620 0.875128 0.977317
O O9 0.910137 0.500000 0.516230
O O10 0.948418 0.669252 0.571057
O O11 0.792854 0.612319 0.498502
O O12 0.851858 0.615884 0.365211
O O13 0.116388 0.500000 0.088640
O O14 0.000000 0.380719 0.000000
O O15 0.500000 0.396575 0.500000
O O16 0.503980 0.500000 0.359354
O O17 0.482975 0.318338 0.328491
O O18 0.627605 0.387241 0.457672
O O19 0.734436 0.500000 0.584775
O O20 0.238913 0.000000 0.256575
#
# Coordination Sequence:
#
# PCOD9202358 Si02
#       8
#     8   8   8   8   8   8   8   8
#     4  11  21  34  59  86 107 141 188 229 276 331
#     4  10  22  38  57  83 114 143 180 231 286 338
#     4   9  18  32  52  80 113 143 176 219 272 329
#     4  10  20  38  61  84 111 139 176 232 291 336
#     4  10  22  36  50  72 111 157 190 221 264 316
#     4  11  21  32  55  84 109 145 188 227 269 328
#     4   9  18  33  52  79 111 141 182 228 267 319
#     4  10  22  37  53  78 114 151 180 219 274 331
#
# _framework density 19.052551999999999
#
# number of rings (size 3 to 8) (size 9 to 14) (size 15 to 20)
#    0.000    2.000    1.250    2.250    3.500    5.000 
#    0.000    1.875    0.000    1.125    0.000    0.000 
#    0.000    0.000    0.000    0.000    0.000    0.000 
#
# Total GULP energy -178800.843544 kJ/mol
# GULP energy per Si atom -5587.526361 kJ/mol
# Density = 1.900919 g / cm^3
# Si number density = 19.052552 Si / 1000 Ang^3
#
#
#
# Elastic Constant Matrix: (Units=GPa)
#
#
# Indices 1 2 3 4 5 6 
#
# 1 41.2755 21.6458 7.6922 0.0000 -13.0566 0.0000
# 2 21.6458 92.9703 41.6166 0.0000 -14.7198 0.0000
# 3 7.6922 41.6166 64.2309 0.0000 -25.4822 0.0000
# 4 0.0000 0.0000 0.0000 24.3299 0.0000 -5.7601
# 5 -13.0566 -14.7198 -25.4822 0.0000 24.3640 0.0000
# 6 0.0000 0.0000 0.0000 -5.7601 0.0000 11.3147
#
#
#
# Elastic Compliance Matrix: (Units=1/GPa)
#
#
# Indices 1 2 3 4 5 6 
#
# 1 0.035148 -0.009574 0.012258 0.000000 0.025872 0.000000
# 2 -0.009574 0.017810 -0.013947 0.000000 -0.008957 0.000000
# 3 0.012258 -0.013947 0.038287 0.000000 0.038188 0.000000
# 4 0.000000 0.000000 0.000000 0.046734 0.000000 0.023791
# 5 0.025872 -0.008957 0.038188 0.000000 0.089438 0.000000
# 6 0.000000 0.000000 0.000000 0.023791 0.000000 0.100493
#
#
# Mechanical properties :
#
#
# Convention : Reuss Voigt Hill
#
# Bulk Modulus (GPa) = 14.55168 37.82065 26.18617
# Shear Modulus (GPa) = 13.39256 20.50319 16.94788
#
# Velocity S-wave (km/s) = 2.65415 3.28401 2.98574
# Velocity P-wave (km/s) = 4.12880 5.85435 5.06559
#
# Compressibility (1/GPa) = 0.06872059
#
# Stress axis : x y z
#
# Youngs Moduli (GPa) = 28.45098 56.14824 26.11839
#
# Poissons Ratio (x) = 0.53758 -0.32017
# Poissons Ratio (y) = 0.27240 0.36426
# Poissons Ratio (z) = -0.34877 0.78307
#
# Static dielectric constant tensor:
#      x y z
#    x 1.683190 0.000000 -0.020130 
#    y 0.000000 1.673020 0.000000 
#    z -0.020130 0.000000 1.630090 
# 
# From -- ./inp_files/225333.got.cif
#   From: 2010.05.17/outbox.cif.g08.bks.cpg/sg12_113_cif.got.tgz:225333.got - 2010.06.03 13:09:07.
