data_PCOD9202026
_publ_section_title
;
Structure prediction by ZEFSAII (Michael W. Deem and Ramdas Pophale) SiO2 
 PCOD9202026
Probable space group: C 2/M
;
_chemical_formula_sum "Si O2"
_cell_formula_units_Z 64
_cell_length_a 30.951386
_cell_length_b 8.942037
_cell_length_c 19.854335
_cell_angle_alpha 90.000000
_cell_angle_beta 142.694433
_cell_angle_gamma 90.000000
_cell_volume 3330.363258
_symmetry_space_group_name_H-M "C 2/M"
_symmetry_group_IT_number 12
_symmetry_cell_setting 'monoclinic'
loop_
_space_group_symop_operation_xyz
x,y,z
-x,y,-z
-x,-y,-z
x,-y,z
1/2+x,1/2+y,z
1/2-x,1/2+y,-z
1/2-x,1/2-y,-z
1/2+x,1/2-y,z
loop_
_atom_site_type_symbol
_atom_site_label
_atom_site_fract_x
_atom_site_fract_y
_atom_site_fract_z
Si Si1 0.450357 0.326237 0.606489
Si Si2 0.334599 0.823515 0.546054
Si Si3 0.855634 0.818418 0.980209
Si Si4 0.611017 0.321170 0.829398
Si Si5 0.918685 0.825491 0.415156
Si Si6 0.417752 0.318664 0.913361
Si Si7 0.696983 0.177745 0.820585
Si Si8 0.690308 0.821231 0.328924
O O1 0.447434 0.500000 0.624951
O O2 0.409488 0.223938 0.608023
O O3 0.533575 0.288001 0.702293
O O4 0.412237 0.314830 0.487289
O O5 0.332820 0.783827 0.622962
O O6 0.271307 0.739166 0.427899
O O7 0.322189 0.000000 0.524881
O O8 0.893156 0.768831 0.957835
O O9 0.773424 0.770861 0.887098
O O10 0.856932 0.000000 0.979417
O O11 0.890924 0.774052 0.094912
O O12 0.621978 0.500000 0.840926
O O13 0.672432 0.246989 0.861137
O O14 0.862838 0.726455 0.306601
O O15 0.000000 0.783916 0.500000
O O16 0.909679 0.000000 0.383395
O O17 0.413835 0.500000 0.905491
O O18 0.362693 0.252613 0.790533
O O19 0.500000 0.276514 0.000000
O O20 0.700015 0.000000 0.831736
O O21 0.689773 0.000000 0.320000
#
# Coordination Sequence:
#
# PCOD9202026 Si02
#       8
#     8   8   8   8   8   8   8   8
#     4  10  21  35  59  88 114 150 196 242 289 347
#     4  10  22  39  61  88 120 154 191 242 295 353
#     4   9  21  39  59  87 116 149 196 245 294 343
#     4  10  20  39  62  82 115 157 198 244 288 344
#     4  10  20  38  57  80 114 153 195 233 280 346
#     4  10  22  40  64  90 117 156 202 246 296 356
#     4  11  22  36  57  86 120 153 192 245 295 346
#     4  10  22  41  62  87 119 155 195 241 297 352
#
# _framework density 19.217122
#
# number of rings (size 3 to 8) (size 9 to 14) (size 15 to 20)
#    0.000    2.000    1.250    1.500    3.500    3.000 
#    0.000    1.875    0.000    0.000    0.000    0.000 
#    0.000    0.000    0.000    0.000    0.000    0.000 
#
# Total GULP energy -178635.835584 kJ/mol
# GULP energy per Si atom -5582.369862 kJ/mol
# Density = 1.917338 g / cm^3
# Si number density = 19.217122 Si / 1000 Ang^3
#
#
#
# Elastic Constant Matrix: (Units=GPa)
#
#
# Indices 1 2 3 4 5 6 
#
# 1 130.7105 33.7703 57.8857 0.0000 -0.5260 0.0000
# 2 33.7703 23.1126 30.5546 0.0000 -2.0278 0.0000
# 3 57.8857 30.5546 108.9309 0.0000 -11.3299 0.0000
# 4 0.0000 0.0000 0.0000 26.6958 0.0000 -3.6359
# 5 -0.5260 -2.0278 -11.3299 0.0000 20.4070 0.0000
# 6 0.0000 0.0000 0.0000 -3.6359 0.0000 28.1208
#
#
#
# Elastic Compliance Matrix: (Units=1/GPa)
#
#
# Indices 1 2 3 4 5 6 
#
# 1 0.012832 -0.015254 -0.002827 0.000000 -0.002755 0.000000
# 2 -0.015254 0.087226 -0.016450 0.000000 -0.000858 0.000000
# 3 -0.002827 -0.016450 0.016045 0.000000 0.007201 0.000000
# 4 0.000000 0.000000 0.000000 0.038131 0.000000 0.004930
# 5 -0.002755 -0.000858 0.007201 0.000000 0.052844 0.000000
# 6 0.000000 0.000000 0.000000 0.004930 0.000000 0.036198
#
#
# Mechanical properties :
#
#
# Convention : Reuss Voigt Hill
#
# Bulk Modulus (GPa) = 21.25759 56.35280 38.80519
# Shear Modulus (GPa) = 15.24302 24.41427 19.82864
#
# Velocity S-wave (km/s) = 2.81944 3.56820 3.21568
# Velocity P-wave (km/s) = 4.65669 6.80911 5.83304
#
# Compressibility (1/GPa) = 0.04704202
#
# Stress axis : x y z
#
# Youngs Moduli (GPa) = 77.92790 11.46450 62.32346
#
# Poissons Ratio (x) = 0.17488 0.17618
# Poissons Ratio (y) = 1.18873 1.02520
# Poissons Ratio (z) = 0.22029 0.18859
#
# Static dielectric constant tensor:
#      x y z
#    x 1.679160 0.000000 -0.008800 
#    y 0.000000 1.651730 0.000000 
#    z -0.008800 0.000000 1.661650 
# 
# From -- ./inp_files/295796.got.cif
#   From: 2010.05.17/outbox.cif.g08.bks.cpg/sg12_148_cif.got.tgz:295796.got - 2010.06.03 13:09:07.
