data_PCOD9202253
_publ_section_title
;
Structure prediction by ZEFSAII (Michael W. Deem and Ramdas Pophale) SiO2 
 PCOD9202253
Probable space group: C 2/M
;
_chemical_formula_sum "Si O2"
_cell_formula_units_Z 40
_cell_length_a 22.913775
_cell_length_b 13.732133
_cell_length_c 11.905520
_cell_angle_alpha 90.000000
_cell_angle_beta 33.240256
_cell_angle_gamma 90.000000
_cell_volume 2053.445704
_symmetry_space_group_name_H-M "C 2/M"
_symmetry_group_IT_number 12
_symmetry_cell_setting 'monoclinic'
loop_
_space_group_symop_operation_xyz
x,y,z
-x,y,-z
-x,-y,-z
x,-y,z
1/2+x,1/2+y,z
1/2-x,1/2+y,-z
1/2-x,1/2-y,-z
1/2+x,1/2-y,z
loop_
_atom_site_type_symbol
_atom_site_label
_atom_site_fract_x
_atom_site_fract_y
_atom_site_fract_z
Si Si1 0.418621 0.891193 0.526698
Si Si2 0.512703 0.725151 0.756038
Si Si3 0.716856 0.293554 0.934796
Si Si4 0.156821 0.284822 0.813120
Si Si5 0.696706 0.612375 0.580818
O O1 0.500000 0.880664 0.500000
O O2 0.443585 0.808069 0.396172
O O3 0.300674 0.875016 0.764948
O O4 0.430382 0.000000 0.460728
O O5 0.601067 0.649992 0.654640
O O6 0.407542 0.677347 0.869158
O O7 0.462363 0.776889 0.947590
O O8 0.720923 0.212568 0.828286
O O9 0.750000 0.250000 0.000000
O O10 0.196133 0.364352 0.661781
O O11 0.188282 0.182785 0.702055
O O12 0.687178 0.500000 0.624976
#
# Coordination Sequence:
#
# PCOD9202253 Si02
#       5
#     8   8   8   8   8
#     4  11  21  36  60  89 119 158 202 245 298 363
#     4  10  20  38  60  84 120 157 193 253 302 348
#     4  10  20  38  62  84 121 158 194 248 298 357
#     4   9  22  38  59  88 121 155 195 248 304 351
#     4  11  22  40  63  88 121 161 205 250 299 362
#
# _framework density 19.479454
#
# number of rings (size 3 to 8) (size 9 to 14) (size 15 to 20)
#    1.200    0.600    4.000    0.600    0.000    4.000 
#    0.000    1.000    0.000    5.400    0.000    0.000 
#    0.000    0.000    0.000    0.000    0.000    0.000 
#
# Total GULP energy -111396.765647 kJ/mol
# GULP energy per Si atom -5569.838282 kJ/mol
# Density = 1.943512 g / cm^3
# Si number density = 19.479454 Si / 1000 Ang^3
#
#
#
# Elastic Constant Matrix: (Units=GPa)
#
#
# Indices 1 2 3 4 5 6 
#
# 1 81.0555 28.8067 2.8908 0.0000 9.1098 0.0000
# 2 28.8067 66.5357 34.9458 0.0000 2.5657 0.0000
# 3 2.8908 34.9458 80.8941 0.0000 1.8365 0.0000
# 4 0.0000 0.0000 0.0000 13.4765 0.0000 -2.4964
# 5 9.1098 2.5657 1.8365 0.0000 38.2889 0.0000
# 6 0.0000 0.0000 0.0000 -2.4964 0.0000 20.0583
#
#
#
# Elastic Compliance Matrix: (Units=1/GPa)
#
#
# Indices 1 2 3 4 5 6 
#
# 1 0.015510 -0.008196 0.003061 0.000000 -0.003288 0.000000
# 2 -0.008196 0.023803 -0.010009 0.000000 0.000835 0.000000
# 3 0.003061 -0.010009 0.016595 0.000000 -0.000854 0.000000
# 4 0.000000 0.000000 0.000000 0.075955 0.000000 0.009453
# 5 -0.003288 0.000835 -0.000854 0.000000 0.026884 0.000000
# 6 0.000000 0.000000 0.000000 0.009453 0.000000 0.051031
#
#
# Mechanical properties :
#
#
# Convention : Reuss Voigt Hill
#
# Bulk Modulus (GPa) = 39.03048 40.19689 39.61368
# Shear Modulus (GPa) = 20.11208 25.15419 22.63313
#
# Velocity S-wave (km/s) = 3.21670 3.59739 3.41236
# Velocity P-wave (km/s) = 5.82035 6.15916 5.99215
#
# Compressibility (1/GPa) = 0.02562100
#
# Stress axis : x y z
#
# Youngs Moduli (GPa) = 64.47252 42.01216 60.25730
#
# Poissons Ratio (x) = 0.34434 -0.18445
# Poissons Ratio (y) = 0.52843 0.60309
# Poissons Ratio (z) = -0.19736 0.42048
#
# Static dielectric constant tensor:
#      x y z
#    x 1.735970 0.000000 -0.036390 
#    y 0.000000 1.621520 0.000000 
#    z -0.036390 0.000000 1.713730 
# 
# From -- ./inp_files/250347.got.cif
#   From: 2010.05.17/outbox.cif.g08.bks.cpg/sg12_126_cif.got.tgz:250347.got - 2010.06.03 13:09:07.
