data_PCOD9202174
_publ_section_title
;
Structure prediction by ZEFSAII (Michael W. Deem and Ramdas Pophale) SiO2 
 PCOD9202174
Probable space group: C 2/M
;
_chemical_formula_sum "Si O2"
_cell_formula_units_Z 46
_cell_length_a 8.666919
_cell_length_b 26.665742
_cell_length_c 11.603114
_cell_angle_alpha 90.000000
_cell_angle_beta 122.651239
_cell_angle_gamma 90.000000
_cell_volume 2257.822064
_symmetry_space_group_name_H-M "C 2/M"
_symmetry_group_IT_number 12
_symmetry_cell_setting 'monoclinic'
loop_
_space_group_symop_operation_xyz
x,y,z
-x,y,-z
-x,-y,-z
x,-y,z
1/2+x,1/2+y,z
1/2-x,1/2+y,-z
1/2-x,1/2-y,-z
1/2+x,1/2-y,z
loop_
_atom_site_type_symbol
_atom_site_label
_atom_site_fract_x
_atom_site_fract_y
_atom_site_fract_z
Si Si1 0.500000 0.229660 0.500000
Si Si2 0.500000 0.500000 0.500000
Si Si3 0.307408 0.940536 0.291250
Si Si4 0.786285 0.413406 0.554035
Si Si5 0.500000 0.600665 0.000000
Si Si6 0.142302 0.818657 0.408551
Si Si7 0.368327 0.679892 0.113983
Si Si8 0.500000 0.764410 0.000000
O O1 0.676411 0.195425 0.590968
O O2 0.556170 0.267152 0.420849
O O3 0.660558 0.455585 0.560631
O O4 0.278401 0.924014 0.412263
O O5 0.499579 0.916533 0.326705
O O6 0.336975 0.000000 0.305216
O O7 0.131705 0.928773 0.140978
O O8 0.707388 0.357067 0.532884
O O9 0.364154 0.637236 0.016013
O O10 0.989504 0.841441 0.265577
O O11 0.176802 0.700868 0.079418
O O12 0.471439 0.727541 0.097255
#
# Coordination Sequence:
#
# PCOD9202174 Si02
#       8
#     4   2   8   8   4   8   8   4
#     4  10  23  36  58  92 124 162 203 254 306 354
#     4  12  22  42  64 102 116 162 202 262 316 368
#     4  11  21  43  64  91 117 164 201 255 306 380
#     4  11  22  40  69  90 125 158 207 256 311 371
#     4  11  23  38  65  90 120 158 209 250 311 361
#     4  11  21  39  59  92 123 162 203 257 301 361
#     4  10  20  38  59  86 121 162 207 253 295 372
#     4   9  20  38  57  84 118 170 201 246 308 355
#
# _framework density 20.373615999999998
#
# number of rings (size 3 to 8) (size 9 to 14) (size 15 to 20)
#    0.000    1.391    3.478    3.391    0.000    0.000 
#   12.522    0.000    0.000    1.043    0.000    0.000 
#    0.000    0.000    0.000    0.000    0.000    0.000 
#
# Total GULP energy -128141.568101 kJ/mol
# GULP energy per Si atom -5571.372526 kJ/mol
# Density = 2.032724 g / cm^3
# Si number density = 20.373616 Si / 1000 Ang^3
#
#
#
# Elastic Constant Matrix: (Units=GPa)
#
#
# Indices 1 2 3 4 5 6 
#
# 1 66.7266 5.2335 20.1642 0.0000 30.3636 0.0000
# 2 5.2335 79.7278 11.4101 0.0000 15.7568 0.0000
# 3 20.1642 11.4101 93.2587 0.0000 18.7376 0.0000
# 4 0.0000 0.0000 0.0000 14.7750 0.0000 -6.1827
# 5 30.3636 15.7568 18.7376 0.0000 26.8792 0.0000
# 6 0.0000 0.0000 0.0000 -6.1827 0.0000 9.8077
#
#
#
# Elastic Compliance Matrix: (Units=1/GPa)
#
#
# Indices 1 2 3 4 5 6 
#
# 1 0.033139 0.005905 0.000383 0.000000 -0.041163 0.000000
# 2 0.005905 0.015239 -0.000007 0.000000 -0.015599 0.000000
# 3 0.000383 -0.000007 0.012474 0.000000 -0.009124 0.000000
# 4 0.000000 0.000000 0.000000 0.091933 0.000000 0.057954
# 5 -0.041163 -0.015599 -0.009124 0.000000 0.099208 0.000000
# 6 0.000000 0.000000 0.000000 0.057954 0.000000 0.138494
#
#
# Mechanical properties :
#
#
# Convention : Reuss Voigt Hill
#
# Bulk Modulus (GPa) = 13.62143 34.81426 24.21784
# Shear Modulus (GPa) = 12.42558 23.81940 18.12249
#
# Velocity S-wave (km/s) = 2.47227 3.42296 2.98570
# Velocity P-wave (km/s) = 3.85354 5.72252 4.87837
#
# Compressibility (1/GPa) = 0.07341376
#
# Stress axis : x y z
#
# Youngs Moduli (GPa) = 30.17604 65.62150 80.16552
#
# Poissons Ratio (x) = -0.38750 -0.03069
# Poissons Ratio (y) = -0.17819 0.00057
# Poissons Ratio (z) = -0.01155 0.00047
#
# Static dielectric constant tensor:
#      x y z
#    x 1.753700 0.000000 -0.012070 
#    y 0.000000 1.736730 0.000000 
#    z -0.012070 0.000000 1.728340 
# 
# From -- ./inp_files/200276.got.cif
#   From: 2010.05.17/outbox.cif.g08.bks.cpg/sg12_101_cif.got.tgz:200276.got - 2010.06.03 13:09:07.
