data_PCOD9202260
_publ_section_title
;
Structure prediction by ZEFSAII (Michael W. Deem and Ramdas Pophale) SiO2 
 PCOD9202260
Probable space group: C 2/M
;
_chemical_formula_sum "Si O2"
_cell_formula_units_Z 58
_cell_length_a 20.132467
_cell_length_b 7.453590
_cell_length_c 19.074146
_cell_angle_alpha 90.000000
_cell_angle_beta 71.483012
_cell_angle_gamma 90.000000
_cell_volume 2714.070197
_symmetry_space_group_name_H-M "C 2/M"
_symmetry_group_IT_number 12
_symmetry_cell_setting 'monoclinic'
loop_
_space_group_symop_operation_xyz
x,y,z
-x,y,-z
-x,-y,-z
x,-y,z
1/2+x,1/2+y,z
1/2-x,1/2+y,-z
1/2-x,1/2-y,-z
1/2+x,1/2-y,z
loop_
_atom_site_type_symbol
_atom_site_label
_atom_site_fract_x
_atom_site_fract_y
_atom_site_fract_z
Si Si1 0.031131 0.780898 0.062851
Si Si2 0.980512 0.218304 0.230707
Si Si3 0.657330 0.282446 0.641814
Si Si4 0.409762 0.207962 0.480750
Si Si5 0.500000 0.500000 0.500000
Si Si6 0.180109 0.214057 0.066171
Si Si7 0.868092 0.783466 0.768072
Si Si8 0.690109 0.210407 0.364917
O O1 0.110932 0.721517 0.048810
O O2 0.988779 0.727886 0.146740
O O3 0.030670 0.000000 0.061475
O O4 0.000000 0.718344 0.000000
O O5 0.908928 0.279273 0.290060
O O6 0.051384 0.275587 0.247160
O O7 0.980541 0.000000 0.231794
O O8 0.657497 0.500000 0.643372
O O9 0.641854 0.224033 0.567871
O O10 0.732194 0.218792 0.645563
O O11 0.474790 0.341131 0.452821
O O12 0.368221 0.284538 0.562504
O O13 0.429546 0.000000 0.481996
O O14 0.174717 0.278348 0.148478
O O15 0.173295 0.000000 0.072919
O O16 0.250000 0.250000 0.000000
O O17 0.833982 0.727582 0.706734
O O18 0.868644 0.000000 0.767398
O O19 0.692297 0.000000 0.382184
#
# Coordination Sequence:
#
# PCOD9202260 Si02
#       8
#     8   8   8   8   2   8   8   8
#     4   8  14  27  48  77 106 137 184 241 289 341
#     4   8  16  30  52  77 105 144 192 239 291 357
#     4  10  20  38  60  85 119 160 196 240 307 362
#     4  11  25  42  63  95 126 157 205 252 297 360
#     4  12  26  44  68  94 120 164 206 248 310 350
#     4   9  18  32  50  77 108 143 186 235 292 354
#     4   9  19  34  54  78 109 148 192 238 292 358
#     4  10  23  38  57  87 121 153 196 247 298 359
#
# _framework density 21.370117
#
# number of rings (size 3 to 8) (size 9 to 14) (size 15 to 20)
#    0.000    2.621    0.690    2.276    2.897    2.207 
#    0.000    2.759    0.000    1.241    0.000    0.000 
#    0.000    0.000    0.000    0.000    0.000    0.000 
#
# Total GULP energy -161688.195065 kJ/mol
# GULP energy per Si atom -5575.455002 kJ/mol
# Density = 2.132148 g / cm^3
# Si number density = 21.370117 Si / 1000 Ang^3
#
#
#
# Elastic Constant Matrix: (Units=GPa)
#
#
# Indices 1 2 3 4 5 6 
#
# 1 128.0877 8.8855 91.8674 0.0000 14.9728 0.0000
# 2 8.8855 90.0552 -2.0168 0.0000 -2.0386 0.0000
# 3 91.8674 -2.0168 146.6914 0.0000 11.5642 0.0000
# 4 0.0000 0.0000 0.0000 10.2173 0.0000 12.6132
# 5 14.9728 -2.0386 11.5642 0.0000 42.8141 0.0000
# 6 0.0000 0.0000 0.0000 12.6132 0.0000 63.3280
#
#
#
# Elastic Compliance Matrix: (Units=1/GPa)
#
#
# Indices 1 2 3 4 5 6 
#
# 1 0.014727 -0.001718 -0.009026 0.000000 -0.002794 0.000000
# 2 -0.001718 0.011319 0.001167 0.000000 0.000825 0.000000
# 3 -0.009026 0.001167 0.012499 0.000000 -0.000164 0.000000
# 4 0.000000 0.000000 0.000000 0.129785 0.000000 -0.025850
# 5 -0.002794 0.000825 -0.000164 0.000000 0.024417 0.000000
# 6 0.000000 0.000000 0.000000 -0.025850 0.000000 0.020939
#
#
# Mechanical properties :
#
#
# Convention : Reuss Voigt Hill
#
# Bulk Modulus (GPa) = 51.57697 62.47850 57.02773
# Shear Modulus (GPa) = 20.89387 41.01175 30.95281
#
# Velocity S-wave (km/s) = 3.13023 4.38552 3.80993
# Velocity P-wave (km/s) = 6.10344 7.41240 6.78954
#
# Compressibility (1/GPa) = 0.01938850
#
# Stress axis : x y z
#
# Youngs Moduli (GPa) = 67.90359 88.34973 80.00791
#
# Poissons Ratio (x) = 0.15182 0.72217
# Poissons Ratio (y) = 0.11669 -0.09335
# Poissons Ratio (z) = 0.61291 -0.10309
#
# Static dielectric constant tensor:
#      x y z
#    x 1.797290 0.000000 -0.039900 
#    y 0.000000 1.840780 0.000000 
#    z -0.039900 0.000000 1.779850 
# 
# From -- ./inp_files/281108.got.cif
#   From: 2010.05.17/outbox.cif.g08.bks.cpg/sg12_141_cif.got.tgz:281108.got - 2010.06.03 13:09:07.
