data_PCOD9202514
_publ_section_title
;
Structure prediction by ZEFSAII (Michael W. Deem and Ramdas Pophale) SiO2 
 PCOD9202514
Probable space group: C 2/M
;
_chemical_formula_sum "Si O2"
_cell_formula_units_Z 56
_cell_length_a 33.483407
_cell_length_b 8.925332
_cell_length_c 14.185239
_cell_angle_alpha 90.000000
_cell_angle_beta 133.045638
_cell_angle_gamma 90.000000
_cell_volume 3098.099061
_symmetry_space_group_name_H-M "C 2/M"
_symmetry_group_IT_number 12
_symmetry_cell_setting 'monoclinic'
loop_
_space_group_symop_operation_xyz
x,y,z
-x,y,-z
-x,-y,-z
x,-y,z
1/2+x,1/2+y,z
1/2-x,1/2+y,-z
1/2-x,1/2-y,-z
1/2+x,1/2-y,z
loop_
_atom_site_type_symbol
_atom_site_label
_atom_site_fract_x
_atom_site_fract_y
_atom_site_fract_z
Si Si1 0.471182 0.679154 0.741772
Si Si2 0.803065 0.825074 0.541111
Si Si3 0.412716 0.673543 0.840025
Si Si4 0.313636 0.179419 0.008052
Si Si5 0.416812 0.822128 0.047504
Si Si6 0.367720 0.821239 0.476132
Si Si7 0.812149 0.178588 0.209483
O O1 0.467380 0.500000 0.726092
O O2 0.454262 0.715428 0.823023
O O3 0.531782 0.738713 0.823200
O O4 0.425953 0.755310 0.602951
O O5 0.750000 0.750000 0.500000
O O6 0.853156 0.817883 0.695789
O O7 0.824084 0.741096 0.481898
O O8 0.793262 0.000000 0.503462
O O9 0.423450 0.500000 0.883915
O O10 0.415026 0.773536 0.935825
O O11 0.360142 0.217779 0.007672
O O12 0.323037 0.264577 0.121266
O O13 0.315731 0.000000 0.028721
O O14 0.252036 0.213471 0.874880
O O15 0.424571 0.000000 0.067484
O O16 0.349631 0.760943 0.345578
O O17 0.368936 0.000000 0.480422
O O18 0.819507 0.000000 0.227915
#
# Coordination Sequence:
#
# PCOD9202514 Si02
#       7
#     8   8   8   8   8   8   8
#     4  10  21  39  58  80 113 152 192 237 279 332
#     4  10  21  36  53  80 116 151 191 236 278 332
#     4   9  20  36  53  77 111 151 191 230 277 329
#     4   9  21  39  57  84 116 146 183 233 285 336
#     4  11  22  35  56  85 115 148 188 235 283 335
#     4  11  22  37  59  84 112 150 188 231 286 342
#     4  10  20  38  62  85 112 148 187 231 283 343
#
# _framework density 18.075600999999999
#
# number of rings (size 3 to 8) (size 9 to 14) (size 15 to 20)
#    0.000    2.000    0.000    4.286    2.000    6.857 
#    0.000    0.714    0.000    4.286    0.000    0.000 
#    0.000    0.000    0.000    0.000    0.000    0.000 
#
# Total GULP energy -156414.849047 kJ/mol
# GULP energy per Si atom -5586.244609 kJ/mol
# Density = 1.803446 g / cm^3
# Si number density = 18.075601 Si / 1000 Ang^3
#
#
#
# Elastic Constant Matrix: (Units=GPa)
#
#
# Indices 1 2 3 4 5 6 
#
# 1 63.9186 40.7061 39.7836 0.0000 10.3681 0.0000
# 2 40.7061 92.8236 52.8326 0.0000 -5.6459 0.0000
# 3 39.7836 52.8326 76.7852 0.0000 -14.1503 0.0000
# 4 0.0000 0.0000 0.0000 35.7160 0.0000 -1.3599
# 5 10.3681 -5.6459 -14.1503 0.0000 18.0787 0.0000
# 6 0.0000 0.0000 0.0000 -1.3599 0.0000 29.8043
#
#
#
# Elastic Compliance Matrix: (Units=1/GPa)
#
#
# Indices 1 2 3 4 5 6 
#
# 1 0.046072 -0.007198 -0.028281 0.000000 -0.050806 0.000000
# 2 -0.007198 0.019178 -0.008883 0.000000 0.003164 0.000000
# 3 -0.028281 -0.008883 0.042379 0.000000 0.046615 0.000000
# 4 0.000000 0.000000 0.000000 0.028047 0.000000 0.001280
# 5 -0.050806 0.003164 0.046615 0.000000 0.121925 0.000000
# 6 0.000000 0.000000 0.000000 0.001280 0.000000 0.033611
#
#
# Mechanical properties :
#
#
# Convention : Reuss Voigt Hill
#
# Bulk Modulus (GPa) = 52.89573 55.57467 54.23520
# Shear Modulus (GPa) = 12.94536 23.40014 18.17275
#
# Velocity S-wave (km/s) = 2.67905 3.60192 3.17420
# Velocity P-wave (km/s) = 6.23674 6.93620 6.59575
#
# Compressibility (1/GPa) = 0.01890512
#
# Stress axis : x y z
#
# Youngs Moduli (GPa) = 21.70499 52.14279 23.59653
#
# Poissons Ratio (x) = 0.37530 0.66734
# Poissons Ratio (y) = 0.15622 0.20962
# Poissons Ratio (z) = 0.61385 0.46321
#
# Static dielectric constant tensor:
#      x y z
#    x 1.598600 0.000000 0.013330 
#    y 0.000000 1.603810 0.000000 
#    z 0.013330 0.000000 1.609050 
# 
# From -- ./inp_files/249305.got.cif
#   From: 2010.05.17/outbox.cif.g08.bks.cpg/sg12_125_cif.got.tgz:249305.got - 2010.06.03 13:09:07.
