data_PCOD9202434
_publ_section_title
;
Structure prediction by ZEFSAII (Michael W. Deem and Ramdas Pophale) SiO2 
 PCOD9202434
Probable space group: C 2/M
;
_chemical_formula_sum "Si O2"
_cell_formula_units_Z 64
_cell_length_a 30.339995
_cell_length_b 18.267259
_cell_length_c 9.531605
_cell_angle_alpha 90.000000
_cell_angle_beta 140.237123
_cell_angle_gamma 90.000000
_cell_volume 3378.869211
_symmetry_space_group_name_H-M "C 2/M"
_symmetry_group_IT_number 12
_symmetry_cell_setting 'monoclinic'
loop_
_space_group_symop_operation_xyz
x,y,z
-x,y,-z
-x,-y,-z
x,-y,z
1/2+x,1/2+y,z
1/2-x,1/2+y,-z
1/2-x,1/2-y,-z
1/2+x,1/2-y,z
loop_
_atom_site_type_symbol
_atom_site_label
_atom_site_fract_x
_atom_site_fract_y
_atom_site_fract_z
Si Si1 0.706011 0.586185 0.512846
Si Si2 0.563583 0.671799 0.565002
Si Si3 0.561496 0.846415 0.552759
Si Si4 0.723309 0.819032 0.529074
Si Si5 0.278222 0.681468 0.975837
Si Si6 0.299929 0.086151 0.011284
Si Si7 0.563708 0.344360 0.249311
Si Si8 0.568583 0.168288 0.248578
O O1 0.692862 0.500000 0.485125
O O2 0.741544 0.611525 0.457429
O O3 0.635318 0.629389 0.360697
O O4 0.757200 0.604660 0.766972
O O5 0.500000 0.642653 0.500000
O O6 0.551734 0.759078 0.520491
O O7 0.562560 0.634691 0.409964
O O8 0.639829 0.670222 0.816948
O O9 0.500000 0.876438 0.500000
O O10 0.630790 0.867651 0.802980
O O11 0.569164 0.867014 0.406519
O O12 0.750000 0.750000 0.500000
O O13 0.750876 0.806722 0.753110
O O14 0.641527 0.836015 0.344838
O O15 0.245414 0.610072 0.966976
O O16 0.250000 0.750000 0.000000
O O17 0.314962 0.000000 0.047755
O O18 0.561126 0.256233 0.243887
O O19 0.500000 0.371289 0.000000
O O20 0.500000 0.141812 0.000000
#
# Coordination Sequence:
#
# PCOD9202434 Si02
#       8
#     8   8   8   8   8   8   8   8
#     4  11  25  42  61  89 125 168 210 252 307 370
#     4  10  21  34  61  94 121 151 200 262 313 356
#     4  10  21  37  61  90 120 159 199 254 310 366
#     4  12  24  37  65  96 122 162 203 257 311 367
#     4  12  21  40  66  91 121 159 209 258 309 365
#     4  11  23  41  64  87 121 168 212 257 303 363
#     4  10  20  38  61  87 126 157 200 250 310 372
#     4  10  21  37  59  94 124 153 197 257 313 363
#
# _framework density 18.941248000000002
#
# number of rings (size 3 to 8) (size 9 to 14) (size 15 to 20)
#    0.000    1.250    5.000    1.500    3.500    2.000 
#    0.000    0.000    0.000    1.500    0.000    0.000 
#    0.000    0.000    0.000    0.000    0.000    0.000 
#
# Total GULP energy -178475.168573 kJ/mol
# GULP energy per Si atom -5577.349018 kJ/mol
# Density = 1.889814 g / cm^3
# Si number density = 18.941248 Si / 1000 Ang^3
#
#
#
# Elastic Constant Matrix: (Units=GPa)
#
#
# Indices 1 2 3 4 5 6 
#
# 1 142.4114 8.4672 70.4184 0.0000 17.3682 0.0000
# 2 8.4672 18.8458 18.0941 0.0000 -7.3356 0.0000
# 3 70.4184 18.0941 136.6739 0.0000 7.5683 0.0000
# 4 0.0000 0.0000 0.0000 7.7565 0.0000 -7.1296
# 5 17.3682 -7.3356 7.5683 0.0000 39.2404 0.0000
# 6 0.0000 0.0000 0.0000 -7.1296 0.0000 6.9050
#
#
#
# Elastic Compliance Matrix: (Units=1/GPa)
#
#
# Indices 1 2 3 4 5 6 
#
# 1 0.009884 -0.001374 -0.004704 0.000000 -0.003724 0.000000
# 2 -0.001374 0.068405 -0.009188 0.000000 0.015168 0.000000
# 3 -0.004704 -0.009188 0.011055 0.000000 -0.001768 0.000000
# 4 0.000000 0.000000 0.000000 2.531860 0.000000 2.614209
# 5 -0.003724 0.015168 -0.001768 0.000000 0.030309 0.000000
# 6 0.000000 0.000000 0.000000 2.614209 0.000000 2.844058
#
#
# Mechanical properties :
#
#
# Convention : Reuss Voigt Hill
#
# Bulk Modulus (GPa) = 17.00354 54.65453 35.82904
# Shear Modulus (GPa) = 0.90160 24.17715 12.53938
#
# Velocity S-wave (km/s) = 0.69067 3.57659 2.57576
# Velocity P-wave (km/s) = 3.10363 6.78037 5.27285
#
# Compressibility (1/GPa) = 0.05881129
#
# Stress axis : x y z
#
# Youngs Moduli (GPa) = 101.17378 14.61880 90.45792
#
# Poissons Ratio (x) = 0.02008 0.42555
# Poissons Ratio (y) = 0.13897 0.83115
# Poissons Ratio (z) = 0.47597 0.13432
#
# Static dielectric constant tensor:
#      x y z
#    x 1.677910 0.000000 -0.002760 
#    y 0.000000 1.656440 0.000000 
#    z -0.002760 0.000000 1.669980 
# 
# From -- ./inp_files/112890.got.cif
#   From: 2010.05.17/outbox.cif.g08.bks.cpg/sg12_57_cif.got.tgz:112890.got - 2010.06.03 13:09:07.
