data_PCOD9202452
_publ_section_title
;
Structure prediction by ZEFSAII (Michael W. Deem and Ramdas Pophale) SiO2 
 PCOD9202452
Probable space group: C 2/M
;
_chemical_formula_sum "Si O2"
_cell_formula_units_Z 50
_cell_length_a 19.192743
_cell_length_b 8.042142
_cell_length_c 18.143337
_cell_angle_alpha 90.000000
_cell_angle_beta 117.523835
_cell_angle_gamma 90.000000
_cell_volume 2483.480646
_symmetry_space_group_name_H-M "C 2/M"
_symmetry_group_IT_number 12
_symmetry_cell_setting 'monoclinic'
loop_
_space_group_symop_operation_xyz
x,y,z
-x,y,-z
-x,-y,-z
x,-y,z
1/2+x,1/2+y,z
1/2-x,1/2+y,-z
1/2-x,1/2-y,-z
1/2+x,1/2-y,z
loop_
_atom_site_type_symbol
_atom_site_label
_atom_site_fract_x
_atom_site_fract_y
_atom_site_fract_z
Si Si1 0.091075 0.309957 0.101401
Si Si2 0.333657 0.686972 0.567211
Si Si3 0.764709 0.799612 0.922770
Si Si4 0.658658 0.802160 0.732550
Si Si5 0.000000 0.000000 0.000000
Si Si6 0.299130 0.188393 0.703159
Si Si7 0.504360 0.298387 0.416291
O O1 0.059803 0.500000 0.083473
O O2 0.154595 0.281442 0.066935
O O3 0.141747 0.299233 0.200120
O O4 0.034005 0.151819 0.069940
O O5 0.338563 0.500000 0.542371
O O6 0.250000 0.750000 0.500000
O O7 0.328292 0.696573 0.652292
O O8 0.413459 0.767913 0.576504
O O9 0.695993 0.750141 0.830418
O O10 0.774290 0.000000 0.923449
O O11 0.750000 0.750000 0.000000
O O12 0.714294 0.729015 0.695713
O O13 0.569685 0.757151 0.669190
O O14 0.666840 0.000000 0.734356
O O15 0.298628 0.000000 0.674141
O O16 0.500000 0.246950 0.500000
O O17 0.502156 0.500000 0.413699
#
# Coordination Sequence:
#
# PCOD9202452 Si02
#       7
#     8   8   8   8   2   8   8
#     4  10  22  40  62  90 122 167 210 255 314 375
#     4  11  23  38  61  90 122 161 202 249 303 365
#     4  10  20  38  61  89 123 161 208 260 310 370
#     4  10  21  37  62  90 118 156 202 251 304 361
#     4  12  22  40  64  90 128 160 210 262 312 378
#     4  10  21  39  63  86 119 161 204 250 303 369
#     4  10  22  40  59  86 122 156 195 245 300 360
#
# _framework density 20.133033999999999
#
# number of rings (size 3 to 8) (size 9 to 14) (size 15 to 20)
#    0.000    1.760    0.800    3.120    2.240    4.800 
#    2.880    0.000    0.000    0.000    0.000    0.000 
#    0.000    0.000    0.000    0.000    0.000    0.000 
#
# Total GULP energy -139203.177305 kJ/mol
# GULP energy per Si atom -5568.127092 kJ/mol
# Density = 2.008721 g / cm^3
# Si number density = 20.133034 Si / 1000 Ang^3
#
#
#
# Elastic Constant Matrix: (Units=GPa)
#
#
# Indices 1 2 3 4 5 6 
#
# 1 69.1530 3.0915 41.7096 0.0000 7.9436 0.0000
# 2 3.0915 92.5883 5.6001 0.0000 13.2143 0.0000
# 3 41.7096 5.6001 72.4137 0.0000 5.1440 0.0000
# 4 0.0000 0.0000 0.0000 32.1811 0.0000 7.1681
# 5 7.9436 13.2143 5.1440 0.0000 35.4881 0.0000
# 6 0.0000 0.0000 0.0000 7.1681 0.0000 9.2348
#
#
#
# Elastic Compliance Matrix: (Units=1/GPa)
#
#
# Indices 1 2 3 4 5 6 
#
# 1 0.022533 0.000503 -0.012778 0.000000 -0.003379 0.000000
# 2 0.000503 0.011443 -0.000873 0.000000 -0.004247 0.000000
# 3 -0.012778 -0.000873 0.021229 0.000000 0.000108 0.000000
# 4 0.000000 0.000000 0.000000 0.037570 0.000000 -0.029162
# 5 -0.003379 -0.004247 0.000108 0.000000 0.030500 0.000000
# 6 0.000000 0.000000 0.000000 -0.029162 0.000000 0.130922
#
#
# Mechanical properties :
#
#
# Convention : Reuss Voigt Hill
#
# Bulk Modulus (GPa) = 34.59085 37.21748 35.90417
# Shear Modulus (GPa) = 17.23366 27.63106 22.43236
#
# Velocity S-wave (km/s) = 2.92890 3.70864 3.34159
# Velocity P-wave (km/s) = 5.35317 6.07162 5.72368
#
# Compressibility (1/GPa) = 0.02890938
#
# Stress axis : x y z
#
# Youngs Moduli (GPa) = 44.37882 87.39267 47.10479
#
# Poissons Ratio (x) = -0.04393 0.60190
# Poissons Ratio (y) = -0.02231 0.04111
# Poissons Ratio (z) = 0.56706 0.07628
#
# Static dielectric constant tensor:
#      x y z
#    x 1.749020 0.000000 0.017730 
#    y 0.000000 1.728280 0.000000 
#    z 0.017730 0.000000 1.687280 
# 
# From -- ./inp_files/275794.got.cif
#   From: 2010.05.17/outbox.cif.g08.bks.cpg/sg12_138_cif.got.tgz:275794.got - 2010.06.03 13:09:07.
