data_PCOD9202898
_publ_section_title
;
Structure prediction by ZEFSAII (Michael W. Deem and Ramdas Pophale) SiO2 
 PCOD9202898
Probable space group: C 2/M
;
_chemical_formula_sum "Si O2"
_cell_formula_units_Z 56
_cell_length_a 12.732135
_cell_length_b 15.544890
_cell_length_c 16.985031
_cell_angle_alpha 90.000000
_cell_angle_beta 127.659619
_cell_angle_gamma 90.000000
_cell_volume 2661.281549
_symmetry_space_group_name_H-M "C 2/M"
_symmetry_group_IT_number 12
_symmetry_cell_setting 'monoclinic'
loop_
_space_group_symop_operation_xyz
x,y,z
-x,y,-z
-x,-y,-z
x,-y,z
1/2+x,1/2+y,z
1/2-x,1/2+y,-z
1/2-x,1/2-y,-z
1/2+x,1/2-y,z
loop_
_atom_site_type_symbol
_atom_site_label
_atom_site_fract_x
_atom_site_fract_y
_atom_site_fract_z
Si Si1 0.574578 0.149160 0.116380
Si Si2 0.145172 0.903734 0.092778
Si Si3 0.445758 0.899122 0.220174
Si Si4 0.123274 0.902464 0.613658
Si Si5 0.676345 0.220940 0.385885
Si Si6 0.631052 0.599043 0.788811
Si Si7 0.576774 0.672646 0.207779
O O1 0.503953 0.103487 0.157920
O O2 0.714813 0.108824 0.157994
O O3 0.592017 0.244947 0.158729
O O4 0.500000 0.149743 0.000000
O O5 0.292229 0.866867 0.143940
O O6 0.133757 0.903292 0.181947
O O7 0.149018 0.000000 0.060314
O O8 0.000000 0.867957 0.000000
O O9 0.537883 0.835688 0.316705
O O10 0.446952 0.000000 0.247169
O O11 0.227385 0.839667 0.621696
O O12 0.074278 0.874370 0.677350
O O13 0.000000 0.905954 0.500000
O O14 0.178128 0.000000 0.646849
O O15 0.750000 0.250000 0.500000
O O16 0.652270 0.305446 0.322229
O O17 0.596220 0.500000 0.788364
O O18 0.572974 0.654289 0.833261
#
# Coordination Sequence:
#
# PCOD9202898 Si02
#       7
#     8   8   8   8   8   8   8
#     4  11  25  39  65  97 130 169 219 279 341 391
#     4  10  23  43  66  93 130 179 223 268 331 406
#     4  10  22  43  68  95 132 174 224 278 332 402
#     4  10  20  38  64  91 124 167 219 275 335 397
#     4  11  23  39  63  95 130 172 216 274 336 400
#     4  11  23  41  63  92 129 169 218 275 330 397
#     4  11  24  40  63  91 132 170 218 275 332 396
#
# _framework density 21.042491999999999
#
# number of rings (size 3 to 8) (size 9 to 14) (size 15 to 20)
#    0.000    1.429    2.857    2.571    6.000    2.857 
#    0.000    2.143    0.000    1.714    0.000    0.000 
#    0.000    0.000    0.000    0.000    0.000    0.000 
#
# Total GULP energy -156037.672648 kJ/mol
# GULP energy per Si atom -5572.774023 kJ/mol
# Density = 2.099460 g / cm^3
# Si number density = 21.042492 Si / 1000 Ang^3
#
#
#
# Elastic Constant Matrix: (Units=GPa)
#
#
# Indices 1 2 3 4 5 6 
#
# 1 116.3445 8.9776 18.9633 0.0000 10.1907 0.0000
# 2 8.9776 46.6884 10.6347 0.0000 1.8083 0.0000
# 3 18.9633 10.6347 129.0346 0.0000 9.6344 0.0000
# 4 0.0000 0.0000 0.0000 57.0372 0.0000 -18.7952
# 5 10.1907 1.8083 9.6344 0.0000 30.6063 0.0000
# 6 0.0000 0.0000 0.0000 -18.7952 0.0000 33.5475
#
#
#
# Elastic Compliance Matrix: (Units=1/GPa)
#
#
# Indices 1 2 3 4 5 6 
#
# 1 0.009101 -0.001415 -0.001025 0.000000 -0.002624 0.000000
# 2 -0.001415 0.022065 -0.001586 0.000000 -0.000333 0.000000
# 3 -0.001025 -0.001586 0.008191 0.000000 -0.002143 0.000000
# 4 0.000000 0.000000 0.000000 0.021502 0.000000 0.012047
# 5 -0.002624 -0.000333 -0.002143 0.000000 0.034241 0.000000
# 6 0.000000 0.000000 0.000000 0.012047 0.000000 0.036558
#
#
# Mechanical properties :
#
#
# Convention : Reuss Voigt Hill
#
# Bulk Modulus (GPa) = 31.94278 41.02430 36.48354
# Shear Modulus (GPa) = 33.30115 41.13763 37.21939
#
# Velocity S-wave (km/s) = 3.98246 4.42631 4.21024
# Velocity P-wave (km/s) = 6.02991 6.75731 6.40394
#
# Compressibility (1/GPa) = 0.03130598
#
# Stress axis : x y z
#
# Youngs Moduli (GPa) = 109.87483 45.32107 122.08177
#
# Poissons Ratio (x) = 0.06413 0.12513
# Poissons Ratio (y) = 0.15547 0.19358
# Poissons Ratio (z) = 0.11262 0.07187
#
# Static dielectric constant tensor:
#      x y z
#    x 1.765700 0.000000 0.034070 
#    y 0.000000 1.835040 0.000000 
#    z 0.034070 0.000000 2.168870 
# 
# From -- ./inp_files/206778.got.cif
#   From: 2010.05.17/outbox.cif.g08.bks.cpg/sg12_104_cif.got.tgz:206778.got - 2010.06.03 13:09:07.
