data_PCOD9202261
_publ_section_title
;
Structure prediction by ZEFSAII (Michael W. Deem and Ramdas Pophale) SiO2 
 PCOD9202261
Probable space group: C 2/M
;
_chemical_formula_sum "Si O2"
_cell_formula_units_Z 50
_cell_length_a 29.811781
_cell_length_b 7.657809
_cell_length_c 11.252792
_cell_angle_alpha 90.000000
_cell_angle_beta 63.627518
_cell_angle_gamma 90.000000
_cell_volume 2301.571647
_symmetry_space_group_name_H-M "C 2/M"
_symmetry_group_IT_number 12
_symmetry_cell_setting 'monoclinic'
loop_
_space_group_symop_operation_xyz
x,y,z
-x,y,-z
-x,-y,-z
x,-y,z
1/2+x,1/2+y,z
1/2-x,1/2+y,-z
1/2-x,1/2-y,-z
1/2+x,1/2-y,z
loop_
_atom_site_type_symbol
_atom_site_label
_atom_site_fract_x
_atom_site_fract_y
_atom_site_fract_z
Si Si1 0.975376 0.793996 0.402773
Si Si2 0.783826 0.288861 0.628613
Si Si3 0.071272 0.699561 0.170769
Si Si4 0.426767 0.797378 0.097804
Si Si5 0.678191 0.293510 0.679966
Si Si6 0.879362 0.289475 0.645721
Si Si7 0.500000 0.500000 0.000000
O O1 0.917250 0.755660 0.493013
O O2 0.000000 0.740448 0.500000
O O3 0.011891 0.703373 0.266881
O O4 0.981943 0.000000 0.379235
O O5 0.782535 0.500000 0.633539
O O6 0.726293 0.228655 0.699167
O O7 0.806221 0.236510 0.474621
O O8 0.823609 0.228911 0.680055
O O9 0.088382 0.500000 0.143640
O O10 0.098466 0.779065 0.254973
O O11 0.080784 0.773489 0.029312
O O12 0.373932 0.792500 0.225849
O O13 0.465187 0.655573 0.101923
O O14 0.443669 0.000000 0.075109
O O15 0.672381 0.500000 0.706757
O O16 0.879617 0.500000 0.652009
#
# Coordination Sequence:
#
# PCOD9202261 Si02
#       7
#     8   8   8   8   8   8   2
#     4   9  17  28  46  74 110 150 190 234 288 348
#     4   9  19  35  60  88 117 156 203 257 306 363
#     4   9  19  35  56  80 113 157 194 239 300 362
#     4  11  24  43  65  90 122 161 204 252 303 363
#     4  10  20  38  60  85 120 161 204 252 312 360
#     4   9  17  33  55  82 114 150 197 244 296 358
#     4  12  26  44  64  90 118 164 210 248 294 362
#
# _framework density 21.724284000000001
#
# number of rings (size 3 to 8) (size 9 to 14) (size 15 to 20)
#    0.000    2.400    0.800    1.200    1.120    4.480 
#    0.000    2.400    0.000    0.000    0.000    0.000 
#    0.000    0.000    0.000    0.000    0.000    0.000 
#
# Total GULP energy -139244.395394 kJ/mol
# GULP energy per Si atom -5569.775816 kJ/mol
# Density = 2.167484 g / cm^3
# Si number density = 21.724284 Si / 1000 Ang^3
#
#
#
# Elastic Constant Matrix: (Units=GPa)
#
#
# Indices 1 2 3 4 5 6 
#
# 1 106.9991 25.4363 17.4985 0.0000 -9.3107 0.0000
# 2 25.4363 81.6475 10.9891 0.0000 -6.0815 0.0000
# 3 17.4985 10.9891 58.1431 0.0000 -10.0421 0.0000
# 4 0.0000 0.0000 0.0000 42.8932 0.0000 -48.3175
# 5 -9.3107 -6.0815 -10.0421 0.0000 37.3544 0.0000
# 6 0.0000 0.0000 0.0000 -48.3175 0.0000 65.9106
#
#
#
# Elastic Compliance Matrix: (Units=1/GPa)
#
#
# Indices 1 2 3 4 5 6 
#
# 1 0.010544 -0.002852 -0.002371 0.000000 0.001527 0.000000
# 2 -0.002852 0.013417 -0.001492 0.000000 0.001072 0.000000
# 3 -0.002371 -0.001492 0.018929 0.000000 0.004255 0.000000
# 4 0.000000 0.000000 0.000000 0.133817 0.000000 0.098098
# 5 0.001527 0.001072 0.004255 0.000000 0.028470 0.000000
# 6 0.000000 0.000000 0.000000 0.098098 0.000000 0.087085
#
#
# Mechanical properties :
#
#
# Convention : Reuss Voigt Hill
#
# Bulk Modulus (GPa) = 33.94370 39.40417 36.67393
# Shear Modulus (GPa) = 15.84719 42.08937 28.96828
#
# Velocity S-wave (km/s) = 2.70380 4.40640 3.65561
# Velocity P-wave (km/s) = 5.04044 6.63824 5.89374
#
# Compressibility (1/GPa) = 0.02946055
#
# Stress axis : x y z
#
# Youngs Moduli (GPa) = 94.83666 74.53205 52.82806
#
# Poissons Ratio (x) = 0.21258 0.12524
# Poissons Ratio (y) = 0.27049 0.07883
# Poissons Ratio (z) = 0.22483 0.11122
#
# Static dielectric constant tensor:
#      x y z
#    x 1.893290 0.000000 0.047580 
#    y 0.000000 1.789510 0.000000 
#    z 0.047580 0.000000 1.791150 
# 
# From -- ./inp_files/186301.got.cif
#   From: 2010.05.17/outbox.cif.g08.bks.cpg/sg12_94_cif.got.tgz:186301.got - 2010.06.03 13:09:07.
