data_PCOD9202756
_publ_section_title
;
Structure prediction by ZEFSAII (Michael W. Deem and Ramdas Pophale) SiO2 
 PCOD9202756
Probable space group: C 2/M
;
_chemical_formula_sum "Si O2"
_cell_formula_units_Z 56
_cell_length_a 30.629733
_cell_length_b 13.884416
_cell_length_c 9.377736
_cell_angle_alpha 90.000000
_cell_angle_beta 134.676839
_cell_angle_gamma 90.000000
_cell_volume 2835.891342
_symmetry_space_group_name_H-M "C 2/M"
_symmetry_group_IT_number 12
_symmetry_cell_setting 'monoclinic'
loop_
_space_group_symop_operation_xyz
x,y,z
-x,y,-z
-x,-y,-z
x,-y,z
1/2+x,1/2+y,z
1/2-x,1/2+y,-z
1/2-x,1/2-y,-z
1/2+x,1/2-y,z
loop_
_atom_site_type_symbol
_atom_site_label
_atom_site_fract_x
_atom_site_fract_y
_atom_site_fract_z
Si Si1 0.053583 0.705015 0.235889
Si Si2 0.533850 0.792912 0.707286
Si Si3 0.925893 0.104871 0.855601
Si Si4 0.672697 0.890691 0.480310
Si Si5 0.230389 0.775204 0.115502
Si Si6 0.392864 0.610369 0.117034
Si Si7 0.657438 0.113050 0.108051
O O1 0.091259 0.798026 0.265406
O O2 0.102361 0.621411 0.367682
O O3 0.017495 0.730172 0.294720
O O4 0.000000 0.680482 0.000000
O O5 0.500000 0.845138 0.500000
O O6 0.563146 0.692768 0.719617
O O7 0.589169 0.851027 0.908412
O O8 0.902543 0.000000 0.752247
O O9 0.906486 0.114502 0.976658
O O10 0.000000 0.103009 0.000000
O O11 0.714408 0.818471 0.665160
O O12 0.670634 0.871420 0.305904
O O13 0.694406 0.000000 0.551684
O O14 0.203691 0.678663 0.125333
O O15 0.250000 0.750000 0.000000
O O16 0.175278 0.853452 0.001873
O O17 0.403453 0.500000 0.185686
O O18 0.663205 0.000000 0.091560
#
# Coordination Sequence:
#
# PCOD9202756 Si02
#       7
#     8   8   8   8   8   8   8
#     4  11  19  37  62  92 129 165 210 260 313 382
#     4  11  23  37  58  92 134 172 210 259 325 379
#     4   9  16  31  59  90 121 159 205 257 309 371
#     4  11  24  42  68  96 123 164 214 263 320 381
#     4  11  25  44  66  93 129 166 212 269 324 386
#     4  10  20  38  63  90 125 169 211 258 321 382
#     4  10  23  44  67  92 123 165 216 268 317 379
#
# _framework density 19.746876
#
# number of rings (size 3 to 8) (size 9 to 14) (size 15 to 20)
#    0.000    1.571    4.286    1.714    4.000    2.571 
#    0.000    2.143    0.000    0.000    0.000    0.000 
#    0.000    0.000    0.000    0.000    0.000    0.000 
#
# Total GULP energy -156219.472736 kJ/mol
# GULP energy per Si atom -5579.266883 kJ/mol
# Density = 1.970193 g / cm^3
# Si number density = 19.746876 Si / 1000 Ang^3
#
#
#
# Elastic Constant Matrix: (Units=GPa)
#
#
# Indices 1 2 3 4 5 6 
#
# 1 101.7168 39.3445 44.6568 0.0000 5.4088 0.0000
# 2 39.3445 118.5003 42.9311 0.0000 -5.2891 0.0000
# 3 44.6568 42.9311 102.5955 0.0000 -6.7606 0.0000
# 4 0.0000 0.0000 0.0000 3.1340 0.0000 -0.3166
# 5 5.4088 -5.2891 -6.7606 0.0000 11.2082 0.0000
# 6 0.0000 0.0000 0.0000 -0.3166 0.0000 14.2263
#
#
#
# Elastic Compliance Matrix: (Units=1/GPa)
#
#
# Indices 1 2 3 4 5 6 
#
# 1 0.014143 -0.003193 -0.005592 0.000000 -0.011705 0.000000
# 2 -0.003193 0.010723 -0.002773 0.000000 0.004928 0.000000
# 3 -0.005592 -0.002773 0.013989 0.000000 0.009828 0.000000
# 4 0.000000 0.000000 0.000000 0.319796 0.000000 0.007118
# 5 -0.011705 0.004928 0.009828 0.000000 0.103123 0.000000
# 6 0.000000 0.000000 0.000000 0.007118 0.000000 0.070451
#
#
# Mechanical properties :
#
#
# Convention : Reuss Voigt Hill
#
# Bulk Modulus (GPa) = 63.52582 64.07527 63.80055
# Shear Modulus (GPa) = 8.91924 18.77238 13.84581
#
# Velocity S-wave (km/s) = 2.12758 3.08661 2.65082
# Velocity P-wave (km/s) = 6.18671 6.72470 6.46131
#
# Compressibility (1/GPa) = 0.01574163
#
# Stress axis : x y z
#
# Youngs Moduli (GPa) = 70.70446 93.25485 71.48607
#
# Poissons Ratio (x) = 0.29772 0.39972
# Poissons Ratio (y) = 0.22573 0.19821
# Poissons Ratio (z) = 0.39535 0.25857
#
# Static dielectric constant tensor:
#      x y z
#    x 1.700210 0.000000 -0.002850 
#    y 0.000000 1.735750 0.000000 
#    z -0.002850 0.000000 1.703190 
# 
# From -- ./inp_files/111711.got.cif
#   From: 2010.05.17/outbox.cif.g08.bks.cpg/sg12_56_cif.got.tgz:111711.got - 2010.06.03 13:09:07.
