data_PCOD9202075
_publ_section_title
;
Structure prediction by ZEFSAII (Michael W. Deem and Ramdas Pophale) SiO2 
 PCOD9202075
Probable space group: C 2/M
;
_chemical_formula_sum "Si O2"
_cell_formula_units_Z 52
_cell_length_a 19.381344
_cell_length_b 18.516712
_cell_length_c 8.026245
_cell_angle_alpha 90.000000
_cell_angle_beta 102.688757
_cell_angle_gamma 90.000000
_cell_volume 2810.101606
_symmetry_space_group_name_H-M "C 2/M"
_symmetry_group_IT_number 12
_symmetry_cell_setting 'monoclinic'
loop_
_space_group_symop_operation_xyz
x,y,z
-x,y,-z
-x,-y,-z
x,-y,z
1/2+x,1/2+y,z
1/2-x,1/2+y,-z
1/2-x,1/2-y,-z
1/2+x,1/2-y,z
loop_
_atom_site_type_symbol
_atom_site_label
_atom_site_fract_x
_atom_site_fract_y
_atom_site_fract_z
Si Si1 0.164835 0.738940 0.938663
Si Si2 0.144843 0.000000 0.596032
Si Si3 0.307068 0.839273 0.372047
Si Si4 0.059273 0.866687 0.912586
Si Si5 0.650641 0.500000 0.002542
Si Si6 0.844556 0.243511 0.697407
Si Si7 0.740244 0.000000 0.637378
Si Si8 0.448664 0.628412 0.601030
O O1 0.142454 0.721098 0.115669
O O2 0.250000 0.750000 0.000000
O O3 0.156571 0.684297 0.781702
O O4 0.116980 0.809907 0.875070
O O5 0.162519 0.000000 0.805201
O O6 0.210672 0.000000 0.502678
O O7 0.099315 0.069973 0.517461
O O8 0.228830 0.801938 0.329246
O O9 0.341417 0.802331 0.551012
O O10 0.301230 0.924755 0.385357
O O11 0.007669 0.905561 0.753166
O O12 0.105481 0.929010 0.019966
O O13 0.000000 0.831320 0.000000
O O14 0.715545 0.500000 0.164971
O O15 0.900999 0.184006 0.674410
O O16 0.500000 0.669491 0.500000
#
# Coordination Sequence:
#
# PCOD9202075 Si02
#       8
#     8   4   8   8   4   8   4   8
#     4  10  21  38  58  83 115 157 204 250 298 348
#     4  12  24  37  54  82 130 172 203 234 285 363
#     4  10  22  38  60  80 115 154 204 252 305 345
#     4  12  22  36  58  88 124 164 205 244 290 360
#     4  12  24  37  56  86 130 174 200 233 284 359
#     4  10  20  38  58  82 116 159 196 256 290 350
#     4  12  24  41  60  88 118 163 208 252 297 362
#     4  12  21  36  55  85 126 163 208 238 286 359
#
# _framework density 18.504670000000001
#
# number of rings (size 3 to 8) (size 9 to 14) (size 15 to 20)
#    0.000    0.923    4.615    4.615    0.000    2.462 
#    0.000    0.000    0.000    0.000    0.000    5.385 
#    0.000    0.000    0.000    0.000    0.000    0.000 
#
# Total GULP energy -144883.122431 kJ/mol
# GULP energy per Si atom -5572.427786 kJ/mol
# Density = 1.846255 g / cm^3
# Si number density = 18.504670 Si / 1000 Ang^3
#
#
#
# Elastic Constant Matrix: (Units=GPa)
#
#
# Indices 1 2 3 4 5 6 
#
# 1 58.9936 43.2821 32.0827 0.0000 -19.7388 0.0000
# 2 43.2821 128.5270 54.0643 0.0000 -7.7024 0.0000
# 3 32.0827 54.0643 135.3220 0.0000 -16.3368 0.0000
# 4 0.0000 0.0000 0.0000 25.1629 0.0000 3.8968
# 5 -19.7388 -7.7024 -16.3368 0.0000 32.8257 0.0000
# 6 0.0000 0.0000 0.0000 3.8968 0.0000 72.1624
#
#
#
# Elastic Compliance Matrix: (Units=1/GPa)
#
#
# Indices 1 2 3 4 5 6 
#
# 1 0.028664 -0.008008 -0.001854 0.000000 0.014435 0.000000
# 2 -0.008008 0.011593 -0.003177 0.000000 -0.003676 0.000000
# 3 -0.001854 -0.003177 0.009441 0.000000 0.002839 0.000000
# 4 0.000000 0.000000 0.000000 0.040076 0.000000 -0.002164
# 5 0.014435 -0.003676 0.002839 0.000000 0.039694 0.000000
# 6 0.000000 0.000000 0.000000 -0.002164 0.000000 0.013974
#
#
# Mechanical properties :
#
#
# Convention : Reuss Voigt Hill
#
# Bulk Modulus (GPa) = 42.33499 64.63341 53.48420
# Shear Modulus (GPa) = 28.18575 38.92445 33.55510
#
# Velocity S-wave (km/s) = 3.90701 4.59136 4.26294
# Velocity P-wave (km/s) = 6.57881 7.94427 7.29356
#
# Compressibility (1/GPa) = 0.02362112
#
# Stress axis : x y z
#
# Youngs Moduli (GPa) = 34.88677 86.25687 105.91787
#
# Poissons Ratio (x) = 0.69074 0.19635
# Poissons Ratio (y) = 0.27937 0.33651
# Poissons Ratio (z) = 0.06467 0.27404
#
# Static dielectric constant tensor:
#      x y z
#    x 1.632140 0.000000 -0.014770 
#    y 0.000000 1.221250 0.000000 
#    z -0.014770 0.000000 1.782690 
# 
# From -- ./inp_files/75299.got.cif
#   From: 2010.05.17/outbox.cif.g08.bks.cpg/sg12_38_cif.got.tgz:75299.got - 2010.06.03 13:09:07.
