data_PCOD9202278
_publ_section_title
;
Structure prediction by ZEFSAII (Michael W. Deem and Ramdas Pophale) SiO2 
 PCOD9202278
Probable space group: C 2/M
;
_chemical_formula_sum "Si O2"
_cell_formula_units_Z 56
_cell_length_a 16.353100
_cell_length_b 23.342918
_cell_length_c 9.268129
_cell_angle_alpha 90.000000
_cell_angle_beta 47.338334
_cell_angle_gamma 90.000000
_cell_volume 2601.669506
_symmetry_space_group_name_H-M "C 2/M"
_symmetry_group_IT_number 12
_symmetry_cell_setting 'monoclinic'
loop_
_space_group_symop_operation_xyz
x,y,z
-x,y,-z
-x,-y,-z
x,-y,z
1/2+x,1/2+y,z
1/2-x,1/2+y,-z
1/2-x,1/2-y,-z
1/2+x,1/2-y,z
loop_
_atom_site_type_symbol
_atom_site_label
_atom_site_fract_x
_atom_site_fract_y
_atom_site_fract_z
Si Si1 0.554699 0.089893 0.720154
Si Si2 0.821746 0.436687 0.145369
Si Si3 0.260009 0.152852 0.001609
Si Si4 0.691404 0.063207 0.300563
Si Si5 0.984597 0.709053 0.691157
Si Si6 0.092480 0.065595 0.763613
Si Si7 0.002791 0.836727 0.323695
O O1 0.648213 0.073784 0.724466
O O2 0.584326 0.065092 0.529838
O O3 0.542098 0.157878 0.710717
O O4 0.440560 0.065993 0.921135
O O5 0.772094 0.500000 0.185431
O O6 0.758426 0.383294 0.152174
O O7 0.307094 0.109568 0.824950
O O8 0.353025 0.202530 0.888654
O O9 0.132215 0.164221 0.120982
O O10 0.792667 0.075458 0.289346
O O11 0.708443 0.000000 0.217981
O O12 0.034551 0.771501 0.663630
O O13 0.000000 0.700395 0.500000
O O14 0.062319 0.113421 0.681883
O O15 0.092679 0.000000 0.705302
O O16 0.000000 0.068197 0.000000
O O17 0.000000 0.844695 0.500000
#
# Coordination Sequence:
#
# PCOD9202278 Si02
#       7
#     8   8   8   8   8   8   8
#     4  10  20  38  60  86 123 160 193 247 304 357
#     4  10  21  36  57  90 128 156 193 244 304 370
#     4  11  22  39  61  89 121 160 203 248 302 352
#     4  11  21  36  64  91 120 158 200 246 302 359
#     4  10  21  42  63  88 119 155 202 254 297 359
#     4  10  22  42  62  87 119 152 197 248 293 351
#     4  11  25  43  62  86 120 162 206 249 300 350
#
# _framework density 21.524640999999999
#
# number of rings (size 3 to 8) (size 9 to 14) (size 15 to 20)
#    0.000    1.571    2.857    2.571    2.000    0.857 
#    5.143    2.857    0.000    0.000    0.000    0.000 
#    0.000    0.000    0.000    0.000    0.000    0.000 
#
# Total GULP energy -156431.185336 kJ/mol
# GULP energy per Si atom -5586.828048 kJ/mol
# Density = 2.147565 g / cm^3
# Si number density = 21.524641 Si / 1000 Ang^3
#
#
#
# Elastic Constant Matrix: (Units=GPa)
#
#
# Indices 1 2 3 4 5 6 
#
# 1 44.3181 36.3092 -1.5171 0.0000 9.9362 0.0000
# 2 36.3092 135.4552 -1.1424 0.0000 28.4451 0.0000
# 3 -1.5171 -1.1424 73.4109 0.0000 12.2076 0.0000
# 4 0.0000 0.0000 0.0000 23.4741 0.0000 0.1150
# 5 9.9362 28.4451 12.2076 0.0000 23.1836 0.0000
# 6 0.0000 0.0000 0.0000 0.1150 0.0000 33.1694
#
#
#
# Elastic Compliance Matrix: (Units=1/GPa)
#
#
# Indices 1 2 3 4 5 6 
#
# 1 0.029286 -0.006814 0.001311 0.000000 -0.004881 0.000000
# 2 -0.006814 0.011929 0.002184 0.000000 -0.012867 0.000000
# 3 0.001311 0.002184 0.015587 0.000000 -0.011449 0.000000
# 4 0.000000 0.000000 0.000000 0.042601 0.000000 -0.000148
# 5 -0.004881 -0.012867 -0.011449 0.000000 0.067041 0.000000
# 6 0.000000 0.000000 0.000000 -0.000148 0.000000 0.030149
#
#
# Mechanical properties :
#
#
# Convention : Reuss Voigt Hill
#
# Bulk Modulus (GPa) = 19.93423 35.60928 27.77175
# Shear Modulus (GPa) = 22.73214 30.60106 26.66660
#
# Velocity S-wave (km/s) = 3.25329 3.77460 3.52360
# Velocity P-wave (km/s) = 4.83664 5.96458 5.42998
#
# Compressibility (1/GPa) = 0.05016498
#
# Stress axis : x y z
#
# Youngs Moduli (GPa) = 34.14581 83.82645 64.15609
#
# Poissons Ratio (x) = 0.57120 -0.08410
# Poissons Ratio (y) = 0.23267 -0.14014
# Poissons Ratio (z) = -0.04476 -0.18311
#
# Static dielectric constant tensor:
#      x y z
#    x 1.779910 0.000000 -0.028290 
#    y 0.000000 1.778830 0.000000 
#    z -0.028290 0.000000 1.794670 
# 
# From -- ./inp_files/79060.got.cif
#   From: 2010.05.17/outbox.cif.g08.bks.cpg/sg12_40_cif.got.tgz:79060.got - 2010.06.03 13:09:07.
