data_PCOD9202702
_publ_section_title
;
Structure prediction by ZEFSAII (Michael W. Deem and Ramdas Pophale) SiO2 
 PCOD9202702
Probable space group: C 2/M
;
_chemical_formula_sum "Si O2"
_cell_formula_units_Z 60
_cell_length_a 13.728786
_cell_length_b 11.539944
_cell_length_c 19.364076
_cell_angle_alpha 90.000000
_cell_angle_beta 112.112908
_cell_angle_gamma 90.000000
_cell_volume 2842.180905
_symmetry_space_group_name_H-M "C 2/M"
_symmetry_group_IT_number 12
_symmetry_cell_setting 'monoclinic'
loop_
_space_group_symop_operation_xyz
x,y,z
-x,y,-z
-x,-y,-z
x,-y,z
1/2+x,1/2+y,z
1/2-x,1/2+y,-z
1/2-x,1/2-y,-z
1/2+x,1/2-y,z
loop_
_atom_site_type_symbol
_atom_site_label
_atom_site_fract_x
_atom_site_fract_y
_atom_site_fract_z
Si Si1 0.995373 0.365122 0.290738
Si Si2 0.752284 0.372459 0.438597
Si Si3 0.769012 0.300338 0.687681
Si Si4 0.323242 0.500000 0.243607
Si Si5 0.677910 0.368434 0.175345
Si Si6 0.662117 0.726317 0.850768
Si Si7 0.063692 0.257154 0.446692
Si Si8 0.951926 0.866877 0.058828
O O1 0.969111 0.500000 0.292855
O O2 0.921263 0.304563 0.214392
O O3 0.115939 0.353623 0.297155
O O4 0.992960 0.297319 0.363257
O O5 0.752941 0.500000 0.406981
O O6 0.767737 0.266359 0.390142
O O7 0.850079 0.358643 0.516390
O O8 0.639221 0.348786 0.443767
O O9 0.697695 0.398124 0.702749
O O10 0.786346 0.197557 0.747075
O O11 0.334049 0.602807 0.187060
O O12 0.715103 0.500000 0.182712
O O13 0.728346 0.293519 0.127732
O O14 0.552743 0.370095 0.136591
O O15 0.630932 0.707338 0.921447
O O16 0.000000 0.237613 0.500000
O O17 0.916301 0.000000 0.036927
O O18 0.000000 0.822608 0.000000
#
# Coordination Sequence:
#
# PCOD9202702 Si02
#       8
#     8   8   8   4   8   8   8   8
#     4  11  22  39  63  89 120 160 204 252 302 367
#     4  10  22  42  62  87 119 160 206 257 308 363
#     4  10  20  38  63  87 117 161 201 249 310 351
#     4  10  22  38  59  91 120 158 202 252 299 362
#     4  10  21  37  60  92 123 156 198 251 299 355
#     4  11  22  39  62  95 121 158 204 253 298 360
#     4  10  24  42  57  87 122 162 206 250 314 359
#     4  10  21  40  64  89 124 165 199 244 301 362
#
# _framework density 21.110548000000001
#
# number of rings (size 3 to 8) (size 9 to 14) (size 15 to 20)
#    0.000    1.733    2.667    1.200    3.733    1.867 
#    6.000    0.000    0.000    1.600    0.000    0.000 
#    0.000    0.000    0.000    0.000    0.000    0.000 
#
# Total GULP energy -167004.036188 kJ/mol
# GULP energy per Si atom -5566.801206 kJ/mol
# Density = 2.106250 g / cm^3
# Si number density = 21.110548 Si / 1000 Ang^3
#
#
#
# Elastic Constant Matrix: (Units=GPa)
#
#
# Indices 1 2 3 4 5 6 
#
# 1 61.0994 10.7989 9.7017 0.0000 -20.1326 0.0000
# 2 10.7989 107.5327 14.8807 0.0000 -2.6866 0.0000
# 3 9.7017 14.8807 55.2726 0.0000 -25.1346 0.0000
# 4 0.0000 0.0000 0.0000 13.6492 0.0000 0.1013
# 5 -20.1326 -2.6866 -25.1346 0.0000 42.7269 0.0000
# 6 0.0000 0.0000 0.0000 0.1013 0.0000 8.4409
#
#
#
# Elastic Compliance Matrix: (Units=1/GPa)
#
#
# Indices 1 2 3 4 5 6 
#
# 1 0.019809 -0.001969 0.001695 0.000000 0.010207 0.000000
# 2 -0.001969 0.009905 -0.003358 0.000000 -0.002280 0.000000
# 3 0.001695 -0.003358 0.025892 0.000000 0.015819 0.000000
# 4 0.000000 0.000000 0.000000 0.073271 0.000000 -0.000879
# 5 0.010207 -0.002280 0.015819 0.000000 0.037376 0.000000
# 6 0.000000 0.000000 0.000000 -0.000879 0.000000 0.118482
#
#
# Mechanical properties :
#
#
# Convention : Reuss Voigt Hill
#
# Bulk Modulus (GPa) = 20.68614 32.74080 26.71347
# Shear Modulus (GPa) = 16.22780 25.53160 20.87970
#
# Velocity S-wave (km/s) = 2.77556 3.48145 3.14835
# Velocity P-wave (km/s) = 4.48240 5.63059 5.08898
#
# Compressibility (1/GPa) = 0.04834154
#
# Stress axis : x y z
#
# Youngs Moduli (GPa) = 50.48244 100.95986 38.62173
#
# Poissons Ratio (x) = 0.19877 -0.06545
# Poissons Ratio (y) = 0.09939 0.12969
# Poissons Ratio (z) = -0.08554 0.33902
#
# Static dielectric constant tensor:
#      x y z
#    x 1.811650 0.000000 -0.013180 
#    y 0.000000 1.712710 0.000000 
#    z -0.013180 0.000000 1.790060 
# 
# From -- ./inp_files/269346.got.cif
#   From: 2010.05.17/outbox.cif.g08.bks.cpg/sg12_135_cif.got.tgz:269346.got - 2010.06.03 13:09:07.
