data_PCOD9202892
_publ_section_title
;
Structure prediction by ZEFSAII (Michael W. Deem and Ramdas Pophale) SiO2 
 PCOD9202892
Probable space group: C 2/M
;
_chemical_formula_sum "Si O2"
_cell_formula_units_Z 50
_cell_length_a 16.209818
_cell_length_b 14.700101
_cell_length_c 11.602431
_cell_angle_alpha 90.000000
_cell_angle_beta 56.863384
_cell_angle_gamma 90.000000
_cell_volume 2315.072601
_symmetry_space_group_name_H-M "C 2/M"
_symmetry_group_IT_number 12
_symmetry_cell_setting 'monoclinic'
loop_
_space_group_symop_operation_xyz
x,y,z
-x,y,-z
-x,-y,-z
x,-y,z
1/2+x,1/2+y,z
1/2-x,1/2+y,-z
1/2-x,1/2-y,-z
1/2+x,1/2-y,z
loop_
_atom_site_type_symbol
_atom_site_label
_atom_site_fract_x
_atom_site_fract_y
_atom_site_fract_z
Si Si1 0.889841 0.898813 0.530786
Si Si2 0.453622 0.104115 0.658304
Si Si3 0.662097 0.717606 0.217803
Si Si4 0.660607 0.100022 0.935038
Si Si5 0.500000 0.500000 0.000000
Si Si6 0.945713 0.645320 0.199892
Si Si7 0.971468 0.150142 0.224855
O O1 0.841567 0.823026 0.649043
O O2 0.000000 0.902317 0.500000
O O3 0.901940 0.877882 0.386044
O O4 0.847036 0.000000 0.579532
O O5 0.500000 0.125891 0.500000
O O6 0.368897 0.177067 0.752565
O O7 0.545102 0.115964 0.675824
O O8 0.418644 0.000000 0.688426
O O9 0.766080 0.681728 0.092201
O O10 0.576956 0.670257 0.205824
O O11 0.635147 0.101703 0.818989
O O12 0.698955 0.000000 0.939241
O O13 0.553951 0.116224 0.071958
O O14 0.517978 0.578694 0.885313
O O15 0.936152 0.753566 0.201508
#
# Coordination Sequence:
#
# PCOD9202892 Si02
#       7
#     8   8   8   8   2   8   8
#     4   9  16  32  56  85 118 153 199 239 286 359
#     4  10  20  38  64  91 123 166 207 245 299 369
#     4  10  21  36  62  92 116 153 210 262 299 346
#     4  11  22  37  63  89 114 155 211 264 309 354
#     4  12  20  32  54  88 126 170 186 220 306 400
#     4  10  21  41  61  84 119 160 211 258 307 360
#     4  10  21  35  58  85 123 163 195 240 304 376
#
# _framework density 21.597594999999998
#
# number of rings (size 3 to 8) (size 9 to 14) (size 15 to 20)
#    0.000    1.920    0.800    5.760    2.240    2.560 
#    0.000    3.200   10.560    1.920    0.000    0.000 
#    0.000    0.000    0.000    0.000    0.000    0.000 
#
# Total GULP energy -139298.560308 kJ/mol
# GULP energy per Si atom -5571.942412 kJ/mol
# Density = 2.154844 g / cm^3
# Si number density = 21.597595 Si / 1000 Ang^3
#
#
#
# Elastic Constant Matrix: (Units=GPa)
#
#
# Indices 1 2 3 4 5 6 
#
# 1 32.4545 19.3673 16.2389 0.0000 -0.2517 0.0000
# 2 19.3673 143.5239 32.4862 0.0000 -0.7346 0.0000
# 3 16.2389 32.4862 81.0552 0.0000 30.1104 0.0000
# 4 0.0000 0.0000 0.0000 34.4933 0.0000 0.6190
# 5 -0.2517 -0.7346 30.1104 0.0000 36.6251 0.0000
# 6 0.0000 0.0000 0.0000 0.6190 0.0000 34.2485
#
#
#
# Elastic Compliance Matrix: (Units=1/GPa)
#
#
# Indices 1 2 3 4 5 6 
#
# 1 0.037187 -0.002906 -0.009154 0.000000 0.007723 0.000000
# 2 -0.002906 0.008288 -0.004022 0.000000 0.003453 0.000000
# 3 -0.009154 -0.004022 0.022800 0.000000 -0.018888 0.000000
# 4 0.000000 0.000000 0.000000 0.029001 0.000000 -0.000524
# 5 0.007723 0.003453 -0.018888 0.000000 0.042954 0.000000
# 6 0.000000 0.000000 0.000000 -0.000524 0.000000 0.029208
#
#
# Mechanical properties :
#
#
# Convention : Reuss Voigt Hill
#
# Bulk Modulus (GPa) = 27.69403 43.69094 35.69249
# Shear Modulus (GPa) = 23.40395 33.66947 28.53671
#
# Velocity S-wave (km/s) = 3.29544 3.95263 3.63890
# Velocity P-wave (km/s) = 5.22785 6.41128 5.84957
#
# Compressibility (1/GPa) = 0.03610886
#
# Stress axis : x y z
#
# Youngs Moduli (GPa) = 26.89097 120.66033 43.86022
#
# Poissons Ratio (x) = 0.35070 0.40151
# Poissons Ratio (y) = 0.07816 0.17641
# Poissons Ratio (z) = 0.24617 0.48530
#
# Static dielectric constant tensor:
#      x y z
#    x 1.773120 0.000000 0.017120 
#    y 0.000000 1.787260 0.000000 
#    z 0.017120 0.000000 1.852450 
# 
# From -- ./inp_files/155935.got.cif
#   From: 2010.05.17/outbox.cif.g08.bks.cpg/sg12_78_cif.got.tgz:155935.got - 2010.06.03 13:09:07.
