data_PCOD9202667
_publ_section_title
;
Structure prediction by ZEFSAII (Michael W. Deem and Ramdas Pophale) SiO2 
 PCOD9202667
Probable space group: C 2/M
;
_chemical_formula_sum "Si O2"
_cell_formula_units_Z 44
_cell_length_a 15.835241
_cell_length_b 22.101429
_cell_length_c 6.517191
_cell_angle_alpha 90.000000
_cell_angle_beta 123.525587
_cell_angle_gamma 90.000000
_cell_volume 1901.444434
_symmetry_space_group_name_H-M "C 2/M"
_symmetry_group_IT_number 12
_symmetry_cell_setting 'monoclinic'
loop_
_space_group_symop_operation_xyz
x,y,z
-x,y,-z
-x,-y,-z
x,-y,z
1/2+x,1/2+y,z
1/2-x,1/2+y,-z
1/2-x,1/2-y,-z
1/2+x,1/2-y,z
loop_
_atom_site_type_symbol
_atom_site_label
_atom_site_fract_x
_atom_site_fract_y
_atom_site_fract_z
Si Si1 0.502927 0.500000 0.262131
Si Si2 0.636147 0.301191 0.414717
Si Si3 0.063400 0.500000 0.377928
Si Si4 0.244420 0.000000 0.614076
Si Si5 0.294975 0.874770 0.895317
Si Si6 0.500000 0.609266 0.000000
Si Si7 0.500000 0.891824 0.000000
Si Si8 0.713660 0.792893 0.765225
O O1 0.500000 0.500000 0.500000
O O2 0.626143 0.500000 0.394929
O O3 0.452597 0.440754 0.092545
O O4 0.705867 0.339101 0.663037
O O5 0.547601 0.344632 0.226617
O O6 0.621051 0.238329 0.516572
O O7 0.699430 0.293353 0.289735
O O8 0.184399 0.500000 0.493846
O O9 0.028373 0.438441 0.218552
O O10 0.000000 0.500000 0.500000
O O11 0.274937 0.943021 0.796858
O O12 0.402059 0.855408 0.939135
O O13 0.300442 0.857162 0.142241
O O14 0.750000 0.750000 0.000000
#
# Coordination Sequence:
#
# PCOD9202667 Si02
#       8
#     4   8   4   4   8   4   4   8
#     4  11  25  41  61 104 145 186 236 269 336 426
#     4  10  21  41  63  91 129 171 226 281 331 407
#     4   9  19  37  59  88 133 174 215 267 337 403
#     4  10  20  38  62  98 142 179 223 279 332 423
#     4  10  20  39  62  90 135 168 215 281 340 401
#     4  11  24  42  65  96 140 183 229 280 330 409
#     4   9  20  36  55  92 124 160 219 265 324 424
#     4   9  21  41  64  89 120 168 225 281 344 388
#
# _framework density 23.140302999999999
#
# number of rings (size 3 to 8) (size 9 to 14) (size 15 to 20)
#    0.000    2.182    1.818    0.545    2.545    2.909 
#    0.000   12.727    0.000    0.000    0.000    0.000 
#    0.000    0.727    0.000    0.000    0.000    0.000 
#
# Total GULP energy -122580.627406 kJ/mol
# GULP energy per Si atom -5571.846700 kJ/mol
# Density = 2.308763 g / cm^3
# Si number density = 23.140303 Si / 1000 Ang^3
#
#
#
# Elastic Constant Matrix: (Units=GPa)
#
#
# Indices 1 2 3 4 5 6 
#
# 1 62.6249 9.9210 36.4367 0.0000 -10.1967 0.0000
# 2 9.9210 84.0450 45.4699 0.0000 -10.7382 0.0000
# 3 36.4367 45.4699 117.7501 0.0000 -20.6391 0.0000
# 4 0.0000 0.0000 0.0000 -69.8979 0.0000 48.8706
# 5 -10.1967 -10.7382 -20.6391 0.0000 48.9225 0.0000
# 6 0.0000 0.0000 0.0000 48.8706 0.0000 -13.6895
#
#
#
# Elastic Compliance Matrix: (Units=1/GPa)
#
#
# Indices 1 2 3 4 5 6 
#
# 1 0.019708 0.001302 -0.006297 0.000000 0.001737 0.000000
# 2 0.001302 0.015165 -0.006077 0.000000 0.001036 0.000000
# 3 -0.006297 -0.006077 0.013308 0.000000 0.002968 0.000000
# 4 0.000000 0.000000 0.000000 0.009563 0.000000 0.034140
# 5 0.001737 0.001036 0.002968 0.000000 0.022282 0.000000
# 6 0.000000 0.000000 0.000000 0.034140 0.000000 0.048829
#
#
# Mechanical properties :
#
#
# Convention : Reuss Voigt Hill
#
# Bulk Modulus (GPa) = 38.40651 49.78615 44.09633
# Shear Modulus (GPa) = 31.31269 4.57318 17.94293
#
# Velocity S-wave (km/s) = 3.68253 1.40733 2.78762
# Velocity P-wave (km/s) = 5.89191 4.91959 5.42757
#
# Compressibility (1/GPa) = 0.02603725
#
# Stress axis : x y z
#
# Youngs Moduli (GPa) = 50.73990 65.94103 75.14182
#
# Poissons Ratio (x) = -0.08587 0.47317
# Poissons Ratio (y) = -0.06608 0.45667
# Poissons Ratio (z) = 0.31951 0.40075
#
# Static dielectric constant tensor:
#      x y z
#    x 1.968710 0.000000 0.017390 
#    y 0.000000 1.973670 0.000000 
#    z 0.017390 0.000000 1.874710 
# 
# From -- ./inp_files/17053.got.cif
#   From: 2010.05.17/outbox.cif.g08.bks.cpg/sg12_9_cif.got.tgz:17053.got - 2010.06.03 13:09:07.
