data_PCOD9202161
_publ_section_title
;
Structure prediction by ZEFSAII (Michael W. Deem and Ramdas Pophale) SiO2 
 PCOD9202161
Probable space group: C 2/M
;
_chemical_formula_sum "Si O2"
_cell_formula_units_Z 56
_cell_length_a 29.215690
_cell_length_b 18.405297
_cell_length_c 9.518024
_cell_angle_alpha 90.000000
_cell_angle_beta 143.821042
_cell_angle_gamma 90.000000
_cell_volume 3021.241046
_symmetry_space_group_name_H-M "C 2/M"
_symmetry_group_IT_number 12
_symmetry_cell_setting 'monoclinic'
loop_
_space_group_symop_operation_xyz
x,y,z
-x,y,-z
-x,-y,-z
x,-y,z
1/2+x,1/2+y,z
1/2-x,1/2+y,-z
1/2-x,1/2-y,-z
1/2+x,1/2-y,z
loop_
_atom_site_type_symbol
_atom_site_label
_atom_site_fract_x
_atom_site_fract_y
_atom_site_fract_z
Si Si1 0.080039 0.080399 0.284020
Si Si2 0.428492 0.813116 0.417370
Si Si3 0.220707 0.303755 0.547842
Si Si4 0.437624 0.739942 0.721876
Si Si5 0.693314 0.696128 0.948143
Si Si6 0.716763 0.912665 0.995883
Si Si7 0.250828 0.584194 0.399709
O O1 0.074580 0.155820 0.354889
O O2 0.155253 0.090811 0.370394
O O3 0.091345 0.000000 0.380038
O O4 0.000000 0.076651 0.000000
O O5 0.500000 0.836222 0.500000
O O6 0.459050 0.790925 0.645848
O O7 0.387542 0.738922 0.259131
O O8 0.361544 0.874458 0.254640
O O9 0.250000 0.250000 0.500000
O O10 0.142348 0.271435 0.416566
O O11 0.213943 0.377138 0.441784
O O12 0.278706 0.310347 0.822492
O O13 0.500000 0.740390 0.000000
O O14 0.750000 0.750000 0.000000
O O15 0.711177 0.620270 0.913863
O O16 0.714430 0.000000 0.982815
O O17 0.725621 0.889042 0.181775
O O18 0.231219 0.500000 0.355453
#
# Coordination Sequence:
#
# PCOD9202161 Si02
#       7
#     8   8   8   8   8   8   8
#     4   9  18  34  55  83 122 154 188 235 294 363
#     4  11  24  40  61  89 122 157 206 255 302 367
#     4  12  21  35  60  87 121 152 197 256 291 354
#     4  11  23  37  59  90 118 157 199 244 310 355
#     4  10  20  38  59  85 116 156 203 246 299 356
#     4  10  21  41  65  86 118 165 210 254 303 364
#     4  10  21  35  58  89 118 157 203 247 302 358
#
# _framework density 18.535429000000001
#
# number of rings (size 3 to 8) (size 9 to 14) (size 15 to 20)
#    0.000    1.571    4.286    2.571    4.000    0.857 
#    0.000    0.000    0.000    2.571    0.000    0.000 
#    0.000    0.000    0.000    0.000    0.000    0.000 
#
# Total GULP energy -156064.212742 kJ/mol
# GULP energy per Si atom -5573.721884 kJ/mol
# Density = 1.849324 g / cm^3
# Si number density = 18.535429 Si / 1000 Ang^3
#
#
#
# Elastic Constant Matrix: (Units=GPa)
#
#
# Indices 1 2 3 4 5 6 
#
# 1 30.0231 9.5439 6.8624 0.0000 -15.2849 0.0000
# 2 9.5439 85.2320 26.0641 0.0000 -11.3901 0.0000
# 3 6.8624 26.0641 81.8499 0.0000 -16.4164 0.0000
# 4 0.0000 0.0000 0.0000 23.3700 0.0000 -1.1805
# 5 -15.2849 -11.3901 -16.4164 0.0000 38.0358 0.0000
# 6 0.0000 0.0000 0.0000 -1.1805 0.0000 25.5936
#
#
#
# Elastic Compliance Matrix: (Units=1/GPa)
#
#
# Indices 1 2 3 4 5 6 
#
# 1 0.042437 -0.002737 0.000624 0.000000 0.016503 0.000000
# 2 -0.002737 0.013362 -0.003770 0.000000 0.001274 0.000000
# 3 0.000624 -0.003770 0.014439 0.000000 0.005354 0.000000
# 4 0.000000 0.000000 0.000000 0.042890 0.000000 0.001978
# 5 0.016503 0.001274 0.005354 0.000000 0.035615 0.000000
# 6 0.000000 0.000000 0.000000 0.001978 0.000000 0.039164
#
#
# Mechanical properties :
#
#
# Convention : Reuss Voigt Hill
#
# Bulk Modulus (GPa) = 17.10228 31.33840 24.22034
# Shear Modulus (GPa) = 22.81384 27.70885 25.26134
#
# Velocity S-wave (km/s) = 3.51212 3.87060 3.69571
# Velocity P-wave (km/s) = 5.06887 6.07614 5.59522
#
# Compressibility (1/GPa) = 0.05847174
#
# Stress axis : x y z
#
# Youngs Moduli (GPa) = 23.56433 74.83718 69.25449
#
# Poissons Ratio (x) = 0.20484 -0.04319
# Poissons Ratio (y) = 0.06450 0.26109
# Poissons Ratio (z) = -0.01470 0.28214
#
# Static dielectric constant tensor:
#      x y z
#    x 1.655010 0.000000 -0.027770 
#    y 0.000000 1.739540 0.000000 
#    z -0.027770 0.000000 1.685380 
# 
# From -- ./inp_files/98085.got.cif
#   From: 2010.05.17/outbox.cif.g08.bks.cpg/sg12_50_cif.got.tgz:98085.got - 2010.06.03 13:09:07.
