data_PCOD9202550
_publ_section_title
;
Structure prediction by ZEFSAII (Michael W. Deem and Ramdas Pophale) SiO2 
 PCOD9202550
Probable space group: C 2/M
;
_chemical_formula_sum "Si O2"
_cell_formula_units_Z 52
_cell_length_a 28.340175
_cell_length_b 9.487551
_cell_length_c 12.518601
_cell_angle_alpha 90.000000
_cell_angle_beta 123.873579
_cell_angle_gamma 90.000000
_cell_volume 2794.676072
_symmetry_space_group_name_H-M "C 2/M"
_symmetry_group_IT_number 12
_symmetry_cell_setting 'monoclinic'
loop_
_space_group_symop_operation_xyz
x,y,z
-x,y,-z
-x,-y,-z
x,-y,z
1/2+x,1/2+y,z
1/2-x,1/2+y,-z
1/2-x,1/2-y,-z
1/2+x,1/2-y,z
loop_
_atom_site_type_symbol
_atom_site_label
_atom_site_fract_x
_atom_site_fract_y
_atom_site_fract_z
Si Si1 0.049997 0.834129 0.329668
Si Si2 0.918550 0.836991 0.228800
Si Si3 0.108269 0.335610 0.594313
Si Si4 0.230507 0.715730 0.818971
Si Si5 0.436648 0.165852 0.871308
Si Si6 0.250520 0.000000 0.963860
Si Si7 0.357845 0.336331 0.931080
O O1 0.079741 0.755393 0.465375
O O2 0.065133 0.753995 0.239928
O O3 0.982030 0.825390 0.262567
O O4 0.064776 0.000000 0.343831
O O5 0.910265 0.731322 0.315642
O O6 0.909899 0.000000 0.252836
O O7 0.875371 0.809913 0.076811
O O8 0.092220 0.500000 0.566859
O O9 0.176320 0.320704 0.679065
O O10 0.229043 0.619638 0.922720
O O11 0.290647 0.684219 0.838722
O O12 0.229820 0.876069 0.855733
O O13 0.392782 0.232997 0.899776
O O14 0.425410 0.000000 0.839481
O O15 0.500000 0.178845 0.000000
O O16 0.372857 0.500000 0.928263
#
# Coordination Sequence:
#
# PCOD9202550 Si02
#       7
#     8   8   8   8   8   4   8
#     4  11  24  44  65  89 123 170 218 257 309 377
#     4  10  22  38  63  94 125 166 211 256 311 374
#     4  12  25  39  60  92 136 172 205 253 314 379
#     4  11  23  38  60  96 127 168 207 258 307 375
#     4  11  24  43  66  95 124 159 209 268 318 364
#     4  10  20  38  62  86 132 166 210 250 308 360
#     4  11  22  39  66  94 128 162 208 262 311 369
#
# _framework density 18.606807
#
# number of rings (size 3 to 8) (size 9 to 14) (size 15 to 20)
#    0.000    1.077    3.077    3.692    5.385    4.308 
#    0.000    0.769    0.000    0.000    0.000    0.000 
#    0.000    0.000    0.000    0.000    0.000    0.000 
#
# Total GULP energy -144822.360145 kJ/mol
# GULP energy per Si atom -5570.090775 kJ/mol
# Density = 1.856446 g / cm^3
# Si number density = 18.606807 Si / 1000 Ang^3
#
#
#
# Elastic Constant Matrix: (Units=GPa)
#
#
# Indices 1 2 3 4 5 6 
#
# 1 35.8809 50.2112 35.2661 0.0000 0.8915 0.0000
# 2 50.2112 185.5575 46.9331 0.0000 -22.5577 0.0000
# 3 35.2661 46.9331 41.3759 0.0000 -11.4322 0.0000
# 4 0.0000 0.0000 0.0000 26.7925 0.0000 -14.7391
# 5 0.8915 -22.5577 -11.4322 0.0000 21.2836 0.0000
# 6 0.0000 0.0000 0.0000 -14.7391 0.0000 -8.9607
#
#
#
# Elastic Compliance Matrix: (Units=1/GPa)
#
#
# Indices 1 2 3 4 5 6 
#
# 1 -0.418546 0.052089 0.373130 0.000000 0.273160 0.000000
# 2 0.052089 0.001376 -0.054202 0.000000 -0.029837 0.000000
# 3 0.373130 -0.054202 -0.296589 0.000000 -0.232384 0.000000
# 4 0.000000 0.000000 0.000000 0.019594 0.000000 -0.032229
# 5 0.273160 -0.029837 -0.232384 0.000000 -0.120902 0.000000
# 6 0.000000 0.000000 0.000000 -0.032229 0.000000 -0.058586
#
#
# Mechanical properties :
#
#
# Convention : Reuss Voigt Hill
#
# Bulk Modulus (GPa) = 35.36652 58.62611 46.99632
# Shear Modulus (GPa) = -3.11282 16.51668 6.70193
#
# Velocity S-wave (km/s) = -1.29483 2.98261 1.89992
# Velocity P-wave (km/s) = 4.10038 6.59072 5.48866
#
# Compressibility (1/GPa) = 0.02827533
#
# Stress axis : x y z
#
# Youngs Moduli (GPa) = -2.38922 726.60260 -3.37167
#
# Poissons Ratio (x) = -37.84769 1.25807
# Poissons Ratio (y) = 0.12445 -0.18275
# Poissons Ratio (z) = 0.89149 39.38320
#
# Static dielectric constant tensor:
#      x y z
#    x 1.662050 0.000000 0.022140 
#    y 0.000000 1.637200 0.000000 
#    z 0.022140 0.000000 1.614630 
# 
# From -- ./inp_files/181216.got.cif
#   From: 2010.05.17/outbox.cif.g08.bks.cpg/sg12_91_cif.got.tgz:181216.got - 2010.06.03 13:09:07.
