data_PCOD9202181
_publ_section_title
;
Structure prediction by ZEFSAII (Michael W. Deem and Ramdas Pophale) SiO2 
 PCOD9202181
Probable space group: C 2/M
;
_chemical_formula_sum "Si O2"
_cell_formula_units_Z 42
_cell_length_a 14.270078
_cell_length_b 7.573265
_cell_length_c 17.286031
_cell_angle_alpha 90.000000
_cell_angle_beta 86.920414
_cell_angle_gamma 90.000000
_cell_volume 1865.422279
_symmetry_space_group_name_H-M "C 2/M"
_symmetry_group_IT_number 12
_symmetry_cell_setting 'monoclinic'
loop_
_space_group_symop_operation_xyz
x,y,z
-x,y,-z
-x,-y,-z
x,-y,z
1/2+x,1/2+y,z
1/2-x,1/2+y,-z
1/2-x,1/2-y,-z
1/2+x,1/2-y,z
loop_
_atom_site_type_symbol
_atom_site_label
_atom_site_fract_x
_atom_site_fract_y
_atom_site_fract_z
Si Si1 0.500000 0.500000 0.000000
Si Si2 0.906710 0.213590 0.283107
Si Si3 0.040160 0.294249 0.419256
Si Si4 0.439816 0.297030 0.841120
Si Si5 0.141706 0.306796 0.999238
Si Si6 0.190647 0.715887 0.295633
O O1 0.575764 0.656714 0.967809
O O2 0.798914 0.267167 0.288722
O O3 0.962290 0.281030 0.355513
O O4 0.964822 0.264066 0.204015
O O5 0.911372 0.000000 0.285190
O O6 0.059701 0.500000 0.434695
O O7 0.135203 0.224795 0.375265
O O8 0.000000 0.213799 0.500000
O O9 0.447084 0.500000 0.873766
O O10 0.396629 0.186369 0.911352
O O11 0.365892 0.293494 0.774057
O O12 0.133757 0.500000 0.963062
O O13 0.250000 0.250000 0.000000
O O14 0.184803 0.500000 0.291194
#
# Coordination Sequence:
#
# PCOD9202181 Si02
#       6
#     2   8   8   8   8   8
#     4  12  26  48  72 104 140 180 228 276 336 420
#     4   9  19  34  54  79 113 149 197 255 301 373
#     4   9  18  32  50  74 110 151 193 247 305 369
#     4  10  20  38  59  87 123 155 204 264 319 383
#     4  12  25  47  73 101 140 182 226 282 343 411
#     4   9  18  34  54  79 109 154 201 246 316 379
#
# _framework density 22.51501
#
# number of rings (size 3 to 8) (size 9 to 14) (size 15 to 20)
#    0.000    2.095    1.905    0.857    0.000    4.190 
#    3.429    1.905    0.000    0.000    0.000    0.000 
#    0.000    0.000    0.000    0.000    0.000    0.000 
#
# Total GULP energy -117155.676104 kJ/mol
# GULP energy per Si atom -5578.841719 kJ/mol
# Density = 2.246376 g / cm^3
# Si number density = 22.515010 Si / 1000 Ang^3
#
#
#
# Elastic Constant Matrix: (Units=GPa)
#
#
# Indices 1 2 3 4 5 6 
#
# 1 165.2754 35.3839 35.6217 0.0000 -45.4928 0.0000
# 2 35.3839 122.7452 13.8965 0.0000 -7.5252 0.0000
# 3 35.6217 13.8965 105.9571 0.0000 -22.9698 0.0000
# 4 0.0000 0.0000 0.0000 14.1904 0.0000 13.3316
# 5 -45.4928 -7.5252 -22.9698 0.0000 26.0135 0.0000
# 6 0.0000 0.0000 0.0000 13.3316 0.0000 24.6628
#
#
#
# Elastic Compliance Matrix: (Units=1/GPa)
#
#
# Indices 1 2 3 4 5 6 
#
# 1 0.012313 -0.002321 0.000850 0.000000 0.021613 0.000000
# 2 -0.002321 0.008774 -0.000866 0.000000 -0.002285 0.000000
# 3 0.000850 -0.000866 0.011790 0.000000 0.011647 0.000000
# 4 0.000000 0.000000 0.000000 0.143185 0.000000 -0.077400
# 5 0.021613 -0.002285 0.011647 0.000000 0.085862 0.000000
# 6 0.000000 0.000000 0.000000 -0.077400 0.000000 0.082386
#
#
# Mechanical properties :
#
#
# Convention : Reuss Voigt Hill
#
# Bulk Modulus (GPa) = 35.45534 62.64243 49.04888
# Shear Modulus (GPa) = 13.95149 33.57838 23.76493
#
# Velocity S-wave (km/s) = 2.49198 3.86603 3.25239
# Velocity P-wave (km/s) = 4.90526 6.91456 5.99469
#
# Compressibility (1/GPa) = 0.02820450
#
# Stress axis : x y z
#
# Youngs Moduli (GPa) = 81.21408 113.97434 84.81444
#
# Poissons Ratio (x) = 0.26451 -0.07210
# Poissons Ratio (y) = 0.18848 0.07344
# Poissons Ratio (z) = -0.06904 0.09869
#
# Static dielectric constant tensor:
#      x y z
#    x 1.778750 0.000000 -0.045070 
#    y 0.000000 1.739910 0.000000 
#    z -0.045070 0.000000 1.742800 
# 
# From -- ./inp_files/267047.got.cif
#   From: 2010.05.17/outbox.cif.g08.bks.cpg/sg12_134_cif.got.tgz:267047.got - 2010.06.03 13:09:07.
