data_PCOD9202291
_publ_section_title
;
Structure prediction by ZEFSAII (Michael W. Deem and Ramdas Pophale) SiO2 
 PCOD9202291
Probable space group: C 2/M
;
_chemical_formula_sum "Si O2"
_cell_formula_units_Z 64
_cell_length_a 16.669705
_cell_length_b 24.985544
_cell_length_c 14.105431
_cell_angle_alpha 90.000000
_cell_angle_beta 33.942667
_cell_angle_gamma 90.000000
_cell_volume 3280.346752
_symmetry_space_group_name_H-M "C 2/M"
_symmetry_group_IT_number 12
_symmetry_cell_setting 'monoclinic'
loop_
_space_group_symop_operation_xyz
x,y,z
-x,y,-z
-x,-y,-z
x,-y,z
1/2+x,1/2+y,z
1/2-x,1/2+y,-z
1/2-x,1/2-y,-z
1/2+x,1/2-y,z
loop_
_atom_site_type_symbol
_atom_site_label
_atom_site_fract_x
_atom_site_fract_y
_atom_site_fract_z
Si Si1 0.717271 0.939782 0.025525
Si Si2 0.326040 0.860948 0.761005
Si Si3 0.088468 0.868391 0.269830
Si Si4 0.345670 0.134638 0.532595
Si Si5 0.276566 0.353745 0.666049
Si Si6 0.887435 0.564207 0.303195
Si Si7 0.321325 0.743346 0.327734
Si Si8 0.363214 0.714656 0.945962
O O1 0.716378 0.902980 0.118029
O O2 0.560891 0.932160 0.131168
O O3 0.727726 0.000000 0.046284
O O4 0.848887 0.923990 0.829615
O O5 0.489766 0.843541 0.625074
O O6 0.324022 0.887926 0.659814
O O7 0.217899 0.812045 0.885401
O O8 0.197977 0.852900 0.246487
O O9 0.090761 0.829285 0.177490
O O10 0.930663 0.867053 0.467604
O O11 0.337540 0.094266 0.450947
O O12 0.236168 0.184216 0.640450
O O13 0.174709 0.399793 0.721634
O O14 0.230155 0.294190 0.681653
O O15 0.850830 0.500000 0.337619
O O16 0.250000 0.750000 0.500000
O O17 0.493052 0.744323 0.164217
O O18 0.250000 0.750000 0.000000
#
# Coordination Sequence:
#
# PCOD9202291 Si02
#       8
#     8   8   8   8   8   8   8   8
#     4   9  20  40  62  85 119 159 196 249 302 348
#     4   9  21  36  59  89 121 153 201 244 289 361
#     4  10  23  40  59  84 118 152 201 242 290 359
#     4  10  20  38  60  88 119 160 197 241 300 349
#     4  11  24  40  60  89 116 159 201 244 295 350
#     4  10  21  39  61  87 118 153 201 252 299 350
#     4  12  22  38  61  84 122 158 195 243 294 359
#     4  11  23  38  56  85 118 157 194 236 293 350
#
# _framework density 19.510133
#
# number of rings (size 3 to 8) (size 9 to 14) (size 15 to 20)
#    0.000    1.750    2.500    0.750    5.250    3.500 
#    0.000    5.000    0.000    0.000    0.000    5.250 
#    0.000    0.000    0.000    0.000    0.000    0.000 
#
# Total GULP energy -178405.624558 kJ/mol
# GULP energy per Si atom -5575.175767 kJ/mol
# Density = 1.946573 g / cm^3
# Si number density = 19.510133 Si / 1000 Ang^3
#
#
#
# Elastic Constant Matrix: (Units=GPa)
#
#
# Indices 1 2 3 4 5 6 
#
# 1 61.6098 15.5142 8.9339 0.0032 -6.4110 -0.0017
# 2 15.5142 68.1361 12.6936 0.0047 -23.9784 -0.0007
# 3 8.9339 12.6936 68.3876 0.0178 -11.9944 -0.0100
# 4 0.0032 0.0047 0.0178 20.3860 -0.0074 -12.4107
# 5 -6.4110 -23.9784 -11.9944 -0.0074 24.4384 0.0043
# 6 -0.0017 -0.0007 -0.0100 -12.4107 0.0043 16.2787
#
#
#
# Elastic Compliance Matrix: (Units=1/GPa)
#
#
# Indices 1 2 3 4 5 6 
#
# 1 0.017385 -0.003563 -0.001557 0.000000 0.000301 0.000001
# 2 -0.003563 0.023154 -0.000013 0.000000 0.021777 -0.000005
# 3 -0.001557 -0.000013 0.016144 -0.000012 0.007503 -0.000001
# 4 0.000000 0.000000 -0.000012 0.091540 0.000010 0.069789
# 5 0.000301 0.021777 0.007503 0.000010 0.066048 -0.000004
# 6 0.000001 -0.000005 -0.000001 0.069789 -0.000004 0.114636
#
#
# Mechanical properties :
#
#
# Convention : Reuss Voigt Hill
#
# Bulk Modulus (GPa) = 21.54308 30.26855 25.90581
# Shear Modulus (GPa) = 14.09863 22.95342 18.52603
#
# Velocity S-wave (km/s) = 2.69110 3.43372 3.08483
# Velocity P-wave (km/s) = 4.55214 5.59182 5.09855
#
# Compressibility (1/GPa) = 0.04641861
#
# Stress axis : x y z
#
# Youngs Moduli (GPa) = 57.51957 43.18936 61.94178
#
# Poissons Ratio (x) = 0.15386 0.09645
# Poissons Ratio (y) = 0.20491 0.00079
# Poissons Ratio (z) = 0.08956 0.00055
#
# Static dielectric constant tensor:
#      x y z
#    x 1.721580 0.000000 0.000700 
#    y 0.000000 1.708080 0.000020 
#    z 0.000700 0.000020 1.691400 
# 
# From -- ./inp_files/228145.got.cif
#   From: 2010.05.17/outbox.cif.g08.bks.cpg/sg12_115_cif.got.tgz:228145.got - 2010.06.03 13:09:07.
