data_PCOD9202983
_publ_section_title
;
Structure prediction by ZEFSAII (Michael W. Deem and Ramdas Pophale) SiO2 
 PCOD9202983
Probable space group: C 2/M
;
_chemical_formula_sum "Si O2"
_cell_formula_units_Z 56
_cell_length_a 19.089776
_cell_length_b 7.649381
_cell_length_c 23.434529
_cell_angle_alpha 90.000000
_cell_angle_beta 134.272945
_cell_angle_gamma 90.000000
_cell_volume 2450.247702
_symmetry_space_group_name_H-M "C 2/M"
_symmetry_group_IT_number 12
_symmetry_cell_setting 'monoclinic'
loop_
_space_group_symop_operation_xyz
x,y,z
-x,y,-z
-x,-y,-z
x,-y,z
1/2+x,1/2+y,z
1/2-x,1/2+y,-z
1/2-x,1/2-y,-z
1/2+x,1/2-y,z
loop_
_atom_site_type_symbol
_atom_site_label
_atom_site_fract_x
_atom_site_fract_y
_atom_site_fract_z
Si Si1 0.678248 0.213525 0.803001
Si Si2 0.315921 0.708110 0.983600
Si Si3 0.949668 0.299106 0.527946
Si Si4 0.034957 0.714375 0.335099
Si Si5 0.974857 0.701372 0.922995
Si Si6 0.783028 0.800215 0.750933
Si Si7 0.768933 0.299729 0.615263
O O1 0.758008 0.272210 0.894446
O O2 0.566930 0.265403 0.752638
O O3 0.709569 0.269710 0.757400
O O4 0.681774 0.000000 0.804944
O O5 0.328888 0.500000 0.985833
O O6 0.250000 0.750000 0.000000
O O7 0.422280 0.790606 0.050586
O O8 0.985202 0.500000 0.550617
O O9 0.970629 0.224680 0.602470
O O10 0.832757 0.295201 0.454687
O O11 0.000000 0.219575 0.500000
O O12 0.038095 0.500000 0.336649
O O13 0.134635 0.772550 0.361276
O O14 0.943686 0.500000 0.912320
O O15 0.888716 0.796068 0.841106
O O16 0.000000 0.774850 0.000000
O O17 0.785602 0.703625 0.692590
O O18 0.754930 0.000000 0.722103
O O19 0.755498 0.500000 0.588513
#
# Coordination Sequence:
#
# PCOD9202983 Si02
#       7
#     8   8   8   8   8   8   8
#     4   9  19  37  60  84 114 155 201 248 297 353
#     4  11  23  39  61  89 122 161 206 255 309 366
#     4  10  20  38  65  89 114 153 201 244 287 353
#     4   9  19  36  58  86 119 155 194 239 297 358
#     4  11  23  40  62  88 122 161 203 256 313 365
#     4  11  22  39  63  88 117 156 208 254 295 357
#     4  11  23  37  58  89 125 157 190 241 305 363
#
# _framework density 22.854832999999999
#
# number of rings (size 3 to 8) (size 9 to 14) (size 15 to 20)
#    0.000    1.714    1.429    3.000    2.000    3.143 
#    0.000    0.714    0.000    5.143    0.000    0.000 
#    0.000    0.000    0.000    0.000    0.000    0.000 
#
# Total GULP energy -156554.841780 kJ/mol
# GULP energy per Si atom -5591.244349 kJ/mol
# Density = 2.280281 g / cm^3
# Si number density = 22.854833 Si / 1000 Ang^3
#
#
#
# Elastic Constant Matrix: (Units=GPa)
#
#
# Indices 1 2 3 4 5 6 
#
# 1 113.5558 -3.7464 14.7964 0.0000 19.7841 0.0000
# 2 -3.7464 56.2904 -4.1642 0.0000 -1.7098 0.0000
# 3 14.7964 -4.1642 87.3242 0.0000 17.6468 0.0000
# 4 0.0000 0.0000 0.0000 10.6305 0.0000 -5.0858
# 5 19.7841 -1.7098 17.6468 0.0000 42.7748 0.0000
# 6 0.0000 0.0000 0.0000 -5.0858 0.0000 2.4438
#
#
#
# Elastic Compliance Matrix: (Units=1/GPa)
#
#
# Indices 1 2 3 4 5 6 
#
# 1 0.009641 0.000459 -0.000779 0.000001 -0.004119 0.000003
# 2 0.000459 0.017856 0.000734 0.000023 0.000199 0.000049
# 3 -0.000779 0.000734 0.012589 0.000002 -0.004804 0.000004
# 4 0.000001 0.000023 0.000002 21.640159 -0.000002 45.036087
# 5 -0.004119 0.000199 -0.004804 -0.000002 0.027273 -0.000005
# 6 0.000003 0.000049 0.000004 45.036087 -0.000005 94.135371
#
#
# Mechanical properties :
#
#
# Convention : Reuss Voigt Hill
#
# Bulk Modulus (GPa) = 24.44259 30.10466 27.27362
# Shear Modulus (GPa) = 0.04316 27.85546 13.94931
#
# Velocity S-wave (km/s) = 0.13757 3.49492 2.47319
# Velocity P-wave (km/s) = 3.27768 5.43016 4.48496
#
# Compressibility (1/GPa) = 0.04091220
#
# Stress axis : x y z
#
# Youngs Moduli (GPa) = 103.72836 56.00401 79.43186
#
# Poissons Ratio (x) = -0.02570 0.06190
# Poissons Ratio (y) = -0.04760 -0.05827
# Poissons Ratio (z) = 0.08083 -0.04108
#
# Static dielectric constant tensor:
#      x y z
#    x 1.844620 0.000000 0.000740 
#    y 0.000000 1.898860 0.000000 
#    z 0.000740 0.000000 1.818790 
# 
# From -- ./inp_files/342200.got.cif
#   From: 2010.05.17/outbox.cif.g08.bks.cpg/sg12_172_cif.got.tgz:342200.got - 2010.06.03 13:09:07.
