data_PCOD9202981
_publ_section_title
;
Structure prediction by ZEFSAII (Michael W. Deem and Ramdas Pophale) SiO2 
 PCOD9202981
Probable space group: C 2/M
;
_chemical_formula_sum "Si O2"
_cell_formula_units_Z 40
_cell_length_a 9.793161
_cell_length_b 25.150629
_cell_length_c 10.133476
_cell_angle_alpha 90.000000
_cell_angle_beta 133.110041
_cell_angle_gamma 90.000000
_cell_volume 1822.125751
_symmetry_space_group_name_H-M "C 2/M"
_symmetry_group_IT_number 12
_symmetry_cell_setting 'monoclinic'
loop_
_space_group_symop_operation_xyz
x,y,z
-x,y,-z
-x,-y,-z
x,-y,z
1/2+x,1/2+y,z
1/2-x,1/2+y,-z
1/2-x,1/2-y,-z
1/2+x,1/2-y,z
loop_
_atom_site_type_symbol
_atom_site_label
_atom_site_fract_x
_atom_site_fract_y
_atom_site_fract_z
Si Si1 0.986110 0.263700 0.829641
Si Si2 0.352673 0.443971 0.019720
Si Si3 0.721248 0.350220 0.625030
Si Si4 0.446229 0.938573 0.616388
Si Si5 0.196070 0.163386 0.894675
O O1 0.797282 0.290446 0.653077
O O2 0.045592 0.210865 0.792043
O O3 0.000000 0.252977 0.000000
O O4 0.144061 0.309220 0.910768
O O5 0.363309 0.500000 0.103448
O O6 0.141655 0.438346 0.825931
O O7 0.500000 0.447794 0.000000
O O8 0.400284 0.389410 0.120050
O O9 0.500000 0.354268 0.500000
O O10 0.807978 0.394851 0.587795
O O11 0.791447 0.355263 0.822575
O O12 0.500000 0.926881 0.500000
O O13 0.373635 0.000000 0.572971
#
# Coordination Sequence:
#
# PCOD9202981 Si02
#       5
#     8   8   8   8   8
#     4   9  19  39  62  88 123 168 209 250 321 386
#     4  10  21  37  64  97 122 160 219 265 310 380
#     4  11  24  40  62  97 127 164 217 268 312 374
#     4  10  23  44  64  90 134 177 209 253 321 386
#     4  10  20  38  65  88 124 164 208 265 320 369
#
# _framework density 21.952383000000001
#
# number of rings (size 3 to 8) (size 9 to 14) (size 15 to 20)
#    0.000    2.000    2.000    0.600    2.800    2.000 
#    0.000    3.000    0.000    0.000    0.000    0.000 
#    0.000    0.000    0.000    0.000    0.000    0.000 
#
# Total GULP energy -111435.092866 kJ/mol
# GULP energy per Si atom -5571.754643 kJ/mol
# Density = 2.190242 g / cm^3
# Si number density = 21.952383 Si / 1000 Ang^3
#
#
#
# Elastic Constant Matrix: (Units=GPa)
#
#
# Indices 1 2 3 4 5 6 
#
# 1 119.9110 92.0727 32.3399 0.0000 9.8708 0.0000
# 2 92.0727 194.3875 35.1668 0.0000 -7.2569 0.0000
# 3 32.3399 35.1668 56.0707 0.0000 20.1530 0.0000
# 4 0.0000 0.0000 0.0000 11.4190 0.0000 -0.3366
# 5 9.8708 -7.2569 20.1530 0.0000 37.5766 0.0000
# 6 0.0000 0.0000 0.0000 -0.3366 0.0000 47.0623
#
#
#
# Elastic Compliance Matrix: (Units=1/GPa)
#
#
# Indices 1 2 3 4 5 6 
#
# 1 0.014321 -0.006351 -0.003077 0.000000 -0.003338 0.000000
# 2 -0.006351 0.009095 -0.004053 0.000000 0.005599 0.000000
# 3 -0.003077 -0.004053 0.027430 0.000000 -0.014686 0.000000
# 4 0.000000 0.000000 0.000000 0.087592 0.000000 0.000626
# 5 -0.003338 0.005599 -0.014686 0.000000 0.036447 0.000000
# 6 0.000000 0.000000 0.000000 0.000626 0.000000 0.021253
#
#
# Mechanical properties :
#
#
# Convention : Reuss Voigt Hill
#
# Bulk Modulus (GPa) = 41.87041 76.61422 59.24232
# Shear Modulus (GPa) = 21.63945 33.26422 27.45183
#
# Velocity S-wave (km/s) = 3.14306 3.89690 3.54010
# Velocity P-wave (km/s) = 5.68212 7.43126 6.61476
#
# Compressibility (1/GPa) = 0.02388322
#
# Stress axis : x y z
#
# Youngs Moduli (GPa) = 69.82880 109.95156 36.45696
#
# Poissons Ratio (x) = 0.69832 0.11216
# Poissons Ratio (y) = 0.44349 0.14777
# Poissons Ratio (z) = 0.21483 0.44567
#
# Static dielectric constant tensor:
#      x y z
#    x 1.897460 0.000000 0.014140 
#    y 0.000000 1.880890 0.000000 
#    z 0.014140 0.000000 1.911760 
# 
# From -- ./inp_files/134182.got.cif
#   From: 2010.05.17/outbox.cif.g08.bks.cpg/sg12_68_cif.got.tgz:134182.got - 2010.06.03 13:09:07.
