data_PCOD9202635
_publ_section_title
;
Structure prediction by ZEFSAII (Michael W. Deem and Ramdas Pophale) SiO2 
 PCOD9202635
Probable space group: C 2/M
;
_chemical_formula_sum "Si O2"
_cell_formula_units_Z 48
_cell_length_a 20.758179
_cell_length_b 17.638912
_cell_length_c 16.837303
_cell_angle_alpha 90.000000
_cell_angle_beta 161.172105
_cell_angle_gamma 90.000000
_cell_volume 1989.611390
_symmetry_space_group_name_H-M "C 2/M"
_symmetry_group_IT_number 12
_symmetry_cell_setting 'monoclinic'
loop_
_space_group_symop_operation_xyz
x,y,z
-x,y,-z
-x,-y,-z
x,-y,z
1/2+x,1/2+y,z
1/2-x,1/2+y,-z
1/2-x,1/2-y,-z
1/2+x,1/2-y,z
loop_
_atom_site_type_symbol
_atom_site_label
_atom_site_fract_x
_atom_site_fract_y
_atom_site_fract_z
Si Si1 0.900657 0.801595 0.290521
Si Si2 0.972566 0.589546 0.154581
Si Si3 0.813912 0.912617 0.436396
Si Si4 0.665027 0.303620 0.135571
Si Si5 0.094539 0.085628 0.919318
Si Si6 0.026230 0.646686 0.378690
O O1 0.805895 0.751830 0.250411
O O2 0.093804 0.856065 0.519724
O O3 0.961154 0.735797 0.297952
O O4 0.722631 0.859675 0.065046
O O5 0.929019 0.500000 0.105907
O O6 0.098201 0.605318 0.221673
O O7 0.097455 0.613082 0.378379
O O8 0.814334 0.000000 0.409656
O O9 0.962398 0.906115 0.685926
O O10 0.554021 0.354176 0.940691
O O11 0.810515 0.353332 0.361259
O O12 0.500000 0.267378 0.000000
O O13 0.327448 0.100408 0.169840
O O14 0.067284 0.000000 0.915991
#
# Coordination Sequence:
#
# PCOD9202635 Si02
#       6
#     8   8   8   8   8   8
#     4  11  23  41  66  93 132 171 209 267 315 376
#     4  11  23  40  68 101 129 164 212 266 319 376
#     4  10  22  39  65  99 127 163 212 264 323 374
#     4  11  26  42  60  93 130 173 219 255 318 386
#     4  10  20  38  62  91 132 171 209 258 314 380
#     4  11  23  40  62  95 131 171 211 257 320 381
#
# _framework density 24.125313999999999
#
# number of rings (size 3 to 8) (size 9 to 14) (size 15 to 20)
#    0.000    1.333    1.667    4.500    4.667    3.000 
#    0.000    0.000    0.000   10.000    0.000    0.000 
#    0.000    0.000    0.000    0.000    0.000    0.000 
#
# Total GULP energy -134232.589254 kJ/mol
# GULP energy per Si atom -5593.024552 kJ/mol
# Density = 2.407040 g / cm^3
# Si number density = 24.125314 Si / 1000 Ang^3
#
#
#
# Elastic Constant Matrix: (Units=GPa)
#
#
# Indices 1 2 3 4 5 6 
#
# 1 81.1179 48.0872 -13.2912 0.0002 25.1588 0.0001
# 2 48.0872 118.3216 -0.5127 0.0003 11.0998 0.0001
# 3 -13.2912 -0.5127 39.5825 0.0005 7.1719 0.0002
# 4 0.0002 0.0003 0.0005 21.4769 0.0003 5.9906
# 5 25.1588 11.0998 7.1719 0.0003 36.6142 0.0000
# 6 0.0001 0.0001 0.0002 5.9906 0.0000 39.8525
#
#
#
# Elastic Compliance Matrix: (Units=1/GPa)
#
#
# Indices 1 2 3 4 5 6 
#
# 1 0.023945 -0.008174 0.010852 0.000000 -0.016101 0.000000
# 2 -0.008174 0.011504 -0.003091 0.000000 0.002735 0.000000
# 3 0.010852 -0.003091 0.031155 -0.000001 -0.012622 0.000000
# 4 0.000000 0.000000 -0.000001 0.048599 0.000000 -0.007305
# 5 -0.016101 0.002735 -0.012622 0.000000 0.040019 0.000000
# 6 0.000000 0.000000 0.000000 -0.007305 0.000000 0.026191
#
#
# Mechanical properties :
#
#
# Convention : Reuss Voigt Hill
#
# Bulk Modulus (GPa) = 15.20291 34.17650 24.68970
# Shear Modulus (GPa) = 24.48999 33.23797 28.86398
#
# Velocity S-wave (km/s) = 3.18954 3.71579 3.46268
# Velocity P-wave (km/s) = 4.45865 5.71021 5.12280
#
# Compressibility (1/GPa) = 0.06577689
#
# Stress axis : x y z
#
# Youngs Moduli (GPa) = 41.76162 86.92884 32.09794
#
# Poissons Ratio (x) = 0.71057 -0.34833
# Poissons Ratio (y) = 0.34137 0.09922
# Poissons Ratio (z) = -0.45320 0.26872
#
# Static dielectric constant tensor:
#      x y z
#    x 1.967210 0.000000 -0.046590 
#    y 0.000000 1.879400 0.000000 
#    z -0.046590 0.000000 1.977610 
# 
# From -- ./inp_files/285424.got.cif
#   From: 2010.05.17/outbox.cif.g08.bks.cpg/sg12_143_cif.got.tgz:285424.got - 2010.06.03 13:09:07.
