data_PCOD9202955
_publ_section_title
;
Structure prediction by ZEFSAII (Michael W. Deem and Ramdas Pophale) SiO2 
 PCOD9202955
Probable space group: C 2/M
;
_chemical_formula_sum "Si O2"
_cell_formula_units_Z 50
_cell_length_a 14.556796
_cell_length_b 7.726218
_cell_length_c 26.252850
_cell_angle_alpha 90.000000
_cell_angle_beta 138.973672
_cell_angle_gamma 90.000000
_cell_volume 1938.124145
_symmetry_space_group_name_H-M "C 2/M"
_symmetry_group_IT_number 12
_symmetry_cell_setting 'monoclinic'
loop_
_space_group_symop_operation_xyz
x,y,z
-x,y,-z
-x,-y,-z
x,-y,z
1/2+x,1/2+y,z
1/2-x,1/2+y,-z
1/2-x,1/2-y,-z
1/2+x,1/2-y,z
loop_
_atom_site_type_symbol
_atom_site_label
_atom_site_fract_x
_atom_site_fract_y
_atom_site_fract_z
Si Si1 0.002716 0.195253 0.445448
Si Si2 0.932812 0.702000 0.635560
Si Si3 0.597618 0.291843 0.848944
Si Si4 0.730990 0.797781 0.802532
Si Si5 0.500000 0.500000 0.000000
Si Si6 0.463831 0.191780 0.066583
Si Si7 0.797312 0.198557 0.677538
O O1 0.837926 0.195578 0.363656
O O2 0.000000 0.281842 0.500000
O O3 0.081245 0.275336 0.430460
O O4 0.057388 0.000000 0.474368
O O5 0.927774 0.500000 0.646174
O O6 0.824287 0.790715 0.628066
O O7 0.088226 0.765288 0.716729
O O8 0.606272 0.500000 0.850445
O O9 0.701607 0.213827 0.850667
O O10 0.615146 0.228260 0.913468
O O11 0.441808 0.244240 0.763725
O O12 0.870799 0.696311 0.849254
O O13 0.753686 0.000000 0.798826
O O14 0.543721 0.346954 0.976581
O O15 0.426933 0.000000 0.031417
O O16 0.770329 0.000000 0.680931
#
# Coordination Sequence:
#
# PCOD9202955 Si02
#       7
#     8   8   8   8   2   8   8
#     4  11  24  39  55  79 118 163 209 253 305 372
#     4  10  21  37  61  90 121 155 199 255 310 360
#     4  10  20  38  64  96 127 156 202 261 309 365
#     4  10  20  38  64  96 127 156 202 261 309 365
#     4  12  26  48  64  90 136 166 212 256 288 382
#     4  12  24  42  69  92 127 171 207 253 312 363
#     4  10  21  37  61  90 121 155 199 255 310 360
#
# _framework density 25.79814
#
# number of rings (size 3 to 8) (size 9 to 14) (size 15 to 20)
#    0.000    1.440    1.600    3.600    0.000    9.600 
#    0.000    0.800    0.000    0.000    0.000    0.000 
#    0.000    0.000    0.000    0.000    0.000    0.000 
#
# Total GULP energy -139832.631796 kJ/mol
# GULP energy per Si atom -5593.305272 kJ/mol
# Density = 2.573942 g / cm^3
# Si number density = 25.798140 Si / 1000 Ang^3
#
#
#
# Elastic Constant Matrix: (Units=GPa)
#
#
# Indices 1 2 3 4 5 6 
#
# 1 136.9171 14.3712 52.1480 0.0000 -44.7574 0.0000
# 2 14.3712 115.6094 5.8510 0.0000 -23.7205 0.0000
# 3 52.1480 5.8510 75.8440 0.0000 -14.3610 0.0000
# 4 0.0000 0.0000 0.0000 20.0415 0.0000 -11.4111
# 5 -44.7574 -23.7205 -14.3610 0.0000 62.1898 0.0000
# 6 0.0000 0.0000 0.0000 -11.4111 0.0000 9.9462
#
#
#
# Elastic Compliance Matrix: (Units=1/GPa)
#
#
# Indices 1 2 3 4 5 6 
#
# 1 0.012419 0.000340 -0.007161 0.000000 0.007414 0.000000
# 2 0.000340 0.009394 -0.000244 0.000000 0.003771 0.000000
# 3 -0.007161 -0.000244 0.017918 0.000000 -0.001110 0.000000
# 4 0.000000 0.000000 0.000000 0.143891 0.000000 0.165084
# 5 0.007414 0.003771 -0.001110 0.000000 0.022598 0.000000
# 6 0.000000 0.000000 0.000000 0.165084 0.000000 0.289939
#
#
# Mechanical properties :
#
#
# Convention : Reuss Voigt Hill
#
# Bulk Modulus (GPa) = 39.06442 52.56784 45.81613
# Shear Modulus (GPa) = 9.63719 35.50220 22.56970
#
# Velocity S-wave (km/s) = 1.93487 3.71368 2.96101
# Velocity P-wave (km/s) = 4.49075 6.22972 5.43030
#
# Compressibility (1/GPa) = 0.02559874
#
# Stress axis : x y z
#
# Youngs Moduli (GPa) = 80.52079 106.45444 55.81074
#
# Poissons Ratio (x) = -0.03617 0.39969
# Poissons Ratio (y) = -0.02736 0.01363
# Poissons Ratio (z) = 0.57664 0.02600
#
# Static dielectric constant tensor:
#      x y z
#    x 1.965790 0.000000 0.010380 
#    y 0.000000 1.917930 0.000000 
#    z 0.010380 0.000000 2.123140 
# 
# From -- ./inp_files/360076.got.cif
#   From: 2010.05.17/outbox.cif.g08.bks.cpg/sg12_181_cif.got.tgz:360076.got - 2010.06.03 13:09:07.
