data_PCOD9202376
_publ_section_title
;
Structure prediction by ZEFSAII (Michael W. Deem and Ramdas Pophale) SiO2 
 PCOD9202376
Probable space group: C 2/M
;
_chemical_formula_sum "Si O2"
_cell_formula_units_Z 52
_cell_length_a 10.078009
_cell_length_b 10.561345
_cell_length_c 25.357647
_cell_angle_alpha 90.000000
_cell_angle_beta 80.168408
_cell_angle_gamma 90.000000
_cell_volume 2659.362448
_symmetry_space_group_name_H-M "C 2/M"
_symmetry_group_IT_number 12
_symmetry_cell_setting 'monoclinic'
loop_
_space_group_symop_operation_xyz
x,y,z
-x,y,-z
-x,-y,-z
x,-y,z
1/2+x,1/2+y,z
1/2-x,1/2+y,-z
1/2-x,1/2-y,-z
1/2+x,1/2-y,z
loop_
_atom_site_type_symbol
_atom_site_label
_atom_site_fract_x
_atom_site_fract_y
_atom_site_fract_z
Si Si1 0.273219 0.140677 0.178391
Si Si2 0.040126 0.850641 0.649977
Si Si3 0.360512 0.144885 0.978067
Si Si4 0.053121 0.709068 0.144862
Si Si5 0.272173 0.759296 0.708986
Si Si6 0.637765 0.352419 0.523546
Si Si7 0.869359 0.500000 0.771096
O O1 0.138277 0.169546 0.156148
O O2 0.393697 0.233324 0.153305
O O3 0.251226 0.160271 0.241955
O O4 0.319838 0.000000 0.163035
O O5 0.137030 0.782360 0.685303
O O6 0.101030 0.837404 0.587555
O O7 0.892216 0.791364 0.664374
O O8 0.033346 0.000000 0.662818
O O9 0.394669 0.158031 0.914049
O O10 0.316005 0.000000 0.992477
O O11 0.500000 0.166533 0.000000
O O12 0.250000 0.250000 0.000000
O O13 0.082024 0.610304 0.189793
O O14 0.317708 0.888597 0.733800
O O15 0.500000 0.333434 0.500000
O O16 0.680654 0.500000 0.511998
O O17 0.750000 0.250000 0.500000
#
# Coordination Sequence:
#
# PCOD9202376 Si02
#       7
#     8   8   8   8   8   8   4
#     4  11  23  40  63  91 126 163 209 251 302 384
#     4  11  23  41  62  92 130 165 210 263 314 371
#     4  11  24  43  68  93 127 164 209 267 320 374
#     4  11  22  42  64  90 123 166 202 253 315 367
#     4  11  22  39  62  90 126 165 204 254 314 367
#     4  10  22  42  65  92 129 170 218 269 321 376
#     4  10  20  38  61  84 123 160 198 246 302 376
#
# _framework density 19.553557999999999
#
# number of rings (size 3 to 8) (size 9 to 14) (size 15 to 20)
#    0.000    1.231    2.308    4.154    0.000    2.462 
#    8.308    0.000    0.000    0.000    0.000    0.000 
#    0.000    0.000    0.000    0.000    0.000    0.000 
#
# Total GULP energy -144741.820279 kJ/mol
# GULP energy per Si atom -5566.993088 kJ/mol
# Density = 1.950905 g / cm^3
# Si number density = 19.553558 Si / 1000 Ang^3
#
#
#
# Elastic Constant Matrix: (Units=GPa)
#
#
# Indices 1 2 3 4 5 6 
#
# 1 75.8840 45.8454 13.0849 0.0000 -7.1703 0.0000
# 2 45.8454 73.9499 16.9977 0.0000 -5.2444 0.0000
# 3 13.0849 16.9977 40.6293 0.0000 -0.1847 0.0000
# 4 0.0000 0.0000 0.0000 9.5051 0.0000 -6.4324
# 5 -7.1703 -5.2444 -0.1847 0.0000 36.0989 0.0000
# 6 0.0000 0.0000 0.0000 -6.4324 0.0000 25.3116
#
#
#
# Elastic Compliance Matrix: (Units=1/GPa)
#
#
# Indices 1 2 3 4 5 6 
#
# 1 0.021350 -0.012711 -0.001547 0.000000 0.002386 0.000000
# 2 -0.012711 0.022696 -0.005398 0.000000 0.000745 0.000000
# 3 -0.001547 -0.005398 0.027365 0.000000 -0.000952 0.000000
# 4 0.000000 0.000000 0.000000 0.127057 0.000000 0.032289
# 5 0.002386 0.000745 -0.000952 0.000000 0.028279 0.000000
# 6 0.000000 0.000000 0.000000 0.032289 0.000000 0.047713
#
#
# Mechanical properties :
#
#
# Convention : Reuss Voigt Hill
#
# Bulk Modulus (GPa) = 31.15410 38.03545 34.59478
# Shear Modulus (GPa) = 15.40963 21.81880 18.61422
#
# Velocity S-wave (km/s) = 2.81031 3.34405 3.08873
# Velocity P-wave (km/s) = 5.14760 5.86553 5.51825
#
# Compressibility (1/GPa) = 0.03209851
#
# Stress axis : x y z
#
# Youngs Moduli (GPa) = 46.83939 44.05973 36.54280
#
# Poissons Ratio (x) = 0.56004 0.05654
# Poissons Ratio (y) = 0.59537 0.19727
# Poissons Ratio (z) = 0.07247 0.23785
#
# Static dielectric constant tensor:
#      x y z
#    x 3.200110 0.000000 2.028510 
#    y 0.000000 1.667400 0.000000 
#    z 2.028510 0.000000 4.415720 
# 
# From -- ./inp_files/355514.got.cif
#   From: 2010.05.17/outbox.cif.g08.bks.cpg/sg12_178_cif.got.tgz:355514.got - 2010.06.03 13:09:07.
