data_PCOD9202399
_publ_section_title
;
Structure prediction by ZEFSAII (Michael W. Deem and Ramdas Pophale) SiO2 
 PCOD9202399
Probable space group: C 2/M
;
_chemical_formula_sum "Si O2"
_cell_formula_units_Z 56
_cell_length_a 28.036702
_cell_length_b 13.168994
_cell_length_c 11.259242
_cell_angle_alpha 90.000000
_cell_angle_beta 134.917489
_cell_angle_gamma 90.000000
_cell_volume 2943.731560
_symmetry_space_group_name_H-M "C 2/M"
_symmetry_group_IT_number 12
_symmetry_cell_setting 'monoclinic'
loop_
_space_group_symop_operation_xyz
x,y,z
-x,y,-z
-x,-y,-z
x,-y,z
1/2+x,1/2+y,z
1/2-x,1/2+y,-z
1/2-x,1/2-y,-z
1/2+x,1/2-y,z
loop_
_atom_site_type_symbol
_atom_site_label
_atom_site_fract_x
_atom_site_fract_y
_atom_site_fract_z
Si Si1 0.292432 0.623028 0.204906
Si Si2 0.586548 0.616294 0.985573
Si Si3 0.160294 0.261325 0.931674
Si Si4 0.530487 0.120553 0.678857
Si Si5 0.776699 0.114637 0.630478
Si Si6 0.477247 0.777989 0.831064
Si Si7 0.326851 0.724405 0.494990
O O1 0.291266 0.500000 0.190106
O O2 0.314984 0.686038 0.128533
O O3 0.337731 0.660010 0.395010
O O4 0.219355 0.674461 0.098121
O O5 0.574895 0.500000 0.930190
O O6 0.646914 0.617766 0.187183
O O7 0.618849 0.685905 0.941794
O O8 0.518074 0.671540 0.901836
O O9 0.107815 0.347042 0.801360
O O10 0.500000 0.158964 0.500000
O O11 0.500904 0.164420 0.751504
O O12 0.521928 0.000000 0.668755
O O13 0.722935 0.179916 0.609954
O O14 0.784010 0.155930 0.510646
O O15 0.753093 0.000000 0.590467
O O16 0.397320 0.760318 0.676332
O O17 0.500000 0.824617 0.000000
#
# Coordination Sequence:
#
# PCOD9202399 Si02
#       7
#     8   8   8   8   8   8   8
#     4  11  22  36  59  88 118 154 198 250 307 361
#     4  10  20  38  61  86 117 158 200 240 298 362
#     4  10  21  39  58  87 118 155 196 253 297 360
#     4  10  22  41  63  85 117 162 205 246 303 368
#     4  10  21  37  60  84 117 160 200 244 298 357
#     4  11  23  39  61  91 126 159 200 255 307 361
#     4  11  22  39  58  88 125 155 201 254 300 362
#
# _framework density 19.023474
#
# number of rings (size 3 to 8) (size 9 to 14) (size 15 to 20)
#    0.000    1.571    2.857    2.143    0.000    2.286 
#    0.000    2.143    0.000    4.714    0.000    0.000 
#    0.000    0.000    0.000    0.000    0.000    0.000 
#
# Total GULP energy -155910.058085 kJ/mol
# GULP energy per Si atom -5568.216360 kJ/mol
# Density = 1.898018 g / cm^3
# Si number density = 19.023474 Si / 1000 Ang^3
#
#
#
# Elastic Constant Matrix: (Units=GPa)
#
#
# Indices 1 2 3 4 5 6 
#
# 1 58.2412 11.5373 15.0813 0.0000 -6.6712 0.0000
# 2 11.5373 138.9255 28.0042 0.0000 4.7687 0.0000
# 3 15.0813 28.0042 85.7340 0.0000 -3.8620 0.0000
# 4 0.0000 0.0000 0.0000 20.0071 0.0000 0.1960
# 5 -6.6712 4.7687 -3.8620 0.0000 33.9145 0.0000
# 6 0.0000 0.0000 0.0000 0.1960 0.0000 18.9622
#
#
#
# Elastic Compliance Matrix: (Units=1/GPa)
#
#
# Indices 1 2 3 4 5 6 
#
# 1 0.018496 -0.001104 -0.002736 0.000000 0.003482 0.000000
# 2 -0.001104 0.007836 -0.002437 0.000000 -0.001596 0.000000
# 3 -0.002736 -0.002437 0.012999 0.000000 0.001285 0.000000
# 4 0.000000 0.000000 0.000000 0.049987 0.000000 -0.000517
# 5 0.003482 -0.001596 0.001285 0.000000 0.030542 0.000000
# 6 0.000000 0.000000 0.000000 -0.000517 0.000000 0.052742
#
#
# Mechanical properties :
#
#
# Convention : Reuss Voigt Hill
#
# Bulk Modulus (GPa) = 37.34628 43.57180 40.45904
# Shear Modulus (GPa) = 25.76230 29.79529 27.77879
#
# Velocity S-wave (km/s) = 3.68399 3.96187 3.82545
# Velocity P-wave (km/s) = 6.14573 6.62438 6.38954
#
# Compressibility (1/GPa) = 0.02677643
#
# Stress axis : x y z
#
# Youngs Moduli (GPa) = 54.06566 127.61818 76.92745
#
# Poissons Ratio (x) = 0.14089 0.21048
# Poissons Ratio (y) = 0.05969 0.18749
# Poissons Ratio (z) = 0.14793 0.31103
#
# Static dielectric constant tensor:
#      x y z
#    x 1.678650 0.000000 -0.021450 
#    y 0.000000 1.642420 0.000000 
#    z -0.021450 0.000000 1.720160 
# 
# From -- ./inp_files/182599.got.cif
#   From: 2010.05.17/outbox.cif.g08.bks.cpg/sg12_92_cif.got.tgz:182599.got - 2010.06.03 13:09:07.
