data_PCOD9202436
_publ_section_title
;
Structure prediction by ZEFSAII (Michael W. Deem and Ramdas Pophale) SiO2 
 PCOD9202436
Probable space group: C 2/M
;
_chemical_formula_sum "Si O2"
_cell_formula_units_Z 48
_cell_length_a 12.073234
_cell_length_b 16.269385
_cell_length_c 24.869340
_cell_angle_alpha 90.000000
_cell_angle_beta 149.564651
_cell_angle_gamma 90.000000
_cell_volume 2474.542294
_symmetry_space_group_name_H-M "C 2/M"
_symmetry_group_IT_number 12
_symmetry_cell_setting 'monoclinic'
loop_
_space_group_symop_operation_xyz
x,y,z
-x,y,-z
-x,-y,-z
x,-y,z
1/2+x,1/2+y,z
1/2-x,1/2+y,-z
1/2-x,1/2-y,-z
1/2+x,1/2-y,z
loop_
_atom_site_type_symbol
_atom_site_label
_atom_site_fract_x
_atom_site_fract_y
_atom_site_fract_z
Si Si1 0.204109 0.651470 0.547040
Si Si2 0.728242 0.824551 0.063716
Si Si3 0.257616 0.592571 0.339416
Si Si4 0.763464 0.842219 0.455754
Si Si5 0.858041 0.907265 0.223613
Si Si6 0.012165 0.336493 0.865247
O O1 0.277737 0.747209 0.575264
O O2 0.149871 0.630652 0.462855
O O3 0.400117 0.598485 0.652430
O O4 0.000000 0.645089 0.500000
O O5 0.843210 0.883442 0.154880
O O6 0.881166 0.747146 0.112668
O O7 0.500000 0.801156 0.000000
O O8 0.667757 0.863699 0.980232
O O9 0.331126 0.500000 0.359790
O O10 0.474651 0.648423 0.423417
O O11 0.201050 0.604928 0.378048
O O12 0.056682 0.612748 0.216286
O O13 0.718047 0.840564 0.198866
O O14 0.770066 0.000000 0.194901
#
# Coordination Sequence:
#
# PCOD9202436 Si02
#       6
#     8   8   8   8   8   8
#     4  11  22  37  59  84 123 164 200 250 297 355
#     4   9  21  38  62  90 119 151 199 255 302 362
#     4  11  20  35  60  85 117 153 199 250 290 351
#     4  10  21  35  54  87 116 157 207 244 288 356
#     4  11  23  38  61  91 123 159 201 253 308 360
#     4  10  20  38  61  88 117 156 203 244 300 365
#
# _framework density 19.397527
#
# number of rings (size 3 to 8) (size 9 to 14) (size 15 to 20)
#    0.000    1.667    3.333    2.500    0.000    4.667 
#    0.000    0.000    0.000    2.000    0.000    3.500 
#    0.000    0.000    0.000    0.000    0.000    0.000 
#
# Total GULP energy -133654.260035 kJ/mol
# GULP energy per Si atom -5568.927501 kJ/mol
# Density = 1.935338 g / cm^3
# Si number density = 19.397527 Si / 1000 Ang^3
#
#
#
# Elastic Constant Matrix: (Units=GPa)
#
#
# Indices 1 2 3 4 5 6 
#
# 1 126.9615 13.8274 46.0507 -0.0002 -25.5720 0.0001
# 2 13.8274 62.0234 31.2444 -0.0003 -5.5095 0.0000
# 3 46.0507 31.2444 75.0262 0.0031 -29.2435 -0.0010
# 4 -0.0002 -0.0003 0.0031 -14.2960 -0.0004 14.4316
# 5 -25.5720 -5.5095 -29.2435 -0.0004 32.1183 0.0001
# 6 0.0001 0.0000 -0.0010 14.4316 0.0001 -8.7833
#
#
#
# Elastic Compliance Matrix: (Units=1/GPa)
#
#
# Indices 1 2 3 4 5 6 
#
# 1 0.010448 0.000646 -0.005265 0.000001 0.003636 0.000002
# 2 0.000646 0.021378 -0.011888 0.000002 -0.006643 0.000005
# 3 -0.005265 -0.011888 0.029580 -0.000004 0.020701 -0.000010
# 4 0.000001 0.000002 -0.000004 0.106201 -0.000002 0.174496
# 5 0.003636 -0.006643 0.020701 -0.000002 0.051738 -0.000005
# 6 0.000002 0.000005 -0.000010 0.174496 -0.000005 0.172856
#
#
# Mechanical properties :
#
#
# Convention : Reuss Voigt Hill
#
# Bulk Modulus (GPa) = 35.22235 49.58400 42.40317
# Shear Modulus (GPa) = 11.50272 13.33370 12.41821
#
# Velocity S-wave (km/s) = 2.43780 2.62466 2.53295
# Velocity P-wave (km/s) = 5.11091 5.89938 5.51924
#
# Compressibility (1/GPa) = 0.02839107
#
# Stress axis : x y z
#
# Youngs Moduli (GPa) = 95.71251 46.77786 33.80677
#
# Poissons Ratio (x) = -0.03021 0.17798
# Poissons Ratio (y) = -0.06181 0.40191
# Poissons Ratio (z) = 0.50390 0.55611
#
# Static dielectric constant tensor:
#      x y z
#    x 1.727460 0.000000 -0.025050 
#    y 0.000000 1.683050 0.000000 
#    z -0.025050 0.000000 1.695610 
# 
# From -- ./inp_files/336493.got.cif
#   From: 2010.05.17/outbox.cif.g08.bks.cpg/sg12_169_cif.got.tgz:336493.got - 2010.06.03 13:09:07.
