data_PCOD9202232
_publ_section_title
;
Structure prediction by ZEFSAII (Michael W. Deem and Ramdas Pophale) SiO2 
 PCOD9202232
Probable space group: C 2/M
;
_chemical_formula_sum "Si O2"
_cell_formula_units_Z 56
_cell_length_a 27.514223
_cell_length_b 8.690602
_cell_length_c 12.960145
_cell_angle_alpha 90.000000
_cell_angle_beta 68.080346
_cell_angle_gamma 90.000000
_cell_volume 2874.937418
_symmetry_space_group_name_H-M "C 2/M"
_symmetry_group_IT_number 12
_symmetry_cell_setting 'monoclinic'
loop_
_space_group_symop_operation_xyz
x,y,z
-x,y,-z
-x,-y,-z
x,-y,z
1/2+x,1/2+y,z
1/2-x,1/2+y,-z
1/2-x,1/2-y,-z
1/2+x,1/2-y,z
loop_
_atom_site_type_symbol
_atom_site_label
_atom_site_fract_x
_atom_site_fract_y
_atom_site_fract_z
Si Si1 0.053732 0.685642 0.400255
Si Si2 0.903190 0.815860 0.836491
Si Si3 0.439708 0.685913 0.034602
Si Si4 0.788731 0.316548 0.883922
Si Si5 0.635052 0.183931 0.729142
Si Si6 0.750823 0.184745 0.316248
Si Si7 0.141442 0.687349 0.493463
O O1 0.056142 0.500000 0.389953
O O2 0.058680 0.754869 0.282879
O O3 0.102515 0.736933 0.433209
O O4 0.000000 0.726317 0.500000
O O5 0.845701 0.755224 0.854055
O O6 0.903218 0.000000 0.835672
O O7 0.918989 0.763761 0.938747
O O8 0.438055 0.500000 0.038554
O O9 0.403117 0.746415 0.155026
O O10 0.500000 0.734403 0.000000
O O11 0.792824 0.500000 0.891270
O O12 0.766215 0.284807 0.788108
O O13 0.750000 0.250000 0.000000
O O14 0.694808 0.233913 0.702585
O O15 0.622525 0.234774 0.621758
O O16 0.631259 0.000000 0.736513
O O17 0.701290 0.235525 0.424702
O O18 0.757527 0.000000 0.322602
O O19 0.141647 0.500000 0.490718
#
# Coordination Sequence:
#
# PCOD9202232 Si02
#       7
#     8   8   8   8   8   8   8
#     4  10  21  39  65  91 120 159 196 240 305 366
#     4  11  23  40  62  89 120 154 200 251 295 348
#     4  10  24  45  63  82 117 162 201 239 295 358
#     4  11  22  37  60  87 120 160 199 243 298 356
#     4  11  23  37  60  92 122 151 198 253 293 344
#     4  10  20  38  60  82 119 163 197 232 293 362
#     4   9  19  38  59  88 123 155 193 239 295 355
#
# _framework density 19.478684000000001
#
# number of rings (size 3 to 8) (size 9 to 14) (size 15 to 20)
#    0.000    1.714    1.429    2.571    2.000    6.286 
#    0.000    2.143    0.000    0.000    0.000    0.000 
#    0.000    0.000    0.000    0.000    0.000    0.000 
#
# Total GULP energy -156485.073298 kJ/mol
# GULP energy per Si atom -5588.752618 kJ/mol
# Density = 1.943435 g / cm^3
# Si number density = 19.478684 Si / 1000 Ang^3
#
#
#
# Elastic Constant Matrix: (Units=GPa)
#
#
# Indices 1 2 3 4 5 6 
#
# 1 56.7341 10.9121 34.0351 0.0000 -4.7235 0.0000
# 2 10.9121 14.1957 29.9521 0.0000 3.8229 0.0000
# 3 34.0351 29.9521 169.7116 0.0000 -5.0816 0.0000
# 4 0.0000 0.0000 0.0000 21.1338 0.0000 -0.3868
# 5 -4.7235 3.8229 -5.0816 0.0000 32.4949 0.0000
# 6 0.0000 0.0000 0.0000 -0.3868 0.0000 16.8591
#
#
#
# Elastic Compliance Matrix: (Units=1/GPa)
#
#
# Indices 1 2 3 4 5 6 
#
# 1 0.021798 -0.014440 -0.001685 0.000000 0.004604 0.000000
# 2 -0.014440 0.131209 -0.020884 0.000000 -0.020801 0.000000
# 3 -0.001685 -0.020884 0.010029 0.000000 0.003780 0.000000
# 4 0.000000 0.000000 0.000000 0.047337 0.000000 0.001086
# 5 0.004604 -0.020801 0.003780 0.000000 0.034482 0.000000
# 6 0.000000 0.000000 0.000000 0.001086 0.000000 0.059340
#
#
# Mechanical properties :
#
#
# Convention : Reuss Voigt Hill
#
# Bulk Modulus (GPa) = 11.23363 43.38223 27.30793
# Shear Modulus (GPa) = 12.25832 25.14703 18.70268
#
# Velocity S-wave (km/s) = 2.51135 3.59695 3.10201
# Velocity P-wave (km/s) = 3.76680 6.29053 5.18457
#
# Compressibility (1/GPa) = 0.08901841
#
# Stress axis : x y z
#
# Youngs Moduli (GPa) = 45.87658 7.62141 99.70846
#
# Poissons Ratio (x) = 0.11005 0.16802
# Poissons Ratio (y) = 0.66246 2.08230
# Poissons Ratio (z) = 0.07731 0.15916
#
# Static dielectric constant tensor:
#      x y z
#    x 1.658120 0.000000 0.008080 
#    y 0.000000 1.662420 0.000000 
#    z 0.008080 0.000000 1.672740 
# 
# From -- ./inp_files/180814.got.cif
#   From: 2010.05.17/outbox.cif.g08.bks.cpg/sg12_91_cif.got.tgz:180814.got - 2010.06.03 13:09:07.
