data_PCOD9202672
_publ_section_title
;
Structure prediction by ZEFSAII (Michael W. Deem and Ramdas Pophale) SiO2 
 PCOD9202672
Probable space group: C 2/M
;
_chemical_formula_sum "Si O2"
_cell_formula_units_Z 44
_cell_length_a 9.406713
_cell_length_b 27.233178
_cell_length_c 10.912583
_cell_angle_alpha 90.000000
_cell_angle_beta 124.649219
_cell_angle_gamma 90.000000
_cell_volume 2299.735907
_symmetry_space_group_name_H-M "C 2/M"
_symmetry_group_IT_number 12
_symmetry_cell_setting 'monoclinic'
loop_
_space_group_symop_operation_xyz
x,y,z
-x,y,-z
-x,-y,-z
x,-y,z
1/2+x,1/2+y,z
1/2-x,1/2+y,-z
1/2-x,1/2-y,-z
1/2+x,1/2-y,z
loop_
_atom_site_type_symbol
_atom_site_label
_atom_site_fract_x
_atom_site_fract_y
_atom_site_fract_z
Si Si1 0.111751 0.792340 0.430478
Si Si2 0.817293 0.800896 0.089734
Si Si3 0.188904 0.898833 0.527751
Si Si4 0.178358 0.605407 0.148133
Si Si5 0.963547 0.943502 0.770662
Si Si6 0.000000 0.872172 0.000000
O O1 0.250000 0.750000 0.500000
O O2 0.202692 0.845262 0.475054
O O3 0.000000 0.789646 0.500000
O O4 0.986871 0.789304 0.252774
O O5 0.706507 0.836710 0.126125
O O6 0.750000 0.750000 0.000000
O O7 0.865662 0.836856 0.001980
O O8 0.319755 0.903072 0.704638
O O9 0.168594 0.936863 0.407485
O O10 0.000000 0.899799 0.500000
O O11 0.347069 0.576596 0.179687
O O12 0.000000 0.589169 0.000000
O O13 0.914825 0.907693 0.857743
O O14 0.975242 0.000000 0.812085
#
# Coordination Sequence:
#
# PCOD9202672 Si02
#       6
#     8   8   8   8   8   4
#     4  11  22  38  57  84 119 159 201 253 293 357
#     4  11  24  35  57  84 122 163 201 239 300 362
#     4   9  17  37  55  80 112 147 196 245 295 362
#     4  10  21  37  57  86 122 149 193 257 303 359
#     4  10  20  38  63  84 112 155 198 252 307 359
#     4  10  21  38  54  88 118 148 203 248 286 370
#
# _framework density 19.132632000000001
#
# number of rings (size 3 to 8) (size 9 to 14) (size 15 to 20)
#    0.000    1.818    7.273    0.273    6.364    3.636 
#    0.000    0.000    0.000    0.000    0.000    6.364 
#    0.000    0.000    0.000    0.000    0.000    0.000 
#
# Total GULP energy -122629.939211 kJ/mol
# GULP energy per Si atom -5574.088146 kJ/mol
# Density = 1.908908 g / cm^3
# Si number density = 19.132632 Si / 1000 Ang^3
#
#
#
# Elastic Constant Matrix: (Units=GPa)
#
#
# Indices 1 2 3 4 5 6 
#
# 1 25.6092 26.3261 32.9299 0.0000 -11.6958 0.0000
# 2 26.3261 129.5580 46.9362 0.0000 -15.1520 0.0000
# 3 32.9299 46.9362 175.2770 0.0000 -11.7618 0.0000
# 4 0.0000 0.0000 0.0000 27.3943 0.0000 -0.1547
# 5 -11.6958 -15.1520 -11.7618 0.0000 25.3985 0.0000
# 6 0.0000 0.0000 0.0000 -0.1547 0.0000 2.1647
#
#
#
# Elastic Compliance Matrix: (Units=1/GPa)
#
#
# Indices 1 2 3 4 5 6 
#
# 1 0.070063 -0.008121 -0.009442 0.000000 0.023046 0.000000
# 2 -0.008121 0.009939 -0.001021 0.000000 0.001717 0.000000
# 3 -0.009442 -0.001021 0.007658 0.000000 -0.001411 0.000000
# 4 0.000000 0.000000 0.000000 0.036519 0.000000 0.002609
# 5 0.023046 0.001717 -0.001411 0.000000 0.050356 0.000000
# 6 0.000000 0.000000 0.000000 0.002609 0.000000 0.462148
#
#
# Mechanical properties :
#
#
# Convention : Reuss Voigt Hill
#
# Bulk Modulus (GPa) = 19.80457 60.31428 40.05942
# Shear Modulus (GPa) = 7.23923 25.94163 16.59043
#
# Velocity S-wave (km/s) = 1.94729 3.68623 2.94790
# Velocity P-wave (km/s) = 3.92805 7.05056 5.70701
#
# Compressibility (1/GPa) = 0.05049341
#
# Stress axis : x y z
#
# Youngs Moduli (GPa) = 14.27287 100.61074 130.58608
#
# Poissons Ratio (x) = 0.81704 1.23297
# Poissons Ratio (y) = 0.11591 0.13328
# Poissons Ratio (z) = 0.13476 0.10269
#
# Static dielectric constant tensor:
#      x y z
#    x 1.715130 0.000000 -0.003100 
#    y 0.000000 1.663350 0.000000 
#    z -0.003100 0.000000 1.732100 
# 
# From -- ./inp_files/124469.got.cif
#   From: 2010.05.17/outbox.cif.g08.bks.cpg/sg12_63_cif.got.tgz:124469.got - 2010.06.03 13:09:07.
