data_PCOD9202474
_publ_section_title
;
Structure prediction by ZEFSAII (Michael W. Deem and Ramdas Pophale) SiO2 
 PCOD9202474
Probable space group: C 2/M
;
_chemical_formula_sum "Si O2"
_cell_formula_units_Z 52
_cell_length_a 12.407466
_cell_length_b 19.387462
_cell_length_c 9.919184
_cell_angle_alpha 90.000000
_cell_angle_beta 82.201434
_cell_angle_gamma 90.000000
_cell_volume 2363.984491
_symmetry_space_group_name_H-M "C 2/M"
_symmetry_group_IT_number 12
_symmetry_cell_setting 'monoclinic'
loop_
_space_group_symop_operation_xyz
x,y,z
-x,y,-z
-x,-y,-z
x,-y,z
1/2+x,1/2+y,z
1/2-x,1/2+y,-z
1/2-x,1/2-y,-z
1/2+x,1/2-y,z
loop_
_atom_site_type_symbol
_atom_site_label
_atom_site_fract_x
_atom_site_fract_y
_atom_site_fract_z
Si Si1 0.378460 0.217412 0.016279
Si Si2 0.315761 0.866152 0.281978
Si Si3 0.228147 0.869862 0.583830
Si Si4 0.922642 0.000000 0.353091
Si Si5 0.167544 0.000000 0.927686
Si Si6 0.456629 0.076308 0.658909
Si Si7 0.787091 0.156778 0.137925
Si Si8 0.332557 0.500000 0.755939
O O1 0.315229 0.183521 0.153580
O O2 0.370401 0.299715 0.031784
O O3 0.500000 0.193086 0.000000
O O4 0.325010 0.191558 0.888434
O O5 0.264743 0.840645 0.433780
O O6 0.442971 0.885625 0.285829
O O7 0.243614 0.933970 0.262138
O O8 0.338128 0.892753 0.645800
O O9 0.176489 0.827080 0.714858
O O10 0.145584 0.934018 0.582691
O O11 0.908627 0.000000 0.192063
O O12 0.946844 0.000000 0.653536
O O13 0.219326 0.076199 0.898625
O O14 0.138202 0.000000 0.090097
O O15 0.500000 0.068442 0.500000
O O16 0.442439 0.000000 0.723159
#
# Coordination Sequence:
#
# PCOD9202474 Si02
#       8
#     8   8   8   4   4   8   8   4
#     4  11  24  44  65  92 130 172 213 267 329 380
#     4  11  22  37  63  95 131 168 209 275 323 379
#     4  10  20  38  61  93 127 169 217 259 326 384
#     4  10  22  35  61  90 133 175 211 272 322 377
#     4  10  21  44  67  94 119 165 228 268 309 381
#     4   9  16  30  55  86 123 162 199 250 312 369
#     4  10  23  43  66  92 127 167 215 268 317 388
#     4  12  22  37  60  97 136 167 221 270 321 379
#
# _framework density 21.996760999999999
#
# number of rings (size 3 to 8) (size 9 to 14) (size 15 to 20)
#    0.000    1.692    3.077    1.615    0.000    4.308 
#    0.000    0.769    0.000    0.000    0.000    0.000 
#    0.000    0.000    0.000    0.000    0.000    0.000 
#
# Total GULP energy -144741.043866 kJ/mol
# GULP energy per Si atom -5566.963226 kJ/mol
# Density = 2.194670 g / cm^3
# Si number density = 21.996761 Si / 1000 Ang^3
#
#
#
# Elastic Constant Matrix: (Units=GPa)
#
#
# Indices 1 2 3 4 5 6 
#
# 1 104.3975 13.1116 14.8312 0.0000 -0.1371 0.0000
# 2 13.1116 80.5574 33.0652 0.0000 -2.9833 0.0000
# 3 14.8312 33.0652 120.2842 0.0000 0.9850 0.0000
# 4 0.0000 0.0000 0.0000 28.1299 0.0000 3.3481
# 5 -0.1371 -2.9833 0.9850 0.0000 30.2264 0.0000
# 6 0.0000 0.0000 0.0000 3.3481 0.0000 -11.6316
#
#
#
# Elastic Compliance Matrix: (Units=1/GPa)
#
#
# Indices 1 2 3 4 5 6 
#
# 1 0.009859 -0.001249 -0.000872 0.000000 -0.000050 0.000000
# 2 -0.001249 0.014219 -0.003767 0.000000 0.001521 0.000000
# 3 -0.000872 -0.003767 0.009462 0.000000 -0.000684 0.000000
# 4 0.000000 0.000000 0.000000 0.034372 0.000000 0.009894
# 5 -0.000050 0.001521 -0.000684 0.000000 0.033256 0.000000
# 6 0.000000 0.000000 0.000000 0.009894 0.000000 -0.083125
#
#
# Mechanical properties :
#
#
# Convention : Reuss Voigt Hill
#
# Bulk Modulus (GPa) = 45.94489 47.47279 46.70884
# Shear Modulus (GPa) = 134.86151 25.62700 80.24425
#
# Velocity S-wave (km/s) = 7.83855 3.41696 6.04642
# Velocity P-wave (km/s) = 10.14180 6.09886 8.36816
#
# Compressibility (1/GPa) = 0.02176521
#
# Stress axis : x y z
#
# Youngs Moduli (GPa) = 101.42585 70.32668 105.68176
#
# Poissons Ratio (x) = 0.08781 0.09216
# Poissons Ratio (y) = 0.12665 0.39813
# Poissons Ratio (z) = 0.08845 0.26494
#
# Static dielectric constant tensor:
#      x y z
#    x 1.875480 0.000000 -0.049990 
#    y 0.000000 1.857380 0.000000 
#    z -0.049990 0.000000 1.883020 
# 
# From -- ./inp_files/63485.got.cif
#   From: 2010.05.17/outbox.cif.g08.bks.cpg/sg12_32_cif.got.tgz:63485.got - 2010.06.03 13:09:07.
