data_PCOD9202085
_publ_section_title
;
Structure prediction by ZEFSAII (Michael W. Deem and Ramdas Pophale) SiO2 
 PCOD9202085
Probable space group: C 2/M
;
_chemical_formula_sum "Si O2"
_cell_formula_units_Z 48
_cell_length_a 9.736643
_cell_length_b 23.050367
_cell_length_c 12.226777
_cell_angle_alpha 90.000000
_cell_angle_beta 80.131217
_cell_angle_gamma 90.000000
_cell_volume 2703.489851
_symmetry_space_group_name_H-M "C 2/M"
_symmetry_group_IT_number 12
_symmetry_cell_setting 'monoclinic'
loop_
_space_group_symop_operation_xyz
x,y,z
-x,y,-z
-x,-y,-z
x,-y,z
1/2+x,1/2+y,z
1/2-x,1/2+y,-z
1/2-x,1/2-y,-z
1/2+x,1/2-y,z
loop_
_atom_site_type_symbol
_atom_site_label
_atom_site_fract_x
_atom_site_fract_y
_atom_site_fract_z
Si Si1 0.926554 0.375538 0.767474
Si Si2 0.181565 0.320414 0.609132
Si Si3 0.225564 0.500000 0.960942
Si Si4 0.221664 0.812193 0.647008
Si Si5 0.000000 0.596910 0.000000
Si Si6 0.535778 0.500000 0.237564
Si Si7 0.957761 0.888455 0.625719
Si Si8 0.785972 0.500000 0.778703
O O1 0.810543 0.330715 0.739543
O O2 0.954445 0.371486 0.894184
O O3 0.871730 0.440654 0.746415
O O4 0.063978 0.359479 0.680404
O O5 0.170597 0.253981 0.649676
O O6 0.185393 0.320630 0.476152
O O7 0.330981 0.344562 0.626102
O O8 0.128801 0.555399 0.946718
O O9 0.241454 0.500000 0.088310
O O10 0.375520 0.500000 0.885253
O O11 0.089462 0.854155 0.655298
O O12 0.580163 0.442391 0.294902
O O13 0.367282 0.500000 0.253852
O O14 0.000000 0.910659 0.500000
#
# Coordination Sequence:
#
# PCOD9202085 Si02
#       8
#     8   8   4   8   4   4   8   4
#     4  11  20  38  59  83 117 150 186 240 284 333
#     4  10  21  36  61  84 108 153 196 225 278 339
#     4   9  19  35  57  78 109 152 197 227 269 341
#     4  10  20  38  58  84 114 146 193 236 268 336
#     4   9  20  36  56  86 114 148 188 237 280 334
#     4  12  19  35  55  80 115 150 182 228 290 340
#     4  10  21  34  53  82 115 145 178 231 288 337
#     4  10  22  36  57  85 111 143 192 242 280 331
#
# _framework density 17.754828
#
# number of rings (size 3 to 8) (size 9 to 14) (size 15 to 20)
#    0.000    1.833    1.667    3.500    0.000    3.333 
#    0.000    3.333    0.000    2.000    0.000    0.000 
#    0.000    0.000    0.000    0.000    0.000    0.000 
#
# Total GULP energy -133888.321225 kJ/mol
# GULP energy per Si atom -5578.680051 kJ/mol
# Density = 1.771442 g / cm^3
# Si number density = 17.754828 Si / 1000 Ang^3
#
#
#
# Elastic Constant Matrix: (Units=GPa)
#
#
# Indices 1 2 3 4 5 6 
#
# 1 53.2435 0.9481 33.0968 0.0000 7.4796 0.0000
# 2 0.9481 79.2438 43.3872 0.0000 -0.6237 0.0000
# 3 33.0968 43.3872 73.4283 0.0000 1.0764 0.0000
# 4 0.0000 0.0000 0.0000 27.7009 0.0000 -2.0219
# 5 7.4796 -0.6237 1.0764 0.0000 39.9083 0.0000
# 6 0.0000 0.0000 0.0000 -2.0219 0.0000 14.9813
#
#
#
# Elastic Compliance Matrix: (Units=1/GPa)
#
#
# Indices 1 2 3 4 5 6 
#
# 1 0.032481 0.011149 -0.021150 0.000000 -0.005343 0.000000
# 2 0.011149 0.022495 -0.018299 0.000000 -0.001244 0.000000
# 3 -0.021150 -0.018299 0.033924 0.000000 0.002763 0.000000
# 4 0.000000 0.000000 0.000000 0.036459 0.000000 0.004921
# 5 -0.005343 -0.001244 0.002763 0.000000 0.025965 0.000000
# 6 0.000000 0.000000 0.000000 0.004921 0.000000 0.067414
#
#
# Mechanical properties :
#
#
# Convention : Reuss Voigt Hill
#
# Bulk Modulus (GPa) = 30.95949 40.08665 35.52307
# Shear Modulus (GPa) = 17.47625 25.08366 21.27995
#
# Velocity S-wave (km/s) = 3.14077 3.76277 3.46576
# Velocity P-wave (km/s) = 5.53423 6.44243 6.00552
#
# Compressibility (1/GPa) = 0.03230028
#
# Stress axis : x y z
#
# Youngs Moduli (GPa) = 30.78767 44.45429 29.47804
#
# Poissons Ratio (x) = -0.49562 0.62345
# Poissons Ratio (y) = -0.34325 0.53942
# Poissons Ratio (z) = 0.65115 0.81346
#
# Static dielectric constant tensor:
#      x y z
#    x 1.624360 0.000000 0.012120 
#    y 0.000000 1.583700 0.000000 
#    z 0.012120 0.000000 1.591320 
# 
# From -- ./inp_files/122525.got.cif
#   From: 2010.05.17/outbox.cif.g08.bks.cpg/sg12_62_cif.got.tgz:122525.got - 2010.06.03 13:09:07.
