data_PCOD9202618
_publ_section_title
;
Structure prediction by ZEFSAII (Michael W. Deem and Ramdas Pophale) SiO2 
 PCOD9202618
Probable space group: C 2/M
;
_chemical_formula_sum "Si O2"
_cell_formula_units_Z 64
_cell_length_a 14.715982
_cell_length_b 8.623019
_cell_length_c 30.391620
_cell_angle_alpha 90.000000
_cell_angle_beta 49.347803
_cell_angle_gamma 90.000000
_cell_volume 2925.903557
_symmetry_space_group_name_H-M "C 2/M"
_symmetry_group_IT_number 12
_symmetry_cell_setting 'monoclinic'
loop_
_space_group_symop_operation_xyz
x,y,z
-x,y,-z
-x,-y,-z
x,-y,z
1/2+x,1/2+y,z
1/2-x,1/2+y,-z
1/2-x,1/2-y,-z
1/2+x,1/2-y,z
loop_
_atom_site_type_symbol
_atom_site_label
_atom_site_fract_x
_atom_site_fract_y
_atom_site_fract_z
Si Si1 0.967436 0.817549 0.596326
Si Si2 0.220389 0.682680 0.640723
Si Si3 0.518708 0.319623 0.307739
Si Si4 0.232743 0.180986 0.797765
Si Si5 0.322691 0.182779 0.518507
Si Si6 0.488487 0.815188 0.862382
Si Si7 0.253829 0.686075 0.888365
Si Si8 0.367688 0.186560 0.987269
O O1 0.826414 0.781074 0.641248
O O2 0.016269 0.797098 0.630090
O O3 0.040596 0.716623 0.538598
O O4 0.980056 0.000000 0.580445
O O5 0.195249 0.500000 0.649581
O O6 0.095885 0.771413 0.684524
O O7 0.280742 0.728485 0.575150
O O8 0.547378 0.500000 0.292022
O O9 0.636558 0.221983 0.261542
O O10 0.123550 0.269481 0.808465
O O11 0.238199 0.233830 0.846800
O O12 0.208752 0.000000 0.802021
O O13 0.250000 0.250000 0.500000
O O14 0.301273 0.000000 0.530585
O O15 0.383085 0.732004 0.868351
O O16 0.470359 0.771314 0.920054
O O17 0.471737 0.000000 0.863266
O O18 0.247845 0.500000 0.884788
O O19 0.151378 0.735161 0.956187
O O20 0.365765 0.000000 0.989144
O O21 0.250000 0.250000 0.000000
#
# Coordination Sequence:
#
# PCOD9202618 Si02
#       8
#     8   8   8   8   8   8   8   8
#     4  10  23  42  65  92 124 159 197 244 303 361
#     4  11  23  41  65  94 126 161 199 244 301 364
#     4  11  24  44  65  86 117 159 206 256 306 357
#     4  12  26  42  60  86 120 162 210 256 305 361
#     4  12  23  37  62  94 129 165 201 245 299 353
#     4  10  20  38  62  90 123 159 199 248 308 367
#     4  10  20  38  62  90 122 158 201 250 306 366
#     4   8  16  31  56  87 120 155 193 242 301 366
#
# _framework density 21.873586
#
# number of rings (size 3 to 8) (size 9 to 14) (size 15 to 20)
#    0.000    1.500    1.250    4.125    0.000    5.500 
#    0.000    6.250    0.000    0.000    0.000    0.000 
#    0.000    0.000    0.000    0.000    0.000    0.000 
#
# Total GULP energy -178877.218873 kJ/mol
# GULP energy per Si atom -5589.913090 kJ/mol
# Density = 2.182380 g / cm^3
# Si number density = 21.873586 Si / 1000 Ang^3
#
#
#
# Elastic Constant Matrix: (Units=GPa)
#
#
# Indices 1 2 3 4 5 6 
#
# 1 64.3845 2.6625 -0.6172 0.0001 -13.9186 0.0001
# 2 2.6625 35.5525 -0.0667 0.0001 0.5849 0.0001
# 3 -0.6172 -0.0667 30.3784 0.0000 -16.9565 0.0001
# 4 0.0001 0.0001 0.0000 26.7241 0.0000 -3.4708
# 5 -13.9186 0.5849 -16.9565 0.0000 32.4174 0.0001
# 6 0.0001 0.0001 0.0001 -3.4708 0.0001 28.1501
#
#
#
# Elastic Compliance Matrix: (Units=1/GPa)
#
#
# Indices 1 2 3 4 5 6 
#
# 1 0.018098 -0.001528 0.006662 0.000000 0.011283 0.000000
# 2 -0.001528 0.028267 -0.000876 0.000000 -0.001624 0.000000
# 3 0.006662 -0.000876 0.048948 0.000000 0.028480 0.000000
# 4 0.000000 0.000000 0.000000 0.038028 0.000000 0.004689
# 5 0.011283 -0.001624 0.028480 0.000000 0.050618 0.000000
# 6 0.000000 0.000000 0.000000 0.004689 0.000000 0.036102
#
#
# Mechanical properties :
#
#
# Convention : Reuss Voigt Hill
#
# Bulk Modulus (GPa) = 9.63122 14.91919 12.27520
# Shear Modulus (GPa) = 20.31241 26.01410 23.16325
#
# Velocity S-wave (km/s) = 3.05064 3.45235 3.25770
# Velocity P-wave (km/s) = 4.10137 4.76730 4.44682
#
# Compressibility (1/GPa) = 0.10382904
#
# Stress axis : x y z
#
# Youngs Moduli (GPa) = 55.25516 35.37696 20.42980
#
# Poissons Ratio (x) = 0.05407 -0.13611
# Poissons Ratio (y) = 0.08446 0.01789
# Poissons Ratio (z) = -0.36812 0.03098
#
# Static dielectric constant tensor:
#      x y z
#    x 1.832780 0.000000 -0.022030 
#    y 0.000000 1.745860 0.000000 
#    z -0.022030 0.000000 1.831270 
# 
# From -- ./inp_files/375435.got.cif
#   From: 2010.05.17/outbox.cif.g08.bks.cpg/sg12_188_cif.got.tgz:375435.got - 2010.06.03 13:09:07.
