data_PCOD9202193
_publ_section_title
;
Structure prediction by ZEFSAII (Michael W. Deem and Ramdas Pophale) SiO2 
 PCOD9202193
Probable space group: C 2/M
;
_chemical_formula_sum "Si O2"
_cell_formula_units_Z 64
_cell_length_a 15.331408
_cell_length_b 15.580975
_cell_length_c 19.530153
_cell_angle_alpha 90.000000
_cell_angle_beta 35.997101
_cell_angle_gamma 90.000000
_cell_volume 2742.020874
_symmetry_space_group_name_H-M "C 2/M"
_symmetry_group_IT_number 12
_symmetry_cell_setting 'monoclinic'
loop_
_space_group_symop_operation_xyz
x,y,z
-x,y,-z
-x,-y,-z
x,-y,z
1/2+x,1/2+y,z
1/2-x,1/2+y,-z
1/2-x,1/2-y,-z
1/2+x,1/2-y,z
loop_
_atom_site_type_symbol
_atom_site_label
_atom_site_fract_x
_atom_site_fract_y
_atom_site_fract_z
Si Si1 0.915084 0.397980 0.855476
Si Si2 0.553482 0.334536 0.386136
Si Si3 0.103067 0.348177 0.867062
Si Si4 0.398998 0.640561 0.127288
Si Si5 0.130435 0.405145 0.464162
Si Si6 0.432451 0.149678 0.695665
Si Si7 0.885180 0.901009 0.892293
Si Si8 0.418273 0.397080 0.344317
O O1 0.907101 0.500000 0.843592
O O2 0.955723 0.347295 0.761455
O O3 0.020290 0.383963 0.853078
O O4 0.754625 0.362302 0.980977
O O5 0.500000 0.337697 0.500000
O O6 0.720578 0.369123 0.259535
O O7 0.552271 0.239571 0.353611
O O8 0.432247 0.381171 0.415304
O O9 0.097613 0.244247 0.870615
O O10 0.000000 0.374131 0.000000
O O11 0.230880 0.615327 0.218993
O O12 0.473865 0.604321 0.147573
O O13 0.500000 0.612600 0.000000
O O14 0.159533 0.500000 0.416301
O O15 0.282014 0.358006 0.387187
O O16 0.000000 0.367450 0.500000
O O17 0.055439 0.410550 0.585486
O O18 0.933114 0.865620 0.788629
O O19 0.843264 0.000000 0.907747
O O20 0.407683 0.500000 0.341414
#
# Coordination Sequence:
#
# PCOD9202193 Si02
#       8
#     8   8   8   8   8   8   8   8
#     4  11  24  40  65  99 130 171 221 272 330 390
#     4  11  26  45  66  97 130 175 226 273 329 387
#     4  10  24  44  66  95 130 176 224 270 329 386
#     4  10  20  38  59  90 130 171 209 263 329 394
#     4  10  21  39  62  88 125 170 209 259 330 397
#     4  11  23  40  61  92 130 163 212 270 326 389
#     4  10  21  37  62  96 130 168 214 266 328 392
#     4  10  23  42  65  94 127 172 222 270 330 391
#
# _framework density 23.340449
#
# number of rings (size 3 to 8) (size 9 to 14) (size 15 to 20)
#    0.000    1.625    1.250    2.250    3.500    5.250 
#    0.000    0.000    0.000    0.000    0.000    0.000 
#    0.000    0.000    0.000    0.000    0.000    0.000 
#
# Total GULP energy -178471.019167 kJ/mol
# GULP energy per Si atom -5577.219349 kJ/mol
# Density = 2.328733 g / cm^3
# Si number density = 23.340449 Si / 1000 Ang^3
#
#
#
# Elastic Constant Matrix: (Units=GPa)
#
#
# Indices 1 2 3 4 5 6 
#
# 1 129.5272 2.7274 60.3029 0.0001 27.0396 0.0002
# 2 2.7274 25.4860 10.6949 0.0001 4.4879 0.0001
# 3 60.3029 10.6949 144.5549 0.0002 22.5799 0.0008
# 4 0.0001 0.0001 0.0002 8.3120 -0.0002 21.6923
# 5 27.0396 4.4879 22.5799 -0.0002 44.3790 -0.0001
# 6 0.0002 0.0001 0.0008 21.6923 -0.0001 -79.2153
#
#
#
# Elastic Compliance Matrix: (Units=1/GPa)
#
#
# Indices 1 2 3 4 5 6 
#
# 1 0.010372 0.001249 -0.003707 0.000000 -0.004560 0.000000
# 2 0.001249 0.040966 -0.003026 0.000000 -0.003364 0.000000
# 3 -0.003707 -0.003026 0.009003 0.000000 -0.002016 0.000000
# 4 0.000000 0.000000 0.000000 0.070165 0.000001 0.019214
# 5 -0.004560 -0.003364 -0.002016 0.000001 0.026677 0.000000
# 6 0.000000 0.000000 0.000000 0.019214 0.000000 -0.007362
#
#
# Mechanical properties :
#
#
# Convention : Reuss Voigt Hill
#
# Bulk Modulus (GPa) = 20.25467 49.66874 34.96171
# Shear Modulus (GPa) = 28.20933 9.75135 18.98034
#
# Velocity S-wave (km/s) = 3.48027 2.04620 2.85475
# Velocity P-wave (km/s) = 4.98462 5.18738 5.08701
#
# Compressibility (1/GPa) = 0.04937133
#
# Stress axis : x y z
#
# Youngs Moduli (GPa) = 96.41623 24.41056 111.07454
#
# Poissons Ratio (x) = -0.03048 0.41174
# Poissons Ratio (y) = -0.12038 0.33614
# Poissons Ratio (z) = 0.35740 0.07387
#
# Static dielectric constant tensor:
#      x y z
#    x 1.914420 0.000000 -0.025600 
#    y 0.000000 1.901270 0.000000 
#    z -0.025600 0.000000 1.943610 
# 
# From -- ./inp_files/184740.got.cif
#   From: 2010.05.17/outbox.cif.g08.bks.cpg/sg12_93_cif.got.tgz:184740.got - 2010.06.03 13:09:07.
