data_PCOD9202084
_publ_section_title
;
Structure prediction by ZEFSAII (Michael W. Deem and Ramdas Pophale) SiO2 
 PCOD9202084
Probable space group: C 2/M
;
_chemical_formula_sum "Si O2"
_cell_formula_units_Z 48
_cell_length_a 10.165497
_cell_length_b 21.924249
_cell_length_c 11.737091
_cell_angle_alpha 90.000000
_cell_angle_beta 112.226497
_cell_angle_gamma 90.000000
_cell_volume 2421.486676
_symmetry_space_group_name_H-M "C 2/M"
_symmetry_group_IT_number 12
_symmetry_cell_setting 'monoclinic'
loop_
_space_group_symop_operation_xyz
x,y,z
-x,y,-z
-x,-y,-z
x,-y,z
1/2+x,1/2+y,z
1/2-x,1/2+y,-z
1/2-x,1/2-y,-z
1/2+x,1/2-y,z
loop_
_atom_site_type_symbol
_atom_site_label
_atom_site_fract_x
_atom_site_fract_y
_atom_site_fract_z
Si Si1 0.882176 0.609120 0.048833
Si Si2 0.327292 0.427209 0.655814
Si Si3 0.267283 0.426348 0.380863
Si Si4 0.914437 0.747726 0.084075
Si Si5 0.891528 0.866560 0.196223
Si Si6 0.943300 0.430625 0.308677
O O1 0.942624 0.675901 0.107555
O O2 0.874702 0.570997 0.160842
O O3 0.731995 0.616907 0.935511
O O4 0.000000 0.583984 0.000000
O O5 0.324406 0.500000 0.670464
O O6 0.344697 0.416362 0.526671
O O7 0.459434 0.401013 0.768198
O O8 0.174753 0.402002 0.647693
O O9 0.272747 0.500000 0.356860
O O10 0.329606 0.388119 0.297044
O O11 0.103291 0.407367 0.347938
O O12 0.929430 0.795162 0.191643
O O13 0.750000 0.750000 0.000000
O O14 0.000000 0.768799 0.000000
O O15 0.964265 0.500000 0.355156
#
# Coordination Sequence:
#
# PCOD9202084 Si02
#       6
#     8   8   8   8   8   8
#     4  10  20  38  58  84 111 149 188 229 284 346
#     4  10  22  37  56  85 117 151 190 234 283 332
#     4  10  20  38  60  81 112 157 197 225 272 342
#     4   9  21  37  58  82 109 149 187 223 282 343
#     4  11  21  34  59  86 113 143 186 239 286 336
#     4  10  21  36  58  84 115 152 189 233 279 338
#
# _framework density 19.822533
#
# number of rings (size 3 to 8) (size 9 to 14) (size 15 to 20)
#    0.000    2.000    1.667    1.500    4.667    5.000 
#    0.000    1.667    0.000    6.000    0.000    0.000 
#    0.000    0.000    0.000    0.000    0.000    0.000 
#
# Total GULP energy -133783.986801 kJ/mol
# GULP energy per Si atom -5574.332783 kJ/mol
# Density = 1.977742 g / cm^3
# Si number density = 19.822533 Si / 1000 Ang^3
#
#
#
# Elastic Constant Matrix: (Units=GPa)
#
#
# Indices 1 2 3 4 5 6 
#
# 1 110.4618 24.0367 20.4321 0.0000 -8.5063 0.0000
# 2 24.0367 53.5177 36.3129 0.0000 -10.2549 0.0000
# 3 20.4321 36.3129 76.2499 0.0000 -5.8290 0.0000
# 4 0.0000 0.0000 0.0000 16.4686 0.0000 2.4553
# 5 -8.5063 -10.2549 -5.8290 0.0000 37.1973 0.0000
# 6 0.0000 0.0000 0.0000 2.4553 0.0000 17.7632
#
#
#
# Elastic Compliance Matrix: (Units=1/GPa)
#
#
# Indices 1 2 3 4 5 6 
#
# 1 0.010113 -0.003757 -0.000833 0.000000 0.001146 0.000000
# 2 -0.003757 0.030213 -0.012966 0.000000 0.005438 0.000000
# 3 -0.000833 -0.012966 0.019458 0.000000 -0.000716 0.000000
# 4 0.000000 0.000000 0.000000 0.061999 0.000000 -0.008570
# 5 0.001146 0.005438 -0.000716 0.000000 0.028533 0.000000
# 6 0.000000 0.000000 0.000000 -0.008570 0.000000 0.057481
#
#
# Mechanical properties :
#
#
# Convention : Reuss Voigt Hill
#
# Bulk Modulus (GPa) = 40.53249 44.64365 42.58807
# Shear Modulus (GPa) = 19.90985 24.91566 22.41275
#
# Velocity S-wave (km/s) = 3.17267 3.54918 3.36619
# Velocity P-wave (km/s) = 5.82351 6.27424 6.05307
#
# Compressibility (1/GPa) = 0.02467157
#
# Stress axis : x y z
#
# Youngs Moduli (GPa) = 98.88440 33.09879 51.39277
#
# Poissons Ratio (x) = 0.12436 0.04280
# Poissons Ratio (y) = 0.37153 0.66635
# Poissons Ratio (z) = 0.08236 0.42915
#
# Static dielectric constant tensor:
#      x y z
#    x 1.728710 0.000000 -0.012460 
#    y 0.000000 1.741310 0.000000 
#    z -0.012460 0.000000 1.698920 
# 
# From -- ./inp_files/123138.got.cif
#   From: 2010.05.17/outbox.cif.g08.bks.cpg/sg12_62_cif.got.tgz:123138.got - 2010.06.03 13:09:07.
