data_PCOD9202025
_publ_section_title
;
Structure prediction by ZEFSAII (Michael W. Deem and Ramdas Pophale) SiO2 
 PCOD9202025
Probable space group: C 2/M
;
_chemical_formula_sum "Si O2"
_cell_formula_units_Z 50
_cell_length_a 18.545279
_cell_length_b 7.417549
_cell_length_c 18.636740
_cell_angle_alpha 90.000000
_cell_angle_beta 124.791089
_cell_angle_gamma 90.000000
_cell_volume 2105.390977
_symmetry_space_group_name_H-M "C 2/M"
_symmetry_group_IT_number 12
_symmetry_cell_setting 'monoclinic'
loop_
_space_group_symop_operation_xyz
x,y,z
-x,y,-z
-x,-y,-z
x,-y,z
1/2+x,1/2+y,z
1/2-x,1/2+y,-z
1/2-x,1/2-y,-z
1/2+x,1/2-y,z
loop_
_atom_site_type_symbol
_atom_site_label
_atom_site_fract_x
_atom_site_fract_y
_atom_site_fract_z
Si Si1 0.825089 0.789356 0.870391
Si Si2 0.436871 0.718371 0.637827
Si Si3 0.000000 0.500000 0.500000
Si Si4 0.132347 0.791291 0.555364
Si Si5 0.647758 0.285115 0.959717
Si Si6 0.122403 0.781106 0.789311
Si Si7 0.329796 0.718551 0.714742
O O1 0.718680 0.779437 0.818633
O O2 0.849699 0.714681 0.806490
O O3 0.849172 0.000000 0.883043
O O4 0.865681 0.712572 0.967428
O O5 0.435552 0.500000 0.637723
O O6 0.383658 0.771285 0.536498
O O7 0.538010 0.775446 0.696440
O O8 0.391796 0.780243 0.685538
O O9 0.929654 0.657833 0.437897
O O10 0.231629 0.770999 0.636641
O O11 0.106945 0.000000 0.548058
O O12 0.632809 0.500000 0.954672
O O13 0.603591 0.221765 0.861133
O O14 0.750000 0.250000 0.000000
O O15 0.126577 0.000000 0.791126
O O16 0.333973 0.500000 0.719190
#
# Coordination Sequence:
#
# PCOD9202025 Si02
#       7
#     8   8   2   8   8   8   8
#     4   9  18  30  51  78 107 142 186 237 290 343
#     4   9  20  37  57  80 111 154 195 236 290 350
#     4  12  26  44  64  94 120 148 192 252 296 338
#     4  11  24  41  63  89 121 155 194 236 290 351
#     4   8  14  27  46  73 103 138 181 230 288 346
#     4   9  17  31  52  75 106 142 185 239 291 340
#     4  10  20  38  57  79 115 157 194 237 290 345
#
# _framework density 23.748559
#
# number of rings (size 3 to 8) (size 9 to 14) (size 15 to 20)
#    0.000    2.560    0.800    0.720    2.240    0.640 
#    1.440    0.800    0.000    4.800    0.000    0.000 
#    0.000   14.080    0.000    0.000    0.000    0.160 
#
# Total GULP energy -139351.853032 kJ/mol
# GULP energy per Si atom -5574.074121 kJ/mol
# Density = 2.369451 g / cm^3
# Si number density = 23.748559 Si / 1000 Ang^3
#
#
#
# Elastic Constant Matrix: (Units=GPa)
#
#
# Indices 1 2 3 4 5 6 
#
# 1 40.1775 9.0256 32.3531 0.0000 -25.1200 0.0000
# 2 9.0256 104.0433 8.2644 0.0000 -9.2517 0.0000
# 3 32.3531 8.2644 140.5220 0.0000 -62.5389 0.0000
# 4 0.0000 0.0000 0.0000 6.3957 0.0000 9.8587
# 5 -25.1200 -9.2517 -62.5389 0.0000 36.0366 0.0000
# 6 0.0000 0.0000 0.0000 9.8587 0.0000 2.4782
#
#
#
# Elastic Compliance Matrix: (Units=1/GPa)
#
#
# Indices 1 2 3 4 5 6 
#
# 1 0.053427 0.000086 0.018794 0.000000 0.069879 0.000000
# 2 0.000086 0.010023 0.002471 0.000000 0.006922 0.000000
# 3 0.018794 0.002471 0.038465 0.000000 0.080488 0.000000
# 4 0.000000 0.000000 0.000000 -0.030466 0.000000 0.121198
# 5 0.069879 0.006922 0.080488 0.000000 0.217918 0.000000
# 6 0.000000 0.000000 0.000000 0.121198 0.000000 -0.078626
#
#
# Mechanical properties :
#
#
# Convention : Reuss Voigt Hill
#
# Bulk Modulus (GPa) = 6.91480 42.66991 24.79235
# Shear Modulus (GPa) = 23.12216 24.65542 23.88879
#
# Velocity S-wave (km/s) = 3.12368 3.22559 3.17504
# Velocity P-wave (km/s) = 3.99097 5.64614 4.88911
#
# Compressibility (1/GPa) = 0.14461743
#
# Stress axis : x y z
#
# Youngs Moduli (GPa) = 18.71730 99.76915 25.99776
#
# Poissons Ratio (x) = -0.00861 -0.48860
# Poissons Ratio (y) = -0.00161 -0.06425
# Poissons Ratio (z) = -0.35177 -0.24657
#
# Static dielectric constant tensor:
#      x y z
#    x 1.887490 0.000000 -0.061660 
#    y 0.000000 1.889950 0.000000 
#    z -0.061660 0.000000 1.957340 
# 
# From -- ./inp_files/274512.got.cif
#   From: 2010.05.17/outbox.cif.g08.bks.cpg/sg12_138_cif.got.tgz:274512.got - 2010.06.03 13:09:07.
