data_PCOD9202221
_publ_section_title
;
Structure prediction by ZEFSAII (Michael W. Deem and Ramdas Pophale) SiO2 
 PCOD9202221
Probable space group: C 2/M
;
_chemical_formula_sum "Si O2"
_cell_formula_units_Z 64
_cell_length_a 13.640854
_cell_length_b 15.645291
_cell_length_c 31.474999
_cell_angle_alpha 90.000000
_cell_angle_beta 150.985454
_cell_angle_gamma 90.000000
_cell_volume 3258.074487
_symmetry_space_group_name_H-M "C 2/M"
_symmetry_group_IT_number 12
_symmetry_cell_setting 'monoclinic'
loop_
_space_group_symop_operation_xyz
x,y,z
-x,y,-z
-x,-y,-z
x,-y,z
1/2+x,1/2+y,z
1/2-x,1/2+y,-z
1/2-x,1/2-y,-z
1/2+x,1/2-y,z
loop_
_atom_site_type_symbol
_atom_site_label
_atom_site_fract_x
_atom_site_fract_y
_atom_site_fract_z
Si Si1 0.034481 0.598840 0.607396
Si Si2 0.455354 0.768883 0.120277
Si Si3 0.789379 0.307591 0.400394
Si Si4 0.889021 0.104261 0.585796
Si Si5 0.290689 0.090454 0.164897
Si Si6 0.140226 0.903424 0.203394
Si Si7 0.809740 0.666828 0.708116
Si Si8 0.501812 0.745549 0.045421
O O1 0.018529 0.500000 0.612337
O O2 0.806507 0.630992 0.516636
O O3 0.135903 0.612988 0.600109
O O4 0.189708 0.634566 0.700629
O O5 0.465288 0.666128 0.131690
O O6 0.584935 0.805926 0.207651
O O7 0.543888 0.788822 0.106952
O O8 0.221205 0.794064 0.032170
O O9 0.645105 0.343680 0.382887
O O10 0.705210 0.239835 0.334160
O O11 0.000000 0.272411 0.500000
O O12 0.091385 0.130974 0.638150
O O13 0.882535 0.000000 0.589890
O O14 0.242431 0.090110 0.196397
O O15 0.528399 0.100242 0.248582
O O16 0.167498 0.171784 0.101805
O O17 0.221280 0.000000 0.119886
O O18 0.079318 0.000000 0.193566
O O19 0.500000 0.795572 0.000000
#
# Coordination Sequence:
#
# PCOD9202221 Si02
#       8
#     8   8   8   8   8   8   8   8
#     4   9  17  35  59  82 114 161 203 241 290 348
#     4  10  21  36  57  87 112 143 191 238 300 351
#     4  10  22  36  58  88 117 158 206 248 289 349
#     4  10  23  39  56  83 124 163 202 249 300 347
#     4  10  22  38  58  86 115 150 195 235 290 363
#     4   9  18  35  60  83 112 151 195 242 287 350
#     4  12  23  36  58  88 121 156 193 249 296 345
#     4  10  20  38  60  82 109 145 182 241 297 348
#
# _framework density 19.643504
#
# number of rings (size 3 to 8) (size 9 to 14) (size 15 to 20)
#    0.000    2.000    2.500    0.750    3.500    4.750 
#    0.000    0.000    0.000    4.125    0.000    0.000 
#    0.000    0.000    0.000    0.000    0.000    0.000 
#
# Total GULP energy -178146.268983 kJ/mol
# GULP energy per Si atom -5567.070906 kJ/mol
# Density = 1.959879 g / cm^3
# Si number density = 19.643504 Si / 1000 Ang^3
#
#
#
# Elastic Constant Matrix: (Units=GPa)
#
#
# Indices 1 2 3 4 5 6 
#
# 1 46.5669 9.9501 14.7119 -0.0002 3.2150 -0.0001
# 2 9.9501 31.2446 11.7507 -0.0002 2.6109 -0.0001
# 3 14.7119 11.7507 78.2480 0.0008 -1.4989 0.0000
# 4 -0.0002 -0.0002 0.0008 8.2389 -0.0001 3.9538
# 5 3.2150 2.6109 -1.4989 -0.0001 47.3387 0.0000
# 6 -0.0001 -0.0001 0.0000 3.9538 0.0000 15.9888
#
#
#
# Elastic Compliance Matrix: (Units=1/GPa)
#
#
# Indices 1 2 3 4 5 6 
#
# 1 0.024034 -0.006176 -0.003618 0.000001 -0.001406 0.000000
# 2 -0.006176 0.035705 -0.004233 0.000001 -0.001684 0.000000
# 3 -0.003618 -0.004233 0.014114 -0.000002 0.000926 0.000000
# 4 0.000001 0.000001 -0.000002 0.137718 0.000000 -0.034056
# 5 -0.001406 -0.001684 0.000926 0.000000 0.021342 0.000000
# 6 0.000000 0.000000 0.000000 -0.034056 0.000000 0.070965
#
#
# Mechanical properties :
#
#
# Convention : Reuss Voigt Hill
#
# Bulk Modulus (GPa) = 21.83464 25.43167 23.63315
# Shear Modulus (GPa) = 14.40097 22.28974 18.34535
#
# Velocity S-wave (km/s) = 2.71055 3.37220 3.05932
# Velocity P-wave (km/s) = 4.57555 5.30444 4.95342
#
# Compressibility (1/GPa) = 0.04579879
#
# Stress axis : x y z
#
# Youngs Moduli (GPa) = 41.60722 28.00734 70.85359
#
# Poissons Ratio (x) = 0.17296 0.25637
# Poissons Ratio (y) = 0.25695 0.29993
# Poissons Ratio (z) = 0.15055 0.11856
#
# Static dielectric constant tensor:
#      x y z
#    x 1.704570 0.000000 -0.034490 
#    y 0.000000 1.731660 0.000000 
#    z -0.034490 0.000000 1.725400 
# 
# From -- ./inp_files/374480.got.cif
#   From: 2010.05.17/outbox.cif.g08.bks.cpg/sg12_188_cif.got.tgz:374480.got - 2010.06.03 13:09:07.
