data_PCOD9202875
_publ_section_title
;
Structure prediction by ZEFSAII (Michael W. Deem and Ramdas Pophale) SiO2 
 PCOD9202875
Probable space group: C 2/M
;
_chemical_formula_sum "Si O2"
_cell_formula_units_Z 48
_cell_length_a 21.800971
_cell_length_b 8.027271
_cell_length_c 12.292826
_cell_angle_alpha 90.000000
_cell_angle_beta 107.496762
_cell_angle_gamma 90.000000
_cell_volume 2051.741940
_symmetry_space_group_name_H-M "C 2/M"
_symmetry_group_IT_number 12
_symmetry_cell_setting 'monoclinic'
loop_
_space_group_symop_operation_xyz
x,y,z
-x,y,-z
-x,-y,-z
x,-y,z
1/2+x,1/2+y,z
1/2-x,1/2+y,-z
1/2-x,1/2-y,-z
1/2+x,1/2-y,z
loop_
_atom_site_type_symbol
_atom_site_label
_atom_site_fract_x
_atom_site_fract_y
_atom_site_fract_z
Si Si1 0.479357 0.313518 0.335127
Si Si2 0.322749 0.698460 0.068874
Si Si3 0.291198 0.800502 0.286568
Si Si4 0.647437 0.702891 0.150856
Si Si5 0.099143 0.690393 0.513023
Si Si6 0.488156 0.804414 0.873199
O O1 0.457854 0.500000 0.349341
O O2 0.554296 0.292603 0.408030
O O3 0.441410 0.192760 0.395355
O O4 0.474000 0.279882 0.204875
O O5 0.328414 0.500000 0.075154
O O6 0.329425 0.761916 0.194997
O O7 0.250000 0.750000 0.000000
O O8 0.359525 0.757692 0.980000
O O9 0.217667 0.742804 0.231716
O O10 0.331875 0.739937 0.412013
O O11 0.288932 0.000000 0.294731
O O12 0.645241 0.500000 0.152918
O O13 0.587994 0.777028 0.183853
O O14 0.104650 0.500000 0.477207
O O15 0.503078 0.000000 0.880011
O O16 0.500000 0.733581 0.000000
#
# Coordination Sequence:
#
# PCOD9202875 Si02
#       6
#     8   8   8   8   8   8
#     4  11  23  40  61  87 118 152 195 242 288 341
#     4   9  17  29  48  76 112 149 186 230 278 332
#     4   9  19  34  56  85 116 150 188 234 288 342
#     4   9  19  36  54  81 116 150 189 235 286 340
#     4  10  20  38  64  90 119 152 191 239 289 341
#     4  11  25  42  60  83 113 154 198 239 289 348
#
# _framework density 23.394755
#
# number of rings (size 3 to 8) (size 9 to 14) (size 15 to 20)
#    0.000    2.167    0.000    5.000    2.333    6.000 
#    0.000    0.833    0.000    0.000    0.000    0.000 
#    0.000    0.000    0.000    0.000    0.000    0.000 
#
# Total GULP energy -134057.475301 kJ/mol
# GULP energy per Si atom -5585.728138 kJ/mol
# Density = 2.334151 g / cm^3
# Si number density = 23.394755 Si / 1000 Ang^3
#
#
#
# Elastic Constant Matrix: (Units=GPa)
#
#
# Indices 1 2 3 4 5 6 
#
# 1 64.7980 -7.5330 5.0028 0.0000 6.5439 0.0000
# 2 -7.5330 42.5017 2.3558 0.0000 4.1073 0.0000
# 3 5.0028 2.3558 77.4145 0.0000 14.9248 0.0000
# 4 0.0000 0.0000 0.0000 22.1293 0.0000 0.5608
# 5 6.5439 4.1073 14.9248 0.0000 42.3989 0.0000
# 6 0.0000 0.0000 0.0000 0.5608 0.0000 20.1996
#
#
#
# Elastic Compliance Matrix: (Units=1/GPa)
#
#
# Indices 1 2 3 4 5 6 
#
# 1 0.016106 0.003138 -0.000642 0.000000 -0.002564 0.000000
# 2 0.003138 0.024369 -0.000425 0.000000 -0.002696 0.000000
# 3 -0.000642 -0.000425 0.013887 0.000000 -0.004748 0.000000
# 4 0.000000 0.000000 0.000000 0.045221 0.000000 -0.001255
# 5 -0.002564 -0.002696 -0.004748 0.000000 0.025914 0.000000
# 6 0.000000 0.000000 0.000000 -0.001255 0.000000 0.049541
#
#
# Mechanical properties :
#
#
# Convention : Reuss Voigt Hill
#
# Bulk Modulus (GPa) = 17.09276 20.48505 18.78890
# Shear Modulus (GPa) = 26.26106 29.27147 27.76626
#
# Velocity S-wave (km/s) = 3.35404 3.54107 3.44882
# Velocity P-wave (km/s) = 4.72456 5.04917 4.88956
#
# Compressibility (1/GPa) = 0.05850431
#
# Stress axis : x y z
#
# Youngs Moduli (GPa) = 62.08919 41.03631 72.00816
#
# Poissons Ratio (x) = -0.12877 0.04623
# Poissons Ratio (y) = -0.19483 0.03058
# Poissons Ratio (z) = 0.03986 0.01743
#
# Static dielectric constant tensor:
#      x y z
#    x 1.926720 0.000000 0.058720 
#    y 0.000000 1.802150 0.000000 
#    z 0.058720 0.000000 1.917980 
# 
# From -- ./inp_files/172435.got.cif
#   From: 2010.05.17/outbox.cif.g08.bks.cpg/sg12_87_cif.got.tgz:172435.got - 2010.06.03 13:09:07.
