data_PCOD9202860
_publ_section_title
;
Structure prediction by ZEFSAII (Michael W. Deem and Ramdas Pophale) SiO2 
 PCOD9202860
Probable space group: C 2/M
;
_chemical_formula_sum "Si O2"
_cell_formula_units_Z 56
_cell_length_a 22.376725
_cell_length_b 7.981308
_cell_length_c 15.347217
_cell_angle_alpha 90.000000
_cell_angle_beta 79.216317
_cell_angle_gamma 90.000000
_cell_volume 2692.540915
_symmetry_space_group_name_H-M "C 2/M"
_symmetry_group_IT_number 12
_symmetry_cell_setting 'monoclinic'
loop_
_space_group_symop_operation_xyz
x,y,z
-x,y,-z
-x,-y,-z
x,-y,z
1/2+x,1/2+y,z
1/2-x,1/2+y,-z
1/2-x,1/2-y,-z
1/2+x,1/2-y,z
loop_
_atom_site_type_symbol
_atom_site_label
_atom_site_fract_x
_atom_site_fract_y
_atom_site_fract_z
Si Si1 0.432350 0.797767 0.050530
Si Si2 0.764383 0.299149 0.397047
Si Si3 0.104997 0.297808 0.599520
Si Si4 0.366591 0.702388 0.604853
Si Si5 0.028540 0.702051 0.776556
Si Si6 0.181047 0.800801 0.040436
Si Si7 0.603377 0.700808 0.216883
O O1 0.430080 0.746854 0.152980
O O2 0.433197 0.000000 0.045345
O O3 0.500000 0.741136 0.000000
O O4 0.372750 0.743492 0.013339
O O5 0.766019 0.500000 0.386649
O O6 0.750000 0.250000 0.500000
O O7 0.833120 0.238340 0.368556
O O8 0.703888 0.239748 0.365327
O O9 0.104945 0.500000 0.600727
O O10 0.107524 0.251704 0.496890
O O11 0.051081 0.236268 0.676028
O O12 0.366903 0.500000 0.603578
O O13 0.398937 0.765045 0.683215
O O14 0.028891 0.500000 0.774608
O O15 0.960092 0.758692 0.811011
O O16 0.157340 0.733836 0.140695
O O17 0.181712 0.000000 0.045974
O O18 0.250000 0.750000 0.000000
O O19 0.609723 0.500000 0.220943
#
# Coordination Sequence:
#
# PCOD9202860 Si02
#       7
#     8   8   8   8   8   8   8
#     4  10  20  38  64  89 115 154 198 241 296 356
#     4   8  14  27  47  68  94 129 172 218 266 321
#     4   9  18  32  51  79 109 142 184 231 280 335
#     4   9  18  33  53  76 106 147 185 226 281 337
#     4  10  21  36  57  83 112 149 192 237 287 345
#     4  11  24  41  63  91 122 155 194 247 302 357
#     4  10  22  38  56  80 111 150 192 234 289 348
#
# _framework density 20.798196999999998
#
# number of rings (size 3 to 8) (size 9 to 14) (size 15 to 20)
#    0.000    2.429    1.429    0.429    0.000    4.286 
#    0.000    7.143    0.000    6.857    0.000    0.000 
#    0.000    0.000    0.000    0.000    0.000    0.000 
#
# Total GULP energy -155929.368767 kJ/mol
# GULP energy per Si atom -5568.906027 kJ/mol
# Density = 2.075086 g / cm^3
# Si number density = 20.798197 Si / 1000 Ang^3
#
#
#
# Elastic Constant Matrix: (Units=GPa)
#
#
# Indices 1 2 3 4 5 6 
#
# 1 117.1335 8.2592 64.0767 0.0000 -11.3081 0.0000
# 2 8.2592 17.3137 16.9558 0.0000 -2.6570 0.0000
# 3 64.0767 16.9558 134.7338 0.0000 -7.5838 0.0000
# 4 0.0000 0.0000 0.0000 17.7073 0.0000 2.1879
# 5 -11.3081 -2.6570 -7.5838 0.0000 35.9651 0.0000
# 6 0.0000 0.0000 0.0000 2.1879 0.0000 25.0067
#
#
#
# Elastic Compliance Matrix: (Units=1/GPa)
#
#
# Indices 1 2 3 4 5 6 
#
# 1 0.011766 0.000135 -0.005469 0.000000 0.002556 0.000000
# 2 0.000135 0.066234 -0.008219 0.000000 0.003202 0.000000
# 3 -0.005469 -0.008219 0.011058 0.000000 0.000005 0.000000
# 4 0.000000 0.000000 0.000000 0.057091 0.000000 -0.004995
# 5 0.002556 0.003202 0.000005 0.000000 0.028846 0.000000
# 6 0.000000 0.000000 0.000000 -0.004995 0.000000 0.040426
#
#
# Mechanical properties :
#
#
# Convention : Reuss Voigt Hill
#
# Bulk Modulus (GPa) = 16.14155 49.75160 32.94657
# Shear Modulus (GPa) = 18.99853 27.72844 23.36348
#
# Velocity S-wave (km/s) = 3.02565 3.65528 3.35527
# Velocity P-wave (km/s) = 4.47034 6.46435 5.55751
#
# Compressibility (1/GPa) = 0.06195193
#
# Stress axis : x y z
#
# Youngs Moduli (GPa) = 84.98890 15.09794 90.43535
#
# Poissons Ratio (x) = -0.00204 0.49458
# Poissons Ratio (y) = -0.01150 0.74333
# Poissons Ratio (z) = 0.46480 0.12410
#
# Static dielectric constant tensor:
#      x y z
#    x 1.802460 0.000000 -0.006130 
#    y 0.000000 1.763900 0.000000 
#    z -0.006130 0.000000 1.766230 
# 
# From -- ./inp_files/230949.got.cif
#   From: 2010.05.17/outbox.cif.g08.bks.cpg/sg12_116_cif.got.tgz:230949.got - 2010.06.03 13:09:07.
