data_PCOD9202226
_publ_section_title
;
Structure prediction by ZEFSAII (Michael W. Deem and Ramdas Pophale) SiO2 
 PCOD9202226
Probable space group: C 2/M
;
_chemical_formula_sum "Si O2"
_cell_formula_units_Z 32
_cell_length_a 16.932782
_cell_length_b 12.003662
_cell_length_c 14.072654
_cell_angle_alpha 90.000000
_cell_angle_beta 24.321769
_cell_angle_gamma 90.000000
_cell_volume 1178.062526
_symmetry_space_group_name_H-M "C 2/M"
_symmetry_group_IT_number 12
_symmetry_cell_setting 'monoclinic'
loop_
_space_group_symop_operation_xyz
x,y,z
-x,y,-z
-x,-y,-z
x,-y,z
1/2+x,1/2+y,z
1/2-x,1/2+y,-z
1/2-x,1/2-y,-z
1/2+x,1/2-y,z
loop_
_atom_site_type_symbol
_atom_site_label
_atom_site_fract_x
_atom_site_fract_y
_atom_site_fract_z
Si Si1 0.250211 0.879161 0.840191
Si Si2 0.192627 0.844829 0.697959
Si Si3 0.262632 0.882165 0.411505
Si Si4 0.378118 0.373570 0.731930
O O1 0.307386 0.877759 0.665166
O O2 0.288485 0.752435 0.836346
O O3 0.311730 0.000000 0.815997
O O4 0.019755 0.889146 0.081562
O O5 0.302968 0.866340 0.478584
O O6 0.157742 0.713686 0.740102
O O7 0.033866 0.876479 0.646011
O O8 0.331680 0.000000 0.302589
O O9 0.500000 0.373155 0.500000
O O10 0.284229 0.500000 0.837549
#
# Coordination Sequence:
#
# PCOD9202226 Si02
#       4
#     8   8   8   8
#     4  11  22  38  59  86 117 148 186 234 284 337
#     4  10  21  37  58  85 114 149 187 234 284 332
#     4  10  20  38  60  82 113 150 191 234 279 333
#     4  10  21  39  58  82 115 152 189 230 280 336
#
# _framework density 27.163245
#
# number of rings (size 3 to 8) (size 9 to 14) (size 15 to 20)
#    0.000    1.750    2.500    3.000    0.000    2.500 
#    0.000    3.750    0.000    0.000    0.000    0.000 
#    0.000    0.000    0.000    0.000    0.000    0.000 
#
# Total GULP energy -89236.725001 kJ/mol
# GULP energy per Si atom -5577.295313 kJ/mol
# Density = 2.710142 g / cm^3
# Si number density = 27.163245 Si / 1000 Ang^3
#
#
#
# Elastic Constant Matrix: (Units=GPa)
#
#
# Indices 1 2 3 4 5 6 
#
# 1 114.2148 21.9428 18.0373 0.0000 7.0984 -0.0002
# 2 21.9428 358.0495 35.5745 0.0001 -21.6136 -0.0001
# 3 18.0373 35.5745 32.6163 0.0000 -11.3411 -0.0002
# 4 0.0000 0.0001 0.0000 -7.1960 0.0000 -18.7210
# 5 7.0984 -21.6136 -11.3411 0.0000 34.6194 0.0001
# 6 -0.0002 -0.0001 -0.0002 -18.7210 0.0001 -5.0996
#
#
#
# Elastic Compliance Matrix: (Units=1/GPa)
#
#
# Indices 1 2 3 4 5 6 
#
# 1 0.010174 -0.000202 -0.006969 0.000000 -0.004495 0.000000
# 2 -0.000202 0.003164 -0.002977 0.000000 0.001042 0.000000
# 3 -0.006969 -0.002977 0.042446 0.000000 0.013475 0.000000
# 4 0.000000 0.000000 0.000000 0.016252 0.000000 -0.059663
# 5 -0.004495 0.001042 0.013475 0.000000 0.034872 0.000000
# 6 0.000000 0.000000 0.000000 -0.059663 0.000000 0.022933
#
#
# Mechanical properties :
#
#
# Convention : Reuss Voigt Hill
#
# Bulk Modulus (GPa) = 28.17867 72.88776 50.53321
# Shear Modulus (GPa) = 30.87058 33.08651 31.97854
#
# Velocity S-wave (km/s) = 3.37483 3.49386 3.43486
# Velocity P-wave (km/s) = 5.05790 6.57020 5.86302
#
# Compressibility (1/GPa) = 0.03548783
#
# Stress axis : x y z
#
# Youngs Moduli (GPa) = 98.28719 316.05974 23.55955
#
# Poissons Ratio (x) = 0.06400 0.16418
# Poissons Ratio (y) = 0.01990 0.07013
# Poissons Ratio (z) = 0.68494 0.94083
#
# Static dielectric constant tensor:
#      x y z
#    x 2.108310 0.000000 0.003090 
#    y 0.000000 2.204190 0.000000 
#    z 0.003090 0.000000 2.204150 
# 
# From -- ./inp_files/70565.got.cif
#   From: 2010.05.17/outbox.cif.g08.bks.cpg/sg12_36_cif.got.tgz:70565.got - 2010.06.03 13:09:07.
