data_PCOD9202524
_publ_section_title
;
Structure prediction by ZEFSAII (Michael W. Deem and Ramdas Pophale) SiO2 
 PCOD9202524
Probable space group: C 2/M
;
_chemical_formula_sum "Si O2"
_cell_formula_units_Z 58
_cell_length_a 20.679562
_cell_length_b 7.532033
_cell_length_c 18.286317
_cell_angle_alpha 90.000000
_cell_angle_beta 117.600412
_cell_angle_gamma 90.000000
_cell_volume 2524.129668
_symmetry_space_group_name_H-M "C 2/M"
_symmetry_group_IT_number 12
_symmetry_cell_setting 'monoclinic'
loop_
_space_group_symop_operation_xyz
x,y,z
-x,y,-z
-x,-y,-z
x,-y,z
1/2+x,1/2+y,z
1/2-x,1/2+y,-z
1/2-x,1/2-y,-z
1/2+x,1/2-y,z
loop_
_atom_site_type_symbol
_atom_site_label
_atom_site_fract_x
_atom_site_fract_y
_atom_site_fract_z
Si Si1 0.079480 0.792029 0.557166
Si Si2 0.227445 0.787264 0.570546
Si Si3 0.758180 0.205452 0.869123
Si Si4 0.102034 0.715921 0.737550
Si Si5 0.500000 0.500000 0.000000
Si Si6 0.096668 0.297226 0.996605
Si Si7 0.835067 0.716369 0.755407
Si Si8 0.501416 0.214544 0.192577
O O1 0.147356 0.715167 0.547946
O O2 0.098047 0.778147 0.652432
O O3 0.000000 0.712820 0.500000
O O4 0.075135 0.000000 0.534664
O O5 0.250000 0.750000 0.500000
O O6 0.285949 0.725106 0.661060
O O7 0.225052 0.000000 0.578375
O O8 0.676553 0.277541 0.815876
O O9 0.816032 0.288184 0.955404
O O10 0.796305 0.223795 0.809461
O O11 0.751224 0.000000 0.885354
O O12 0.103975 0.500000 0.737285
O O13 0.032042 0.773379 0.747950
O O14 0.563026 0.656491 0.034629
O O15 0.076344 0.500000 0.002968
O O16 0.057663 0.241314 0.900800
O O17 0.836736 0.500000 0.759525
O O18 0.918123 0.778156 0.785871
O O19 0.504870 0.000000 0.196540
#
# Coordination Sequence:
#
# PCOD9202524 Si02
#       8
#     8   8   8   8   2   8   8   8
#     4  10  22  41  62  88 123 162 206 257 316 390
#     4  10  22  38  60  89 123 158 202 254 317 387
#     4  11  22  38  62  93 127 165 215 273 315 387
#     4  10  22  41  64  91 125 165 215 265 315 380
#     4  12  22  40  64  98 136 160 230 270 308 406
#     4  11  23  40  65  94 133 178 213 272 333 377
#     4  10  20  38  62  85 119 164 210 260 321 384
#     4   9  21  40  61  90 125 166 212 263 322 381
#
# _framework density 22.978217000000001
#
# number of rings (size 3 to 8) (size 9 to 14) (size 15 to 20)
#    0.000    1.793    2.069    1.448    1.931    3.586 
#    1.241    0.000    0.000    0.000    0.000    0.000 
#    0.000    0.000    0.000    0.000    0.000    0.000 
#
# Total GULP energy -161888.995815 kJ/mol
# GULP energy per Si atom -5582.379166 kJ/mol
# Density = 2.292592 g / cm^3
# Si number density = 22.978217 Si / 1000 Ang^3
#
#
#
# Elastic Constant Matrix: (Units=GPa)
#
#
# Indices 1 2 3 4 5 6 
#
# 1 137.9796 0.3915 38.5016 0.0000 10.0256 0.0000
# 2 0.3915 75.8002 0.1486 0.0000 7.1256 0.0000
# 3 38.5016 0.1486 75.9811 0.0000 18.5579 0.0000
# 4 0.0000 0.0000 0.0000 18.8995 0.0000 0.7950
# 5 10.0256 7.1256 18.5579 0.0000 38.1482 0.0000
# 6 0.0000 0.0000 0.0000 0.7950 0.0000 6.9504
#
#
#
# Elastic Compliance Matrix: (Units=1/GPa)
#
#
# Indices 1 2 3 4 5 6 
#
# 1 0.008442 -0.000021 -0.004241 0.000000 -0.000152 0.000000
# 2 -0.000021 0.013458 0.000677 0.000000 -0.002838 0.000000
# 3 -0.004241 0.000677 0.017099 0.000000 -0.007330 0.000000
# 4 0.000000 0.000000 0.000000 0.053167 0.000000 -0.006081
# 5 -0.000152 -0.002838 -0.007330 0.000000 0.030349 0.000000
# 6 0.000000 0.000000 0.000000 -0.006081 0.000000 0.144572
#
#
# Mechanical properties :
#
#
# Convention : Reuss Voigt Hill
#
# Bulk Modulus (GPa) = 31.41624 40.87158 36.14391
# Shear Modulus (GPa) = 17.55209 29.51423 23.53316
#
# Velocity S-wave (km/s) = 2.76680 3.58780 3.20371
# Velocity P-wave (km/s) = 4.88966 5.91513 5.42667
#
# Compressibility (1/GPa) = 0.03183067
#
# Stress axis : x y z
#
# Youngs Moduli (GPa) = 118.45782 74.30453 58.48281
#
# Poissons Ratio (x) = 0.00156 0.24800
# Poissons Ratio (y) = 0.00249 -0.03962
# Poissons Ratio (z) = 0.50233 -0.05034
#
# Static dielectric constant tensor:
#      x y z
#    x 1.872270 0.000000 0.016450 
#    y 0.000000 1.869320 0.000000 
#    z 0.016450 0.000000 1.853250 
# 
# From -- ./inp_files/282243.got.cif
#   From: 2010.05.17/outbox.cif.g08.bks.cpg/sg12_142_cif.got.tgz:282243.got - 2010.06.03 13:09:07.
