data_PCOD9202581
_publ_section_title
;
Structure prediction by ZEFSAII (Michael W. Deem and Ramdas Pophale) SiO2 
 PCOD9202581
Probable space group: C 2/M
;
_chemical_formula_sum "Si O2"
_cell_formula_units_Z 48
_cell_length_a 24.459764
_cell_length_b 16.474802
_cell_length_c 8.830115
_cell_angle_alpha 90.000000
_cell_angle_beta 130.072425
_cell_angle_gamma 90.000000
_cell_volume 2722.899164
_symmetry_space_group_name_H-M "C 2/M"
_symmetry_group_IT_number 12
_symmetry_cell_setting 'monoclinic'
loop_
_space_group_symop_operation_xyz
x,y,z
-x,y,-z
-x,-y,-z
x,-y,z
1/2+x,1/2+y,z
1/2-x,1/2+y,-z
1/2-x,1/2-y,-z
1/2+x,1/2-y,z
loop_
_atom_site_type_symbol
_atom_site_label
_atom_site_fract_x
_atom_site_fract_y
_atom_site_fract_z
Si Si1 0.213222 0.190729 0.315002
Si Si2 0.393605 0.500000 0.196805
Si Si3 0.321403 0.331726 0.059527
Si Si4 0.067693 0.166019 0.229337
Si Si5 0.443138 0.500000 0.611112
Si Si6 0.312030 0.096599 0.274198
Si Si7 0.425191 0.769554 0.457837
O O1 0.250000 0.250000 0.500000
O O2 0.140938 0.164299 0.266833
O O3 0.270502 0.124127 0.355347
O O4 0.187700 0.224569 0.105238
O O5 0.359435 0.416422 0.079325
O O6 0.390323 0.500000 0.373521
O O7 0.475961 0.500000 0.302772
O O8 0.368598 0.289432 0.270403
O O9 0.240958 0.363236 0.947046
O O10 0.066099 0.233616 0.358466
O O11 0.064717 0.080205 0.306856
O O12 0.000000 0.176429 0.000000
O O13 0.386985 0.143061 0.398263
O O14 0.315856 0.000000 0.268184
O O15 0.500000 0.768665 0.500000
#
# Coordination Sequence:
#
# PCOD9202581 Si02
#       7
#     8   4   8   8   4   8   8
#     4  10  21  39  59  86 114 152 198 244 302 357
#     4  11  18  36  54  88 125 163 186 241 305 368
#     4  10  20  38  62  88 121 156 200 246 303 363
#     4  12  23  36  56  90 122 158 197 249 303 366
#     4  11  23  30  54  86 132 153 194 233 309 374
#     4  10  23  40  63  87 121 161 202 252 304 352
#     4  12  23  39  62  92 119 162 209 253 297 358
#
# _framework density 17.628269
#
# number of rings (size 3 to 8) (size 9 to 14) (size 15 to 20)
#    1.000    0.167    4.167    3.750    1.167    0.333 
#    0.000    0.000    0.000    1.500    0.000    0.000 
#    0.000    0.000    0.000    0.000    0.000    0.000 
#
# Total GULP energy -133660.691514 kJ/mol
# GULP energy per Si atom -5569.195480 kJ/mol
# Density = 1.758815 g / cm^3
# Si number density = 17.628269 Si / 1000 Ang^3
#
#
#
# Elastic Constant Matrix: (Units=GPa)
#
#
# Indices 1 2 3 4 5 6 
#
# 1 80.4166 50.4510 28.6768 0.0000 6.5145 0.0000
# 2 50.4510 91.4415 53.4788 0.0000 6.0649 0.0000
# 3 28.6768 53.4788 118.9023 0.0000 -6.0791 0.0000
# 4 0.0000 0.0000 0.0000 473.8911 0.0000 -104.2079
# 5 6.5145 6.0649 -6.0791 0.0000 25.7532 0.0000
# 6 0.0000 0.0000 0.0000 -104.2079 0.0000 36.5012
#
#
#
# Elastic Compliance Matrix: (Units=1/GPa)
#
#
# Indices 1 2 3 4 5 6 
#
# 1 0.019163 -0.010362 -0.000085 0.000000 -0.002427 0.000000
# 2 -0.010362 0.021144 -0.007219 0.000000 -0.004062 0.000000
# 3 -0.000085 -0.007219 0.011909 0.000000 0.004533 0.000000
# 4 0.000000 0.000000 0.000000 0.005669 0.000000 0.016186
# 5 -0.002427 -0.004062 0.004533 0.000000 0.041471 0.000000
# 6 0.000000 0.000000 0.000000 0.016186 0.000000 0.073605
#
#
# Mechanical properties :
#
#
# Convention : Reuss Voigt Hill
#
# Bulk Modulus (GPa) = 59.22511 61.77485 60.49998
# Shear Modulus (GPa) = 23.37308 117.77270 70.57289
#
# Velocity S-wave (km/s) = 3.64522 8.18254 6.33410
# Velocity P-wave (km/s) = 7.16844 11.15308 9.37490
#
# Compressibility (1/GPa) = 0.01688473
#
# Stress axis : x y z
#
# Youngs Moduli (GPa) = 52.18371 47.29455 83.96779
#
# Poissons Ratio (x) = 0.49006 0.00717
# Poissons Ratio (y) = 0.54072 0.60613
# Poissons Ratio (z) = 0.00446 0.34140
#
# Static dielectric constant tensor:
#      x y z
#    x 1.635240 0.000000 -0.012940 
#    y 0.000000 1.593700 0.000000 
#    z -0.012940 0.000000 1.643940 
# 
# From -- ./inp_files/97896.got.cif
#   From: 2010.05.17/outbox.cif.g08.bks.cpg/sg12_49_cif.got.tgz:97896.got - 2010.06.03 13:09:07.
