data_PCOD9202629
_publ_section_title
;
Structure prediction by ZEFSAII (Michael W. Deem and Ramdas Pophale) SiO2 
 PCOD9202629
Probable space group: C 2/M
;
_chemical_formula_sum "Si O2"
_cell_formula_units_Z 60
_cell_length_a 19.343077
_cell_length_b 17.407644
_cell_length_c 8.141417
_cell_angle_alpha 90.000000
_cell_angle_beta 68.880054
_cell_angle_gamma 90.000000
_cell_volume 2557.214760
_symmetry_space_group_name_H-M "C 2/M"
_symmetry_group_IT_number 12
_symmetry_cell_setting 'monoclinic'
loop_
_space_group_symop_operation_xyz
x,y,z
-x,y,-z
-x,-y,-z
x,-y,z
1/2+x,1/2+y,z
1/2-x,1/2+y,-z
1/2-x,1/2-y,-z
1/2+x,1/2-y,z
loop_
_atom_site_type_symbol
_atom_site_label
_atom_site_fract_x
_atom_site_fract_y
_atom_site_fract_z
Si Si1 0.456583 0.417785 0.713127
Si Si2 0.593494 0.787797 0.764704
Si Si3 0.779373 0.913533 0.090077
Si Si4 0.770569 0.352275 0.208580
Si Si5 0.397967 0.604888 0.226133
Si Si6 0.797835 0.000000 0.550744
Si Si7 0.815746 0.303147 0.641686
Si Si8 0.549331 0.242033 0.290287
O O1 0.500000 0.416766 0.500000
O O2 0.412692 0.500000 0.739887
O O3 0.519296 0.419192 0.798754
O O4 0.426465 0.331157 0.751917
O O5 0.641700 0.831856 0.859618
O O6 0.604574 0.696607 0.769660
O O7 0.638031 0.812440 0.563041
O O8 0.505407 0.791505 0.801970
O O9 0.864042 0.917153 0.079267
O O10 0.738590 0.872927 0.276606
O O11 0.752642 0.000000 0.090159
O O12 0.761154 0.864563 0.946824
O O13 0.749818 0.430652 0.319273
O O14 0.728856 0.277069 0.317785
O O15 0.348772 0.565769 0.409616
O O16 0.876398 0.302672 0.734406
O O17 0.500000 0.241601 0.500000
#
# Coordination Sequence:
#
# PCOD9202629 Si02
#       8
#     8   8   8   8   8   4   8   8
#     4   9  16  27  51  87 120 148 184 230 288 344
#     4  10  20  38  62  91 115 155 202 250 288 349
#     4  12  25  40  57  86 125 159 194 249 307 360
#     4  12  24  38  59  89 125 159 197 247 297 354
#     4  11  20  35  60  89 119 155 194 239 298 348
#     4  12  22  34  59  94 121 147 203 254 284 336
#     4  11  21  39  64  88 118 158 204 242 294 356
#     4   8  18  33  56  86 117 147 196 249 290 340
#
# _framework density 23.463025999999999
#
# number of rings (size 3 to 8) (size 9 to 14) (size 15 to 20)
#    0.000    1.467    4.667    2.400    0.000    0.000 
#    0.000    0.667    1.467    2.000    0.000    3.733 
#    0.000    0.000    0.000    0.000    0.000    0.000 
#
# Total GULP energy -167229.086769 kJ/mol
# GULP energy per Si atom -5574.302892 kJ/mol
# Density = 2.340962 g / cm^3
# Si number density = 23.463026 Si / 1000 Ang^3
#
#
#
# Elastic Constant Matrix: (Units=GPa)
#
#
# Indices 1 2 3 4 5 6 
#
# 1 136.2100 21.1706 17.3950 0.0000 13.3335 0.0000
# 2 21.1706 46.2046 12.8562 0.0000 -14.7688 0.0000
# 3 17.3950 12.8562 59.4265 0.0000 10.9885 0.0000
# 4 0.0000 0.0000 0.0000 7.7138 0.0000 0.4361
# 5 13.3335 -14.7688 10.9885 0.0000 35.8649 0.0000
# 6 0.0000 0.0000 0.0000 0.4361 0.0000 12.9558
#
#
#
# Elastic Compliance Matrix: (Units=1/GPa)
#
#
# Indices 1 2 3 4 5 6 
#
# 1 0.008813 -0.005717 -0.000320 0.000000 -0.005533 0.000000
# 2 -0.005717 0.032500 -0.008719 0.000000 0.018180 0.000000
# 3 -0.000320 -0.008719 0.020617 0.000000 -0.009788 0.000000
# 4 0.000000 0.000000 0.000000 0.129884 0.000000 -0.004372
# 5 -0.005533 0.018180 -0.009788 0.000000 0.040425 0.000000
# 6 0.000000 0.000000 0.000000 -0.004372 0.000000 0.077333
#
#
# Mechanical properties :
#
#
# Convention : Reuss Voigt Hill
#
# Bulk Modulus (GPa) = 30.84758 38.29831 34.57295
# Shear Modulus (GPa) = 14.29023 24.00152 19.14587
#
# Velocity S-wave (km/s) = 2.47058 3.20183 2.85967
# Velocity P-wave (km/s) = 4.61673 5.47971 5.06663
#
# Compressibility (1/GPa) = 0.03241745
#
# Stress axis : x y z
#
# Youngs Moduli (GPa) = 113.47309 30.76956 48.50293
#
# Poissons Ratio (x) = 0.17592 0.01550
# Poissons Ratio (y) = 0.64878 0.42290
# Poissons Ratio (z) = 0.03627 0.26828
#
# Static dielectric constant tensor:
#      x y z
#    x 1.958470 0.000000 0.032500 
#    y 0.000000 1.817660 0.000000 
#    z 0.032500 0.000000 2.007340 
# 
# From -- ./inp_files/87932.got.cif
#   From: 2010.05.17/outbox.cif.g08.bks.cpg/sg12_44_cif.got.tgz:87932.got - 2010.06.03 13:09:07.
