data_PCOD9202641
_publ_section_title
;
Structure prediction by ZEFSAII (Michael W. Deem and Ramdas Pophale) SiO2 
 PCOD9202641
Probable space group: C 2/M
;
_chemical_formula_sum "Si O2"
_cell_formula_units_Z 36
_cell_length_a 5.200654
_cell_length_b 29.478930
_cell_length_c 11.244318
_cell_angle_alpha 90.000000
_cell_angle_beta 76.897867
_cell_angle_gamma 90.000000
_cell_volume 1678.986772
_symmetry_space_group_name_H-M "C 2/M"
_symmetry_group_IT_number 12
_symmetry_cell_setting 'monoclinic'
loop_
_space_group_symop_operation_xyz
x,y,z
-x,y,-z
-x,-y,-z
x,-y,z
1/2+x,1/2+y,z
1/2-x,1/2+y,-z
1/2-x,1/2-y,-z
1/2+x,1/2-y,z
loop_
_atom_site_type_symbol
_atom_site_label
_atom_site_fract_x
_atom_site_fract_y
_atom_site_fract_z
Si Si1 0.788956 0.000000 0.413144
Si Si2 0.255209 0.366446 0.757690
Si Si3 0.705102 0.269192 0.139812
Si Si4 0.791420 0.047963 0.916056
Si Si5 0.797277 0.397160 0.631978
O O1 0.500000 0.000000 0.500000
O O2 0.787706 0.049404 0.348829
O O3 0.000000 0.000000 0.500000
O O4 0.226910 0.320696 0.837272
O O5 0.316772 0.407186 0.839651
O O6 0.525081 0.368326 0.650368
O O7 0.983522 0.379105 0.719272
O O8 0.399972 0.261080 0.197255
O O9 0.750000 0.250000 0.000000
O O10 0.819019 0.000000 0.844729
O O11 0.500000 0.048133 0.000000
O O12 0.000000 0.048132 0.000000
O O13 0.000000 0.394063 0.500000
#
# Coordination Sequence:
#
# PCOD9202641 Si02
#       5
#     4   8   8   8   8
#     4  10  20  38  62  92 134 180 224 274 308 350
#     4  12  24  39  71  94 128 181 220 269 343 388
#     4  10  23  41  66  94 126 158 214 289 337 397
#     4  10  23  39  58  89 135 173 214 262 322 406
#     4  11  24  41  64  97 138 177 226 269 315 391
#
# _framework density 21.441503000000001
#
# number of rings (size 3 to 8) (size 9 to 14) (size 15 to 20)
#    0.000    1.333    0.000    6.000    9.333    0.000 
#    0.000    0.000    0.000   13.333    0.000    0.000 
#    0.000    0.000    0.000    0.000    0.000    0.000 
#
# Total GULP energy -100362.363353 kJ/mol
# GULP energy per Si atom -5575.686853 kJ/mol
# Density = 2.139270 g / cm^3
# Si number density = 21.441503 Si / 1000 Ang^3
#
#
#
# Elastic Constant Matrix: (Units=GPa)
#
#
# Indices 1 2 3 4 5 6 
#
# 1 180.3432 34.4198 16.6156 0.0000 14.5198 0.0000
# 2 34.4198 160.5116 50.1706 0.0000 29.6213 0.0000
# 3 16.6156 50.1706 45.9424 0.0000 -1.0662 0.0000
# 4 0.0000 0.0000 0.0000 35.2974 0.0000 5.2151
# 5 14.5198 29.6213 -1.0662 0.0000 30.9654 0.0000
# 6 0.0000 0.0000 0.0000 5.2151 0.0000 35.8683
#
#
#
# Elastic Compliance Matrix: (Units=1/GPa)
#
#
# Indices 1 2 3 4 5 6 
#
# 1 0.005984 -0.000115 -0.002103 0.000000 -0.002768 0.000000
# 2 -0.000115 0.013319 -0.014810 0.000000 -0.013197 0.000000
# 3 -0.002103 -0.014810 0.039082 0.000000 0.016498 0.000000
# 4 0.000000 0.000000 0.000000 0.028953 0.000000 -0.004210
# 5 -0.002768 -0.013197 0.016498 0.000000 0.046784 0.000000
# 6 0.000000 0.000000 0.000000 -0.004210 0.000000 0.028492
#
#
# Mechanical properties :
#
#
# Convention : Reuss Voigt Hill
#
# Bulk Modulus (GPa) = 41.10086 65.46770 53.28428
# Shear Modulus (GPa) = 24.41668 39.46565 31.94116
#
# Velocity S-wave (km/s) = 3.37821 4.29490 3.86384
# Velocity P-wave (km/s) = 5.86744 7.42929 6.69407
#
# Compressibility (1/GPa) = 0.02433039
#
# Stress axis : x y z
#
# Youngs Moduli (GPa) = 167.12563 75.07998 25.58713
#
# Poissons Ratio (x) = 0.00864 0.05380
# Poissons Ratio (y) = 0.01923 0.37893
# Poissons Ratio (z) = 0.35139 1.11190
#
# Static dielectric constant tensor:
#      x y z
#    x 1.811720 0.000000 -0.044970 
#    y 0.000000 1.774760 0.000000 
#    z -0.044970 0.000000 1.825150 
# 
# From -- ./inp_files/115330.got.cif
#   From: 2010.05.17/outbox.cif.g08.bks.cpg/sg12_58_cif.got.tgz:115330.got - 2010.06.03 13:09:07.
