data_PCOD9202390
_publ_section_title
;
Structure prediction by ZEFSAII (Michael W. Deem and Ramdas Pophale) SiO2 
 PCOD9202390
Probable space group: C 2/M
;
_chemical_formula_sum "Si O2"
_cell_formula_units_Z 64
_cell_length_a 29.237487
_cell_length_b 9.394316
_cell_length_c 11.895819
_cell_angle_alpha 90.000000
_cell_angle_beta 98.454189
_cell_angle_gamma 90.000000
_cell_volume 3231.875074
_symmetry_space_group_name_H-M "C 2/M"
_symmetry_group_IT_number 12
_symmetry_cell_setting 'monoclinic'
loop_
_space_group_symop_operation_xyz
x,y,z
-x,y,-z
-x,-y,-z
x,-y,z
1/2+x,1/2+y,z
1/2-x,1/2+y,-z
1/2-x,1/2-y,-z
1/2+x,1/2-y,z
loop_
_atom_site_type_symbol
_atom_site_label
_atom_site_fract_x
_atom_site_fract_y
_atom_site_fract_z
Si Si1 0.194069 0.830854 0.683792
Si Si2 0.789434 0.335257 0.081403
Si Si3 0.030070 0.667352 0.397390
Si Si4 0.571018 0.338230 0.042971
Si Si5 0.707211 0.166139 0.353857
Si Si6 0.515679 0.334110 0.819739
Si Si7 0.652865 0.155824 0.115670
Si Si8 0.627674 0.330031 0.460440
O O1 0.196711 0.741116 0.798365
O O2 0.238904 0.791805 0.622985
O O3 0.147834 0.810635 0.594156
O O4 0.198826 0.000000 0.710285
O O5 0.775606 0.500000 0.096338
O O6 0.750000 0.250000 0.000000
O O7 0.830810 0.335870 0.006250
O O8 0.039018 0.500000 0.378171
O O9 0.998990 0.738375 0.289116
O O10 0.078838 0.751386 0.424799
O O11 0.000000 0.678612 0.500000
O O12 0.583162 0.500000 0.023316
O O13 0.527970 0.336378 0.111487
O O14 0.613207 0.267101 0.119886
O O15 0.556311 0.276928 0.916045
O O16 0.695040 0.173204 0.216351
O O17 0.668263 0.260950 0.398915
O O18 0.702742 0.000000 0.388067
O O19 0.524526 0.500000 0.790342
O O20 0.633066 0.000000 0.131434
O O21 0.623462 0.500000 0.437605
#
# Coordination Sequence:
#
# PCOD9202390 Si02
#       8
#     8   8   8   8   8   8   8   8
#     4  10  22  41  61  86 122 159 199 246 294 346
#     4  11  22  38  58  81 114 155 197 238 285 341
#     4  11  25  43  62  84 115 155 198 244 296 355
#     4   9  19  35  57  87 118 147 184 237 290 345
#     4  10  20  38  61  85 123 161 195 243 292 345
#     4   9  19  38  61  85 115 147 186 237 293 346
#     4  10  21  35  54  83 118 155 192 236 286 338
#     4  11  24  40  62  91 119 152 198 248 297 352
#
# _framework density 19.802745999999999
#
# number of rings (size 3 to 8) (size 9 to 14) (size 15 to 20)
#    0.000    1.875    1.250    3.000    0.000    8.000 
#    0.000    6.250    0.000    0.000    0.000    0.000 
#    0.000    0.000    0.000    0.000    0.000    0.000 
#
# Total GULP energy -178525.556225 kJ/mol
# GULP energy per Si atom -5578.923632 kJ/mol
# Density = 1.975767 g / cm^3
# Si number density = 19.802746 Si / 1000 Ang^3
#
#
#
# Elastic Constant Matrix: (Units=GPa)
#
#
# Indices 1 2 3 4 5 6 
#
# 1 30.9266 6.9804 -10.9960 0.0000 10.7758 0.0000
# 2 6.9804 69.0700 34.1755 0.0000 2.7398 0.0000
# 3 -10.9960 34.1755 82.2305 0.0000 6.6421 0.0000
# 4 0.0000 0.0000 0.0000 24.7621 0.0000 -2.6841
# 5 10.7758 2.7398 6.6421 0.0000 21.9276 0.0000
# 6 0.0000 0.0000 0.0000 -2.6841 0.0000 15.7534
#
#
#
# Elastic Compliance Matrix: (Units=1/GPa)
#
#
# Indices 1 2 3 4 5 6 
#
# 1 0.048403 -0.010200 0.012844 0.000000 -0.026403 0.000000
# 2 -0.010200 0.020375 -0.010283 0.000000 0.005581 0.000000
# 3 0.012844 -0.010283 0.019024 0.000000 -0.010790 0.000000
# 4 0.000000 0.000000 0.000000 0.041144 0.000000 0.007010
# 5 -0.026403 0.005581 -0.010790 0.000000 0.061151 0.000000
# 6 0.000000 0.000000 0.000000 0.007010 0.000000 0.064673
#
#
# Mechanical properties :
#
#
# Convention : Reuss Voigt Hill
#
# Bulk Modulus (GPa) = 13.78823 26.94967 20.36895
# Shear Modulus (GPa) = 16.99397 22.62643 19.81020
#
# Velocity S-wave (km/s) = 2.93262 3.38389 3.16630
# Velocity P-wave (km/s) = 4.29475 5.37645 4.86575
#
# Compressibility (1/GPa) = 0.07252560
#
# Stress axis : x y z
#
# Youngs Moduli (GPa) = 20.65978 49.07873 52.56606
#
# Poissons Ratio (x) = 0.50059 -0.67518
# Poissons Ratio (y) = 0.21073 0.54053
# Poissons Ratio (z) = -0.26536 0.50467
#
# Static dielectric constant tensor:
#      x y z
#    x 1.491420 0.000000 -0.154340 
#    y 0.000000 1.689210 0.000000 
#    z -0.154340 0.000000 1.599810 
# 
# From -- ./inp_files/187411.got.cif
#   From: 2010.05.17/outbox.cif.g08.bks.cpg/sg12_94_cif.got.tgz:187411.got - 2010.06.03 13:09:07.
