data_PCOD9202984
_publ_section_title
;
Structure prediction by ZEFSAII (Michael W. Deem and Ramdas Pophale) SiO2 
 PCOD9202984
Probable space group: C 2/M
;
_chemical_formula_sum "Si O2"
_cell_formula_units_Z 40
_cell_length_a 14.695585
_cell_length_b 17.989304
_cell_length_c 21.224838
_cell_angle_alpha 90.000000
_cell_angle_beta 20.663876
_cell_angle_gamma 90.000000
_cell_volume 1980.062108
_symmetry_space_group_name_H-M "C 2/M"
_symmetry_group_IT_number 12
_symmetry_cell_setting 'monoclinic'
loop_
_space_group_symop_operation_xyz
x,y,z
-x,y,-z
-x,-y,-z
x,-y,z
1/2+x,1/2+y,z
1/2-x,1/2+y,-z
1/2-x,1/2-y,-z
1/2+x,1/2-y,z
loop_
_atom_site_type_symbol
_atom_site_label
_atom_site_fract_x
_atom_site_fract_y
_atom_site_fract_z
Si Si1 0.962979 0.309879 0.095247
Si Si2 0.108782 0.586009 0.577092
Si Si3 0.769966 0.666522 0.698899
Si Si4 0.933070 0.083943 0.822647
Si Si5 0.488891 0.588264 0.432588
O O1 0.892660 0.240321 0.184060
O O2 0.720469 0.365613 0.253013
O O3 0.000000 0.283321 0.000000
O O4 0.209865 0.356476 0.957158
O O5 0.020715 0.500000 0.636778
O O6 0.358292 0.587828 0.369091
O O7 0.220042 0.609521 0.572929
O O8 0.898547 0.637426 0.680051
O O9 0.592895 0.603832 0.781730
O O10 0.000000 0.681648 0.500000
O O11 0.828914 0.000000 0.892280
O O12 0.500000 0.600814 0.500000
O O13 0.520908 0.500000 0.400242
#
# Coordination Sequence:
#
# PCOD9202984 Si02
#       5
#     8   8   8   8   8
#     4  12  23  38  58  89 125 161 188 241 300 355
#     4   9  18  37  64  88 113 152 204 249 288 343
#     4  10  22  40  60  89 119 157 196 241 294 353
#     4  10  20  38  65  90 115 151 201 250 292 343
#     4  10  21  38  60  88 118 156 203 247 291 343
#
# _framework density 20.201387
#
# number of rings (size 3 to 8) (size 9 to 14) (size 15 to 20)
#    0.000    1.800    2.000    2.400    0.000    4.000 
#    7.200    0.000    0.000    1.200    0.000    0.000 
#    0.000    0.000    0.000    0.000    0.000    0.000 
#
# Total GULP energy -111729.970363 kJ/mol
# GULP energy per Si atom -5586.498518 kJ/mol
# Density = 2.015541 g / cm^3
# Si number density = 20.201387 Si / 1000 Ang^3
#
#
#
# Elastic Constant Matrix: (Units=GPa)
#
#
# Indices 1 2 3 4 5 6 
#
# 1 121.4592 30.0017 3.5829 0.1669 -10.3737 -4.1365
# 2 30.0017 70.3106 26.7937 0.4857 -7.4747 -11.9033
# 3 3.5829 26.7937 25.4469 1.5138 -7.0765 -37.5421
# 4 0.1669 0.4857 1.5138 17.4358 -0.4644 119.4804
# 5 -10.3737 -7.4747 -7.0765 -0.4644 21.5319 9.9719
# 6 -4.1365 -11.9033 -37.5421 119.4804 9.9719-2675.0108
#
#
#
# Elastic Compliance Matrix: (Units=1/GPa)
#
#
# Indices 1 2 3 4 5 6 
#
# 1 0.009977 -0.006175 0.006337 0.000045 0.004774 -0.000057
# 2 -0.006175 0.027419 -0.028408 -0.000155 -0.002921 0.000268
# 3 0.006337 -0.028408 0.071881 0.000476 0.017200 -0.000807
# 4 0.000045 -0.000155 0.000476 0.043916 0.000165 0.001956
# 5 0.004774 -0.002921 0.017200 0.000165 0.053399 -0.000029
# 6 -0.000057 0.000268 -0.000807 0.001956 -0.000029 -0.000276
#
#
# Mechanical properties :
#
#
# Convention : Reuss Voigt Hill
#
# Bulk Modulus (GPa) = 18.94407 37.55259 28.24833
# Shear Modulus (GPa) = 17.83156 -516.75274 -249.46059
#
# Velocity S-wave (km/s) = 2.97423 -16.01112 -11.12452
# Velocity P-wave (km/s) = 4.60355 17.97716 12.28792
#
# Compressibility (1/GPa) = 0.05278697
#
# Stress axis : x y z
#
# Youngs Moduli (GPa) = 100.22829 36.47105 13.91186
#
# Poissons Ratio (x) = 0.22520 -0.08817
# Poissons Ratio (y) = 0.61890 0.39521
# Poissons Ratio (z) = -0.63520 1.03606
#
# Static dielectric constant tensor:
#      x y z
#    x 1.751980 -0.000020 0.013780 
#    y -0.000020 1.680190 0.000060 
#    z 0.013780 0.000060 1.694320 
# 
# From -- ./inp_files/60847.got.cif
#   From: 2010.05.17/outbox.cif.g08.bks.cpg/sg12_31_cif.got.tgz:60847.got - 2010.06.03 13:09:07.
