data_PCOD9202250
_publ_section_title
;
Structure prediction by ZEFSAII (Michael W. Deem and Ramdas Pophale) SiO2 
 PCOD9202250
Probable space group: C 2/M
;
_chemical_formula_sum "Si O2"
_cell_formula_units_Z 64
_cell_length_a 30.514552
_cell_length_b 8.864870
_cell_length_c 11.965757
_cell_angle_alpha 90.000000
_cell_angle_beta 93.330918
_cell_angle_gamma 90.000000
_cell_volume 3231.359181
_symmetry_space_group_name_H-M "C 2/M"
_symmetry_group_IT_number 12
_symmetry_cell_setting 'monoclinic'
loop_
_space_group_symop_operation_xyz
x,y,z
-x,y,-z
-x,-y,-z
x,-y,z
1/2+x,1/2+y,z
1/2-x,1/2+y,-z
1/2-x,1/2-y,-z
1/2+x,1/2-y,z
loop_
_atom_site_type_symbol
_atom_site_label
_atom_site_fract_x
_atom_site_fract_y
_atom_site_fract_z
Si Si1 0.592232 0.818908 0.270169
Si Si2 0.244962 0.174119 0.280472
Si Si3 0.422506 0.681986 0.204899
Si Si4 0.110872 0.680461 0.016564
Si Si5 0.829024 0.183154 0.574009
Si Si6 0.705308 0.325555 0.036970
Si Si7 0.006045 0.817897 0.370600
Si Si8 0.165319 0.180782 0.682662
O O1 0.596613 0.775619 0.140092
O O2 0.632808 0.750941 0.344742
O O3 0.548237 0.756986 0.320655
O O4 0.593345 0.000000 0.276246
O O5 0.217818 0.232083 0.382544
O O6 0.211651 0.178759 0.171793
O O7 0.288927 0.263634 0.260683
O O8 0.257456 0.000000 0.300384
O O9 0.421478 0.500000 0.194368
O O10 0.463487 0.720618 0.289811
O O11 0.377732 0.733476 0.259219
O O12 0.421357 0.753659 0.082202
O O13 0.111944 0.500000 0.010023
O O14 0.159966 0.743703 0.001519
O O15 0.835113 0.229020 0.446827
O O16 0.830556 0.000000 0.580881
O O17 0.703114 0.500000 0.000165
O O18 0.750000 0.250000 0.000000
O O19 0.000000 0.774414 0.500000
O O20 0.011339 0.000000 0.369514
O O21 0.164681 0.000000 0.684287
#
# Coordination Sequence:
#
# PCOD9202250 Si02
#       8
#     8   8   8   8   8   8   8   8
#     4  11  24  40  62  92 123 158 203 254 308 360
#     4  10  21  35  54  83 117 155 200 245 297 359
#     4  10  22  40  62  90 119 155 201 246 299 361
#     4  11  24  41  60  86 122 163 204 250 303 357
#     4  10  20  38  60  84 118 159 201 247 300 360
#     4  11  22  37  58  85 118 160 209 256 302 357
#     4  10  22  43  70  96 123 157 199 245 301 369
#     4  10  21  36  58  86 118 155 197 248 302 358
#
# _framework density 19.805904999999999
#
# number of rings (size 3 to 8) (size 9 to 14) (size 15 to 20)
#    0.000    1.625    1.250    3.000    0.000    9.250 
#    0.000    3.750    0.000    0.000    0.000    0.000 
#    0.000    0.000    0.000    0.000    0.000    0.000 
#
# Total GULP energy -178836.799897 kJ/mol
# GULP energy per Si atom -5588.649997 kJ/mol
# Density = 1.976083 g / cm^3
# Si number density = 19.805905 Si / 1000 Ang^3
#
#
#
# Elastic Constant Matrix: (Units=GPa)
#
#
# Indices 1 2 3 4 5 6 
#
# 1 105.0977 20.7715 30.7923 0.0000 2.8132 0.0000
# 2 20.7715 21.5631 18.7542 0.0000 2.5315 0.0000
# 3 30.7923 18.7542 87.8554 0.0000 9.4823 0.0000
# 4 0.0000 0.0000 0.0000 26.5870 0.0000 -1.9183
# 5 2.8132 2.5315 9.4823 0.0000 35.9565 0.0000
# 6 0.0000 0.0000 0.0000 -1.9183 0.0000 22.3732
#
#
#
# Elastic Compliance Matrix: (Units=1/GPa)
#
#
# Indices 1 2 3 4 5 6 
#
# 1 0.012077 -0.009775 -0.002181 0.000000 0.000318 0.000000
# 2 -0.009775 0.064883 -0.010307 0.000000 -0.001085 0.000000
# 3 -0.002181 -0.010307 0.014668 0.000000 -0.002972 0.000000
# 4 0.000000 0.000000 0.000000 0.037847 0.000000 0.003245
# 5 0.000318 -0.001085 -0.002972 0.000000 0.028647 0.000000
# 6 0.000000 0.000000 0.000000 0.003245 0.000000 0.044975
#
#
# Mechanical properties :
#
#
# Convention : Reuss Voigt Hill
#
# Bulk Modulus (GPa) = 21.23013 39.46135 30.34574
# Shear Modulus (GPa) = 18.98812 26.59655 22.79234
#
# Velocity S-wave (km/s) = 3.09966 3.66848 3.39600
# Velocity P-wave (km/s) = 4.85313 6.15719 5.54364
#
# Compressibility (1/GPa) = 0.04710287
#
# Stress axis : x y z
#
# Youngs Moduli (GPa) = 82.80055 15.41224 68.17700
#
# Poissons Ratio (x) = 0.15065 0.14868
# Poissons Ratio (y) = 0.80934 0.70273
# Poissons Ratio (z) = 0.18057 0.15886
#
# Static dielectric constant tensor:
#      x y z
#    x 1.661550 0.000000 -0.008110 
#    y 0.000000 1.672010 0.000000 
#    z -0.008110 0.000000 1.721060 
# 
# From -- ./inp_files/187535.got.cif
#   From: 2010.05.17/outbox.cif.g08.bks.cpg/sg12_94_cif.got.tgz:187535.got - 2010.06.03 13:09:07.
