data_PCOD9202711
_publ_section_title
;
Structure prediction by ZEFSAII (Michael W. Deem and Ramdas Pophale) SiO2 
 PCOD9202711
Probable space group: C 2/M
;
_chemical_formula_sum "Si O2"
_cell_formula_units_Z 58
_cell_length_a 15.185161
_cell_length_b 21.782469
_cell_length_c 18.375473
_cell_angle_alpha 90.000000
_cell_angle_beta 152.887838
_cell_angle_gamma 90.000000
_cell_volume 2769.978060
_symmetry_space_group_name_H-M "C 2/M"
_symmetry_group_IT_number 12
_symmetry_cell_setting 'monoclinic'
loop_
_space_group_symop_operation_xyz
x,y,z
-x,y,-z
-x,-y,-z
x,-y,z
1/2+x,1/2+y,z
1/2-x,1/2+y,-z
1/2-x,1/2-y,-z
1/2+x,1/2-y,z
loop_
_atom_site_type_symbol
_atom_site_label
_atom_site_fract_x
_atom_site_fract_y
_atom_site_fract_z
Si Si1 0.629918 0.262022 0.838070
Si Si2 0.232880 0.314529 0.606653
Si Si3 0.066877 0.365251 0.349501
Si Si4 0.685382 0.676469 0.595665
Si Si5 0.939682 0.647054 0.032996
Si Si6 0.585147 0.622541 0.132579
Si Si7 0.500000 0.500000 0.000000
Si Si8 0.768266 0.428826 0.038829
O O1 0.439256 0.299619 0.720053
O O2 0.557440 0.197260 0.754402
O O3 0.750000 0.250000 0.000000
O O4 0.778393 0.300936 0.899452
O O5 0.128574 0.362892 0.477868
O O6 0.140951 0.246842 0.541628
O O7 0.261195 0.340356 0.708229
O O8 0.249231 0.357846 0.429507
O O9 0.936669 0.419213 0.222227
O O10 0.500000 0.650020 0.500000
O O11 0.873838 0.673991 0.786887
O O12 0.843609 0.599659 0.019150
O O13 0.000000 0.620003 0.000000
O O14 0.500000 0.658291 0.000000
O O15 0.632299 0.555694 0.133768
O O16 0.413784 0.607512 0.063341
O O17 0.716454 0.500000 0.995959
#
# Coordination Sequence:
#
# PCOD9202711 Si02
#       8
#     8   8   8   8   8   8   2   8
#     4  11  17  39  61  88 123 158 207 248 312 370
#     4  11  21  36  59  90 121 160 196 247 313 384
#     4  10  23  37  60  87 124 168 199 255 313 373
#     4  10  22  36  53  87 129 160 192 245 313 370
#     4  11  24  36  63  95 119 164 206 257 300 367
#     4  10  20  38  63  88 115 154 206 257 307 362
#     4   8  20  40  60  86 118 152 204 266 312 346
#     4  11  21  43  64  84 122 167 210 263 307 355
#
# _framework density 20.938794000000001
#
# number of rings (size 3 to 8) (size 9 to 14) (size 15 to 20)
#    0.414    1.103    6.207    1.655    3.862    1.931 
#    1.241    0.000    0.000    8.276    0.000    0.000 
#    0.000    0.000    0.000    0.000    0.000    0.000 
#
# Total GULP energy -161669.910655 kJ/mol
# GULP energy per Si atom -5574.824505 kJ/mol
# Density = 2.089114 g / cm^3
# Si number density = 20.938794 Si / 1000 Ang^3
#
#
#
# Elastic Constant Matrix: (Units=GPa)
#
#
# Indices 1 2 3 4 5 6 
#
# 1 110.3532 4.5792 22.4406 -0.0099 0.9899 -0.0036
# 2 4.5792 32.3714 -7.9729 0.0244 0.0358 -0.0053
# 3 22.4406 -7.9729 28.4522 0.0258 -5.5109 -0.0052
# 4 -0.0099 0.0244 0.0258 3.0523 -0.0035 0.2796
# 5 0.9899 0.0358 -5.5109 -0.0035 45.4113 -0.0009
# 6 -0.0036 -0.0053 -0.0052 0.2796 -0.0009 11.8138
#
#
#
# Elastic Compliance Matrix: (Units=1/GPa)
#
#
# Indices 1 2 3 4 5 6 
#
# 1 0.011370 -0.004176 -0.010430 0.000158 -0.001510 -0.000007
# 2 -0.004176 0.034772 0.013364 -0.000406 0.001685 0.000030
# 3 -0.010430 0.013364 0.048296 -0.000546 0.006078 0.000037
# 4 0.000158 -0.000406 -0.000546 0.328338 -0.000044 -0.007770
# 5 -0.001510 0.001685 0.006078 -0.000044 0.022790 0.000006
# 6 -0.000007 0.000030 0.000037 -0.007770 0.000006 0.084831
#
#
# Mechanical properties :
#
#
# Convention : Reuss Voigt Hill
#
# Bulk Modulus (GPa) = 10.87505 23.25231 17.06368
# Shear Modulus (GPa) = 8.87263 22.19749 15.53506
#
# Velocity S-wave (km/s) = 2.06073 3.25947 2.72679
# Velocity P-wave (km/s) = 3.29654 5.02937 4.25216
#
# Compressibility (1/GPa) = 0.09195360
#
# Stress axis : x y z
#
# Youngs Moduli (GPa) = 87.95351 28.75874 20.70585
#
# Poissons Ratio (x) = 0.12009 0.21597
# Poissons Ratio (y) = 0.36726 -0.27671
# Poissons Ratio (z) = 0.91737 -0.38433
#
# Static dielectric constant tensor:
#      x y z
#    x 1.837410 0.000000 0.012480 
#    y 0.000000 1.725570 0.000000 
#    z 0.012480 0.000000 1.794930 
# 
# From -- ./inp_files/272722.got.cif
#   From: 2010.05.17/outbox.cif.g08.bks.cpg/sg12_137_cif.got.tgz:272722.got - 2010.06.03 13:09:07.
