data_PCOD9202561
_publ_section_title
;
Structure prediction by ZEFSAII (Michael W. Deem and Ramdas Pophale) SiO2 
 PCOD9202561
Probable space group: C 2/M
;
_chemical_formula_sum "Si O2"
_cell_formula_units_Z 48
_cell_length_a 8.818835
_cell_length_b 31.543011
_cell_length_c 15.962690
_cell_angle_alpha 90.000000
_cell_angle_beta 145.290637
_cell_angle_gamma 90.000000
_cell_volume 2528.415728
_symmetry_space_group_name_H-M "C 2/M"
_symmetry_group_IT_number 12
_symmetry_cell_setting 'monoclinic'
loop_
_space_group_symop_operation_xyz
x,y,z
-x,y,-z
-x,-y,-z
x,-y,z
1/2+x,1/2+y,z
1/2-x,1/2+y,-z
1/2-x,1/2-y,-z
1/2+x,1/2-y,z
loop_
_atom_site_type_symbol
_atom_site_label
_atom_site_fract_x
_atom_site_fract_y
_atom_site_fract_z
Si Si1 0.876757 0.630657 0.314446
Si Si2 0.935763 0.872902 0.662273
Si Si3 0.140484 0.950993 0.654235
Si Si4 0.310839 0.209976 0.163177
Si Si5 0.700479 0.048008 0.829031
Si Si6 0.830058 0.703383 0.837514
O O1 0.640035 0.632108 0.274794
O O2 0.865910 0.668793 0.243650
O O3 0.853111 0.585163 0.260181
O O4 0.159181 0.633898 0.488458
O O5 0.042908 0.918308 0.679822
O O6 0.149286 0.837143 0.737878
O O7 0.459580 0.947933 0.786359
O O8 0.000000 0.941114 0.500000
O O9 0.073438 0.000000 0.642973
O O10 0.345758 0.254385 0.227646
O O11 0.477249 0.210404 0.153521
O O12 0.000000 0.208529 0.000000
O O13 0.676549 0.000000 0.783511
O O14 0.000000 0.052623 0.000000
O O15 0.000000 0.696768 0.000000
#
# Coordination Sequence:
#
# PCOD9202561 Si02
#       6
#     8   8   8   8   8   8
#     4  11  23  39  59  88 122 162 203 253 302 365
#     4  11  24  38  59  89 122 156 207 251 304 362
#     4  10  20  38  62  87 119 159 204 248 299 360
#     4  11  22  40  64  86 120 159 201 249 307 363
#     4  10  21  38  61  89 121 159 205 253 306 363
#     4  11  23  40  63  89 119 157 202 251 303 366
#
# _framework density 18.984221000000002
#
# number of rings (size 3 to 8) (size 9 to 14) (size 15 to 20)
#    0.000    1.333    1.667    5.500    0.000    2.667 
#    0.000    1.667    0.000    3.500    0.000    0.000 
#    0.000    0.000    0.000    0.000    0.000    0.000 
#
# Total GULP energy -134037.079599 kJ/mol
# GULP energy per Si atom -5584.878317 kJ/mol
# Density = 1.894101 g / cm^3
# Si number density = 18.984221 Si / 1000 Ang^3
#
#
#
# Elastic Constant Matrix: (Units=GPa)
#
#
# Indices 1 2 3 4 5 6 
#
# 1 147.5285 67.6347 28.0731 0.0000 14.3044 0.0000
# 2 67.6347 119.4762 31.8457 0.0000 -2.8157 0.0000
# 3 28.0731 31.8457 53.2016 0.0000 13.4444 0.0000
# 4 0.0000 0.0000 0.0000 23.5389 0.0000 3.0491
# 5 14.3044 -2.8157 13.4444 0.0000 28.6465 0.0000
# 6 0.0000 0.0000 0.0000 3.0491 0.0000 45.7287
#
#
#
# Elastic Compliance Matrix: (Units=1/GPa)
#
#
# Indices 1 2 3 4 5 6 
#
# 1 0.009973 -0.005618 -0.000569 0.000000 -0.005265 0.000000
# 2 -0.005618 0.013610 -0.007067 0.000000 0.007460 0.000000
# 3 -0.000569 -0.007067 0.026584 0.000000 -0.012887 0.000000
# 4 0.000000 0.000000 0.000000 0.042853 0.000000 -0.002857
# 5 -0.005265 0.007460 -0.012887 0.000000 0.044318 0.000000
# 6 0.000000 0.000000 0.000000 -0.002857 0.000000 0.022059
#
#
# Mechanical properties :
#
#
# Convention : Reuss Voigt Hill
#
# Bulk Modulus (GPa) = 42.26986 63.92371 53.09679
# Shear Modulus (GPa) = 25.80111 32.42633 29.11372
#
# Velocity S-wave (km/s) = 3.69057 4.13736 3.92034
# Velocity P-wave (km/s) = 6.36196 7.52122 6.96575
#
# Compressibility (1/GPa) = 0.02365752
#
# Stress axis : x y z
#
# Youngs Moduli (GPa) = 100.27443 73.47741 37.61716
#
# Poissons Ratio (x) = 0.41278 0.02141
# Poissons Ratio (y) = 0.56332 0.26585
# Poissons Ratio (z) = 0.05707 0.51928
#
# Static dielectric constant tensor:
#      x y z
#    x 1.659400 0.000000 0.002880 
#    y 0.000000 1.659920 0.000000 
#    z 0.002880 0.000000 1.648360 
# 
# From -- ./inp_files/170834.got.cif
#   From: 2010.05.17/outbox.cif.g08.bks.cpg/sg12_86_cif.got.tgz:170834.got - 2010.06.03 13:09:07.
