data_PCOD9202176
_publ_section_title
;
Structure prediction by ZEFSAII (Michael W. Deem and Ramdas Pophale) SiO2 
 PCOD9202176
Probable space group: C 2/M
;
_chemical_formula_sum "Si O2"
_cell_formula_units_Z 32
_cell_length_a 11.325446
_cell_length_b 18.944855
_cell_length_c 9.765322
_cell_angle_alpha 90.000000
_cell_angle_beta 138.984367
_cell_angle_gamma 90.000000
_cell_volume 1375.030593
_symmetry_space_group_name_H-M "C 2/M"
_symmetry_group_IT_number 12
_symmetry_cell_setting 'monoclinic'
loop_
_space_group_symop_operation_xyz
x,y,z
-x,y,-z
-x,-y,-z
x,-y,z
1/2+x,1/2+y,z
1/2-x,1/2+y,-z
1/2-x,1/2-y,-z
1/2+x,1/2-y,z
loop_
_atom_site_type_symbol
_atom_site_label
_atom_site_fract_x
_atom_site_fract_y
_atom_site_fract_z
Si Si1 0.099178 0.422500 0.943369
Si Si2 0.155866 0.201233 0.754222
Si Si3 0.658610 0.916570 0.528427
Si Si4 0.621421 0.280748 0.271485
O O1 0.160507 0.500000 0.948271
O O2 0.944729 0.398825 0.702999
O O3 0.261581 0.370992 0.116815
O O4 0.000000 0.428899 0.000000
O O5 0.310736 0.244377 0.808888
O O6 0.000000 0.191307 0.500000
O O7 0.064401 0.232452 0.811112
O O8 0.500000 0.904052 0.500000
O O9 0.824553 0.863580 0.695601
O O10 0.706052 0.000000 0.571170
O O11 0.750000 0.250000 0.500000
#
# Coordination Sequence:
#
# PCOD9202176 Si02
#       4
#     8   8   8   8
#     4  10  21  38  62  92 123 158 202 251 307 365
#     4  10  21  38  60  89 126 161 200 252 305 364
#     4  10  21  40  64  87 120 164 206 250 301 362
#     4  10  20  38  59  86 123 160 200 246 302 361
#
# _framework density 23.272207999999999
#
# number of rings (size 3 to 8) (size 9 to 14) (size 15 to 20)
#    0.000    2.000    0.000    5.250    0.000    1.500 
#    0.000   26.250    0.000    4.500    0.000    0.000 
#    0.000    0.000    0.000    0.000    0.000    0.000 
#
# Total GULP energy -89331.138741 kJ/mol
# GULP energy per Si atom -5583.196171 kJ/mol
# Density = 2.321924 g / cm^3
# Si number density = 23.272208 Si / 1000 Ang^3
#
#
#
# Elastic Constant Matrix: (Units=GPa)
#
#
# Indices 1 2 3 4 5 6 
#
# 1 154.4364 37.9384 41.8282 0.0000 10.0634 0.0000
# 2 37.9384 120.4391 25.5537 0.0000 18.0153 0.0000
# 3 41.8282 25.5537 72.6223 0.0000 2.3491 0.0000
# 4 0.0000 0.0000 0.0000 27.0726 0.0000 13.5366
# 5 10.0634 18.0153 2.3491 0.0000 51.4504 0.0000
# 6 0.0000 0.0000 0.0000 13.5366 0.0000 42.0359
#
#
#
# Elastic Compliance Matrix: (Units=1/GPa)
#
#
# Indices 1 2 3 4 5 6 
#
# 1 0.008002 -0.001537 -0.004041 0.000000 -0.000842 0.000000
# 2 -0.001537 0.009756 -0.002450 0.000000 -0.003004 0.000000
# 3 -0.004041 -0.002450 0.016931 0.000000 0.000875 0.000000
# 4 0.000000 0.000000 0.000000 0.044027 0.000000 -0.014178
# 5 -0.000842 -0.003004 0.000875 0.000000 0.020613 0.000000
# 6 0.000000 0.000000 0.000000 -0.014178 0.000000 0.028355
#
#
# Mechanical properties :
#
#
# Convention : Reuss Voigt Hill
#
# Bulk Modulus (GPa) = 53.66916 62.01536 57.84226
# Shear Modulus (GPa) = 33.34403 40.25694 36.80048
#
# Velocity S-wave (km/s) = 3.78932 4.16363 3.98088
# Velocity P-wave (km/s) = 6.50052 7.05834 6.78516
#
# Compressibility (1/GPa) = 0.01863268
#
# Stress axis : x y z
#
# Youngs Moduli (GPa) = 124.96678 102.49684 59.06276
#
# Poissons Ratio (x) = 0.15757 0.23866
# Poissons Ratio (y) = 0.19212 0.14473
# Poissons Ratio (z) = 0.50496 0.25116
#
# Static dielectric constant tensor:
#      x y z
#    x 1.897250 0.000000 0.062870 
#    y 0.000000 1.964480 0.000000 
#    z 0.062870 0.000000 1.902530 
# 
# From -- ./inp_files/62457.got.cif
#   From: 2010.05.17/outbox.cif.g08.bks.cpg/sg12_32_cif.got.tgz:62457.got - 2010.06.03 13:09:07.
