data_PCOD9202432
_publ_section_title
;
Structure prediction by ZEFSAII (Michael W. Deem and Ramdas Pophale) SiO2 
 PCOD9202432
Probable space group: C 2/M
;
_chemical_formula_sum "Si O2"
_cell_formula_units_Z 56
_cell_length_a 11.422211
_cell_length_b 14.867139
_cell_length_c 14.905866
_cell_angle_alpha 90.000000
_cell_angle_beta 67.199388
_cell_angle_gamma 90.000000
_cell_volume 2333.454295
_symmetry_space_group_name_H-M "C 2/M"
_symmetry_group_IT_number 12
_symmetry_cell_setting 'monoclinic'
loop_
_space_group_symop_operation_xyz
x,y,z
-x,y,-z
-x,-y,-z
x,-y,z
1/2+x,1/2+y,z
1/2-x,1/2+y,-z
1/2-x,1/2-y,-z
1/2+x,1/2-y,z
loop_
_atom_site_type_symbol
_atom_site_label
_atom_site_fract_x
_atom_site_fract_y
_atom_site_fract_z
Si Si1 0.328851 0.840696 0.459451
Si Si2 0.893470 0.102486 0.591825
Si Si3 0.403716 0.143341 0.954653
Si Si4 0.464620 0.391132 0.756817
Si Si5 0.880227 0.150476 0.978337
Si Si6 0.043428 0.390225 0.260675
Si Si7 0.247422 0.393804 0.330775
O O1 0.250000 0.750000 0.500000
O O2 0.230902 0.899136 0.429720
O O3 0.450078 0.843325 0.359843
O O4 0.340760 0.876826 0.556715
O O5 0.000000 0.150442 0.500000
O O6 0.883334 0.139193 0.694714
O O7 0.938950 0.000000 0.593855
O O8 0.374373 0.243212 0.001968
O O9 0.471403 0.139731 0.837452
O O10 0.500000 0.102320 0.000000
O O11 0.260647 0.107366 0.975888
O O12 0.458536 0.500000 0.768571
O O13 0.418010 0.353205 0.863398
O O14 0.609725 0.360732 0.696466
O O15 0.000000 0.112523 0.000000
O O16 0.028294 0.500000 0.270082
O O17 0.182291 0.364605 0.258068
O O18 0.261213 0.500000 0.319862
#
# Coordination Sequence:
#
# PCOD9202432 Si02
#       7
#     8   8   8   8   8   8   8
#     4  12  26  39  61  95 129 172 213 264 319 396
#     4  10  20  38  61  87 124 163 206 261 318 378
#     4  10  24  43  64  95 130 178 221 275 338 391
#     4  10  21  36  66  97 121 165 214 267 328 388
#     4  10  22  42  65  91 132 171 217 280 335 392
#     4  11  25  44  68  94 131 175 220 272 330 395
#     4  10  21  42  65  92 129 167 210 267 328 391
#
# _framework density 23.998756
#
# number of rings (size 3 to 8) (size 9 to 14) (size 15 to 20)
#    0.000    1.571    1.429    2.571    4.000    4.571 
#    0.000    0.000    0.000    0.000    0.000    0.000 
#    0.000    0.000    0.000    0.000    0.000    0.000 
#
# Total GULP energy -156276.444586 kJ/mol
# GULP energy per Si atom -5581.301592 kJ/mol
# Density = 2.394413 g / cm^3
# Si number density = 23.998756 Si / 1000 Ang^3
#
#
#
# Elastic Constant Matrix: (Units=GPa)
#
#
# Indices 1 2 3 4 5 6 
#
# 1 116.9137 5.2552 43.3485 0.0000 18.9263 0.0000
# 2 5.2552 66.2455 -11.9578 0.0000 -2.1031 0.0000
# 3 43.3485 -11.9578 140.7899 0.0000 24.3837 0.0000
# 4 0.0000 0.0000 0.0000 25.2947 0.0000 -6.4476
# 5 18.9263 -2.1031 24.3837 0.0000 50.3652 0.0000
# 6 0.0000 0.0000 0.0000 -6.4476 0.0000 20.1800
#
#
#
# Elastic Compliance Matrix: (Units=1/GPa)
#
#
# Indices 1 2 3 4 5 6 
#
# 1 0.010049 -0.001378 -0.002780 0.000000 -0.002488 0.000000
# 2 -0.001378 0.015519 0.001681 0.000000 0.000352 0.000000
# 3 -0.002780 0.001681 0.008632 0.000000 -0.003064 0.000000
# 4 0.000000 0.000000 0.000000 0.043039 0.000000 0.013751
# 5 -0.002488 0.000352 -0.003064 0.000000 0.022288 0.000000
# 6 0.000000 0.000000 0.000000 0.013751 0.000000 0.053948
#
#
# Mechanical properties :
#
#
# Convention : Reuss Voigt Hill
#
# Bulk Modulus (GPa) = 34.19144 44.13790 39.16467
# Shear Modulus (GPa) = 29.73050 38.32153 34.02601
#
# Velocity S-wave (km/s) = 3.52353 4.00035 3.76949
# Velocity P-wave (km/s) = 5.55264 6.30625 5.94140
#
# Compressibility (1/GPa) = 0.02924709
#
# Stress axis : x y z
#
# Youngs Moduli (GPa) = 99.51458 64.43560 115.84399
#
# Poissons Ratio (x) = 0.08879 0.32206
# Poissons Ratio (y) = 0.13713 -0.19479
# Poissons Ratio (z) = 0.27667 -0.10835
#
# Static dielectric constant tensor:
#      x y z
#    x 1.967820 0.000000 -0.038760 
#    y 0.000000 1.914350 0.000000 
#    z -0.038760 0.000000 1.816870 
# 
# From -- ./inp_files/206102.got.cif
#   From: 2010.05.17/outbox.cif.g08.bks.cpg/sg12_104_cif.got.tgz:206102.got - 2010.06.03 13:09:07.
