data_PCOD9202426
_publ_section_title
;
Structure prediction by ZEFSAII (Michael W. Deem and Ramdas Pophale) SiO2 
 PCOD9202426
Probable space group: C 2/M
;
_chemical_formula_sum "Si O2"
_cell_formula_units_Z 48
_cell_length_a 18.176316
_cell_length_b 28.956508
_cell_length_c 8.467012
_cell_angle_alpha 90.000000
_cell_angle_beta 150.682754
_cell_angle_gamma 90.000000
_cell_volume 2182.043889
_symmetry_space_group_name_H-M "C 2/M"
_symmetry_group_IT_number 12
_symmetry_cell_setting 'monoclinic'
loop_
_space_group_symop_operation_xyz
x,y,z
-x,y,-z
-x,-y,-z
x,-y,z
1/2+x,1/2+y,z
1/2-x,1/2+y,-z
1/2-x,1/2-y,-z
1/2+x,1/2-y,z
loop_
_atom_site_type_symbol
_atom_site_label
_atom_site_fract_x
_atom_site_fract_y
_atom_site_fract_z
Si Si1 0.188679 0.889141 0.231004
Si Si2 0.467372 0.256590 0.260936
Si Si3 0.422281 0.639859 0.527648
Si Si4 0.786185 0.285280 0.429042
Si Si5 0.641049 0.099988 0.161650
Si Si6 0.925100 0.551080 0.529671
O O1 0.227080 0.836310 0.349637
O O2 0.243068 0.917056 0.486535
O O3 0.301283 0.908933 0.310531
O O4 0.025229 0.886731 0.849242
O O5 0.500000 0.242574 0.500000
O O6 0.552960 0.305555 0.398107
O O7 0.538989 0.218495 0.281713
O O8 0.300695 0.267877 0.891485
O O9 0.500000 0.631107 0.500000
O O10 0.248720 0.627649 0.240108
O O11 0.750000 0.250000 0.500000
O O12 0.500000 0.121677 0.000000
O O13 0.554170 0.061662 0.898966
O O14 0.859565 0.500000 0.432642
O O15 0.000000 0.552351 0.500000
#
# Coordination Sequence:
#
# PCOD9202426 Si02
#       6
#     8   8   8   8   8   8
#     4  10  22  37  59  89 120 161 204 253 310 372
#     4  10  22  37  55  80 116 158 201 252 301 356
#     4  10  20  38  61  87 121 160 203 251 306 365
#     4  11  22  36  56  84 119 158 202 249 304 366
#     4  10  21  36  60  89 118 153 195 245 301 365
#     4  10  22  41  63  89 122 159 204 260 317 372
#
# _framework density 21.997724999999999
#
# number of rings (size 3 to 8) (size 9 to 14) (size 15 to 20)
#    0.000    1.833    0.000    3.500    0.000   13.000 
#    0.000    0.833    0.000    8.000    0.000    0.000 
#    0.000    0.000    0.000    0.000    0.000    0.000 
#
# Total GULP energy -133794.116756 kJ/mol
# GULP energy per Si atom -5574.754865 kJ/mol
# Density = 2.194766 g / cm^3
# Si number density = 21.997725 Si / 1000 Ang^3
#
#
#
# Elastic Constant Matrix: (Units=GPa)
#
#
# Indices 1 2 3 4 5 6 
#
# 1 108.0436 28.9823 28.2457 0.0000 11.3482 0.0000
# 2 28.9823 54.7165 17.0165 0.0000 7.4420 0.0000
# 3 28.2457 17.0165 80.1620 0.0000 0.1471 0.0000
# 4 0.0000 0.0000 0.0000 13.4833 0.0000 -0.1874
# 5 11.3482 7.4420 0.1471 0.0000 45.0776 0.0000
# 6 0.0000 0.0000 0.0000 -0.1874 0.0000 23.7340
#
#
#
# Elastic Compliance Matrix: (Units=1/GPa)
#
#
# Indices 1 2 3 4 5 6 
#
# 1 0.011586 -0.004907 -0.003037 0.000000 -0.002097 0.000000
# 2 -0.004907 0.022124 -0.002963 0.000000 -0.002407 0.000000
# 3 -0.003037 -0.002963 0.014172 0.000000 0.001207 0.000000
# 4 0.000000 0.000000 0.000000 0.074174 0.000000 0.000586
# 5 -0.002097 -0.002407 0.001207 0.000000 0.023105 0.000000
# 6 0.000000 0.000000 0.000000 0.000586 0.000000 0.042138
#
#
# Mechanical properties :
#
#
# Convention : Reuss Voigt Hill
#
# Bulk Modulus (GPa) = 38.36175 43.49014 40.92594
# Shear Modulus (GPa) = 22.95654 27.70414 25.33034
#
# Velocity S-wave (km/s) = 3.23396 3.55267 3.39705
# Velocity P-wave (km/s) = 5.60549 6.05325 5.83367
#
# Compressibility (1/GPa) = 0.02606763
#
# Stress axis : x y z
#
# Youngs Moduli (GPa) = 86.31073 45.19932 70.56387
#
# Poissons Ratio (x) = 0.22181 0.21429
# Poissons Ratio (y) = 0.42355 0.20908
# Poissons Ratio (z) = 0.26212 0.13392
#
# Static dielectric constant tensor:
#      x y z
#    x 1.903060 0.000000 0.010510 
#    y 0.000000 1.786840 0.000000 
#    z 0.010510 0.000000 1.825710 
# 
# From -- ./inp_files/80835.got.cif
#   From: 2010.05.17/outbox.cif.g08.bks.cpg/sg12_41_cif.got.tgz:80835.got - 2010.06.03 13:09:07.
