data_PCOD9202082
_publ_section_title
;
Structure prediction by ZEFSAII (Michael W. Deem and Ramdas Pophale) SiO2 
 PCOD9202082
Probable space group: C 2/M
;
_chemical_formula_sum "Si O2"
_cell_formula_units_Z 48
_cell_length_a 16.071814
_cell_length_b 25.925762
_cell_length_c 7.846472
_cell_angle_alpha 90.000000
_cell_angle_beta 138.626595
_cell_angle_gamma 90.000000
_cell_volume 2160.968367
_symmetry_space_group_name_H-M "C 2/M"
_symmetry_group_IT_number 12
_symmetry_cell_setting 'monoclinic'
loop_
_space_group_symop_operation_xyz
x,y,z
-x,y,-z
-x,-y,-z
x,-y,z
1/2+x,1/2+y,z
1/2-x,1/2+y,-z
1/2-x,1/2-y,-z
1/2+x,1/2-y,z
loop_
_atom_site_type_symbol
_atom_site_label
_atom_site_fract_x
_atom_site_fract_y
_atom_site_fract_z
Si Si1 0.845788 0.400628 0.951017
Si Si2 0.036232 0.841078 0.819572
Si Si3 0.321402 0.441032 0.994465
Si Si4 0.191432 0.194883 0.730328
Si Si5 0.751686 0.792233 0.651391
Si Si6 0.861857 0.597584 0.581419
O O1 0.818081 0.338946 0.920119
O O2 0.828283 0.415875 0.725862
O O3 0.750446 0.426030 0.939810
O O4 0.990190 0.412336 0.218005
O O5 0.115272 0.820308 0.779715
O O6 0.894376 0.826864 0.557317
O O7 0.063204 0.901994 0.861115
O O8 0.112926 0.815088 0.090516
O O9 0.360226 0.500000 0.059009
O O10 0.223169 0.430563 0.689554
O O11 0.205322 0.255792 0.734478
O O12 0.750000 0.750000 0.500000
O O13 0.664244 0.841208 0.482964
#
# Coordination Sequence:
#
# PCOD9202082 Si02
#       6
#     8   8   8   8   8   8
#     4  10  21  38  59  86 123 154 194 248 296 360
#     4   9  22  39  57  88 116 156 206 251 286 362
#     4  10  22  43  65  85 114 156 203 257 309 349
#     4  10  20  38  58  83 123 160 199 237 297 352
#     4  11  21  35  57  87 119 167 191 238 296 353
#     4  10  22  38  57  92 125 150 203 246 292 365
#
# _framework density 22.212264000000001
#
# number of rings (size 3 to 8) (size 9 to 14) (size 15 to 20)
#    0.000    2.000    1.667    1.000    2.333    2.667 
#    6.000    8.333    0.000    1.000    0.000    0.000 
#    0.000    0.000    0.000    0.000    0.000    0.000 
#
# Total GULP energy -134095.985474 kJ/mol
# GULP energy per Si atom -5587.332728 kJ/mol
# Density = 2.216171 g / cm^3
# Si number density = 22.212264 Si / 1000 Ang^3
#
#
#
# Elastic Constant Matrix: (Units=GPa)
#
#
# Indices 1 2 3 4 5 6 
#
# 1 41.5110 9.6038 13.7310 0.0000 -3.5554 0.0000
# 2 9.6038 141.4622 29.7026 0.0000 3.5348 0.0000
# 3 13.7310 29.7026 83.4441 0.0000 -4.1569 0.0000
# 4 0.0000 0.0000 0.0000 7.0590 0.0000 -10.8475
# 5 -3.5554 3.5348 -4.1569 0.0000 40.5744 0.0000
# 6 0.0000 0.0000 0.0000 -10.8475 0.0000 12.7745
#
#
#
# Elastic Compliance Matrix: (Units=1/GPa)
#
#
# Indices 1 2 3 4 5 6 
#
# 1 0.025740 -0.001002 -0.003781 0.000000 0.001955 0.000000
# 2 -0.001002 0.007716 -0.002633 0.000000 -0.001030 0.000000
# 3 -0.003781 -0.002633 0.013608 0.000000 0.001292 0.000000
# 4 0.000000 0.000000 0.000000 -0.464646 0.000000 -0.394555
# 5 0.001955 -0.001030 0.001292 0.000000 0.025040 0.000000
# 6 0.000000 0.000000 0.000000 -0.394555 0.000000 -0.256756
#
#
# Mechanical properties :
#
#
# Convention : Reuss Voigt Hill
#
# Bulk Modulus (GPa) = 31.02654 41.38803 36.20728
# Shear Modulus (GPa) = -8.01639 26.30689 9.14525
#
# Velocity S-wave (km/s) = -1.90180 3.44516 2.03129
# Velocity P-wave (km/s) = 3.02921 5.87358 4.67306
#
# Compressibility (1/GPa) = 0.03223047
#
# Stress axis : x y z
#
# Youngs Moduli (GPa) = 38.84973 129.60737 73.48700
#
# Poissons Ratio (x) = 0.12992 0.27789
# Poissons Ratio (y) = 0.03894 0.19348
# Poissons Ratio (z) = 0.14691 0.34123
#
# Static dielectric constant tensor:
#      x y z
#    x 1.865450 0.000000 -0.094560 
#    y 0.000000 1.792050 0.000000 
#    z -0.094560 0.000000 1.867840 
# 
# From -- ./inp_files/89742.got.cif
#   From: 2010.05.17/outbox.cif.g08.bks.cpg/sg12_45_cif.got.tgz:89742.got - 2010.06.03 13:09:07.
