data_PCOD9202118
_publ_section_title
;
Structure prediction by ZEFSAII (Michael W. Deem and Ramdas Pophale) SiO2 
 PCOD9202118
Probable space group: C 2/M
;
_chemical_formula_sum "Si O2"
_cell_formula_units_Z 48
_cell_length_a 14.471261
_cell_length_b 19.323072
_cell_length_c 14.714496
_cell_angle_alpha 90.000000
_cell_angle_beta 140.311575
_cell_angle_gamma 90.000000
_cell_volume 2627.636378
_symmetry_space_group_name_H-M "C 2/M"
_symmetry_group_IT_number 12
_symmetry_cell_setting 'monoclinic'
loop_
_space_group_symop_operation_xyz
x,y,z
-x,y,-z
-x,-y,-z
x,-y,z
1/2+x,1/2+y,z
1/2-x,1/2+y,-z
1/2-x,1/2-y,-z
1/2+x,1/2-y,z
loop_
_atom_site_type_symbol
_atom_site_label
_atom_site_fract_x
_atom_site_fract_y
_atom_site_fract_z
Si Si1 0.667227 0.692340 0.147396
Si Si2 0.344939 0.679237 0.350204
Si Si3 0.826224 0.155656 0.642275
Si Si4 0.210508 0.669521 0.948244
Si Si5 0.099101 0.081562 0.770279
Si Si6 0.881466 0.317224 0.662830
O O1 0.759978 0.762151 0.230000
O O2 0.679455 0.653386 0.253069
O O3 0.728053 0.654068 0.105557
O O4 0.500000 0.709201 0.000000
O O5 0.500000 0.707495 0.500000
O O6 0.378073 0.614239 0.311851
O O7 0.242906 0.663787 0.358768
O O8 0.884133 0.233266 0.662008
O O9 0.672546 0.153665 0.474567
O O10 0.940644 0.102554 0.687639
O O11 0.038416 0.660675 0.814698
O O12 0.250000 0.750000 0.000000
O O13 0.287832 0.620572 0.078768
O O14 0.118712 0.000000 0.785490
#
# Coordination Sequence:
#
# PCOD9202118 Si02
#       6
#     8   8   8   8   8   8
#     4  11  21  34  65  96 123 153 210 265 319 352
#     4  11  22  37  60  94 125 164 205 257 313 377
#     4  10  20  38  58  93 121 161 206 262 305 368
#     4  12  21  39  62  91 126 163 210 268 304 367
#     4  12  25  42  62  91 132 175 207 249 321 386
#     4  10  21  36  64  90 126 154 215 262 312 354
#
# _framework density 18.267367
#
# number of rings (size 3 to 8) (size 9 to 14) (size 15 to 20)
#    0.000    1.000    6.667    1.000    4.667    0.333 
#    0.000    4.167    0.000    0.000    0.000    2.333 
#    0.000    0.000    0.000    0.000    0.000    0.000 
#
# Total GULP energy -134055.534162 kJ/mol
# GULP energy per Si atom -5585.647257 kJ/mol
# Density = 1.822579 g / cm^3
# Si number density = 18.267367 Si / 1000 Ang^3
#
#
#
# Elastic Constant Matrix: (Units=GPa)
#
#
# Indices 1 2 3 4 5 6 
#
# 1 85.8240 22.9857 39.7673 0.0000 2.8587 0.0000
# 2 22.9857 66.3829 6.0721 0.0000 -5.3326 0.0000
# 3 39.7673 6.0721 112.2337 0.0000 6.1988 0.0000
# 4 0.0000 0.0000 0.0000 11.5043 0.0000 3.8409
# 5 2.8587 -5.3326 6.1988 0.0000 38.1588 0.0000
# 6 0.0000 0.0000 0.0000 3.8409 0.0000 10.7350
#
#
#
# Elastic Compliance Matrix: (Units=1/GPa)
#
#
# Indices 1 2 3 4 5 6 
#
# 1 0.015384 -0.004939 -0.005128 0.000000 -0.001010 0.000000
# 2 -0.004939 0.016922 0.000690 0.000000 0.002623 0.000000
# 3 -0.005128 0.000690 0.010760 0.000000 -0.001267 0.000000
# 4 0.000000 0.000000 0.000000 0.098716 0.000000 -0.035320
# 5 -0.001010 0.002623 -0.001267 0.000000 0.026854 0.000000
# 6 0.000000 0.000000 0.000000 -0.035320 0.000000 0.105791
#
#
# Mechanical properties :
#
#
# Convention : Reuss Voigt Hill
#
# Bulk Modulus (GPa) = 41.13362 44.67675 42.90519
# Shear Modulus (GPa) = 16.59553 25.12065 20.85809
#
# Velocity S-wave (km/s) = 3.01737 3.71235 3.38275
# Velocity P-wave (km/s) = 5.89116 6.54871 6.22862
#
# Compressibility (1/GPa) = 0.02431101
#
# Stress axis : x y z
#
# Youngs Moduli (GPa) = 65.00133 59.09496 92.93966
#
# Poissons Ratio (x) = 0.29187 0.47660
# Poissons Ratio (y) = 0.32104 -0.06410
# Poissons Ratio (z) = 0.33333 -0.04075
#
# Static dielectric constant tensor:
#      x y z
#    x 1.654950 0.000000 -0.025840 
#    y 0.000000 1.589860 0.000000 
#    z -0.025840 0.000000 1.658170 
# 
# From -- ./inp_files/216486.got.cif
#   From: 2010.05.17/outbox.cif.g08.bks.cpg/sg12_109_cif.got.tgz:216486.got - 2010.06.03 13:09:07.
