data_PCOD9202501
_publ_section_title
;
Structure prediction by ZEFSAII (Michael W. Deem and Ramdas Pophale) SiO2 
 PCOD9202501
Probable space group: C 2/M
;
_chemical_formula_sum "Si O2"
_cell_formula_units_Z 48
_cell_length_a 10.647480
_cell_length_b 14.464094
_cell_length_c 15.826122
_cell_angle_alpha 90.000000
_cell_angle_beta 102.792010
_cell_angle_gamma 90.000000
_cell_volume 2376.826443
_symmetry_space_group_name_H-M "C 2/M"
_symmetry_group_IT_number 12
_symmetry_cell_setting 'monoclinic'
loop_
_space_group_symop_operation_xyz
x,y,z
-x,y,-z
-x,-y,-z
x,-y,z
1/2+x,1/2+y,z
1/2-x,1/2+y,-z
1/2-x,1/2-y,-z
1/2+x,1/2-y,z
loop_
_atom_site_type_symbol
_atom_site_label
_atom_site_fract_x
_atom_site_fract_y
_atom_site_fract_z
Si Si1 0.219508 0.840018 0.190781
Si Si2 0.609524 0.500000 0.087871
Si Si3 0.506861 0.105932 0.243822
Si Si4 0.883367 0.319147 0.918453
Si Si5 0.650856 0.392462 0.503695
Si Si6 0.839091 0.500000 0.991871
Si Si7 0.823010 0.739746 0.638464
O O1 0.354232 0.890904 0.216582
O O2 0.210406 0.764908 0.115208
O O3 0.205389 0.786433 0.276260
O O4 0.108196 0.911604 0.149052
O O5 0.500000 0.500000 0.000000
O O6 0.750925 0.500000 0.062469
O O7 0.556667 0.144835 0.161231
O O8 0.552780 0.175501 0.324223
O O9 0.551695 0.000000 0.262022
O O10 0.804414 0.404689 0.943112
O O11 0.000000 0.295672 0.000000
O O12 0.500000 0.397127 0.500000
O O13 0.696574 0.500000 0.500432
O O14 0.720788 0.335311 0.588773
O O15 0.667620 0.324533 0.425679
O O16 0.000000 0.500000 0.000000
#
# Coordination Sequence:
#
# PCOD9202501 Si02
#       7
#     8   4   8   8   8   4   8
#     4  11  23  38  59  88 125 167 204 264 322 370
#     4  12  26  40  58  90 133 173 215 267 336 380
#     4  11  21  38  62  87 121 163 212 262 306 368
#     4  10  21  36  60  84 115 160 219 267 307 361
#     4  10  21  41  66  92 122 161 195 249 308 383
#     4  10  20  38  62  84 111 161 222 263 304 372
#     4  10  23  39  62  93 125 156 206 250 312 383
#
# _framework density 20.194997000000001
#
# number of rings (size 3 to 8) (size 9 to 14) (size 15 to 20)
#    0.000    1.500    1.667    4.000    1.167    5.333 
#    0.000    0.000    1.833    5.500    0.000    0.000 
#    0.000    0.000    0.000    0.000    0.000    0.000 
#
# Total GULP energy -133750.603020 kJ/mol
# GULP energy per Si atom -5572.941792 kJ/mol
# Density = 2.014903 g / cm^3
# Si number density = 20.194997 Si / 1000 Ang^3
#
#
#
# Elastic Constant Matrix: (Units=GPa)
#
#
# Indices 1 2 3 4 5 6 
#
# 1 46.6971 26.6874 24.0905 0.0000 17.0492 0.0000
# 2 26.6874 158.1902 67.3744 0.0000 19.1345 0.0000
# 3 24.0905 67.3744 113.1446 0.0000 25.6899 0.0000
# 4 0.0000 0.0000 0.0000 44.1110 0.0000 9.0876
# 5 17.0492 19.1345 25.6899 0.0000 25.4895 0.0000
# 6 0.0000 0.0000 0.0000 9.0876 0.0000 29.5425
#
#
#
# Elastic Compliance Matrix: (Units=1/GPa)
#
#
# Indices 1 2 3 4 5 6 
#
# 1 0.029516 -0.002536 -0.000939 0.000000 -0.016892 0.000000
# 2 -0.002536 0.008742 -0.004617 0.000000 -0.000212 0.000000
# 3 -0.000939 -0.004617 0.014080 0.000000 -0.010097 0.000000
# 4 0.000000 0.000000 0.000000 0.024204 0.000000 -0.007445
# 5 -0.016892 -0.000212 -0.010097 0.000000 0.060866 0.000000
# 6 0.000000 0.000000 0.000000 -0.007445 0.000000 0.036140
#
#
# Mechanical properties :
#
#
# Convention : Reuss Voigt Hill
#
# Bulk Modulus (GPa) = 27.66024 61.59296 44.62660
# Shear Modulus (GPa) = 24.77914 33.15391 28.96653
#
# Velocity S-wave (km/s) = 3.50665 4.05617 3.79138
# Velocity P-wave (km/s) = 5.48833 7.24583 6.42743
#
# Compressibility (1/GPa) = 0.03615298
#
# Stress axis : x y z
#
# Youngs Moduli (GPa) = 33.88019 114.39640 71.02274
#
# Poissons Ratio (x) = 0.29015 0.06667
# Poissons Ratio (y) = 0.08593 0.32792
# Poissons Ratio (z) = 0.03180 0.52818
#
# Static dielectric constant tensor:
#      x y z
#    x 1.727660 0.000000 0.008680 
#    y 0.000000 1.662930 0.000000 
#    z 0.008680 0.000000 1.737180 
# 
# From -- ./inp_files/204530.got.cif
#   From: 2010.05.17/outbox.cif.g08.bks.cpg/sg12_103_cif.got.tgz:204530.got - 2010.06.03 13:09:07.
