data_PCOD9202017
_publ_section_title
;
Structure prediction by ZEFSAII (Michael W. Deem and Ramdas Pophale) SiO2 
 PCOD9202017
Probable space group: C 2/M
;
_chemical_formula_sum "Si O2"
_cell_formula_units_Z 58
_cell_length_a 14.641683
_cell_length_b 7.729355
_cell_length_c 23.448647
_cell_angle_alpha 90.000000
_cell_angle_beta 92.523639
_cell_angle_gamma 90.000000
_cell_volume 2651.127617
_symmetry_space_group_name_H-M "C 2/M"
_symmetry_group_IT_number 12
_symmetry_cell_setting 'monoclinic'
loop_
_space_group_symop_operation_xyz
x,y,z
-x,y,-z
-x,-y,-z
x,-y,z
1/2+x,1/2+y,z
1/2-x,1/2+y,-z
1/2-x,1/2-y,-z
1/2+x,1/2-y,z
loop_
_atom_site_type_symbol
_atom_site_label
_atom_site_fract_x
_atom_site_fract_y
_atom_site_fract_z
Si Si1 0.860560 0.708633 0.847973
Si Si2 0.788231 0.206775 0.063800
Si Si3 0.874440 0.797447 0.536398
Si Si4 0.727997 0.204119 0.619368
Si Si5 0.476421 0.301020 0.356553
Si Si6 0.129603 0.206844 0.283139
Si Si7 0.500000 0.000000 0.500000
Si Si8 0.490679 0.800652 0.062568
O O1 0.861570 0.500000 0.845829
O O2 0.778660 0.761766 0.887437
O O3 0.855412 0.764934 0.782864
O O4 0.949776 0.773371 0.884563
O O5 0.885274 0.294355 0.074001
O O6 0.799030 0.000000 0.066922
O O7 0.750000 0.250000 0.000000
O O8 0.778650 0.735911 0.562679
O O9 0.947983 0.794145 0.591179
O O10 0.919449 0.653139 0.497700
O O11 0.872163 0.000000 0.516291
O O12 0.621011 0.227615 0.627734
O O13 0.787705 0.273248 0.674622
O O14 0.744345 0.000000 0.617242
O O15 0.455764 0.500000 0.343460
O O16 0.532639 0.223019 0.304674
O O17 0.125433 0.000000 0.291674
O O18 0.523183 0.000000 0.057008
O O19 0.500000 0.718307 0.000000
#
# Coordination Sequence:
#
# PCOD9202017 Si02
#       8
#     8   8   8   8   8   8   2   8
#     4  10  22  38  55  79 114 144 183 238 288 345
#     4  11  22  37  56  79 106 142 188 227 280 344
#     4   9  21  40  59  88 128 164 203 256 296 347
#     4   9  19  37  62  85 117 155 199 243 294 351
#     4   9  19  37  62  85 117 154 197 244 295 348
#     4   9  20  38  56  84 115 150 186 242 301 344
#     4  12  22  36  68  90 124 170 218 236 306 348
#     4  10  20  38  57  75 106 145 183 226 280 341
#
# _framework density 21.877483000000002
#
# number of rings (size 3 to 8) (size 9 to 14) (size 15 to 20)
#    0.000    2.345    1.379    2.276    1.931    4.138 
#    2.483    6.207    0.000    0.000    0.000    0.000 
#    0.000    0.000    0.000    0.000    0.000    0.000 
#
# Total GULP energy -161586.467174 kJ/mol
# GULP energy per Si atom -5571.947144 kJ/mol
# Density = 2.182769 g / cm^3
# Si number density = 21.877483 Si / 1000 Ang^3
#
#
#
# Elastic Constant Matrix: (Units=GPa)
#
#
# Indices 1 2 3 4 5 6 
#
# 1 129.8450 5.3212 52.7230 0.0000 -22.3450 0.0000
# 2 5.3212 60.0752 19.2141 0.0000 -9.1369 0.0000
# 3 52.7230 19.2141 139.5948 0.0000 -15.4385 0.0000
# 4 0.0000 0.0000 0.0000 14.0533 0.0000 -7.2556
# 5 -22.3450 -9.1369 -15.4385 0.0000 30.3500 0.0000
# 6 0.0000 0.0000 0.0000 -7.2556 0.0000 29.5522
#
#
#
# Elastic Compliance Matrix: (Units=1/GPa)
#
#
# Indices 1 2 3 4 5 6 
#
# 1 0.010023 0.001076 -0.003265 0.000000 0.006042 0.000000
# 2 0.001076 0.018064 -0.002335 0.000000 0.005042 0.000000
# 3 -0.003265 -0.002335 0.008874 0.000000 0.001407 0.000000
# 4 0.000000 0.000000 0.000000 0.081487 0.000000 0.020007
# 5 0.006042 0.005042 0.001407 0.000000 0.039631 0.000000
# 6 0.000000 0.000000 0.000000 0.020007 0.000000 0.038750
#
#
# Mechanical properties :
#
#
# Convention : Reuss Voigt Hill
#
# Bulk Modulus (GPa) = 35.82735 53.78131 44.80433
# Shear Modulus (GPa) = 23.23599 31.60819 27.42209
#
# Velocity S-wave (km/s) = 3.26252 3.80515 3.54423
# Velocity P-wave (km/s) = 5.53208 6.62887 6.10515
#
# Compressibility (1/GPa) = 0.02791164
#
# Stress axis : x y z
#
# Youngs Moduli (GPa) = 99.76931 55.35796 112.69036
#
# Poissons Ratio (x) = -0.05954 0.36798
# Poissons Ratio (y) = -0.10731 0.26313
# Poissons Ratio (z) = 0.32579 0.12926
#
# Static dielectric constant tensor:
#      x y z
#    x 1.816170 0.000000 0.000470 
#    y 0.000000 1.875020 0.000000 
#    z 0.000470 0.000000 1.824990 
# 
# From -- ./inp_files/338044.got.cif
#   From: 2010.05.17/outbox.cif.g08.bks.cpg/sg12_170_cif.got.tgz:338044.got - 2010.06.03 13:09:07.
