data_PCOD9202794
_publ_section_title
;
Structure prediction by ZEFSAII (Michael W. Deem and Ramdas Pophale) SiO2 
 PCOD9202794
Probable space group: C 2/M
;
_chemical_formula_sum "Si O2"
_cell_formula_units_Z 56
_cell_length_a 29.313692
_cell_length_b 9.175614
_cell_length_c 11.152989
_cell_angle_alpha 90.000000
_cell_angle_beta 67.335430
_cell_angle_gamma 90.000000
_cell_volume 2768.174586
_symmetry_space_group_name_H-M "C 2/M"
_symmetry_group_IT_number 12
_symmetry_cell_setting 'monoclinic'
loop_
_space_group_symop_operation_xyz
x,y,z
-x,y,-z
-x,-y,-z
x,-y,z
1/2+x,1/2+y,z
1/2-x,1/2+y,-z
1/2-x,1/2-y,-z
1/2+x,1/2-y,z
loop_
_atom_site_type_symbol
_atom_site_label
_atom_site_fract_x
_atom_site_fract_y
_atom_site_fract_z
Si Si1 0.867441 0.168158 0.305368
Si Si2 0.015699 0.827396 0.849272
Si Si3 0.527029 0.825828 0.347614
Si Si4 0.676238 0.671706 0.911985
Si Si5 0.726180 0.332083 0.206434
Si Si6 0.207087 0.328523 0.468814
Si Si7 0.120734 0.166676 0.188866
O O1 0.925140 0.186637 0.221991
O O2 0.837752 0.192890 0.212138
O O3 0.845046 0.274389 0.426527
O O4 0.858922 0.000000 0.351394
O O5 0.993488 0.746799 0.754791
O O6 0.002735 0.000000 0.854382
O O7 0.000000 0.778371 0.000000
O O8 0.500000 0.781651 0.500000
O O9 0.583881 0.773284 0.293093
O O10 0.523207 0.000000 0.341812
O O11 0.688549 0.500000 0.916952
O O12 0.722525 0.772338 0.897945
O O13 0.627722 0.701171 0.041226
O O14 0.733254 0.500000 0.237919
O O15 0.714114 0.226602 0.328074
O O16 0.677233 0.328249 0.175849
O O17 0.212348 0.500000 0.473199
O O18 0.250000 0.250000 0.500000
O O19 0.103086 0.000000 0.221561
#
# Coordination Sequence:
#
# PCOD9202794 Si02
#       7
#     8   8   8   8   8   8   8
#     4  10  21  37  62  93 124 159 202 251 311 374
#     4  10  22  43  71  99 127 165 214 267 325 390
#     4  11  26  45  64  93 131 170 218 272 325 379
#     4  10  20  38  63  92 127 163 200 248 305 368
#     4  11  23  38  60  92 126 161 207 251 304 372
#     4  12  24  39  59  85 122 164 208 255 308 366
#     4  10  23  42  65  91 122 164 210 253 306 375
#
# _framework density 20.229938000000001
#
# number of rings (size 3 to 8) (size 9 to 14) (size 15 to 20)
#    0.000    1.429    1.429    3.429    2.000    6.000 
#    0.000    1.429    0.000    0.000    0.000    0.000 
#    0.000    0.000    0.000    0.000    0.000    0.000 
#
# Total GULP energy -156412.516422 kJ/mol
# GULP energy per Si atom -5586.161301 kJ/mol
# Density = 2.018389 g / cm^3
# Si number density = 20.229938 Si / 1000 Ang^3
#
#
#
# Elastic Constant Matrix: (Units=GPa)
#
#
# Indices 1 2 3 4 5 6 
#
# 1 64.6585 32.8046 17.2737 0.0000 -5.1256 0.0000
# 2 32.8046 100.3215 63.2050 0.0000 -9.6880 0.0000
# 3 17.2737 63.2050 125.3085 0.0000 -10.0082 0.0000
# 4 0.0000 0.0000 0.0000 30.2685 0.0000 -3.8992
# 5 -5.1256 -9.6880 -10.0082 0.0000 28.9677 0.0000
# 6 0.0000 0.0000 0.0000 -3.8992 0.0000 30.9097
#
#
#
# Elastic Compliance Matrix: (Units=1/GPa)
#
#
# Indices 1 2 3 4 5 6 
#
# 1 0.018644 -0.006467 0.000805 0.000000 0.001414 0.000000
# 2 -0.006467 0.017019 -0.007538 0.000000 0.001943 0.000000
# 3 0.000805 -0.007538 0.011807 0.000000 0.001701 0.000000
# 4 0.000000 0.000000 0.000000 0.033583 0.000000 0.004236
# 5 0.001414 0.001943 0.001701 0.000000 0.036009 0.000000
# 6 0.000000 0.000000 0.000000 0.004236 0.000000 0.032887
#
#
# Mechanical properties :
#
#
# Convention : Reuss Voigt Hill
#
# Bulk Modulus (GPa) = 47.45944 57.42833 52.44388
# Shear Modulus (GPa) = 27.26682 29.82951 28.54817
#
# Velocity S-wave (km/s) = 3.67528 3.84412 3.76065
# Velocity P-wave (km/s) = 6.44370 6.93919 6.69603
#
# Compressibility (1/GPa) = 0.02107062
#
# Stress axis : x y z
#
# Youngs Moduli (GPa) = 53.63655 58.75695 84.69398
#
# Poissons Ratio (x) = 0.37998 -0.06816
# Poissons Ratio (y) = 0.34687 0.63840
# Poissons Ratio (z) = -0.04317 0.44290
#
# Static dielectric constant tensor:
#      x y z
#    x 1.747710 0.000000 0.019400 
#    y 0.000000 1.682430 0.000000 
#    z 0.019400 0.000000 1.743250 
# 
# From -- ./inp_files/181135.got.cif
#   From: 2010.05.17/outbox.cif.g08.bks.cpg/sg12_91_cif.got.tgz:181135.got - 2010.06.03 13:09:07.
