data_PCOD9202971
_publ_section_title
;
Structure prediction by ZEFSAII (Michael W. Deem and Ramdas Pophale) SiO2 
 PCOD9202971
Probable space group: C 2/M
;
_chemical_formula_sum "Si O2"
_cell_formula_units_Z 20
_cell_length_a 13.537512
_cell_length_b 16.538171
_cell_length_c 11.218113
_cell_angle_alpha 90.000000
_cell_angle_beta 158.211088
_cell_angle_gamma 90.000000
_cell_volume 932.266850
_symmetry_space_group_name_H-M "C 2/M"
_symmetry_group_IT_number 12
_symmetry_cell_setting 'monoclinic'
loop_
_space_group_symop_operation_xyz
x,y,z
-x,y,-z
-x,-y,-z
x,-y,z
1/2+x,1/2+y,z
1/2-x,1/2+y,-z
1/2-x,1/2-y,-z
1/2+x,1/2-y,z
loop_
_atom_site_type_symbol
_atom_site_label
_atom_site_fract_x
_atom_site_fract_y
_atom_site_fract_z
Si Si1 0.125257 0.806088 0.758575
Si Si2 0.859594 0.591541 0.681461
Si Si3 0.202317 0.500000 0.618757
O O1 0.000000 0.765293 0.500000
O O2 0.889448 0.857230 0.554333
O O3 0.250000 0.750000 0.000000
O O4 0.362704 0.865038 0.981520
O O5 0.843368 0.500000 0.711470
O O6 0.843828 0.576073 0.520982
O O7 0.000000 0.500000 0.500000
O O8 0.500000 0.500000 0.000000
#
# Coordination Sequence:
#
# PCOD9202971 Si02
#       3
#     8   8   4
#     4  12  26  45  68 100 142 187 226 283 347 412
#     4  10  24  43  69 103 131 174 241 286 339 402
#     4  10  20  38  65 100 137 170 219 280 344 400
#
# _framework density 21.453084
#
# number of rings (size 3 to 8) (size 9 to 14) (size 15 to 20)
#    1.200    0.000    0.000    6.000    0.000    9.600 
#    0.000    0.000    0.000    0.000    0.000    0.000 
#    0.000    0.000    0.000    0.000    0.000    0.000 
#
# Total GULP energy -55877.317311 kJ/mol
# GULP energy per Si atom -5587.731731 kJ/mol
# Density = 2.140426 g / cm^3
# Si number density = 21.453084 Si / 1000 Ang^3
#
#
#
# Elastic Constant Matrix: (Units=GPa)
#
#
# Indices 1 2 3 4 5 6 
#
# 1 143.0203 67.2179 96.8101 0.0001 11.0116 0.0000
# 2 67.2179 60.6090 37.2747 0.0002 -14.7759 0.0000
# 3 96.8101 37.2747 167.3057 0.0002 -12.5309 0.0001
# 4 0.0001 0.0002 0.0002 26.4665 0.0003 8.5998
# 5 11.0116 -14.7759 -12.5309 0.0003 64.7937 -0.0001
# 6 0.0000 0.0000 0.0001 8.5998 -0.0001 32.0826
#
#
#
# Elastic Compliance Matrix: (Units=1/GPa)
#
#
# Indices 1 2 3 4 5 6 
#
# 1 0.029707 -0.029127 -0.011746 0.000000 -0.013963 0.000000
# 2 -0.029127 0.048535 0.007347 -0.000001 0.017439 0.000000
# 3 -0.011746 0.007347 0.011580 0.000000 0.005911 0.000000
# 4 0.000000 -0.000001 0.000000 0.041388 0.000000 -0.011094
# 5 -0.013963 0.017439 0.005911 0.000000 0.022927 0.000000
# 6 0.000000 0.000000 0.000000 -0.011094 0.000000 0.034143
#
#
# Mechanical properties :
#
#
# Convention : Reuss Voigt Hill
#
# Bulk Modulus (GPa) = 43.91798 85.94891 64.93345
# Shear Modulus (GPa) = 19.01694 35.97738 27.49716
#
# Velocity S-wave (km/s) = 2.98055 4.09959 3.58402
# Velocity P-wave (km/s) = 5.68867 7.90946 6.88914
#
# Compressibility (1/GPa) = 0.02276972
#
# Stress axis : x y z
#
# Youngs Moduli (GPa) = 33.66168 20.60370 86.35549
#
# Poissons Ratio (x) = 0.60011 1.01437
# Poissons Ratio (y) = 0.98045 -0.63443
# Poissons Ratio (z) = 0.39541 -0.15137
#
# Static dielectric constant tensor:
#      x y z
#    x 1.803580 0.000000 -0.074040 
#    y 0.000000 1.768530 0.000000 
#    z -0.074040 0.000000 1.748470 
# 
# From -- ./inp_files/4568.got.cif
#   From: 2010.05.17/outbox.cif.g08.bks.cpg/sg12_3_cif.got.tgz:4568.got - 2010.06.03 13:09:07.
