data_PCOD9202873
_publ_section_title
;
Structure prediction by ZEFSAII (Michael W. Deem and Ramdas Pophale) SiO2 
 PCOD9202873
Probable space group: C 2/M
;
_chemical_formula_sum "Si O2"
_cell_formula_units_Z 44
_cell_length_a 9.046198
_cell_length_b 16.185561
_cell_length_c 15.732487
_cell_angle_alpha 90.000000
_cell_angle_beta 89.057600
_cell_angle_gamma 90.000000
_cell_volume 2303.204385
_symmetry_space_group_name_H-M "C 2/M"
_symmetry_group_IT_number 12
_symmetry_cell_setting 'monoclinic'
loop_
_space_group_symop_operation_xyz
x,y,z
-x,y,-z
-x,-y,-z
x,-y,z
1/2+x,1/2+y,z
1/2-x,1/2+y,-z
1/2-x,1/2-y,-z
1/2+x,1/2-y,z
loop_
_atom_site_type_symbol
_atom_site_label
_atom_site_fract_x
_atom_site_fract_y
_atom_site_fract_z
Si Si1 0.381262 0.000000 0.280949
Si Si2 0.231613 0.000000 0.097029
Si Si3 0.270933 0.000000 0.681377
Si Si4 0.692735 0.169476 0.411230
Si Si5 0.747943 0.136278 0.049221
Si Si6 0.000000 0.736423 0.000000
Si Si7 0.342408 0.834656 0.391210
Si Si8 0.391769 0.500000 0.157235
O O1 0.320635 0.000000 0.184711
O O2 0.561876 0.000000 0.279502
O O3 0.328155 0.083053 0.332949
O O4 0.259784 0.079905 0.036389
O O5 0.057213 0.000000 0.120804
O O6 0.262694 0.083244 0.628972
O O7 0.130170 0.000000 0.743702
O O8 0.721541 0.158655 0.512043
O O9 0.517338 0.178765 0.400279
O O10 0.770254 0.247546 0.365277
O O11 0.873715 0.205669 0.039166
O O12 0.802717 0.077697 0.122288
O O13 0.589630 0.178195 0.063509
#
# Coordination Sequence:
#
# PCOD9202873 Si02
#       8
#     4   4   4   8   8   4   8   4
#     4  10  22  37  55  84 113 152 187 230 281 339
#     4  11  22  40  56  78 116 154 182 231 280 333
#     4  10  22  37  55  84 113 152 187 230 281 339
#     4   9  18  36  59  82 110 146 188 232 279 335
#     4  10  21  40  61  83 111 145 189 228 277 336
#     4  10  20  38  64  90 102 138 194 234 276 330
#     4   9  18  36  59  82 110 146 188 232 279 335
#     4  11  22  40  56  78 116 154 182 231 280 333
#
# _framework density 19.103818
#
# number of rings (size 3 to 8) (size 9 to 14) (size 15 to 20)
#    0.000    2.182    1.818    1.091    2.545    4.364 
#    6.545    0.000    0.000    5.455    0.000    0.000 
#    0.000    0.000    0.000    0.000    0.000    0.000 
#
# Total GULP energy -122567.179125 kJ/mol
# GULP energy per Si atom -5571.235415 kJ/mol
# Density = 1.906034 g / cm^3
# Si number density = 19.103818 Si / 1000 Ang^3
#
#
#
# Elastic Constant Matrix: (Units=GPa)
#
#
# Indices 1 2 3 4 5 6 
#
# 1 36.5804 39.9125 7.6238 0.0000 1.6743 0.0000
# 2 39.9125 134.9263 33.4193 0.0000 -0.0757 0.0000
# 3 7.6238 33.4193 50.4913 0.0000 0.6777 0.0000
# 4 0.0000 0.0000 0.0000 -8.6602 0.0000 10.2257
# 5 1.6743 -0.0757 0.6777 0.0000 22.3061 0.0000
# 6 0.0000 0.0000 0.0000 10.2257 0.0000 21.7203
#
#
#
# Elastic Compliance Matrix: (Units=1/GPa)
#
#
# Indices 1 2 3 4 5 6 
#
# 1 0.040787 -0.012621 0.002238 0.000000 -0.003172 0.000000
# 2 -0.012621 0.012771 -0.006563 0.000000 0.001190 0.000000
# 3 0.002238 -0.006563 0.023824 0.000000 -0.000914 0.000000
# 4 0.000000 0.000000 0.000000 -0.074215 0.000000 0.034940
# 5 -0.003172 0.001190 -0.000914 0.000000 0.045101 0.000000
# 6 0.000000 0.000000 0.000000 0.034940 0.000000 0.029591
#
#
# Mechanical properties :
#
#
# Convention : Reuss Voigt Hill
#
# Bulk Modulus (GPa) = 22.99459 42.65658 32.82558
# Shear Modulus (GPa) = 39.60470 16.47608 28.04039
#
# Velocity S-wave (km/s) = 4.55810 2.93993 3.83533
# Velocity P-wave (km/s) = 6.30591 5.82251 6.06902
#
# Compressibility (1/GPa) = 0.04348850
#
# Stress axis : x y z
#
# Youngs Moduli (GPa) = 24.51784 78.30111 41.97467
#
# Poissons Ratio (x) = 0.98825 -0.09393
# Poissons Ratio (y) = 0.30944 0.27549
# Poissons Ratio (z) = -0.05487 0.51391
#
# Static dielectric constant tensor:
#      x y z
#    x 1.655470 0.000000 0.017120 
#    y 0.000000 1.702420 0.000000 
#    z 0.017120 0.000000 1.668510 
# 
# From -- ./inp_files/195560.got.cif
#   From: 2010.05.17/outbox.cif.g08.bks.cpg/sg12_98_cif.got.tgz:195560.got - 2010.06.03 13:09:07.
