data_PCOD9202039
_publ_section_title
;
Structure prediction by ZEFSAII (Michael W. Deem and Ramdas Pophale) SiO2 
 PCOD9202039
Probable space group: C 2/M
;
_chemical_formula_sum "Si O2"
_cell_formula_units_Z 40
_cell_length_a 13.665507
_cell_length_b 26.701587
_cell_length_c 8.810407
_cell_angle_alpha 90.000000
_cell_angle_beta 130.143984
_cell_angle_gamma 90.000000
_cell_volume 2457.506327
_symmetry_space_group_name_H-M "C 2/M"
_symmetry_group_IT_number 12
_symmetry_cell_setting 'monoclinic'
loop_
_space_group_symop_operation_xyz
x,y,z
-x,y,-z
-x,-y,-z
x,-y,z
1/2+x,1/2+y,z
1/2-x,1/2+y,-z
1/2-x,1/2-y,-z
1/2+x,1/2-y,z
loop_
_atom_site_type_symbol
_atom_site_label
_atom_site_fract_x
_atom_site_fract_y
_atom_site_fract_z
Si Si1 0.499992 0.704832 0.818791
Si Si2 0.739878 0.351536 0.566704
Si Si3 0.154067 0.057885 0.654058
Si Si4 0.499991 0.816148 0.318781
Si Si5 0.739864 0.351539 0.913037
O O1 0.374810 0.675534 0.635040
O O2 0.500005 0.759814 0.746004
O O3 0.625157 0.675525 0.885372
O O4 0.500000 0.708278 0.000000
O O5 0.706014 0.409771 0.563792
O O6 0.872956 0.342830 0.616893
O O7 0.747187 0.330320 0.747189
O O8 0.206020 0.090225 0.848229
O O9 0.000000 0.061325 0.500000
O O10 0.191289 0.000000 0.691273
O O11 0.500000 0.815091 0.500000
O O12 0.372929 0.842828 0.129010
#
# Coordination Sequence:
#
# PCOD9202039 Si02
#       5
#     8   8   8   8   8
#     4  12  22  36  56  83 119 159 195 236 284 343
#     4  10  20  38  57  86 112 147 199 237 283 344
#     4   9  18  37  69  91 109 143 199 251 288 338
#     4  12  24  36  54  81 123 161 191 232 292 345
#     4  10  20  38  57  86 112 147 199 237 283 344
#
# _framework density 16.276661000000001
#
# number of rings (size 3 to 8) (size 9 to 14) (size 15 to 20)
#    1.200    0.200    2.000    6.000    0.000    0.000 
#    0.000    2.000    0.000    7.200    0.000    0.000 
#    0.000    0.000    0.000    0.000    0.000    0.000 
#
# Total GULP energy -111508.079447 kJ/mol
# GULP energy per Si atom -5575.403972 kJ/mol
# Density = 1.623961 g / cm^3
# Si number density = 16.276661 Si / 1000 Ang^3
#
#
#
# Elastic Constant Matrix: (Units=GPa)
#
#
# Indices 1 2 3 4 5 6 
#
# 1 134.2508 65.7179 98.1127 0.0000 4.3282 0.0000
# 2 65.7179 156.8586 64.1067 0.0000 12.5223 0.0000
# 3 98.1127 64.1067 133.8350 0.0000 0.8338 0.0000
# 4 0.0000 0.0000 0.0000 6.3279 0.0000 -9.6014
# 5 4.3282 12.5223 0.8338 0.0000 43.1261 0.0000
# 6 0.0000 0.0000 0.0000 -9.6014 0.0000 4.9750
#
#
#
# Elastic Compliance Matrix: (Units=1/GPa)
#
#
# Indices 1 2 3 4 5 6 
#
# 1 0.016818 -0.002422 -0.011164 0.000000 -0.000769 0.000000
# 2 -0.002422 0.008496 -0.002280 0.000000 -0.002180 0.000000
# 3 -0.011164 -0.002280 0.016739 0.000000 0.001459 0.000000
# 4 0.000000 0.000000 0.000000 -0.081953 0.000000 -0.158164
# 5 -0.000769 -0.002180 0.001459 0.000000 0.023870 0.000000
# 6 0.000000 0.000000 0.000000 -0.158164 0.000000 -0.104241
#
#
# Mechanical properties :
#
#
# Convention : Reuss Voigt Hill
#
# Bulk Modulus (GPa) = 96.89736 97.86878 97.38307
# Shear Modulus (GPa) = -58.75625 24.01962 -17.36832
#
# Velocity S-wave (km/s) = -6.01472 3.84566 -3.27015
# Velocity P-wave (km/s) = 3.38008 8.94302 6.76027
#
# Compressibility (1/GPa) = 0.01032020
#
# Stress axis : x y z
#
# Youngs Moduli (GPa) = 59.45948 117.70386 59.73930
#
# Poissons Ratio (x) = 0.28509 0.66694
# Poissons Ratio (y) = 0.14402 0.13622
# Poissons Ratio (z) = 0.66382 0.26840
#
# Static dielectric constant tensor:
#      x y z
#    x 1.531230 0.000000 -0.002480 
#    y 0.000000 1.534450 0.000000 
#    z -0.002480 0.000000 1.531570 
# 
# From -- ./inp_files/53895.got.cif
#   From: 2010.05.17/outbox.cif.g08.bks.cpg/sg12_27_cif.got.tgz:53895.got - 2010.06.03 13:09:07.
