data_PCOD9202626
_publ_section_title
;
Structure prediction by ZEFSAII (Michael W. Deem and Ramdas Pophale) SiO2 
 PCOD9202626
Probable space group: C 2/M
;
_chemical_formula_sum "Si O2"
_cell_formula_units_Z 52
_cell_length_a 11.148873
_cell_length_b 23.765944
_cell_length_c 8.761846
_cell_angle_alpha 90.000000
_cell_angle_beta 75.926652
_cell_angle_gamma 90.000000
_cell_volume 2251.887942
_symmetry_space_group_name_H-M "C 2/M"
_symmetry_group_IT_number 12
_symmetry_cell_setting 'monoclinic'
loop_
_space_group_symop_operation_xyz
x,y,z
-x,y,-z
-x,-y,-z
x,-y,z
1/2+x,1/2+y,z
1/2-x,1/2+y,-z
1/2-x,1/2-y,-z
1/2+x,1/2-y,z
loop_
_atom_site_type_symbol
_atom_site_label
_atom_site_fract_x
_atom_site_fract_y
_atom_site_fract_z
Si Si1 0.245287 0.940193 0.535270
Si Si2 0.000000 0.096063 0.500000
Si Si3 0.651059 0.255345 0.707204
Si Si4 0.139985 0.843903 0.984252
Si Si5 0.836390 0.565247 0.853419
Si Si6 0.446065 0.139545 0.343962
Si Si7 0.100160 0.799370 0.320671
O O1 0.278837 0.937751 0.701616
O O2 0.321067 0.892305 0.427005
O O3 0.098559 0.936818 0.567439
O O4 0.289737 0.000000 0.458341
O O5 0.087011 0.136162 0.373266
O O6 0.664126 0.302876 0.833040
O O7 0.586800 0.194066 0.746408
O O8 0.793560 0.238096 0.634220
O O9 0.543868 0.281277 0.632749
O O10 0.241262 0.893167 0.969642
O O11 0.138167 0.803227 0.131178
O O12 0.000000 0.866467 0.000000
O O13 0.849720 0.500000 0.903808
O O14 0.963786 0.598647 0.779231
O O15 0.500000 0.153304 0.500000
#
# Coordination Sequence:
#
# PCOD9202626 Si02
#       7
#     8   4   8   8   8   8   8
#     4  10  20  38  62  90 126 168 212 261 321 380
#     4  12  23  40  60  94 126 156 213 266 328 378
#     4  11  22  41  63  93 130 173 208 264 316 387
#     4  10  22  42  63  93 127 172 219 259 318 384
#     4  10  21  40  66  93 125 167 218 267 315 381
#     4  10  21  38  63  98 130 168 211 265 323 380
#     4  11  25  40  64  92 131 169 213 263 324 389
#
# _framework density 23.091733999999999
#
# number of rings (size 3 to 8) (size 9 to 14) (size 15 to 20)
#    0.000    1.538    1.538    3.923    1.077    6.462 
#    0.000    1.538    0.000    0.923    0.000    0.000 
#    0.000    0.000    0.000    0.000    0.000    0.000 
#
# Total GULP energy -144982.605296 kJ/mol
# GULP energy per Si atom -5576.254050 kJ/mol
# Density = 2.303918 g / cm^3
# Si number density = 23.091734 Si / 1000 Ang^3
#
#
#
# Elastic Constant Matrix: (Units=GPa)
#
#
# Indices 1 2 3 4 5 6 
#
# 1 128.4692 18.7879 28.9936 0.0000 -14.8647 0.0000
# 2 18.7879 94.0043 16.1226 0.0000 -8.5319 0.0000
# 3 28.9936 16.1226 33.6018 0.0000 -21.6451 0.0000
# 4 0.0000 0.0000 0.0000 19.4820 0.0000 32.6371
# 5 -14.8647 -8.5319 -21.6451 0.0000 30.9227 0.0000
# 6 0.0000 0.0000 0.0000 32.6371 0.0000 99.5831
#
#
#
# Elastic Compliance Matrix: (Units=1/GPa)
#
#
# Indices 1 2 3 4 5 6 
#
# 1 0.009769 -0.000506 -0.009563 0.000000 -0.002138 0.000000
# 2 -0.000506 0.011645 -0.005896 0.000000 -0.001158 0.000000
# 3 -0.009563 -0.005896 0.067077 0.000000 0.040728 0.000000
# 4 0.000000 0.000000 0.000000 0.113822 0.000000 -0.037304
# 5 -0.002138 -0.001158 0.040728 0.000000 0.059500 0.000000
# 6 0.000000 0.000000 0.000000 -0.037304 0.000000 0.022268
#
#
# Mechanical properties :
#
#
# Convention : Reuss Voigt Hill
#
# Bulk Modulus (GPa) = 17.68073 42.65372 30.16722
# Shear Modulus (GPa) = 14.93134 42.80898 28.87016
#
# Velocity S-wave (km/s) = 2.54561 4.31033 3.53971
# Velocity P-wave (km/s) = 4.03900 6.57901 5.45880
#
# Compressibility (1/GPa) = 0.05655875
#
# Stress axis : x y z
#
# Youngs Moduli (GPa) = 102.36493 85.87224 14.90831
#
# Poissons Ratio (x) = 0.04347 0.14257
# Poissons Ratio (y) = 0.05182 0.08790
# Poissons Ratio (z) = 0.97896 0.50633
#
# Static dielectric constant tensor:
#      x y z
#    x 1.904640 0.000000 0.029570 
#    y 0.000000 1.904580 0.000000 
#    z 0.029570 0.000000 1.892700 
# 
# From -- ./inp_files/133086.got.cif
#   From: 2010.05.17/outbox.cif.g08.bks.cpg/sg12_67_cif.got.tgz:133086.got - 2010.06.03 13:09:07.
