data_PCOD9202352
_publ_section_title
;
Structure prediction by ZEFSAII (Michael W. Deem and Ramdas Pophale) SiO2 
 PCOD9202352
Probable space group: C 2/M
;
_chemical_formula_sum "Si O2"
_cell_formula_units_Z 56
_cell_length_a 19.320153
_cell_length_b 7.605320
_cell_length_c 28.719032
_cell_angle_alpha 90.000000
_cell_angle_beta 145.417743
_cell_angle_gamma 90.000000
_cell_volume 2395.144275
_symmetry_space_group_name_H-M "C 2/M"
_symmetry_group_IT_number 12
_symmetry_cell_setting 'monoclinic'
loop_
_space_group_symop_operation_xyz
x,y,z
-x,y,-z
-x,-y,-z
x,-y,z
1/2+x,1/2+y,z
1/2-x,1/2+y,-z
1/2-x,1/2-y,-z
1/2+x,1/2-y,z
loop_
_atom_site_type_symbol
_atom_site_label
_atom_site_fract_x
_atom_site_fract_y
_atom_site_fract_z
Si Si1 0.872584 0.788564 0.166602
Si Si2 0.994975 0.204472 0.596523
Si Si3 0.532144 0.715771 0.879847
Si Si4 0.829692 0.202393 0.427426
Si Si5 0.244613 0.199089 0.280383
Si Si6 0.096678 0.785153 0.356396
Si Si7 0.600702 0.291281 0.019808
O O1 0.740130 0.735938 0.111579
O O2 0.897080 0.725072 0.127277
O O3 0.983935 0.732348 0.260970
O O4 0.875445 0.000000 0.167254
O O5 0.944846 0.277040 0.519805
O O6 0.930908 0.277697 0.606737
O O7 0.140264 0.215495 0.681027
O O8 0.961237 0.000000 0.575641
O O9 0.533060 0.500000 0.878966
O O10 0.390759 0.773852 0.799277
O O11 0.585990 0.776547 0.958824
O O12 0.780701 0.298064 0.354732
O O13 0.720408 0.211305 0.404045
O O14 0.852401 0.000000 0.425125
O O15 0.238663 0.000000 0.259788
O O16 0.103514 0.000000 0.359744
O O17 0.578972 0.500000 0.004782
O O18 0.500000 0.219807 0.000000
#
# Coordination Sequence:
#
# PCOD9202352 Si02
#       7
#     8   8   8   8   8   8   8
#     4  10  20  38  61  83 113 150 190 233 277 338
#     4  10  23  39  56  84 121 155 191 245 297 337
#     4   9  19  38  59  82 114 150 189 234 281 333
#     4  11  22  38  59  85 118 152 195 246 291 342
#     4  11  22  38  61  85 115 156 198 239 288 348
#     4  10  21  39  61  84 117 156 194 239 291 345
#     4  10  22  38  59  87 119 148 180 231 287 338
#
# _framework density 23.380638000000001
#
# number of rings (size 3 to 8) (size 9 to 14) (size 15 to 20)
#    0.000    1.857    1.429    2.143    2.000    4.286 
#    0.000    1.429    0.000    0.000    0.000    0.000 
#    0.000    0.000    0.000    0.000    0.000    0.000 
#
# Total GULP energy -156556.371891 kJ/mol
# GULP energy per Si atom -5591.298996 kJ/mol
# Density = 2.332742 g / cm^3
# Si number density = 23.380638 Si / 1000 Ang^3
#
#
#
# Elastic Constant Matrix: (Units=GPa)
#
#
# Indices 1 2 3 4 5 6 
#
# 1 68.2305 -7.2913 13.4350 -0.0007 17.1154 -0.0008
# 2 -7.2913 49.0207 0.4556 -0.0008 -5.4349 -0.0006
# 3 13.4350 0.4556 77.8476 0.0000 18.2833 -0.0001
# 4 -0.0007 -0.0008 0.0000 -2.9098 0.0000 11.9131
# 5 17.1154 -5.4349 18.2833 0.0000 43.3049 0.0000
# 6 -0.0008 -0.0006 -0.0001 11.9131 0.0000 17.9225
#
#
#
# Elastic Compliance Matrix: (Units=1/GPa)
#
#
# Indices 1 2 3 4 5 6 
#
# 1 0.016580 0.001852 -0.001541 0.000000 -0.005670 0.000001
# 2 0.001852 0.020940 -0.000985 -0.000001 0.002312 0.000001
# 3 -0.001541 -0.000985 0.014435 0.000000 -0.005609 0.000000
# 4 0.000000 -0.000001 0.000000 -0.092349 0.000000 0.061384
# 5 -0.005670 0.002312 -0.005609 0.000000 0.027991 0.000000
# 6 0.000001 0.000001 0.000000 0.061384 0.000000 0.014994
#
#
# Mechanical properties :
#
#
# Convention : Reuss Voigt Hill
#
# Bulk Modulus (GPa) = 19.76015 23.14416 21.45215
# Shear Modulus (GPa) = 240.30035 24.23015 132.26525
#
# Velocity S-wave (km/s) = 10.14892 3.22271 7.52949
# Velocity P-wave (km/s) = 12.07493 4.87526 9.20793
#
# Compressibility (1/GPa) = 0.05060691
#
# Stress axis : x y z
#
# Youngs Moduli (GPa) = 60.31464 47.75440 69.27804
#
# Poissons Ratio (x) = -0.08843 0.10672
# Poissons Ratio (y) = -0.11169 0.06825
# Poissons Ratio (z) = 0.09292 0.04705
#
# Static dielectric constant tensor:
#      x y z
#    x 1.865270 0.000000 -0.017820 
#    y 0.000000 1.866310 0.000000 
#    z -0.017820 0.000000 1.853560 
# 
# From -- ./inp_files/275095.got.cif
#   From: 2010.05.17/outbox.cif.g08.bks.cpg/sg12_138_cif.got.tgz:275095.got - 2010.06.03 13:09:07.
