data_PCOD9202845
_publ_section_title
;
Structure prediction by ZEFSAII (Michael W. Deem and Ramdas Pophale) SiO2 
 PCOD9202845
Probable space group: C 2/M
;
_chemical_formula_sum "Si O2"
_cell_formula_units_Z 48
_cell_length_a 11.847125
_cell_length_b 23.313382
_cell_length_c 8.752779
_cell_angle_alpha 90.000000
_cell_angle_beta 77.852768
_cell_angle_gamma 90.000000
_cell_volume 2363.360080
_symmetry_space_group_name_H-M "C 2/M"
_symmetry_group_IT_number 12
_symmetry_cell_setting 'monoclinic'
loop_
_space_group_symop_operation_xyz
x,y,z
-x,y,-z
-x,-y,-z
x,-y,z
1/2+x,1/2+y,z
1/2-x,1/2+y,-z
1/2-x,1/2-y,-z
1/2+x,1/2-y,z
loop_
_atom_site_type_symbol
_atom_site_label
_atom_site_fract_x
_atom_site_fract_y
_atom_site_fract_z
Si Si1 0.518573 0.841774 0.170392
Si Si2 0.863823 0.933690 0.382257
Si Si3 0.385255 0.754621 0.624426
Si Si4 0.219436 0.340786 0.596082
Si Si5 0.282958 0.933787 0.892885
Si Si6 0.069683 0.069864 0.132099
O O1 0.571605 0.786466 0.238026
O O2 0.397750 0.856951 0.285166
O O3 0.608127 0.893701 0.158795
O O4 0.500000 0.829312 0.000000
O O5 0.794848 0.893748 0.516825
O O6 0.793179 0.932859 0.241085
O O7 0.007131 0.912853 0.700802
O O8 0.868965 0.000000 0.432253
O O9 0.500000 0.735724 0.500000
O O10 0.298805 0.702251 0.670829
O O11 0.321226 0.802840 0.539063
O O12 0.315487 0.000000 0.910282
O O13 0.201045 0.913925 0.057427
O O14 0.067735 0.000000 0.133851
O O15 0.000000 0.088345 0.000000
#
# Coordination Sequence:
#
# PCOD9202845 Si02
#       6
#     8   8   8   8   8   8
#     4  11  23  38  58  86 121 158 202 252 288 358
#     4   9  16  30  59  95 122 152 200 244 291 358
#     4   9  20  41  64  83 111 155 202 246 307 352
#     4  10  20  38  64  87 116 153 196 253 302 353
#     4   9  17  32  55  87 130 167 191 230 295 358
#     4   7  12  25  48  81 121 157 191 235 281 341
#
# _framework density 20.310065999999999
#
# number of rings (size 3 to 8) (size 9 to 14) (size 15 to 20)
#    0.000    2.833    1.667    2.000    0.000    1.667 
#    3.000    1.667    3.667    0.500    0.000    0.000 
#    0.000    0.667    0.000    0.000    0.000    0.000 
#
# Total GULP energy -133979.990244 kJ/mol
# GULP energy per Si atom -5582.499594 kJ/mol
# Density = 2.026384 g / cm^3
# Si number density = 20.310066 Si / 1000 Ang^3
#
#
#
# Elastic Constant Matrix: (Units=GPa)
#
#
# Indices 1 2 3 4 5 6 
#
# 1 124.4574 72.6314 50.6131 0.0000 -40.0259 0.0000
# 2 72.6314 74.8370 54.8196 0.0000 -34.7265 0.0000
# 3 50.6131 54.8196 85.6200 0.0000 -29.8299 0.0000
# 4 0.0000 0.0000 0.0000 14.9186 0.0000 -7.8955
# 5 -40.0259 -34.7265 -29.8299 0.0000 46.7533 0.0000
# 6 0.0000 0.0000 0.0000 -7.8955 0.0000 29.9990
#
#
#
# Elastic Compliance Matrix: (Units=1/GPa)
#
#
# Indices 1 2 3 4 5 6 
#
# 1 0.019088 -0.017689 0.001489 0.000000 0.004152 0.000000
# 2 -0.017689 0.046677 -0.016235 0.000000 0.009167 0.000000
# 3 0.001489 -0.016235 0.022421 0.000000 0.003521 0.000000
# 4 0.000000 0.000000 0.000000 0.077878 0.000000 0.020497
# 5 0.004152 0.009167 0.003521 0.000000 0.034000 0.000000
# 6 0.000000 0.000000 0.000000 0.020497 0.000000 0.038729
#
#
# Mechanical properties :
#
#
# Convention : Reuss Voigt Hill
#
# Bulk Modulus (GPa) = 42.89066 71.22695 57.05880
# Shear Modulus (GPa) = 16.05474 25.45751 20.75612
#
# Velocity S-wave (km/s) = 2.81460 3.54424 3.20028
# Velocity P-wave (km/s) = 5.63262 7.20380 6.46611
#
# Compressibility (1/GPa) = 0.02331510
#
# Stress axis : x y z
#
# Youngs Moduli (GPa) = 52.38889 21.42400 44.60163
#
# Poissons Ratio (x) = 0.37898 -0.06641
# Poissons Ratio (y) = 0.92672 0.72410
# Poissons Ratio (z) = -0.07801 0.34781
#
# Static dielectric constant tensor:
#      x y z
#    x 1.738540 0.000000 0.015790 
#    y 0.000000 1.690950 0.000000 
#    z 0.015790 0.000000 1.729940 
# 
# From -- ./inp_files/50601.got.cif
#   From: 2010.05.17/outbox.cif.g08.bks.cpg/sg12_26_cif.got.tgz:50601.got - 2010.06.03 13:09:07.
