data_PCOD9202584
_publ_section_title
;
Structure prediction by ZEFSAII (Michael W. Deem and Ramdas Pophale) SiO2 
 PCOD9202584
Probable space group: C 2/M
;
_chemical_formula_sum "Si O2"
_cell_formula_units_Z 44
_cell_length_a 23.861284
_cell_length_b 16.537427
_cell_length_c 8.895607
_cell_angle_alpha 90.000000
_cell_angle_beta 31.974068
_cell_angle_gamma 90.000000
_cell_volume 1858.798544
_symmetry_space_group_name_H-M "C 2/M"
_symmetry_group_IT_number 12
_symmetry_cell_setting 'monoclinic'
loop_
_space_group_symop_operation_xyz
x,y,z
-x,y,-z
-x,-y,-z
x,-y,z
1/2+x,1/2+y,z
1/2-x,1/2+y,-z
1/2-x,1/2-y,-z
1/2+x,1/2-y,z
loop_
_atom_site_type_symbol
_atom_site_label
_atom_site_fract_x
_atom_site_fract_y
_atom_site_fract_z
Si Si1 0.896775 0.589577 0.520672
Si Si2 0.317745 0.770234 0.112834
Si Si3 0.163014 0.000000 0.696429
Si Si4 0.284553 0.588969 0.850705
Si Si5 0.500000 0.777351 0.500000
Si Si6 0.824315 0.642668 0.388849
Si Si7 0.038985 0.000000 0.660601
O O1 0.938362 0.500000 0.464885
O O2 0.900260 0.600896 0.335300
O O3 0.950235 0.661193 0.491111
O O4 0.773525 0.592903 0.857220
O O5 0.256318 0.837215 0.154486
O O6 0.235316 0.710456 0.376472
O O7 0.370229 0.815579 0.136198
O O8 0.405653 0.733095 0.802010
O O9 0.236800 0.078332 0.535097
O O10 0.095223 0.000000 0.697439
O O11 0.083298 0.000000 0.020640
O O12 0.244983 0.500000 0.881156
O O13 0.410167 0.575731 0.545648
#
# Coordination Sequence:
#
# PCOD9202584 Si02
#       7
#     8   8   4   8   4   8   4
#     4  10  20  38  62  88 122 160 204 246 303 356
#     4  10  22  41  61  88 121 163 199 244 305 360
#     4  11  20  37  61  92 118 152 206 254 297 363
#     4   8  16  35  59  84 115 162 198 233 299 360
#     4  10  23  42  60  91 120 160 212 246 289 364
#     4  11  22  40  62  89 126 157 196 251 313 358
#     4   9  18  35  61  88 113 162 202 246 294 361
#
# _framework density 23.671203999999999
#
# number of rings (size 3 to 8) (size 9 to 14) (size 15 to 20)
#    0.545    1.636    2.727    0.273    0.000    4.364 
#    6.545    1.818    0.000    0.000    0.000    0.000 
#    0.000    0.000    0.000    0.000    0.000    0.000 
#
# Total GULP energy -122776.757024 kJ/mol
# GULP energy per Si atom -5580.761683 kJ/mol
# Density = 2.361733 g / cm^3
# Si number density = 23.671204 Si / 1000 Ang^3
#
#
#
# Elastic Constant Matrix: (Units=GPa)
#
#
# Indices 1 2 3 4 5 6 
#
# 1 55.8280 1.3988 4.2083 0.0000 13.8299 0.0000
# 2 1.3988 59.6934 12.7995 0.0000 6.8412 0.0000
# 3 4.2083 12.7995 151.8734 0.0000 21.8150 0.0000
# 4 0.0000 0.0000 0.0000 27.4752 0.0000 18.6535
# 5 13.8299 6.8412 21.8150 0.0000 27.5696 0.0000
# 6 0.0000 0.0000 0.0000 18.6535 0.0000 -28.9219
#
#
#
# Elastic Compliance Matrix: (Units=1/GPa)
#
#
# Indices 1 2 3 4 5 6 
#
# 1 0.020616 0.000595 0.000999 0.000000 -0.011280 0.000000
# 2 0.000595 0.017381 -0.000924 0.000000 -0.003881 0.000000
# 3 0.000999 -0.000924 0.007529 0.000000 -0.006230 0.000000
# 4 0.000000 0.000000 0.000000 0.025313 0.000000 0.016326
# 5 -0.011280 -0.003881 -0.006230 0.000000 0.047823 0.000000
# 6 0.000000 0.000000 0.000000 0.016326 0.000000 -0.024046
#
#
# Mechanical properties :
#
#
# Convention : Reuss Voigt Hill
#
# Bulk Modulus (GPa) = 21.33671 33.80086 27.56879
# Shear Modulus (GPa) = 45.91479 21.82379 33.86929
#
# Velocity S-wave (km/s) = 4.40897 3.03967 3.78672
# Velocity P-wave (km/s) = 5.91202 5.16040 5.54895
#
# Compressibility (1/GPa) = 0.04686757
#
# Stress axis : x y z
#
# Youngs Moduli (GPa) = 48.50545 57.53352 132.81198
#
# Poissons Ratio (x) = -0.03426 -0.13265
# Poissons Ratio (y) = -0.02888 0.12271
# Poissons Ratio (z) = -0.04845 0.05316
#
# Static dielectric constant tensor:
#      x y z
#    x 1.913440 0.000000 -0.014350 
#    y 0.000000 1.911370 0.000000 
#    z -0.014350 0.000000 1.942160 
# 
# From -- ./inp_files/98009.got.cif
#   From: 2010.05.17/outbox.cif.g08.bks.cpg/sg12_50_cif.got.tgz:98009.got - 2010.06.03 13:09:07.
