data_PCOD9202371
_publ_section_title
;
Structure prediction by ZEFSAII (Michael W. Deem and Ramdas Pophale) SiO2 
 PCOD9202371
Probable space group: C 2/M
;
_chemical_formula_sum "Si O2"
_cell_formula_units_Z 60
_cell_length_a 9.594996
_cell_length_b 28.418402
_cell_length_c 12.231587
_cell_angle_alpha 90.000000
_cell_angle_beta 63.500249
_cell_angle_gamma 90.000000
_cell_volume 2984.828512
_symmetry_space_group_name_H-M "C 2/M"
_symmetry_group_IT_number 12
_symmetry_cell_setting 'monoclinic'
loop_
_space_group_symop_operation_xyz
x,y,z
-x,y,-z
-x,-y,-z
x,-y,z
1/2+x,1/2+y,z
1/2-x,1/2+y,-z
1/2-x,1/2-y,-z
1/2+x,1/2-y,z
loop_
_atom_site_type_symbol
_atom_site_label
_atom_site_fract_x
_atom_site_fract_y
_atom_site_fract_z
Si Si1 0.361591 0.227777 0.870457
Si Si2 0.988452 0.447001 0.871758
Si Si3 0.408577 0.153151 0.226557
Si Si4 0.860556 0.945441 0.971900
Si Si5 0.500000 0.630809 0.500000
Si Si6 0.394209 0.376283 0.766516
Si Si7 0.218789 0.305717 0.515458
Si Si8 0.640816 0.303279 0.751746
O O1 0.450541 0.180656 0.878995
O O2 0.505557 0.262554 0.784805
O O3 0.239475 0.212229 0.820748
O O4 0.250000 0.250000 0.000000
O O5 0.044375 0.500000 0.825266
O O6 0.068045 0.402920 0.785449
O O7 0.804945 0.443746 0.909875
O O8 0.000000 0.442222 0.000000
O O9 0.246317 0.159244 0.217616
O O10 0.400418 0.175066 0.352132
O O11 0.843772 0.916247 0.867057
O O12 0.892527 0.000000 0.933969
O O13 0.000000 0.928068 0.000000
O O14 0.552107 0.604727 0.371603
O O15 0.631256 0.666195 0.495603
O O16 0.531962 0.348942 0.780459
O O17 0.250000 0.250000 0.500000
O O18 0.222534 0.314096 0.385142
#
# Coordination Sequence:
#
# PCOD9202371 Si02
#       8
#     8   8   8   8   4   8   8   8
#     4  12  27  42  58  91 129 169 212 261 326 385
#     4  10  21  39  64  97 127 165 217 268 327 393
#     4  11  23  40  65  91 126 168 213 268 320 379
#     4  10  22  39  64  94 130 170 210 258 324 400
#     4   8  20  36  59  86 116 156 213 272 308 362
#     4  10  21  40  63  88 123 165 212 263 322 381
#     4  10  20  38  61  84 116 162 220 257 311 371
#     4  11  25  41  62  86 124 170 213 268 312 385
#
# _framework density 20.101658
#
# number of rings (size 3 to 8) (size 9 to 14) (size 15 to 20)
#    0.000    1.600    2.667    1.200    7.467    1.600 
#    0.000    0.333    0.000    4.800    0.000    0.933 
#    0.000    0.000    0.000    0.000    0.000    0.000 
#
# Total GULP energy -167025.854564 kJ/mol
# GULP energy per Si atom -5567.528485 kJ/mol
# Density = 2.005591 g / cm^3
# Si number density = 20.101658 Si / 1000 Ang^3
#
#
#
# Elastic Constant Matrix: (Units=GPa)
#
#
# Indices 1 2 3 4 5 6 
#
# 1 108.6003 4.3423 37.4885 0.0000 13.1941 0.0000
# 2 4.3423 85.4910 50.8141 0.0000 -1.0359 0.0000
# 3 37.4885 50.8141 110.1163 0.0000 10.3220 0.0000
# 4 0.0000 0.0000 0.0000 19.0842 0.0000 -10.9298
# 5 13.1941 -1.0359 10.3220 0.0000 26.6987 0.0000
# 6 0.0000 0.0000 0.0000 -10.9298 0.0000 21.7035
#
#
#
# Elastic Compliance Matrix: (Units=1/GPa)
#
#
# Indices 1 2 3 4 5 6 
#
# 1 0.011076 0.001965 -0.004329 0.000000 -0.003724 0.000000
# 2 0.001965 0.016814 -0.008714 0.000000 0.003050 0.000000
# 3 -0.004329 -0.008714 0.014949 0.000000 -0.003978 0.000000
# 4 0.000000 0.000000 0.000000 0.073638 0.000000 0.037084
# 5 -0.003724 0.003050 -0.003978 0.000000 0.040952 0.000000
# 6 0.000000 0.000000 0.000000 0.037084 0.000000 0.064751
#
#
# Mechanical properties :
#
#
# Convention : Reuss Voigt Hill
#
# Bulk Modulus (GPa) = 48.34586 54.38858 51.36722
# Shear Modulus (GPa) = 19.90227 27.60147 23.75187
#
# Velocity S-wave (km/s) = 3.14997 3.70955 3.44115
# Velocity P-wave (km/s) = 6.11004 6.74264 6.43412
#
# Compressibility (1/GPa) = 0.02068429
#
# Stress axis : x y z
#
# Youngs Moduli (GPa) = 90.28427 59.47601 66.89478
#
# Poissons Ratio (x) = -0.11688 0.28956
# Poissons Ratio (y) = -0.17742 0.58290
# Poissons Ratio (z) = 0.39080 0.51825
#
# Static dielectric constant tensor:
#      x y z
#    x 1.786590 0.000000 -0.122770 
#    y 0.000000 1.727790 0.000000 
#    z -0.122770 0.000000 2.019530 
# 
# From -- ./inp_files/125708.got.cif
#   From: 2010.05.17/outbox.cif.g08.bks.cpg/sg12_63_cif.got.tgz:125708.got - 2010.06.03 13:09:07.
