data_PCOD9202916
_publ_section_title
;
Structure prediction by ZEFSAII (Michael W. Deem and Ramdas Pophale) SiO2 
 PCOD9202916
Probable space group: C 2/M
;
_chemical_formula_sum "Si O2"
_cell_formula_units_Z 42
_cell_length_a 5.149600
_cell_length_b 19.779686
_cell_length_c 20.087134
_cell_angle_alpha 90.000000
_cell_angle_beta 60.416102
_cell_angle_gamma 90.000000
_cell_volume 1779.292022
_symmetry_space_group_name_H-M "C 2/M"
_symmetry_group_IT_number 12
_symmetry_cell_setting 'monoclinic'
loop_
_space_group_symop_operation_xyz
x,y,z
-x,y,-z
-x,-y,-z
x,-y,z
1/2+x,1/2+y,z
1/2-x,1/2+y,-z
1/2-x,1/2-y,-z
1/2+x,1/2-y,z
loop_
_atom_site_type_symbol
_atom_site_label
_atom_site_fract_x
_atom_site_fract_y
_atom_site_fract_z
Si Si1 0.611370 0.571636 0.400414
Si Si2 0.807743 0.075921 0.768189
Si Si3 0.430674 0.789681 0.373495
Si Si4 0.682452 0.674948 0.034738
Si Si5 0.264216 0.156496 0.794197
Si Si6 0.000000 0.500000 0.500000
O O1 0.779132 0.500000 0.397545
O O2 0.612496 0.576753 0.320223
O O3 0.775497 0.638204 0.404567
O O4 0.271340 0.557719 0.462842
O O5 0.531637 0.127629 0.805675
O O6 0.094083 0.098154 0.774026
O O7 0.717513 0.000000 0.797571
O O8 0.673283 0.765986 0.395834
O O9 0.597878 0.796185 0.280360
O O10 0.491112 0.684046 0.125367
O O11 0.500000 0.638929 0.000000
O O12 0.750000 0.750000 0.000000
O O13 0.000000 0.639722 0.000000
#
# Coordination Sequence:
#
# PCOD9202916 Si02
#       6
#     8   8   8   8   8   2
#     4   8  18  38  66  96 128 178 222 262 312 392
#     4  10  20  38  64  93 123 157 225 268 309 378
#     4  11  23  37  62  95 136 162 214 273 328 381
#     4  10  22  36  56  83 122 158 210 255 308 401
#     4  11  22  37  62  90 126 171 203 267 332 380
#     4   8  16  40  76  90 140 170 238 250 328 378
#
# _framework density 23.604892
#
# number of rings (size 3 to 8) (size 9 to 14) (size 15 to 20)
#    0.571    1.524    0.000    4.000    5.333    0.762 
#    0.000    1.905    0.000   30.857    0.000    0.000 
#    0.000    0.000    0.000    0.000    0.000    0.000 
#
# Total GULP energy -117172.890014 kJ/mol
# GULP energy per Si atom -5579.661429 kJ/mol
# Density = 2.355117 g / cm^3
# Si number density = 23.604892 Si / 1000 Ang^3
#
#
#
# Elastic Constant Matrix: (Units=GPa)
#
#
# Indices 1 2 3 4 5 6 
#
# 1 89.7102 3.8934 10.6303 0.0000 -29.8496 0.0000
# 2 3.8934 74.8913 32.2242 0.0000 -12.0266 0.0000
# 3 10.6303 32.2242 127.7280 0.0000 -17.6705 0.0000
# 4 0.0000 0.0000 0.0000 19.5535 0.0000 -5.5764
# 5 -29.8496 -12.0266 -17.6705 0.0000 32.4470 0.0000
# 6 0.0000 0.0000 0.0000 -5.5764 0.0000 33.3907
#
#
#
# Elastic Compliance Matrix: (Units=1/GPa)
#
#
# Indices 1 2 3 4 5 6 
#
# 1 0.016277 0.001493 0.000451 0.000000 0.015773 0.000000
# 2 0.001493 0.015557 -0.003311 0.000000 0.005336 0.000000
# 3 0.000451 -0.003311 0.009208 0.000000 0.004202 0.000000
# 4 0.000000 0.000000 0.000000 0.053699 0.000000 0.008968
# 5 0.015773 0.005336 0.004202 0.000000 0.049596 0.000000
# 6 0.000000 0.000000 0.000000 0.008968 0.000000 0.031446
#
#
# Mechanical properties :
#
#
# Convention : Reuss Voigt Hill
#
# Bulk Modulus (GPa) = 26.10458 42.86949 34.48704
# Shear Modulus (GPa) = 26.13875 33.45035 29.79455
#
# Velocity S-wave (km/s) = 3.33129 3.76851 3.55663
# Velocity P-wave (km/s) = 5.08720 6.09396 5.61320
#
# Compressibility (1/GPa) = 0.03830745
#
# Stress axis : x y z
#
# Youngs Moduli (GPa) = 61.43658 64.28152 108.59836
#
# Poissons Ratio (x) = -0.09596 -0.04896
# Poissons Ratio (y) = -0.09171 0.35954
# Poissons Ratio (z) = -0.02770 0.21282
#
# Static dielectric constant tensor:
#      x y z
#    x 1.888990 0.000000 0.070730 
#    y 0.000000 1.845290 0.000000 
#    z 0.070730 0.000000 1.923110 
# 
# From -- ./inp_files/355001.got.cif
#   From: 2010.05.17/outbox.cif.g08.bks.cpg/sg12_178_cif.got.tgz:355001.got - 2010.06.03 13:09:07.
