data_PCOD9202642
_publ_section_title
;
Structure prediction by ZEFSAII (Michael W. Deem and Ramdas Pophale) SiO2 
 PCOD9202642
Probable space group: C 2/M
;
_chemical_formula_sum "Si O2"
_cell_formula_units_Z 64
_cell_length_a 32.623654
_cell_length_b 18.023741
_cell_length_c 7.552724
_cell_angle_alpha 90.000000
_cell_angle_beta 37.472892
_cell_angle_gamma 90.000000
_cell_volume 2701.844630
_symmetry_space_group_name_H-M "C 2/M"
_symmetry_group_IT_number 12
_symmetry_cell_setting 'monoclinic'
loop_
_space_group_symop_operation_xyz
x,y,z
-x,y,-z
-x,-y,-z
x,-y,z
1/2+x,1/2+y,z
1/2-x,1/2+y,-z
1/2-x,1/2-y,-z
1/2+x,1/2-y,z
loop_
_atom_site_type_symbol
_atom_site_label
_atom_site_fract_x
_atom_site_fract_y
_atom_site_fract_z
Si Si1 0.596873 0.417180 0.058105
Si Si2 0.721806 0.921266 0.899462
Si Si3 0.821462 0.290370 0.481925
Si Si4 0.401109 0.914940 0.404363
Si Si5 0.354820 0.365803 0.479287
Si Si6 0.463372 0.802792 0.440688
Si Si7 0.039737 0.139303 0.598071
Si Si8 0.319050 0.767254 0.088783
O O1 0.616371 0.500000 0.042472
O O2 0.521093 0.414017 0.241160
O O3 0.590945 0.367217 0.254337
O O4 0.639335 0.390741 0.744615
O O5 0.790320 0.909255 0.773323
O O6 0.717169 0.848051 0.798303
O O7 0.723615 0.000000 0.796542
O O8 0.658210 0.921812 0.246186
O O9 0.865163 0.362503 0.380833
O O10 0.843151 0.222426 0.533021
O O11 0.739270 0.290557 0.769263
O O12 0.838033 0.262523 0.228226
O O13 0.459228 0.868067 0.309543
O O14 0.418576 0.000000 0.291864
O O15 0.421213 0.382235 0.361072
O O16 0.500000 0.823922 0.500000
O O17 0.491210 0.722706 0.282915
O O18 0.386121 0.780599 0.747896
#
# Coordination Sequence:
#
# PCOD9202642 Si02
#       8
#     8   8   8   8   8   8   8   8
#     4  11  24  40  57  87 130 165 208 259 303 369
#     4   9  20  37  57  86 119 156 198 250 317 382
#     4  10  20  38  62  93 120 160 205 267 317 385
#     4  10  22  40  63  93 126 158 207 272 330 382
#     4  11  22  37  63  89 120 164 209 253 311 374
#     4  11  21  39  64  90 121 169 217 265 307 385
#     4  11  22  38  60  88 119 171 215 249 305 367
#     4   9  21  36  61  87 123 159 208 257 319 374
#
# _framework density 23.687519999999999
#
# number of rings (size 3 to 8) (size 9 to 14) (size 15 to 20)
#    0.000    1.750    2.500    2.250    1.750    4.750 
#    0.000    0.625    0.000    0.750    0.000    0.000 
#    0.000    0.000    0.000    0.000    0.000    0.000 
#
# Total GULP energy -178673.208346 kJ/mol
# GULP energy per Si atom -5583.537761 kJ/mol
# Density = 2.363361 g / cm^3
# Si number density = 23.687520 Si / 1000 Ang^3
#
#
#
# Elastic Constant Matrix: (Units=GPa)
#
#
# Indices 1 2 3 4 5 6 
#
# 1 79.8163 38.7616 6.7522 0.0000 -1.7703 0.0000
# 2 38.7616 144.5116 -6.2190 0.0000 -3.9299 0.0000
# 3 6.7522 -6.2190 51.2062 0.0000 -1.2380 0.0000
# 4 0.0000 0.0000 0.0000 18.8835 0.0000 1.7598
# 5 -1.7703 -3.9299 -1.2380 0.0000 28.2730 0.0000
# 6 0.0000 0.0000 0.0000 1.7598 0.0000 34.8900
#
#
#
# Elastic Compliance Matrix: (Units=1/GPa)
#
#
# Indices 1 2 3 4 5 6 
#
# 1 0.014702 -0.004041 -0.002423 0.000000 0.000253 0.000000
# 2 -0.004041 0.008095 0.001539 0.000000 0.000940 0.000000
# 3 -0.002423 0.001539 0.020058 0.000000 0.000940 0.000000
# 4 0.000000 0.000000 0.000000 0.053206 0.000000 -0.002684
# 5 0.000253 0.000940 0.000940 0.000000 0.035557 0.000000
# 6 0.000000 0.000000 0.000000 -0.002684 0.000000 0.028797
#
#
# Mechanical properties :
#
#
# Convention : Reuss Voigt Hill
#
# Bulk Modulus (GPa) = 30.29874 39.34706 34.82290
# Shear Modulus (GPa) = 27.58352 32.15858 29.87105
#
# Velocity S-wave (km/s) = 3.41614 3.68858 3.55497
# Velocity P-wave (km/s) = 5.32718 5.89812 5.61990
#
# Compressibility (1/GPa) = 0.03300467
#
# Stress axis : x y z
#
# Youngs Moduli (GPa) = 68.01932 123.52595 49.85531
#
# Poissons Ratio (x) = 0.49914 0.12081
# Poissons Ratio (y) = 0.27485 -0.07671
# Poissons Ratio (z) = 0.16483 -0.19007
#
# Static dielectric constant tensor:
#      x y z
#    x 1.885350 0.000000 -0.020150 
#    y 0.000000 1.924260 0.000000 
#    z -0.020150 0.000000 1.986320 
# 
# From -- ./inp_files/112830.got.cif
#   From: 2010.05.17/outbox.cif.g08.bks.cpg/sg12_57_cif.got.tgz:112830.got - 2010.06.03 13:09:07.
