data_PCOD9202152
_publ_section_title
;
Structure prediction by ZEFSAII (Michael W. Deem and Ramdas Pophale) SiO2 
 PCOD9202152
Probable space group: C 2/M
;
_chemical_formula_sum "Si O2"
_cell_formula_units_Z 48
_cell_length_a 15.917939
_cell_length_b 29.308029
_cell_length_c 10.016042
_cell_angle_alpha 90.000000
_cell_angle_beta 35.084093
_cell_angle_gamma 90.000000
_cell_volume 2685.775999
_symmetry_space_group_name_H-M "C 2/M"
_symmetry_group_IT_number 12
_symmetry_cell_setting 'monoclinic'
loop_
_space_group_symop_operation_xyz
x,y,z
-x,y,-z
-x,-y,-z
x,-y,z
1/2+x,1/2+y,z
1/2-x,1/2+y,-z
1/2-x,1/2-y,-z
1/2+x,1/2-y,z
loop_
_atom_site_type_symbol
_atom_site_label
_atom_site_fract_x
_atom_site_fract_y
_atom_site_fract_z
Si Si1 0.645703 0.553398 0.228444
Si Si2 0.364757 0.552549 0.073352
Si Si3 0.415946 0.885447 0.968740
Si Si4 0.383259 0.123266 0.531733
Si Si5 0.108771 0.727455 0.482249
Si Si6 0.099980 0.278618 0.999368
O O1 0.500000 0.563142 0.500000
O O2 0.684276 0.500000 0.195233
O O3 0.609086 0.559880 0.118980
O O4 0.775906 0.583881 0.118309
O O5 0.311073 0.500000 0.156716
O O6 0.248454 0.590636 0.262006
O O7 0.500000 0.556802 0.000000
O O8 0.534885 0.896252 0.702270
O O9 0.500000 0.890740 0.000000
O O10 0.372933 0.832093 0.004612
O O11 0.500000 0.124061 0.500000
O O12 0.338829 0.175515 0.559091
O O13 0.248477 0.755608 0.246257
O O14 0.000000 0.726284 0.500000
O O15 0.003122 0.740981 0.745673
O O16 0.000000 0.276963 0.000000
#
# Coordination Sequence:
#
# PCOD9202152 Si02
#       6
#     8   8   8   8   8   8
#     4  10  22  40  58  83 119 151 186 236 287 339
#     4  10  22  39  60  86 114 148 191 236 285 341
#     4  10  22  38  58  85 116 152 191 234 282 339
#     4  10  20  38  59  83 115 147 190 241 283 334
#     4  10  21  37  59  84 116 150 190 238 286 341
#     4  10  21  39  58  84 117 150 191 238 285 340
#
# _framework density 17.871929000000002
#
# number of rings (size 3 to 8) (size 9 to 14) (size 15 to 20)
#    0.000    2.000    1.667    1.000    2.333    2.667 
#    3.000    0.000    0.000    0.000    0.000    0.000 
#    0.000    0.000    0.000    0.000    0.000    0.000 
#
# Total GULP energy -133664.569718 kJ/mol
# GULP energy per Si atom -5569.357072 kJ/mol
# Density = 1.783125 g / cm^3
# Si number density = 17.871929 Si / 1000 Ang^3
#
#
#
# Elastic Constant Matrix: (Units=GPa)
#
#
# Indices 1 2 3 4 5 6 
#
# 1 61.1487 31.3827 46.0316 0.0000 2.4691 0.0000
# 2 31.3827 58.1368 72.9370 0.0000 -17.3207 0.0000
# 3 46.0316 72.9370 164.5034 0.0000 6.2448 0.0000
# 4 0.0000 0.0000 0.0000 30.1070 0.0000 6.5841
# 5 2.4691 -17.3207 6.2448 0.0000 33.4628 0.0000
# 6 0.0000 0.0000 0.0000 6.5841 0.0000 4.9889
#
#
#
# Elastic Compliance Matrix: (Units=1/GPa)
#
#
# Indices 1 2 3 4 5 6 
#
# 1 0.025829 -0.021587 0.002861 0.000000 -0.013613 0.000000
# 2 -0.021587 0.091294 -0.036550 0.000000 0.055668 0.000000
# 3 0.002861 -0.036550 0.022369 0.000000 -0.023304 0.000000
# 4 0.000000 0.000000 0.000000 0.046691 0.000000 -0.061620
# 5 -0.013613 0.055668 -0.023304 0.000000 0.064052 0.000000
# 6 0.000000 0.000000 0.000000 -0.061620 0.000000 0.281766
#
#
# Mechanical properties :
#
#
# Convention : Reuss Voigt Hill
#
# Bulk Modulus (GPa) = 34.55705 64.94349 49.75027
# Shear Modulus (GPa) = 7.66636 22.60759 15.13697
#
# Velocity S-wave (km/s) = 2.07338 3.56051 2.91343
# Velocity P-wave (km/s) = 5.01097 7.30206 6.26219
#
# Compressibility (1/GPa) = 0.02893765
#
# Stress axis : x y z
#
# Youngs Moduli (GPa) = 38.71644 10.95360 44.70532
#
# Poissons Ratio (x) = 0.23646 -0.12788
# Poissons Ratio (y) = 0.83578 1.63400
# Poissons Ratio (z) = -0.11075 0.40036
#
# Static dielectric constant tensor:
#      x y z
#    x 1.612090 0.000000 0.034680 
#    y 0.000000 1.631430 0.000000 
#    z 0.034680 0.000000 1.629590 
# 
# From -- ./inp_files/52415.got.cif
#   From: 2010.05.17/outbox.cif.g08.bks.cpg/sg12_27_cif.got.tgz:52415.got - 2010.06.03 13:09:07.
