data_PCOD9202603
_publ_section_title
;
Structure prediction by ZEFSAII (Michael W. Deem and Ramdas Pophale) SiO2 
 PCOD9202603
Probable space group: C 2/M
;
_chemical_formula_sum "Si O2"
_cell_formula_units_Z 32
_cell_length_a 7.812098
_cell_length_b 26.205000
_cell_length_c 8.205364
_cell_angle_alpha 90.000000
_cell_angle_beta 52.134179
_cell_angle_gamma 90.000000
_cell_volume 1326.094704
_symmetry_space_group_name_H-M "C 2/M"
_symmetry_group_IT_number 12
_symmetry_cell_setting 'monoclinic'
loop_
_space_group_symop_operation_xyz
x,y,z
-x,y,-z
-x,-y,-z
x,-y,z
1/2+x,1/2+y,z
1/2-x,1/2+y,-z
1/2-x,1/2-y,-z
1/2+x,1/2-y,z
loop_
_atom_site_type_symbol
_atom_site_label
_atom_site_fract_x
_atom_site_fract_y
_atom_site_fract_z
Si Si1 0.671688 0.060171 0.137239
Si Si2 0.817931 0.194094 0.898111
Si Si3 0.227706 0.896656 0.275756
Si Si4 0.266898 0.851255 0.707599
O O1 0.422038 0.079579 0.266314
O O2 0.767835 0.088412 0.241537
O O3 0.683598 0.000000 0.149194
O O4 0.767861 0.075144 0.902333
O O5 0.730551 0.163847 0.791487
O O6 0.076163 0.181855 0.738117
O O7 0.750000 0.250000 0.000000
O O8 0.740002 0.163527 0.100188
O O9 0.000000 0.901157 0.500000
O O10 0.500000 0.839812 0.500000
#
# Coordination Sequence:
#
# PCOD9202603 Si02
#       4
#     8   8   8   8
#     4  10  22  38  59  90 124 158 200 248 296 354
#     4  10  23  40  60  88 119 156 204 253 301 358
#     4  10  20  38  62  89 121 158 202 249 296 354
#     4  10  22  41  61  87 122 159 201 249 300 359
#
# _framework density 24.131007
#
# number of rings (size 3 to 8) (size 9 to 14) (size 15 to 20)
#    0.000    2.000    0.000    3.000    0.000   12.500 
#    0.000   11.250    0.000    4.500    0.000    0.000 
#    0.000    0.000    0.000    0.000    0.000    0.000 
#
# Total GULP energy -89260.773475 kJ/mol
# GULP energy per Si atom -5578.798342 kJ/mol
# Density = 2.407608 g / cm^3
# Si number density = 24.131007 Si / 1000 Ang^3
#
#
#
# Elastic Constant Matrix: (Units=GPa)
#
#
# Indices 1 2 3 4 5 6 
#
# 1 98.8051 37.3182 29.0032 0.0000 -27.4525 0.0000
# 2 37.3182 182.6422 20.3984 0.0000 -19.4220 0.0000
# 3 29.0032 20.3984 137.0233 0.0000 -47.2581 0.0000
# 4 0.0000 0.0000 0.0000 2.3420 0.0000 -2.9966
# 5 -27.4525 -19.4220 -47.2581 0.0000 33.4031 0.0000
# 6 0.0000 0.0000 0.0000 -2.9966 0.0000 20.6942
#
#
#
# Elastic Compliance Matrix: (Units=1/GPa)
#
#
# Indices 1 2 3 4 5 6 
#
# 1 0.013806 -0.001648 0.001769 0.000000 0.012891 0.000000
# 2 -0.001648 0.006057 0.000380 0.000000 0.002706 0.000000
# 3 0.001769 0.000380 0.014539 0.000000 0.022244 0.000000
# 4 0.000000 0.000000 0.000000 0.524095 0.000000 0.075892
# 5 0.012891 0.002706 0.022244 0.000000 0.073576 0.000000
# 6 0.000000 0.000000 0.000000 0.075892 0.000000 0.059312
#
#
# Mechanical properties :
#
#
# Convention : Reuss Voigt Hill
#
# Bulk Modulus (GPa) = 28.24446 65.76780 47.00613
# Shear Modulus (GPa) = 7.12065 33.40457 20.26261
#
# Velocity S-wave (km/s) = 1.71966 3.72466 2.90089
# Velocity P-wave (km/s) = 3.95892 6.76839 5.54455
#
# Compressibility (1/GPa) = 0.03540517
#
# Stress axis : x y z
#
# Youngs Moduli (GPa) = 72.43402 165.09597 68.78124
#
# Poissons Ratio (x) = 0.27201 -0.12169
# Poissons Ratio (y) = 0.11934 -0.02615
# Poissons Ratio (z) = -0.12815 -0.06277
#
# Static dielectric constant tensor:
#      x y z
#    x 2.076160 0.000000 -0.035450 
#    y 0.000000 2.240680 0.000000 
#    z -0.035450 0.000000 1.894220 
# 
# From -- ./inp_files/40077.got.cif
#   From: 2010.05.17/outbox.cif.g08.bks.cpg/sg12_21_cif.got.tgz:40077.got - 2010.06.03 13:09:07.
