data_PCOD9202889
_publ_section_title
;
Structure prediction by ZEFSAII (Michael W. Deem and Ramdas Pophale) SiO2 
 PCOD9202889
Probable space group: C 2/M
;
_chemical_formula_sum "Si O2"
_cell_formula_units_Z 52
_cell_length_a 15.476391
_cell_length_b 20.320497
_cell_length_c 9.975505
_cell_angle_alpha 90.000000
_cell_angle_beta 48.205029
_cell_angle_gamma 90.000000
_cell_volume 2338.873080
_symmetry_space_group_name_H-M "C 2/M"
_symmetry_group_IT_number 12
_symmetry_cell_setting 'monoclinic'
loop_
_space_group_symop_operation_xyz
x,y,z
-x,y,-z
-x,-y,-z
x,-y,z
1/2+x,1/2+y,z
1/2-x,1/2+y,-z
1/2-x,1/2-y,-z
1/2+x,1/2-y,z
loop_
_atom_site_type_symbol
_atom_site_label
_atom_site_fract_x
_atom_site_fract_y
_atom_site_fract_z
Si Si1 0.000000 0.886484 0.000000
Si Si2 0.394743 0.802294 0.414081
Si Si3 0.774392 0.422696 0.399005
Si Si4 0.351833 0.801315 0.924083
Si Si5 0.484716 0.574387 0.312221
Si Si6 0.826109 0.229412 0.216915
Si Si7 0.733376 0.576211 0.133484
O O1 0.990247 0.925308 0.872054
O O2 0.110923 0.838675 0.880380
O O3 0.356158 0.874690 0.399404
O O4 0.311514 0.781932 0.622722
O O5 0.366153 0.754099 0.320024
O O6 0.532378 0.796311 0.281890
O O7 0.779991 0.500000 0.436079
O O8 0.642495 0.395007 0.546239
O O9 0.790192 0.421732 0.222176
O O10 0.369657 0.781680 0.062114
O O11 0.303617 0.874921 0.967467
O O12 0.250000 0.750000 0.000000
O O13 0.467700 0.500000 0.380408
O O14 0.598642 0.600316 0.269798
O O15 0.730860 0.500000 0.092897
#
# Coordination Sequence:
#
# PCOD9202889 Si02
#       7
#     4   8   8   8   8   8   8
#     4  12  19  36  62  88 121 162 200 254 308 366
#     4  11  23  41  61  89 123 159 202 259 308 370
#     4  10  20  38  64  91 120 161 204 255 313 371
#     4  12  25  42  63  91 126 166 210 255 313 377
#     4  10  21  37  59  91 123 160 207 252 306 370
#     4  11  23  39  61  89 121 157 203 254 311 365
#     4  10  22  39  61  89 127 163 204 259 313 367
#
# _framework density 22.23293
#
# number of rings (size 3 to 8) (size 9 to 14) (size 15 to 20)
#    0.000    1.231    4.615    1.615    0.000    3.077 
#    2.769    1.538    0.000    0.000    0.000    4.308 
#    0.000    0.000    0.000    0.000    0.000    0.000 
#
# Total GULP energy -145159.472629 kJ/mol
# GULP energy per Si atom -5583.056640 kJ/mol
# Density = 2.218233 g / cm^3
# Si number density = 22.232930 Si / 1000 Ang^3
#
#
#
# Elastic Constant Matrix: (Units=GPa)
#
#
# Indices 1 2 3 4 5 6 
#
# 1 67.6443 13.9168 18.7414 0.0000 -13.4192 0.0000
# 2 13.9168 88.6779 24.7440 0.0000 -12.7898 0.0000
# 3 18.7414 24.7440 116.4760 0.0000 -37.1088 0.0000
# 4 0.0000 0.0000 0.0000 27.3919 0.0000 -6.3392
# 5 -13.4192 -12.7898 -37.1088 0.0000 40.6306 0.0000
# 6 0.0000 0.0000 0.0000 -6.3392 0.0000 28.3941
#
#
#
# Elastic Compliance Matrix: (Units=1/GPa)
#
#
# Indices 1 2 3 4 5 6 
#
# 1 0.016183 -0.001698 -0.001002 0.000000 0.003895 0.000000
# 2 -0.001698 0.012287 -0.001810 0.000000 0.001654 0.000000
# 3 -0.001002 -0.001810 0.012474 0.000000 0.010492 0.000000
# 4 0.000000 0.000000 0.000000 0.038496 0.000000 0.008595
# 5 0.003895 0.001654 0.010492 0.000000 0.036001 0.000000
# 6 0.000000 0.000000 0.000000 0.008595 0.000000 0.037137
#
#
# Mechanical properties :
#
#
# Convention : Reuss Voigt Hill
#
# Bulk Modulus (GPa) = 31.32590 43.06696 37.19643
# Shear Modulus (GPa) = 29.02914 33.64307 31.33610
#
# Velocity S-wave (km/s) = 3.61734 3.89422 3.75833
# Velocity P-wave (km/s) = 5.61848 6.29546 5.96658
#
# Compressibility (1/GPa) = 0.03192246
#
# Stress axis : x y z
#
# Youngs Moduli (GPa) = 61.79344 81.38777 80.16720
#
# Poissons Ratio (x) = 0.13822 0.08035
# Poissons Ratio (y) = 0.10494 0.14511
# Poissons Ratio (z) = 0.06193 0.14732
#
# Static dielectric constant tensor:
#      x y z
#    x 2.184200 0.000000 0.119140 
#    y 0.000000 1.817120 0.000000 
#    z 0.119140 0.000000 1.920960 
# 
# From -- ./inp_files/159473.got.cif
#   From: 2010.05.17/outbox.cif.g08.bks.cpg/sg12_80_cif.got.tgz:159473.got - 2010.06.03 13:09:07.
