data_PCOD9202138
_publ_section_title
;
Structure prediction by ZEFSAII (Michael W. Deem and Ramdas Pophale) SiO2 
 PCOD9202138
Probable space group: C 2/M
;
_chemical_formula_sum "Si O2"
_cell_formula_units_Z 64
_cell_length_a 19.264322
_cell_length_b 27.188910
_cell_length_c 12.159653
_cell_angle_alpha 90.000000
_cell_angle_beta 33.814103
_cell_angle_gamma 90.000000
_cell_volume 3544.312331
_symmetry_space_group_name_H-M "C 2/M"
_symmetry_group_IT_number 12
_symmetry_cell_setting 'monoclinic'
loop_
_space_group_symop_operation_xyz
x,y,z
-x,y,-z
-x,-y,-z
x,-y,z
1/2+x,1/2+y,z
1/2-x,1/2+y,-z
1/2-x,1/2-y,-z
1/2+x,1/2-y,z
loop_
_atom_site_type_symbol
_atom_site_label
_atom_site_fract_x
_atom_site_fract_y
_atom_site_fract_z
Si Si1 0.576017 0.440454 0.568724
Si Si2 0.683420 0.558972 0.203176
Si Si3 0.878598 0.629247 0.856388
Si Si4 0.646591 0.796570 0.308528
Si Si5 0.144331 0.284842 0.687541
Si Si6 0.379748 0.441151 0.235990
Si Si7 0.860544 0.718598 0.044654
Si Si8 0.337295 0.865693 0.507567
O O1 0.577464 0.500000 0.567596
O O2 0.442272 0.425646 0.695482
O O3 0.672755 0.425192 0.345558
O O4 0.595043 0.426047 0.669897
O O5 0.688538 0.500000 0.195146
O O6 0.796140 0.582542 0.990267
O O7 0.845513 0.660153 0.791521
O O8 0.023109 0.614929 0.659290
O O9 0.854993 0.667755 0.986240
O O10 0.500000 0.779600 0.500000
O O11 0.750608 0.755063 0.150584
O O12 0.677098 0.821911 0.384797
O O13 0.250000 0.250000 0.500000
O O14 0.153709 0.287641 0.806111
O O15 0.163182 0.338351 0.609073
O O16 0.005594 0.265164 0.837741
O O17 0.352465 0.500000 0.269341
O O18 0.265923 0.407418 0.346135
O O19 0.500000 0.433159 0.000000
#
# Coordination Sequence:
#
# PCOD9202138 Si02
#       8
#     8   8   8   8   8   8   8   8
#     4   8  17  36  56  79 113 145 178 231 282 317
#     4   9  18  36  59  81 113 149 183 228 277 330
#     4  10  22  37  56  84 111 149 190 229 281 332
#     4  10  21  40  57  78 116 152 185 237 288 330
#     4  10  20  38  59  82 111 146 184 231 285 342
#     4  10  22  38  59  85 114 148 188 234 280 332
#     4  10  21  38  59  81 111 147 187 234 284 334
#     4  10  22  38  57  80 116 149 181 232 284 334
#
# _framework density 18.057099000000001
#
# number of rings (size 3 to 8) (size 9 to 14) (size 15 to 20)
#    0.000    2.375    1.250    1.125    3.500    1.500 
#    2.250    0.000    0.000    4.500    0.000    0.000 
#    0.000    0.000    0.000    0.000    0.000    0.000 
#
# Total GULP energy -178339.529565 kJ/mol
# GULP energy per Si atom -5573.110299 kJ/mol
# Density = 1.801600 g / cm^3
# Si number density = 18.057099 Si / 1000 Ang^3
#
#
#
# Elastic Constant Matrix: (Units=GPa)
#
#
# Indices 1 2 3 4 5 6 
#
# 1 71.6205 26.6973 29.1350 -0.0005 -1.9058 0.0004
# 2 26.6973 42.7685 49.1518 -0.0002 -14.8765 0.0001
# 3 29.1350 49.1518 105.2924 -0.0012 -11.6032 0.0002
# 4 -0.0005 -0.0002 -0.0012 39.9702 0.0006 -2.4477
# 5 -1.9058 -14.8765 -11.6032 0.0006 20.0054 -0.0005
# 6 0.0004 0.0001 0.0002 -2.4477 -0.0005 13.6844
#
#
#
# Elastic Compliance Matrix: (Units=1/GPa)
#
#
# Indices 1 2 3 4 5 6 
#
# 1 0.019650 -0.017966 0.001799 0.000000 -0.010445 -0.000001
# 2 -0.017966 0.082894 -0.028972 -0.000001 0.043126 0.000002
# 3 0.001799 -0.028972 0.021546 0.000001 -0.008876 0.000000
# 4 0.000000 -0.000001 0.000001 0.025296 -0.000001 0.004525
# 5 -0.010445 0.043126 -0.008876 -0.000001 0.075913 0.000003
# 6 -0.000001 0.000002 0.000000 0.004525 0.000003 0.073885
#
#
# Mechanical properties :
#
#
# Convention : Reuss Voigt Hill
#
# Bulk Modulus (GPa) = 29.57662 47.73884 38.65773
# Shear Modulus (GPa) = 12.47714 22.37851 17.42783
#
# Velocity S-wave (km/s) = 2.63151 3.52422 3.11006
# Velocity P-wave (km/s) = 5.06440 6.56165 5.86103
#
# Compressibility (1/GPa) = 0.03381049
#
# Stress axis : x y z
#
# Youngs Moduli (GPa) = 50.89058 12.06365 46.41230
#
# Poissons Ratio (x) = 0.21674 -0.08347
# Poissons Ratio (y) = 0.91431 1.34465
# Poissons Ratio (z) = -0.09153 0.34951
#
# Static dielectric constant tensor:
#      x y z
#    x 1.650980 0.000000 0.012240 
#    y 0.000000 1.592990 0.000000 
#    z 0.012240 0.000000 1.629830 
# 
# From -- ./inp_files/161205.got.cif
#   From: 2010.05.17/outbox.cif.g08.bks.cpg/sg12_81_cif.got.tgz:161205.got - 2010.06.03 13:09:07.
