data_PCOD9202738
_publ_section_title
;
Structure prediction by ZEFSAII (Michael W. Deem and Ramdas Pophale) SiO2 
 PCOD9202738
Probable space group: C 2/M
;
_chemical_formula_sum "Si O2"
_cell_formula_units_Z 56
_cell_length_a 26.022665
_cell_length_b 8.758008
_cell_length_c 16.133238
_cell_angle_alpha 90.000000
_cell_angle_beta 134.916662
_cell_angle_gamma 90.000000
_cell_volume 2603.720872
_symmetry_space_group_name_H-M "C 2/M"
_symmetry_group_IT_number 12
_symmetry_cell_setting 'monoclinic'
loop_
_space_group_symop_operation_xyz
x,y,z
-x,y,-z
-x,-y,-z
x,-y,z
1/2+x,1/2+y,z
1/2-x,1/2+y,-z
1/2-x,1/2-y,-z
1/2+x,1/2-y,z
loop_
_atom_site_type_symbol
_atom_site_label
_atom_site_fract_x
_atom_site_fract_y
_atom_site_fract_z
Si Si1 0.432886 0.822836 0.121297
Si Si2 0.119569 0.674654 0.499744
Si Si3 0.452277 0.319160 0.865306
Si Si4 0.327693 0.327448 0.290240
Si Si5 0.826569 0.320393 0.619451
Si Si6 0.281784 0.678361 0.951593
Si Si7 0.548916 0.826133 0.661883
O O1 0.494029 0.720626 0.149198
O O2 0.431674 0.812443 0.219350
O O3 0.445857 0.000000 0.114158
O O4 0.354218 0.764066 0.005998
O O5 0.143311 0.500000 0.542502
O O6 0.167390 0.789739 0.607376
O O7 0.123959 0.697563 0.406822
O O8 0.037361 0.689753 0.437513
O O9 0.441902 0.500000 0.863184
O O10 0.373735 0.249019 0.749380
O O11 0.500000 0.264665 0.000000
O O12 0.304256 0.500000 0.247723
O O13 0.276761 0.208309 0.185828
O O14 0.406091 0.295628 0.338419
O O15 0.815916 0.500000 0.623028
O O16 0.750000 0.250000 0.500000
O O17 0.295807 0.500000 0.980768
O O18 0.250000 0.750000 0.000000
O O19 0.567036 0.000000 0.655174
#
# Coordination Sequence:
#
# PCOD9202738 Si02
#       7
#     8   8   8   8   8   8   8
#     4  11  22  40  67  96 125 165 211 261 319 381
#     4  10  22  42  64  89 125 168 211 259 321 385
#     4  11  25  45  70 101 136 175 219 273 336 401
#     4  12  25  38  58  93 130 169 215 263 314 375
#     4  11  24  45  72 101 132 173 222 278 342 401
#     4  12  24  40  61  88 125 170 214 263 317 377
#     4  10  20  38  63  89 123 166 208 254 313 374
#
# _framework density 21.507681999999999
#
# number of rings (size 3 to 8) (size 9 to 14) (size 15 to 20)
#    0.000    1.000    2.857    4.286    0.000    6.286 
#    0.000    1.429    0.000    0.000    0.000    0.000 
#    0.000    0.000    0.000    0.000    0.000    0.000 
#
# Total GULP energy -156452.460569 kJ/mol
# GULP energy per Si atom -5587.587877 kJ/mol
# Density = 2.145873 g / cm^3
# Si number density = 21.507682 Si / 1000 Ang^3
#
#
#
# Elastic Constant Matrix: (Units=GPa)
#
#
# Indices 1 2 3 4 5 6 
#
# 1 17.1536 -0.2049 22.5620 0.0000 2.4262 0.0000
# 2 -0.2049 46.2633 43.0691 0.0000 -8.4965 0.0000
# 3 22.5620 43.0691 125.0489 0.0000 -1.6000 0.0000
# 4 0.0000 0.0000 0.0000 34.3226 0.0000 1.8050
# 5 2.4262 -8.4965 -1.6000 0.0000 29.7520 0.0000
# 6 0.0000 0.0000 0.0000 1.8050 0.0000 28.3639
#
#
#
# Elastic Compliance Matrix: (Units=1/GPa)
#
#
# Indices 1 2 3 4 5 6 
#
# 1 0.090569 0.022406 -0.024087 0.000000 -0.002282 0.000000
# 2 0.022406 0.039666 -0.017595 0.000000 0.008554 0.000000
# 3 -0.024087 -0.017595 0.018376 0.000000 -0.002072 0.000000
# 4 0.000000 0.000000 0.000000 0.029233 0.000000 -0.001860
# 5 -0.002282 0.008554 -0.002072 0.000000 0.036129 0.000000
# 6 0.000000 0.000000 0.000000 -0.001860 0.000000 0.035375
#
#
# Mechanical properties :
#
#
# Convention : Reuss Voigt Hill
#
# Bulk Modulus (GPa) = 9.08602 35.47981 22.28292
# Shear Modulus (GPa) = 15.40428 26.69035 21.04731
#
# Velocity S-wave (km/s) = 2.67914 3.52656 3.13164
# Velocity P-wave (km/s) = 3.71538 5.75450 4.84347
#
# Compressibility (1/GPa) = 0.11005914
#
# Stress axis : x y z
#
# Youngs Moduli (GPa) = 11.04132 25.21075 54.41801
#
# Poissons Ratio (x) = -0.56488 1.31078
# Poissons Ratio (y) = -0.24739 0.95747
# Poissons Ratio (z) = 0.26595 0.44358
#
# Static dielectric constant tensor:
#      x y z
#    x 1.787570 0.000000 -0.001160 
#    y 0.000000 1.749670 0.000000 
#    z -0.001160 0.000000 1.829950 
# 
# From -- ./inp_files/292578.got.cif
#   From: 2010.05.17/outbox.cif.g08.bks.cpg/sg12_147_cif.got.tgz:292578.got - 2010.06.03 13:09:07.
