data_PCOD9202428
_publ_section_title
;
Structure prediction by ZEFSAII (Michael W. Deem and Ramdas Pophale) SiO2 
 PCOD9202428
Probable space group: C 2/M
;
_chemical_formula_sum "Si O2"
_cell_formula_units_Z 48
_cell_length_a 12.017162
_cell_length_b 17.071518
_cell_length_c 11.943486
_cell_angle_alpha 90.000000
_cell_angle_beta 66.636098
_cell_angle_gamma 90.000000
_cell_volume 2249.313790
_symmetry_space_group_name_H-M "C 2/M"
_symmetry_group_IT_number 12
_symmetry_cell_setting 'monoclinic'
loop_
_space_group_symop_operation_xyz
x,y,z
-x,y,-z
-x,-y,-z
x,-y,z
1/2+x,1/2+y,z
1/2-x,1/2+y,-z
1/2-x,1/2-y,-z
1/2+x,1/2-y,z
loop_
_atom_site_type_symbol
_atom_site_label
_atom_site_fract_x
_atom_site_fract_y
_atom_site_fract_z
Si Si1 0.500049 0.089022 0.874412
Si Si2 0.793308 0.410155 0.810412
Si Si3 0.112928 0.908120 0.093657
Si Si4 0.884028 0.186169 0.240356
Si Si5 0.880321 0.785779 0.490621
Si Si6 0.742650 0.148348 0.746428
O O1 0.412480 0.127693 0.818338
O O2 0.634785 0.086999 0.774433
O O3 0.451307 0.000000 0.908355
O O4 0.500000 0.123242 0.000000
O O5 0.815727 0.500000 0.769898
O O6 0.735683 0.365862 0.730020
O O7 0.696143 0.406861 0.950318
O O8 0.191167 0.874309 0.165576
O O9 0.995104 0.853792 0.131688
O O10 0.079651 0.000000 0.126336
O O11 0.924878 0.184682 0.352786
O O12 0.836439 0.270748 0.218487
O O13 0.750000 0.750000 0.500000
O O14 0.834269 0.843985 0.606389
O O15 0.000000 0.744873 0.500000
#
# Coordination Sequence:
#
# PCOD9202428 Si02
#       6
#     8   8   8   8   8   8
#     4  10  20  38  61  87 121 164 206 253 316 383
#     4  10  22  40  62  88 127 171 206 252 323 390
#     4  11  22  41  64  90 129 170 207 255 321 384
#     4  11  24  38  62  92 127 160 211 264 318 376
#     4  10  22  42  64  90 127 170 210 260 331 382
#     4  11  23  38  64  91 122 157 215 263 315 369
#
# _framework density 21.339842999999998
#
# number of rings (size 3 to 8) (size 9 to 14) (size 15 to 20)
#    0.000    1.500    3.333    1.500    2.333    4.667 
#    0.000    4.167    0.000    2.000    0.000    0.000 
#    0.000    0.000    0.000    0.000    0.000    0.000 
#
# Total GULP energy -133681.571078 kJ/mol
# GULP energy per Si atom -5570.065462 kJ/mol
# Density = 2.129127 g / cm^3
# Si number density = 21.339843 Si / 1000 Ang^3
#
#
#
# Elastic Constant Matrix: (Units=GPa)
#
#
# Indices 1 2 3 4 5 6 
#
# 1 143.8653 19.9462 7.2282 0.0000 23.7324 0.0000
# 2 19.9462 71.1444 11.3908 0.0000 8.4181 0.0000
# 3 7.2282 11.3908 41.6185 0.0000 10.9918 0.0000
# 4 0.0000 0.0000 0.0000 8.4450 0.0000 -3.1970
# 5 23.7324 8.4181 10.9918 0.0000 47.4151 0.0000
# 6 0.0000 0.0000 0.0000 -3.1970 0.0000 26.5656
#
#
#
# Elastic Compliance Matrix: (Units=1/GPa)
#
#
# Indices 1 2 3 4 5 6 
#
# 1 0.007786 -0.001770 0.000084 0.000000 -0.003602 0.000000
# 2 -0.001770 0.015246 -0.003605 0.000000 -0.000985 0.000000
# 3 0.000084 -0.003605 0.026462 0.000000 -0.005536 0.000000
# 4 0.000000 0.000000 0.000000 0.124065 0.000000 0.014930
# 5 -0.003602 -0.000985 -0.005536 0.000000 0.024352 0.000000
# 6 0.000000 0.000000 0.000000 0.014930 0.000000 0.039439
#
#
# Mechanical properties :
#
#
# Convention : Reuss Voigt Hill
#
# Bulk Modulus (GPa) = 25.69964 37.08430 31.39197
# Shear Modulus (GPa) = 19.16410 31.02269 25.09339
#
# Velocity S-wave (km/s) = 2.99999 3.81694 3.43285
# Velocity P-wave (km/s) = 4.90602 6.06968 5.51861
#
# Compressibility (1/GPa) = 0.03891105
#
# Stress axis : x y z
#
# Youngs Moduli (GPa) = 128.42853 65.59112 37.78986
#
# Poissons Ratio (x) = 0.11611 -0.00316
# Poissons Ratio (y) = 0.22734 0.13624
# Poissons Ratio (z) = -0.01073 0.23647
#
# Static dielectric constant tensor:
#      x y z
#    x 1.859160 0.000000 0.008620 
#    y 0.000000 1.856560 0.000000 
#    z 0.008620 0.000000 1.794620 
# 
# From -- ./inp_files/131041.got.cif
#   From: 2010.05.17/outbox.cif.g08.bks.cpg/sg12_66_cif.got.tgz:131041.got - 2010.06.03 13:09:07.
