data_PCOD9202473
_publ_section_title
;
Structure prediction by ZEFSAII (Michael W. Deem and Ramdas Pophale) SiO2 
 PCOD9202473
Probable space group: C 2/M
;
_chemical_formula_sum "Si O2"
_cell_formula_units_Z 48
_cell_length_a 11.869347
_cell_length_b 15.415805
_cell_length_c 11.731836
_cell_angle_alpha 90.000000
_cell_angle_beta 72.821926
_cell_angle_gamma 90.000000
_cell_volume 2050.880568
_symmetry_space_group_name_H-M "C 2/M"
_symmetry_group_IT_number 12
_symmetry_cell_setting 'monoclinic'
loop_
_space_group_symop_operation_xyz
x,y,z
-x,y,-z
-x,-y,-z
x,-y,z
1/2+x,1/2+y,z
1/2-x,1/2+y,-z
1/2-x,1/2-y,-z
1/2+x,1/2-y,z
loop_
_atom_site_type_symbol
_atom_site_label
_atom_site_fract_x
_atom_site_fract_y
_atom_site_fract_z
Si Si1 0.106643 0.741424 0.529021
Si Si2 0.190954 0.846225 0.144025
Si Si3 0.312505 0.093221 0.651222
Si Si4 0.858499 0.644637 0.893545
Si Si5 0.065843 0.902946 0.803927
Si Si6 0.594892 0.789670 0.795821
O O1 0.250000 0.750000 0.500000
O O2 0.115283 0.664396 0.434677
O O3 0.069107 0.723934 0.670390
O O4 0.000000 0.797334 0.500000
O O5 0.159604 0.748222 0.115935
O O6 0.068697 0.895394 0.196543
O O7 0.276509 0.830233 0.225042
O O8 0.272410 0.885152 0.019351
O O9 0.328724 0.101400 0.782288
O O10 0.170331 0.099619 0.679233
O O11 0.351402 0.000000 0.599078
O O12 0.998269 0.643943 0.872426
O O13 0.088322 0.807467 0.855732
O O14 0.078266 0.000000 0.855044
#
# Coordination Sequence:
#
# PCOD9202473 Si02
#       6
#     8   8   8   8   8   8
#     4  12  24  41  70  99 128 174 225 280 335 404
#     4  10  21  37  65  93 127 170 216 265 326 399
#     4  11  23  42  64  96 131 171 219 274 334 398
#     4  10  20  38  61  93 126 169 218 266 317 393
#     4  10  22  40  64  96 135 169 214 277 343 394
#     4  11  21  40  68  92 129 167 228 269 327 392
#
# _framework density 23.404582000000001
#
# number of rings (size 3 to 8) (size 9 to 14) (size 15 to 20)
#    0.000    1.333    5.000    0.500    2.333    1.667 
#    0.000    3.333    0.000    5.000    0.000    0.000 
#    0.000    0.000    0.000    0.000    0.000    0.000 
#
# Total GULP energy -133623.137768 kJ/mol
# GULP energy per Si atom -5567.630740 kJ/mol
# Density = 2.335131 g / cm^3
# Si number density = 23.404582 Si / 1000 Ang^3
#
#
#
# Elastic Constant Matrix: (Units=GPa)
#
#
# Indices 1 2 3 4 5 6 
#
# 1 157.6722 21.0790 27.0194 0.0000 -18.1650 0.0000
# 2 21.0790 63.1346 6.4664 0.0000 -6.9241 0.0000
# 3 27.0194 6.4664 94.2052 0.0000 0.9670 0.0000
# 4 0.0000 0.0000 0.0000 -3.3967 0.0000 3.5884
# 5 -18.1650 -6.9241 0.9670 0.0000 41.0563 0.0000
# 6 0.0000 0.0000 0.0000 3.5884 0.0000 15.5745
#
#
#
# Elastic Compliance Matrix: (Units=1/GPa)
#
#
# Indices 1 2 3 4 5 6 
#
# 1 0.007276 -0.001903 -0.001987 0.000000 0.002945 0.000000
# 2 -0.001903 0.016758 -0.000625 0.000000 0.001999 0.000000
# 3 -0.001987 -0.000625 0.011241 0.000000 -0.001249 0.000000
# 4 0.000000 0.000000 0.000000 -0.236775 0.000000 0.054553
# 5 0.002945 0.001999 -0.001249 0.000000 0.026026 0.000000
# 6 0.000000 0.000000 0.000000 0.054553 0.000000 0.051638
#
#
# Mechanical properties :
#
#
# Convention : Reuss Voigt Hill
#
# Bulk Modulus (GPa) = 38.10139 47.12684 42.61412
# Shear Modulus (GPa) = -47.14423 28.00998 -9.56712
#
# Velocity S-wave (km/s) = -4.49298 3.46319 -2.02400
# Velocity P-wave (km/s) = 3.25593 6.01424 3.57561
#
# Compressibility (1/GPa) = 0.02624576
#
# Stress axis : x y z
#
# Youngs Moduli (GPa) = 137.43025 59.67386 88.96298
#
# Poissons Ratio (x) = 0.11355 0.17673
# Poissons Ratio (y) = 0.26152 0.05560
# Poissons Ratio (z) = 0.27302 0.03730
#
# Static dielectric constant tensor:
#      x y z
#    x 2.089960 0.000000 0.011920 
#    y 0.000000 1.932670 0.000000 
#    z 0.011920 0.000000 1.882250 
# 
# From -- ./inp_files/131659.got.cif
#   From: 2010.05.17/outbox.cif.g08.bks.cpg/sg12_66_cif.got.tgz:131659.got - 2010.06.03 13:09:07.
