data_PCOD9202486
_publ_section_title
;
Structure prediction by ZEFSAII (Michael W. Deem and Ramdas Pophale) SiO2 
 PCOD9202486
Probable space group: C 2/M
;
_chemical_formula_sum "Si O2"
_cell_formula_units_Z 42
_cell_length_a 7.486121
_cell_length_b 15.440023
_cell_length_c 17.070641
_cell_angle_alpha 90.000000
_cell_angle_beta 57.164264
_cell_angle_gamma 90.000000
_cell_volume 1657.876057
_symmetry_space_group_name_H-M "C 2/M"
_symmetry_group_IT_number 12
_symmetry_cell_setting 'monoclinic'
loop_
_space_group_symop_operation_xyz
x,y,z
-x,y,-z
-x,-y,-z
x,-y,z
1/2+x,1/2+y,z
1/2-x,1/2+y,-z
1/2-x,1/2-y,-z
1/2+x,1/2-y,z
loop_
_atom_site_type_symbol
_atom_site_label
_atom_site_fract_x
_atom_site_fract_y
_atom_site_fract_z
Si Si1 0.168967 0.860403 0.139110
Si Si2 0.157659 0.000000 0.726297
Si Si3 0.500000 0.815701 0.500000
Si Si4 0.026348 0.321552 0.172441
Si Si5 0.392385 0.500000 0.644465
Si Si6 0.423899 0.000000 0.806163
Si Si7 0.500000 0.000000 0.000000
Si Si8 0.310988 0.838722 0.385880
O O1 0.962861 0.914335 0.213436
O O2 0.116276 0.766725 0.116991
O O3 0.301731 0.835085 0.184454
O O4 0.318536 0.924174 0.055902
O O5 0.105126 0.000000 0.646168
O O6 0.372611 0.000000 0.726027
O O7 0.422580 0.864640 0.440928
O O8 0.312360 0.750828 0.570879
O O9 0.151618 0.412584 0.134158
O O10 0.977393 0.319242 0.276844
O O11 0.350647 0.413085 0.605136
O O12 0.181125 0.500000 0.751350
#
# Coordination Sequence:
#
# PCOD9202486 Si02
#       8
#     8   4   4   8   4   4   2   8
#     4  11  22  41  67  97 135 173 220 275 334 395
#     4  11  20  38  62  95 129 170 216 284 324 387
#     4  10  22  38  58  88 130 172 212 274 348 384
#     4  11  21  40  69  97 126 175 235 276 317 405
#     4  10  21  41  58  90 128 169 220 287 317 391
#     4  10  20  38  62 102 127 161 220 292 328 363
#     4  10  26  44  64  96 148 176 206 278 344 398
#     4  10  21  39  60  88 128 170 219 278 327 395
#
# _framework density 25.33362
#
# number of rings (size 3 to 8) (size 9 to 14) (size 15 to 20)
#    0.000    1.524    3.810    2.857    0.000    3.048 
#    6.857    0.000    0.000    6.286    0.000    0.000 
#    0.000    0.000    0.000    0.000    0.000    0.000 
#
# Total GULP energy -117181.519536 kJ/mol
# GULP energy per Si atom -5580.072359 kJ/mol
# Density = 2.527596 g / cm^3
# Si number density = 25.333620 Si / 1000 Ang^3
#
#
#
# Elastic Constant Matrix: (Units=GPa)
#
#
# Indices 1 2 3 4 5 6 
#
# 1 75.1448 0.3919 7.1904 0.0001 23.6837 0.0000
# 2 0.3919 184.0980 25.0989 0.0001 -20.7556 0.0000
# 3 7.1904 25.0989 82.3480 0.0001 6.4959 0.0000
# 4 0.0001 0.0001 0.0001 -71.0186 0.0000 14.0032
# 5 23.6837 -20.7556 6.4959 0.0000 30.7438 0.0000
# 6 0.0000 0.0000 0.0000 14.0032 0.0000 25.9216
#
#
#
# Elastic Compliance Matrix: (Units=1/GPa)
#
#
# Indices 1 2 3 4 5 6 
#
# 1 0.018078 -0.001768 0.000156 0.000000 -0.015153 0.000000
# 2 -0.001768 0.006448 -0.002300 0.000000 0.006201 0.000000
# 3 0.000156 -0.002300 0.013183 0.000000 -0.004458 0.000000
# 4 0.000000 0.000000 0.000000 -0.012725 0.000000 0.006874
# 5 -0.015153 0.006201 -0.004458 0.000000 0.049329 0.000000
# 6 0.000000 0.000000 0.000000 0.006874 0.000000 0.034864
#
#
# Mechanical properties :
#
#
# Convention : Reuss Voigt Hill
#
# Bulk Modulus (GPa) = 33.46301 45.21702 39.34002
# Shear Modulus (GPa) = 39.38158 17.72334 28.55246
#
# Velocity S-wave (km/s) = 3.94702 2.64786 3.36081
# Velocity P-wave (km/s) = 5.83177 5.21877 5.53376
#
# Compressibility (1/GPa) = 0.02988374
#
# Stress axis : x y z
#
# Youngs Moduli (GPa) = 55.31662 155.07670 75.85663
#
# Poissons Ratio (x) = 0.27419 -0.01181
# Poissons Ratio (y) = 0.09780 0.17449
# Poissons Ratio (z) = -0.00861 0.35671
#
# Static dielectric constant tensor:
#      x y z
#    x 2.014780 0.000000 0.045970 
#    y 0.000000 2.081130 0.000000 
#    z 0.045970 0.000000 2.043110 
# 
# From -- ./inp_files/255329.got.cif
#   From: 2010.05.17/outbox.cif.g08.bks.cpg/sg12_128_cif.got.tgz:255329.got - 2010.06.03 13:09:07.
