data_PCOD9202061
_publ_section_title
;
Structure prediction by ZEFSAII (Michael W. Deem and Ramdas Pophale) SiO2 
 PCOD9202061
Probable space group: C 2/M
;
_chemical_formula_sum "Si O2"
_cell_formula_units_Z 56
_cell_length_a 19.439062
_cell_length_b 8.695129
_cell_length_c 28.095973
_cell_angle_alpha 90.000000
_cell_angle_beta 139.733281
_cell_angle_gamma 90.000000
_cell_volume 3069.452545
_symmetry_space_group_name_H-M "C 2/M"
_symmetry_group_IT_number 12
_symmetry_cell_setting 'monoclinic'
loop_
_space_group_symop_operation_xyz
x,y,z
-x,y,-z
-x,-y,-z
x,-y,z
1/2+x,1/2+y,z
1/2-x,1/2+y,-z
1/2-x,1/2-y,-z
1/2+x,1/2-y,z
loop_
_atom_site_type_symbol
_atom_site_label
_atom_site_fract_x
_atom_site_fract_y
_atom_site_fract_z
Si Si1 0.315661 0.174186 0.805582
Si Si2 0.820662 0.816183 0.709899
Si Si3 0.575759 0.814587 0.582696
Si Si4 0.224759 0.317621 0.934449
Si Si5 0.874112 0.678239 0.937837
Si Si6 0.531124 0.687271 0.767492
Si Si7 0.061605 0.826364 0.674824
O O1 0.354293 0.266403 0.780631
O O2 0.338048 0.245458 0.868405
O O3 0.188826 0.163935 0.736705
O O4 0.360401 0.000000 0.828309
O O5 0.698447 0.760740 0.638925
O O6 0.914166 0.764680 0.724123
O O7 0.817052 0.000000 0.705089
O O8 0.500000 0.761443 0.500000
O O9 0.531575 0.763606 0.611007
O O10 0.578322 0.000000 0.583834
O O11 0.211325 0.500000 0.931213
O O12 0.325663 0.272724 0.955151
O O13 0.122712 0.249863 0.851421
O O14 0.250000 0.250000 0.000000
O O15 0.834825 0.500000 0.920945
O O16 0.000000 0.674165 0.000000
O O17 0.539324 0.500000 0.772420
O O18 0.542705 0.736121 0.718206
O O19 0.017126 0.000000 0.649594
#
# Coordination Sequence:
#
# PCOD9202061 Si02
#       7
#     8   8   8   8   8   8   8
#     4   9  17  32  52  75 104 137 175 221 270 320
#     4   9  19  33  54  80 107 142 183 223 268 325
#     4   9  18  34  55  81 113 144 178 222 271 325
#     4  12  26  41  58  80 111 150 191 234 285 338
#     4  10  21  38  58  80 109 142 181 230 282 330
#     4  10  20  38  58  79 110 145 185 232 280 330
#     4   9  17  32  55  77 103 140 179 219 268 324
#
# _framework density 18.244295000000001
#
# number of rings (size 3 to 8) (size 9 to 14) (size 15 to 20)
#    0.000    2.286    1.429    1.286    2.000    2.286 
#    0.000    0.714    0.000    0.000    0.000    0.000 
#    0.000    0.000    0.000    0.000    0.000    0.000 
#
# Total GULP energy -155945.483992 kJ/mol
# GULP energy per Si atom -5569.481571 kJ/mol
# Density = 1.820277 g / cm^3
# Si number density = 18.244295 Si / 1000 Ang^3
#
#
#
# Elastic Constant Matrix: (Units=GPa)
#
#
# Indices 1 2 3 4 5 6 
#
# 1 144.4052 29.6287 68.4552 0.0000 -18.6300 0.0000
# 2 29.6287 30.5564 31.8849 0.0000 -4.8703 -0.0001
# 3 68.4552 31.8849 106.1749 0.0000 -30.8505 0.0000
# 4 0.0000 0.0000 0.0000 19.5224 0.0000 -5.1959
# 5 -18.6300 -4.8703 -30.8505 0.0000 28.9328 0.0000
# 6 0.0000 -0.0001 0.0000 -5.1959 0.0000 23.6435
#
#
#
# Elastic Compliance Matrix: (Units=1/GPa)
#
#
# Indices 1 2 3 4 5 6 
#
# 1 0.010381 -0.004561 -0.005222 0.000000 0.000348 0.000000
# 2 -0.004561 0.051969 -0.015905 0.000000 -0.011148 0.000000
# 3 -0.005222 -0.015905 0.022902 0.000000 0.018380 0.000000
# 4 0.000000 0.000000 0.000000 0.054405 0.000000 0.011956
# 5 0.000348 -0.011148 0.018380 0.000000 0.052509 0.000000
# 6 0.000000 0.000000 0.000000 0.011956 0.000000 0.044922
#
#
# Mechanical properties :
#
#
# Convention : Reuss Voigt Hill
#
# Bulk Modulus (GPa) = 29.51978 60.11934 44.81956
# Shear Modulus (GPa) = 16.68013 24.49761 20.58887
#
# Velocity S-wave (km/s) = 3.02696 3.66834 3.36297
# Velocity P-wave (km/s) = 5.33217 7.13906 6.30073
#
# Compressibility (1/GPa) = 0.03387559
#
# Stress axis : x y z
#
# Youngs Moduli (GPa) = 96.32600 19.24241 43.66352
#
# Poissons Ratio (x) = 0.08777 0.22802
# Poissons Ratio (y) = 0.43938 0.69446
# Poissons Ratio (z) = 0.50304 0.30605
#
# Static dielectric constant tensor:
#      x y z
#    x 1.640080 0.000000 0.014190 
#    y 0.000000 1.652290 0.000000 
#    z 0.014190 0.000000 1.656710 
# 
# From -- ./inp_files/342340.got.cif
#   From: 2010.05.17/outbox.cif.g08.bks.cpg/sg12_172_cif.got.tgz:342340.got - 2010.06.03 13:09:07.
