data_PCOD9202372
_publ_section_title
;
Structure prediction by ZEFSAII (Michael W. Deem and Ramdas Pophale) SiO2 
 PCOD9202372
Probable space group: C 2/M
;
_chemical_formula_sum "Si O2"
_cell_formula_units_Z 48
_cell_length_a 20.462155
_cell_length_b 22.273121
_cell_length_c 9.725223
_cell_angle_alpha 90.000000
_cell_angle_beta 28.985850
_cell_angle_gamma 90.000000
_cell_volume 2147.878419
_symmetry_space_group_name_H-M "C 2/M"
_symmetry_group_IT_number 12
_symmetry_cell_setting 'monoclinic'
loop_
_space_group_symop_operation_xyz
x,y,z
-x,y,-z
-x,-y,-z
x,-y,z
1/2+x,1/2+y,z
1/2-x,1/2+y,-z
1/2-x,1/2-y,-z
1/2+x,1/2-y,z
loop_
_atom_site_type_symbol
_atom_site_label
_atom_site_fract_x
_atom_site_fract_y
_atom_site_fract_z
Si Si1 0.629969 0.246591 0.333874
Si Si2 0.106937 0.748008 0.691662
Si Si3 0.426827 0.430946 0.779018
Si Si4 0.112975 0.392538 0.694795
Si Si5 0.387352 0.569001 0.324357
Si Si6 0.377471 0.896545 0.631471
O O1 0.500000 0.274601 0.500000
O O2 0.631345 0.269980 0.489360
O O3 0.608683 0.175410 0.392354
O O4 0.750000 0.250000 0.000000
O O5 0.250000 0.750000 0.500000
O O6 0.072448 0.677100 0.745633
O O7 0.000000 0.775282 0.000000
O O8 0.500000 0.430098 0.500000
O O9 0.409580 0.500000 0.858098
O O10 0.530740 0.403610 0.698153
O O11 0.276120 0.407002 0.039920
O O12 0.256889 0.397283 0.505652
O O13 0.116362 0.419725 0.536362
O O14 0.000000 0.420319 0.000000
O O15 0.344287 0.500000 0.435743
O O16 0.500000 0.566620 0.000000
O O17 0.500000 0.920523 0.500000
#
# Coordination Sequence:
#
# PCOD9202372 Si02
#       6
#     8   8   8   8   8   8
#     4  10  21  39  59  83 116 151 194 238 285 348
#     4  10  21  39  58  84 117 151 189 240 293 341
#     4  10  22  40  59  85 119 154 195 240 289 342
#     4  10  22  38  59  87 117 151 193 237 286 347
#     4  10  20  38  61  84 117 155 193 241 288 339
#     4  10  22  39  59  85 117 153 191 238 289 342
#
# _framework density 22.347632999999998
#
# number of rings (size 3 to 8) (size 9 to 14) (size 15 to 20)
#    0.000    2.000    1.667    1.000    2.333    3.333 
#    3.000    0.000    0.000    0.000    0.000    0.000 
#    0.000    0.000    0.000    0.000    0.000    0.000 
#
# Total GULP energy -133820.920964 kJ/mol
# GULP energy per Si atom -5575.871707 kJ/mol
# Density = 2.229677 g / cm^3
# Si number density = 22.347633 Si / 1000 Ang^3
#
#
#
# Elastic Constant Matrix: (Units=GPa)
#
#
# Indices 1 2 3 4 5 6 
#
# 1 212.4675 -1.4164 96.3040 0.0029 -0.8492 0.0011
# 2 -1.4164 44.0966 -10.1737 0.0010 2.3973 0.0009
# 3 96.3040 -10.1737 176.4336 0.0008 4.2924 0.0018
# 4 0.0029 0.0010 0.0008 31.1575 -0.0037 5.1628
# 5 -0.8492 2.3973 4.2924 -0.0037 35.5757 -0.0015
# 6 0.0011 0.0009 0.0018 5.1628 -0.0015 18.7091
#
#
#
# Elastic Compliance Matrix: (Units=1/GPa)
#
#
# Indices 1 2 3 4 5 6 
#
# 1 0.006283 -0.000635 -0.003481 0.000000 0.000613 0.000000
# 2 -0.000635 0.023152 0.001725 -0.000001 -0.001783 -0.000001
# 3 -0.003481 0.001725 0.007695 0.000000 -0.001128 -0.000001
# 4 0.000000 -0.000001 0.000000 0.033633 0.000003 -0.009281
# 5 0.000613 -0.001783 -0.001128 0.000003 0.028380 0.000002
# 6 0.000000 -0.000001 -0.000001 -0.009281 0.000002 0.056011
#
#
# Mechanical properties :
#
#
# Convention : Reuss Voigt Hill
#
# Bulk Modulus (GPa) = 30.91370 66.93617 48.92493
# Shear Modulus (GPa) = 29.28828 40.30737 34.79782
#
# Velocity S-wave (km/s) = 3.62412 4.25155 3.95031
# Velocity P-wave (km/s) = 5.60138 7.35651 6.53810
#
# Compressibility (1/GPa) = 0.03234812
#
# Stress axis : x y z
#
# Youngs Moduli (GPa) = 159.17205 43.19282 129.96033
#
# Poissons Ratio (x) = 0.02741 0.45236
# Poissons Ratio (y) = 0.10101 -0.22415
# Poissons Ratio (z) = 0.55403 -0.07450
#
# Static dielectric constant tensor:
#      x y z
#    x 1.979530 0.000000 0.043180 
#    y 0.000000 1.938100 0.000000 
#    z 0.043180 0.000000 1.785730 
# 
# From -- ./inp_files/42226.got.cif
#   From: 2010.05.17/outbox.cif.g08.bks.cpg/sg12_22_cif.got.tgz:42226.got - 2010.06.03 13:09:07.
