data_PCOD9202648
_publ_section_title
;
Structure prediction by ZEFSAII (Michael W. Deem and Ramdas Pophale) SiO2 
 PCOD9202648
Probable space group: C 2/M
;
_chemical_formula_sum "Si O2"
_cell_formula_units_Z 48
_cell_length_a 11.480728
_cell_length_b 17.903272
_cell_length_c 11.411876
_cell_angle_alpha 90.000000
_cell_angle_beta 87.104661
_cell_angle_gamma 90.000000
_cell_volume 2342.632356
_symmetry_space_group_name_H-M "C 2/M"
_symmetry_group_IT_number 12
_symmetry_cell_setting 'monoclinic'
loop_
_space_group_symop_operation_xyz
x,y,z
-x,y,-z
-x,-y,-z
x,-y,z
1/2+x,1/2+y,z
1/2-x,1/2+y,-z
1/2-x,1/2-y,-z
1/2+x,1/2-y,z
loop_
_atom_site_type_symbol
_atom_site_label
_atom_site_fract_x
_atom_site_fract_y
_atom_site_fract_z
Si Si1 0.098263 0.582515 0.165898
Si Si2 0.440451 0.140393 0.379724
Si Si3 0.379262 0.763847 0.942267
Si Si4 0.320893 0.412460 0.566190
Si Si5 0.844510 0.082621 0.284578
Si Si6 0.975771 0.199798 0.707226
O O1 0.085050 0.500000 0.117399
O O2 0.106653 0.647259 0.071338
O O3 0.218470 0.585980 0.233028
O O4 0.998805 0.599898 0.266153
O O5 0.500000 0.118563 0.500000
O O6 0.306505 0.117599 0.394232
O O7 0.465957 0.228446 0.357555
O O8 0.388229 0.730163 0.810566
O O9 0.500000 0.738149 0.000000
O O10 0.250000 0.750000 0.000000
O O11 0.336741 0.500000 0.598787
O O12 0.332259 0.409263 0.425205
O O13 0.411357 0.356618 0.622607
O O14 0.924424 0.149817 0.238180
O O15 0.894488 0.000000 0.257790
#
# Coordination Sequence:
#
# PCOD9202648 Si02
#       6
#     8   8   8   8   8   8
#     4  10  22  39  64  93 125 163 204 255 317 383
#     4  11  22  35  60  94 132 170 206 248 300 378
#     4  11  26  47  68  89 119 162 217 280 332 371
#     4  11  23  38  61  95 137 172 204 245 305 384
#     4  10  20  38  62  93 135 170 196 241 310 385
#     4  11  25  38  64  90 124 166 215 261 311 377
#
# _framework density 20.489771000000001
#
# number of rings (size 3 to 8) (size 9 to 14) (size 15 to 20)
#    0.000    1.333    1.667    3.500    9.333    3.667 
#    0.000    1.667    0.000    4.500    0.000    0.000 
#    0.000    0.000    0.000    0.000    0.000    0.000 
#
# Total GULP energy -134108.507788 kJ/mol
# GULP energy per Si atom -5587.854491 kJ/mol
# Density = 2.044314 g / cm^3
# Si number density = 20.489771 Si / 1000 Ang^3
#
#
#
# Elastic Constant Matrix: (Units=GPa)
#
#
# Indices 1 2 3 4 5 6 
#
# 1 106.2658 42.8865 21.7463 0.0000 -12.5614 0.0000
# 2 42.8865 125.1120 38.7303 0.0000 -12.0670 0.0000
# 3 21.7463 38.7303 47.2885 0.0000 -9.1439 0.0000
# 4 0.0000 0.0000 0.0000 20.3409 0.0000 5.6281
# 5 -12.5614 -12.0670 -9.1439 0.0000 39.5286 0.0000
# 6 0.0000 0.0000 0.0000 5.6281 0.0000 33.6738
#
#
#
# Elastic Compliance Matrix: (Units=1/GPa)
#
#
# Indices 1 2 3 4 5 6 
#
# 1 0.011341 -0.002939 -0.002391 0.000000 0.002153 0.000000
# 2 -0.002939 0.011534 -0.007950 0.000000 0.000748 0.000000
# 3 -0.002391 -0.007950 0.029459 0.000000 0.003628 0.000000
# 4 0.000000 0.000000 0.000000 0.051546 0.000000 -0.008615
# 5 0.002153 0.000748 0.003628 0.000000 0.027050 0.000000
# 6 0.000000 0.000000 0.000000 -0.008615 0.000000 0.031137
#
#
# Mechanical properties :
#
#
# Convention : Reuss Voigt Hill
#
# Bulk Modulus (GPa) = 38.80186 53.93249 46.36717
# Shear Modulus (GPa) = 25.35277 30.39555 27.87416
#
# Velocity S-wave (km/s) = 3.52140 3.85574 3.69235
# Velocity P-wave (km/s) = 5.95919 6.79714 6.39191
#
# Compressibility (1/GPa) = 0.02577196
#
# Stress axis : x y z
#
# Youngs Moduli (GPa) = 88.17918 86.70351 33.94541
#
# Poissons Ratio (x) = 0.25486 0.08117
# Poissons Ratio (y) = 0.25920 0.26986
# Poissons Ratio (z) = 0.21086 0.68928
#
# Static dielectric constant tensor:
#      x y z
#    x 1.760830 0.000000 0.032700 
#    y 0.000000 1.738860 0.000000 
#    z 0.032700 0.000000 1.729210 
# 
# From -- ./inp_files/131027.got.cif
#   From: 2010.05.17/outbox.cif.g08.bks.cpg/sg12_66_cif.got.tgz:131027.got - 2010.06.03 13:09:07.
