data_PCOD9202395
_publ_section_title
;
Structure prediction by ZEFSAII (Michael W. Deem and Ramdas Pophale) SiO2 
 PCOD9202395
Probable space group: C 2/M
;
_chemical_formula_sum "Si O2"
_cell_formula_units_Z 56
_cell_length_a 10.389184
_cell_length_b 15.589168
_cell_length_c 16.641402
_cell_angle_alpha 90.000000
_cell_angle_beta 87.945336
_cell_angle_gamma 90.000000
_cell_volume 2693.487590
_symmetry_space_group_name_H-M "C 2/M"
_symmetry_group_IT_number 12
_symmetry_cell_setting 'monoclinic'
loop_
_space_group_symop_operation_xyz
x,y,z
-x,y,-z
-x,-y,-z
x,-y,z
1/2+x,1/2+y,z
1/2-x,1/2+y,-z
1/2-x,1/2-y,-z
1/2+x,1/2-y,z
loop_
_atom_site_type_symbol
_atom_site_label
_atom_site_fract_x
_atom_site_fract_y
_atom_site_fract_z
Si Si1 0.146769 0.901607 0.496596
Si Si2 0.013062 0.151495 0.762437
Si Si3 0.751400 0.661919 0.651758
Si Si4 0.101731 0.601899 0.062356
Si Si5 0.259634 0.366352 0.682330
Si Si6 0.891647 0.896612 0.063705
Si Si7 0.013558 0.642003 0.244360
O O1 0.237602 0.853122 0.557583
O O2 0.204077 0.900238 0.406181
O O3 0.000000 0.865708 0.500000
O O4 0.137876 0.000000 0.524681
O O5 0.120823 0.126797 0.694899
O O6 0.063554 0.124876 0.847789
O O7 0.875678 0.113657 0.740576
O O8 0.999439 0.254621 0.760533
O O9 0.755786 0.763184 0.670192
O O10 0.874320 0.622387 0.693878
O O11 0.111222 0.500000 0.046738
O O12 0.247081 0.637311 0.051981
O O13 0.052686 0.612883 0.154531
O O14 0.000000 0.637731 0.000000
O O15 0.122623 0.392798 0.721224
O O16 0.886740 0.000000 0.056521
O O17 0.000000 0.864269 0.000000
#
# Coordination Sequence:
#
# PCOD9202395 Si02
#       7
#     8   8   8   8   8   8   8
#     4  11  23  38  59  88 118 151 195 239 282 336
#     4  10  20  38  61  86 115 150 196 239 280 338
#     4  10  20  40  61  82 117 154 191 234 288 344
#     4  10  22  40  59  83 119 156 189 232 289 346
#     4  10  22  38  59  86 117 151 191 238 286 343
#     4  10  22  39  60  86 115 153 196 234 281 341
#     4  10  22  38  60  88 114 150 193 237 290 340
#
# _framework density 20.790887999999999
#
# number of rings (size 3 to 8) (size 9 to 14) (size 15 to 20)
#    0.000    1.857    2.857    0.429    2.000    3.429 
#    0.000    2.143    0.000    0.000    0.000    0.000 
#    0.000    0.000    0.000    0.000    0.000    0.000 
#
# Total GULP energy -156416.406585 kJ/mol
# GULP energy per Si atom -5586.300235 kJ/mol
# Density = 2.074357 g / cm^3
# Si number density = 20.790888 Si / 1000 Ang^3
#
#
#
# Elastic Constant Matrix: (Units=GPa)
#
#
# Indices 1 2 3 4 5 6 
#
# 1 192.4868 21.3970 79.5747 0.0000 17.7404 0.0000
# 2 21.3970 18.8474 2.5087 0.0000 3.7109 0.0000
# 3 79.5747 2.5087 122.2005 0.0000 17.3131 0.0000
# 4 0.0000 0.0000 0.0000 31.9304 0.0000 4.6514
# 5 17.7404 3.7109 17.3131 0.0000 43.1170 0.0000
# 6 0.0000 0.0000 0.0000 4.6514 0.0000 4.3085
#
#
#
# Elastic Compliance Matrix: (Units=1/GPa)
#
#
# Indices 1 2 3 4 5 6 
#
# 1 0.008356 -0.008677 -0.005176 0.000000 -0.000613 0.000000
# 2 -0.008677 0.063008 0.004898 0.000000 -0.003819 0.000000
# 3 -0.005176 0.004898 0.011888 0.000000 -0.003065 0.000000
# 4 0.000000 0.000000 0.000000 0.037163 0.000000 -0.040120
# 5 -0.000613 -0.003819 -0.003065 0.000000 0.025004 0.000000
# 6 0.000000 0.000000 0.000000 -0.040120 0.000000 0.275414
#
#
# Mechanical properties :
#
#
# Convention : Reuss Voigt Hill
#
# Bulk Modulus (GPa) = 15.30423 60.05506 37.67965
# Shear Modulus (GPa) = 10.85719 31.20815 21.03267
#
# Velocity S-wave (km/s) = 2.28767 3.87854 3.18406
# Velocity P-wave (km/s) = 3.78879 7.00039 5.62851
#
# Compressibility (1/GPa) = 0.06534139
#
# Stress axis : x y z
#
# Youngs Moduli (GPa) = 119.67305 15.87090 84.12023
#
# Poissons Ratio (x) = 0.13771 0.43544
# Poissons Ratio (y) = 1.03838 -0.41200
# Poissons Ratio (z) = 0.61947 -0.07773
#
# Static dielectric constant tensor:
#      x y z
#    x 1.757960 0.000000 -0.003470 
#    y 0.000000 1.779320 0.000000 
#    z -0.003470 0.000000 1.707150 
# 
# From -- ./inp_files/197520.got.cif
#   From: 2010.05.17/outbox.cif.g08.bks.cpg/sg12_99_cif.got.tgz:197520.got - 2010.06.03 13:09:07.
