data_PCOD9202360
_publ_section_title
;
Structure prediction by ZEFSAII (Michael W. Deem and Ramdas Pophale) SiO2 
 PCOD9202360
Probable space group: C 2/M
;
_chemical_formula_sum "Si O2"
_cell_formula_units_Z 64
_cell_length_a 10.759504
_cell_length_b 19.093280
_cell_length_c 21.491452
_cell_angle_alpha 90.000000
_cell_angle_beta 137.401121
_cell_angle_gamma 90.000000
_cell_volume 2988.397789
_symmetry_space_group_name_H-M "C 2/M"
_symmetry_group_IT_number 12
_symmetry_cell_setting 'monoclinic'
loop_
_space_group_symop_operation_xyz
x,y,z
-x,y,-z
-x,-y,-z
x,-y,z
1/2+x,1/2+y,z
1/2-x,1/2+y,-z
1/2-x,1/2-y,-z
1/2+x,1/2-y,z
loop_
_atom_site_type_symbol
_atom_site_label
_atom_site_fract_x
_atom_site_fract_y
_atom_site_fract_z
Si Si1 0.287361 0.154936 0.618695
Si Si2 0.804121 0.078474 0.536996
Si Si3 0.785503 0.225302 0.943154
Si Si4 0.770636 0.186166 0.622854
Si Si5 0.302468 0.299858 0.207753
Si Si6 0.267942 0.422088 0.272868
Si Si7 0.282620 0.843393 0.256306
Si Si8 0.297856 0.421390 0.895423
O O1 0.186674 0.110441 0.528495
O O2 0.205700 0.233214 0.596264
O O3 0.288021 0.116443 0.684667
O O4 0.499177 0.156389 0.675014
O O5 0.702596 0.135284 0.543150
O O6 0.010534 0.072261 0.639303
O O7 0.723170 0.000000 0.506450
O O8 0.694897 0.280961 0.863225
O O9 0.713374 0.146895 0.899440
O O10 0.750000 0.250000 0.000000
O O11 0.000000 0.225675 0.000000
O O12 0.748436 0.150629 0.681899
O O13 0.988230 0.196128 0.692980
O O14 0.216205 0.372634 0.196312
O O15 0.213008 0.233652 0.209658
O O16 0.194433 0.500000 0.240838
O O17 0.199053 0.898484 0.176315
O O18 0.217829 0.500000 0.871200
O O19 0.500000 0.425605 0.000000
#
# Coordination Sequence:
#
# PCOD9202360 Si02
#       8
#     8   8   8   8   8   8   8   8
#     4  11  21  36  58  85 117 151 195 243 296 350
#     4  10  22  39  56  83 115 154 198 240 292 351
#     4  10  22  37  63  92 120 158 200 247 302 356
#     4  10  21  37  58  81 116 153 198 240 290 348
#     4   9  20  36  59  82 116 149 198 240 286 349
#     4  10  20  38  61  84 113 154 197 243 291 348
#     4  10  21  36  58  86 114 153 193 241 292 349
#     4   9  20  38  59  86 120 155 196 238 289 359
#
# _framework density 21.416159
#
# number of rings (size 3 to 8) (size 9 to 14) (size 15 to 20)
#    0.000    2.125    1.250    1.125    5.250    4.000 
#    2.250    1.250    0.000    0.750    0.000    0.000 
#    0.000    0.000    0.000    0.000    0.000    0.000 
#
# Total GULP energy -178562.228882 kJ/mol
# GULP energy per Si atom -5580.069653 kJ/mol
# Density = 2.136742 g / cm^3
# Si number density = 21.416159 Si / 1000 Ang^3
#
#
#
# Elastic Constant Matrix: (Units=GPa)
#
#
# Indices 1 2 3 4 5 6 
#
# 1 52.2887 46.3708 10.7629 0.0000 -22.9660 0.0000
# 2 46.3708 203.2193 57.9756 0.0000 -42.4170 0.0000
# 3 10.7629 57.9756 82.4464 0.0000 -28.5694 0.0000
# 4 0.0000 0.0000 0.0000 6.7501 0.0000 -1.0314
# 5 -22.9660 -42.4170 -28.5694 0.0000 49.9467 0.0000
# 6 0.0000 0.0000 0.0000 -1.0314 0.0000 11.6694
#
#
#
# Elastic Compliance Matrix: (Units=1/GPa)
#
#
# Indices 1 2 3 4 5 6 
#
# 1 0.027482 -0.005144 0.003610 0.000000 0.010333 0.000000
# 2 -0.005144 0.007629 -0.004076 0.000000 0.001783 0.000000
# 3 0.003610 -0.004076 0.017336 0.000000 0.008115 0.000000
# 4 0.000000 0.000000 0.000000 0.150173 0.000000 0.013273
# 5 0.010333 0.001783 0.008115 0.000000 0.030928 0.000000
# 6 0.000000 0.000000 0.000000 0.013273 0.000000 0.086867
#
#
# Mechanical properties :
#
#
# Convention : Reuss Voigt Hill
#
# Bulk Modulus (GPa) = 24.25552 63.13033 43.69292
# Shear Modulus (GPa) = 14.47695 28.52959 21.50327
#
# Velocity S-wave (km/s) = 2.60279 3.65383 3.17214
# Velocity P-wave (km/s) = 4.51476 6.88059 5.81917
#
# Compressibility (1/GPa) = 0.04122773
#
# Stress axis : x y z
#
# Youngs Moduli (GPa) = 36.38796 131.07238 57.68444
#
# Poissons Ratio (x) = 0.67424 -0.20825
# Poissons Ratio (y) = 0.18718 0.23510
# Poissons Ratio (z) = -0.13137 0.53421
#
# Static dielectric constant tensor:
#      x y z
#    x 1.811530 0.000000 0.059510 
#    y 0.000000 1.825450 0.000000 
#    z 0.059510 0.000000 1.807860 
# 
# From -- ./inp_files/306246.got.cif
#   From: 2010.05.17/outbox.cif.g08.bks.cpg/sg12_154_cif.got.tgz:306246.got - 2010.06.03 13:09:07.
