data_PCOD9202155
_publ_section_title
;
Structure prediction by ZEFSAII (Michael W. Deem and Ramdas Pophale) SiO2 
 PCOD9202155
Probable space group: C 2/M
;
_chemical_formula_sum "Si O2"
_cell_formula_units_Z 56
_cell_length_a 11.653964
_cell_length_b 24.249736
_cell_length_c 9.712425
_cell_angle_alpha 90.000000
_cell_angle_beta 111.159848
_cell_angle_gamma 90.000000
_cell_volume 2559.723540
_symmetry_space_group_name_H-M "C 2/M"
_symmetry_group_IT_number 12
_symmetry_cell_setting 'monoclinic'
loop_
_space_group_symop_operation_xyz
x,y,z
-x,y,-z
-x,-y,-z
x,-y,z
1/2+x,1/2+y,z
1/2-x,1/2+y,-z
1/2-x,1/2-y,-z
1/2+x,1/2-y,z
loop_
_atom_site_type_symbol
_atom_site_label
_atom_site_fract_x
_atom_site_fract_y
_atom_site_fract_z
Si Si1 0.695746 0.064729 0.430003
Si Si2 0.369268 0.437879 0.241075
Si Si3 0.989548 0.437105 0.147808
Si Si4 0.298597 0.773177 0.164911
Si Si5 0.270737 0.601539 0.924862
Si Si6 0.448518 0.270534 0.818211
Si Si7 0.614588 0.606978 0.291254
O O1 0.789224 0.068117 0.341996
O O2 0.569467 0.086094 0.307497
O O3 0.755389 0.099642 0.577214
O O4 0.683997 0.000000 0.467372
O O5 0.350767 0.500000 0.180672
O O6 0.512090 0.427131 0.327355
O O7 0.324963 0.397373 0.101080
O O8 0.037018 0.500000 0.152623
O O9 0.848065 0.436432 0.123563
O O10 0.000000 0.410245 0.000000
O O11 0.275872 0.838636 0.145099
O O12 0.444738 0.759783 0.224370
O O13 0.194791 0.750274 0.228052
O O14 0.250000 0.750000 0.000000
O O15 0.369428 0.583518 0.855444
O O16 0.432363 0.330940 0.745838
O O17 0.500000 0.274318 0.000000
#
# Coordination Sequence:
#
# PCOD9202155 Si02
#       7
#     8   8   8   8   8   8   8
#     4  10  22  39  58  84 122 163 200 239 289 353
#     4  11  21  36  57  85 125 163 200 242 287 349
#     4  10  20  38  59  84 118 153 200 251 288 344
#     4   9  18  34  56  88 117 149 196 251 304 355
#     4  11  22  36  60  92 116 153 199 253 298 346
#     4   9  18  36  58  88 121 153 197 254 303 358
#     4  11  22  36  56  88 122 157 196 244 299 355
#
# _framework density 21.877362000000002
#
# number of rings (size 3 to 8) (size 9 to 14) (size 15 to 20)
#    0.000    1.857    1.429    4.286    0.000    6.286 
#    2.571    1.429    0.000    0.857   11.143    0.000 
#    0.000    0.000    0.000    0.000    0.000    0.000 
#
# Total GULP energy -156120.201482 kJ/mol
# GULP energy per Si atom -5575.721482 kJ/mol
# Density = 2.182757 g / cm^3
# Si number density = 21.877362 Si / 1000 Ang^3
#
#
#
# Elastic Constant Matrix: (Units=GPa)
#
#
# Indices 1 2 3 4 5 6 
#
# 1 112.4275 18.1429 5.3975 0.0000 5.8979 0.0000
# 2 18.1429 32.0557 14.8613 0.0000 0.6801 0.0000
# 3 5.3975 14.8613 68.8020 0.0000 22.4796 0.0000
# 4 0.0000 0.0000 0.0000 -2.8056 0.0000 -9.1300
# 5 5.8979 0.6801 22.4796 0.0000 28.6396 0.0000
# 6 0.0000 0.0000 0.0000 -9.1300 0.0000 19.9337
#
#
#
# Elastic Compliance Matrix: (Units=1/GPa)
#
#
# Indices 1 2 3 4 5 6 
#
# 1 0.010009 -0.006352 0.001629 0.000000 -0.003189 0.000000
# 2 -0.006352 0.039712 -0.011027 0.000000 0.009020 0.000000
# 3 0.001629 -0.011027 0.022611 0.000000 -0.017821 0.000000
# 4 0.000000 0.000000 0.000000 -0.143117 0.000000 -0.065550
# 5 -0.003189 0.009020 -0.017821 0.000000 0.049347 0.000000
# 6 0.000000 0.000000 0.000000 -0.065550 0.000000 0.020143
#
#
# Mechanical properties :
#
#
# Convention : Reuss Voigt Hill
#
# Bulk Modulus (GPa) = 24.49084 32.23206 28.36145
# Shear Modulus (GPa) = 114.11437 20.81244 67.46341
#
# Velocity S-wave (km/s) = 7.23009 3.08770 5.55914
# Velocity P-wave (km/s) = 8.99543 5.24184 7.36189
#
# Compressibility (1/GPa) = 0.04083159
#
# Stress axis : x y z
#
# Youngs Moduli (GPa) = 99.91210 25.18157 44.22593
#
# Poissons Ratio (x) = 0.15996 -0.07203
# Poissons Ratio (y) = 0.63467 0.48766
# Poissons Ratio (z) = -0.16273 0.27766
#
# Static dielectric constant tensor:
#      x y z
#    x 1.847960 0.000000 -0.004130 
#    y 0.000000 1.850980 0.000000 
#    z -0.004130 0.000000 1.828830 
# 
# From -- ./inp_files/53278.got.cif
#   From: 2010.05.17/outbox.cif.g08.bks.cpg/sg12_27_cif.got.tgz:53278.got - 2010.06.03 13:09:07.
