data_PCOD9202546
_publ_section_title
;
Structure prediction by ZEFSAII (Michael W. Deem and Ramdas Pophale) SiO2 
 PCOD9202546
Probable space group: C 2/M
;
_chemical_formula_sum "Si O2"
_cell_formula_units_Z 56
_cell_length_a 10.605070
_cell_length_b 27.318947
_cell_length_c 9.359540
_cell_angle_alpha 90.000000
_cell_angle_beta 99.905539
_cell_angle_gamma 90.000000
_cell_volume 2671.216574
_symmetry_space_group_name_H-M "C 2/M"
_symmetry_group_IT_number 12
_symmetry_cell_setting 'monoclinic'
loop_
_space_group_symop_operation_xyz
x,y,z
-x,y,-z
-x,-y,-z
x,-y,z
1/2+x,1/2+y,z
1/2-x,1/2+y,-z
1/2-x,1/2-y,-z
1/2+x,1/2-y,z
loop_
_atom_site_type_symbol
_atom_site_label
_atom_site_fract_x
_atom_site_fract_y
_atom_site_fract_z
Si Si1 0.247236 0.224978 0.157046
Si Si2 0.869406 0.056058 0.106173
Si Si3 0.945404 0.628362 0.646640
Si Si4 0.189531 0.387980 0.866179
Si Si5 0.214352 0.944642 0.589336
Si Si6 0.473982 0.756794 0.659280
Si Si7 0.380517 0.441790 0.723053
O O1 0.256879 0.166751 0.136069
O O2 0.382448 0.242057 0.250281
O O3 0.129152 0.234108 0.246761
O O4 0.250000 0.250000 0.000000
O O5 0.851645 0.051485 0.272078
O O6 0.013812 0.077645 0.144690
O O7 0.864889 0.000000 0.047183
O O8 0.753355 0.086967 0.017185
O O9 0.821088 0.595785 0.631568
O O10 0.926152 0.686791 0.640116
O O11 0.000000 0.616622 0.500000
O O12 0.039991 0.616270 0.798046
O O13 0.246468 0.421722 0.752402
O O14 0.121446 0.929199 0.443151
O O15 0.263420 0.000000 0.564128
O O16 0.500000 0.738313 0.500000
O O17 0.389880 0.500000 0.733778
#
# Coordination Sequence:
#
# PCOD9202546 Si02
#       7
#     8   8   8   8   8   8   8
#     4  11  25  44  67  98 132 172 217 271 335 395
#     4  10  22  38  57  90 129 165 205 256 314 376
#     4  10  21  40  63  88 121 162 208 259 320 376
#     4  11  23  39  62  91 124 161 208 260 318 385
#     4  10  21  37  61  90 123 163 211 257 306 376
#     4  10  23  45  71  93 129 170 219 277 328 390
#     4  10  20  38  62  86 122 166 206 255 312 373
#
# _framework density 20.964231000000002
#
# number of rings (size 3 to 8) (size 9 to 14) (size 15 to 20)
#    0.000    1.714    1.429    2.143    2.000    7.143 
#    0.000    1.429    0.000    0.000    0.000    0.000 
#    0.000    0.000    0.000    0.000    0.000    0.000 
#
# Total GULP energy -155893.407014 kJ/mol
# GULP energy per Si atom -5567.621679 kJ/mol
# Density = 2.091652 g / cm^3
# Si number density = 20.964231 Si / 1000 Ang^3
#
#
#
# Elastic Constant Matrix: (Units=GPa)
#
#
# Indices 1 2 3 4 5 6 
#
# 1 78.8109 41.3364 38.6229 0.0000 0.1412 0.0000
# 2 41.3364 41.7010 39.9156 0.0000 19.0167 0.0000
# 3 38.6229 39.9156 164.1177 0.0000 16.3041 0.0000
# 4 0.0000 0.0000 0.0000 20.5869 0.0000 -3.9341
# 5 0.1412 19.0167 16.3041 0.0000 30.8488 0.0000
# 6 0.0000 0.0000 0.0000 -3.9341 0.0000 34.0368
#
#
#
# Elastic Compliance Matrix: (Units=1/GPa)
#
#
# Indices 1 2 3 4 5 6 
#
# 1 0.045454 -0.063461 0.000920 0.000000 0.038426 0.000000
# 2 -0.063461 0.129851 -0.009207 0.000000 -0.074890 0.000000
# 3 0.000920 -0.009207 0.007971 0.000000 0.001459 0.000000
# 4 0.000000 0.000000 0.000000 0.049672 0.000000 0.005741
# 5 0.038426 -0.074890 0.001459 0.000000 0.077635 0.000000
# 6 0.000000 0.000000 0.000000 0.005741 0.000000 0.030044
#
#
# Mechanical properties :
#
#
# Convention : Reuss Voigt Hill
#
# Bulk Modulus (GPa) = 25.13783 58.26439 41.70111
# Shear Modulus (GPa) = 10.05265 28.07814 19.06539
#
# Velocity S-wave (km/s) = 2.19216 3.66366 3.01894
# Velocity P-wave (km/s) = 4.29235 6.76382 5.66451
#
# Compressibility (1/GPa) = 0.03978068
#
# Stress axis : x y z
#
# Youngs Moduli (GPa) = 22.00021 7.70116 125.45480
#
# Poissons Ratio (x) = 0.48872 -0.11543
# Poissons Ratio (y) = 1.39615 1.15505
# Poissons Ratio (z) = -0.02024 0.07090
#
# Static dielectric constant tensor:
#      x y z
#    x 1.906890 0.000000 -0.026910 
#    y 0.000000 1.723960 0.000000 
#    z -0.026910 0.000000 1.819990 
# 
# From -- ./inp_files/53266.got.cif
#   From: 2010.05.17/outbox.cif.g08.bks.cpg/sg12_27_cif.got.tgz:53266.got - 2010.06.03 13:09:07.
