data_PCOD9202690
_publ_section_title
;
Structure prediction by ZEFSAII (Michael W. Deem and Ramdas Pophale) SiO2 
 PCOD9202690
Probable space group: C 2/M
;
_chemical_formula_sum "Si O2"
_cell_formula_units_Z 42
_cell_length_a 11.213527
_cell_length_b 20.531015
_cell_length_c 7.994565
_cell_angle_alpha 90.000000
_cell_angle_beta 83.470142
_cell_angle_gamma 90.000000
_cell_volume 1828.609310
_symmetry_space_group_name_H-M "C 2/M"
_symmetry_group_IT_number 12
_symmetry_cell_setting 'monoclinic'
loop_
_space_group_symop_operation_xyz
x,y,z
-x,y,-z
-x,-y,-z
x,-y,z
1/2+x,1/2+y,z
1/2-x,1/2+y,-z
1/2-x,1/2-y,-z
1/2+x,1/2-y,z
loop_
_atom_site_type_symbol
_atom_site_label
_atom_site_fract_x
_atom_site_fract_y
_atom_site_fract_z
Si Si1 0.940537 0.853648 0.325326
Si Si2 0.810252 0.680160 0.958708
Si Si3 0.159366 0.075586 0.147688
Si Si4 0.301252 0.888672 0.471246
Si Si5 0.500000 0.000000 0.500000
Si Si6 0.461193 0.203667 0.255032
O O1 0.805157 0.875053 0.381876
O O2 0.950584 0.781401 0.248400
O O3 0.000000 0.848039 0.500000
O O4 0.023578 0.902796 0.208902
O O5 0.715249 0.622619 0.997553
O O6 0.896663 0.673092 0.104665
O O7 0.750000 0.750000 0.000000
O O8 0.899664 0.683661 0.786967
O O9 0.233096 0.088539 0.309811
O O10 0.168964 0.000000 0.103038
O O11 0.380207 0.824553 0.416083
O O12 0.394880 0.943467 0.508484
#
# Coordination Sequence:
#
# PCOD9202690 Si02
#       6
#     8   8   8   8   2   8
#     4  10  21  36  65  91 119 156 201 256 306 358
#     4  10  20  38  63  86 118 161 202 251 300 350
#     4  10  20  39  64  89 119 155 207 249 302 364
#     4  10  23  37  57  88 122 164 199 240 306 368
#     4  12  24  40  54  82 138 168 188 244 304 378
#     4  10  21  38  60  91 119 154 206 255 297 356
#
# _framework density 22.968274000000001
#
# number of rings (size 3 to 8) (size 9 to 14) (size 15 to 20)
#    0.000    1.905    2.857    0.571    2.667    2.667 
#    1.714    1.905    0.000    1.143    0.000    0.000 
#    0.000    0.000    0.000    0.000    0.000    0.000 
#
# Total GULP energy -117162.783971 kJ/mol
# GULP energy per Si atom -5579.180189 kJ/mol
# Density = 2.291600 g / cm^3
# Si number density = 22.968274 Si / 1000 Ang^3
#
#
#
# Elastic Constant Matrix: (Units=GPa)
#
#
# Indices 1 2 3 4 5 6 
#
# 1 178.9572 65.4807 62.2877 0.0000 -56.0063 0.0000
# 2 65.4807 175.9891 40.2161 0.0000 -51.4433 0.0000
# 3 62.2877 40.2161 115.8905 0.0000 -36.9959 0.0000
# 4 0.0000 0.0000 0.0000 11.7764 0.0000 3.2797
# 5 -56.0063 -51.4433 -36.9959 0.0000 50.4049 0.0000
# 6 0.0000 0.0000 0.0000 3.2797 0.0000 33.2491
#
#
#
# Elastic Compliance Matrix: (Units=1/GPa)
#
#
# Indices 1 2 3 4 5 6 
#
# 1 0.008994 -0.000564 -0.002131 0.000000 0.007854 0.000000
# 2 -0.000564 0.008138 -0.000091 0.000000 0.007613 0.000000
# 3 -0.002131 -0.000091 0.011781 0.000000 0.006186 0.000000
# 4 0.000000 0.000000 0.000000 0.087314 0.000000 -0.008613
# 5 0.007854 0.007613 0.006186 0.000000 0.040876 0.000000
# 6 0.000000 0.000000 0.000000 -0.008613 0.000000 0.030926
#
#
# Mechanical properties :
#
#
# Convention : Reuss Voigt Hill
#
# Bulk Modulus (GPa) = 42.84308 89.64508 66.24408
# Shear Modulus (GPa) = 24.82874 39.27622 32.05248
#
# Velocity S-wave (km/s) = 3.29143 4.13973 3.73971
# Velocity P-wave (km/s) = 5.75659 7.87175 6.89575
#
# Compressibility (1/GPa) = 0.02334099
#
# Stress axis : x y z
#
# Youngs Moduli (GPa) = 111.18685 122.88234 84.88589
#
# Poissons Ratio (x) = 0.06926 0.18090
# Poissons Ratio (y) = 0.06266 0.00772
# Poissons Ratio (z) = 0.23695 0.01117
#
# Static dielectric constant tensor:
#      x y z
#    x 1.965260 0.000000 0.109920 
#    y 0.000000 1.770840 0.000000 
#    z 0.109920 0.000000 1.955970 
# 
# From -- ./inp_files/49168.got.cif
#   From: 2010.05.17/outbox.cif.g08.bks.cpg/sg12_25_cif.got.tgz:49168.got - 2010.06.03 13:09:07.
