data_PCOD9202835
_publ_section_title
;
Structure prediction by ZEFSAII (Michael W. Deem and Ramdas Pophale) SiO2 
 PCOD9202835
Probable space group: C 2/M
;
_chemical_formula_sum "Si O2"
_cell_formula_units_Z 36
_cell_length_a 8.597656
_cell_length_b 30.186216
_cell_length_c 14.358345
_cell_angle_alpha 90.000000
_cell_angle_beta 27.571648
_cell_angle_gamma 90.000000
_cell_volume 1724.806522
_symmetry_space_group_name_H-M "C 2/M"
_symmetry_group_IT_number 12
_symmetry_cell_setting 'monoclinic'
loop_
_space_group_symop_operation_xyz
x,y,z
-x,y,-z
-x,-y,-z
x,-y,z
1/2+x,1/2+y,z
1/2-x,1/2+y,-z
1/2-x,1/2-y,-z
1/2+x,1/2-y,z
loop_
_atom_site_type_symbol
_atom_site_label
_atom_site_fract_x
_atom_site_fract_y
_atom_site_fract_z
Si Si1 0.224713 0.902491 0.798976
Si Si2 0.127640 0.870293 0.205086
Si Si3 0.072184 0.314829 0.614186
Si Si4 0.000000 0.748987 0.500000
Si Si5 0.074288 0.050652 0.570695
O O1 0.374270 0.856260 0.759075
O O2 0.543784 0.933793 0.610711
O O3 0.033910 0.887471 0.806268
O O4 0.000000 0.922587 0.000000
O O5 0.873083 0.837160 0.393385
O O6 0.154648 0.914112 0.254761
O O7 0.500000 0.850776 0.000000
O O8 0.217212 0.281519 0.612296
O O9 0.874220 0.283449 0.648026
O O10 0.000000 0.054074 0.500000
O O11 0.021744 0.000000 0.627361
#
# Coordination Sequence:
#
# PCOD9202835 Si02
#       5
#     8   8   8   4   8
#     4  11  23  39  61  89 122 159 199 240 295 353
#     4  11  23  39  61  89 122 159 199 240 295 353
#     4  10  21  40  60  85 118 159 198 246 298 348
#     4  10  20  38  64  82 118 156 198 250 298 344
#     4  10  22  41  65  91 119 154 195 241 295 352
#
# _framework density 20.871907
#
# number of rings (size 3 to 8) (size 9 to 14) (size 15 to 20)
#    0.000    1.556    2.222    3.333    9.333    2.667 
#    0.000    6.667    0.000    0.000    0.000    0.000 
#    0.000    0.000    0.000    0.000    0.000    0.000 
#
# Total GULP energy -100498.673550 kJ/mol
# GULP energy per Si atom -5583.259642 kJ/mol
# Density = 2.082440 g / cm^3
# Si number density = 20.871907 Si / 1000 Ang^3
#
#
#
# Elastic Constant Matrix: (Units=GPa)
#
#
# Indices 1 2 3 4 5 6 
#
# 1 64.0911 15.3044 -0.0155 0.0000 -7.6177 0.0000
# 2 15.3044 96.7959 -8.7835 0.0000 4.8226 0.0000
# 3 -0.0155 -8.7835 69.8119 0.0000 -4.6330 0.0000
# 4 0.0000 0.0000 0.0000 6.8037 0.0000 6.9440
# 5 -7.6177 4.8226 -4.6330 0.0000 19.3015 0.0000
# 6 0.0000 0.0000 0.0000 6.9440 0.0000 25.1065
#
#
#
# Elastic Compliance Matrix: (Units=1/GPa)
#
#
# Indices 1 2 3 4 5 6 
#
# 1 0.017246 -0.003095 0.000119 0.000000 0.007608 0.000000
# 2 -0.003095 0.011110 0.001150 0.000000 -0.003721 0.000000
# 3 0.000119 0.001150 0.014687 0.000000 0.003285 0.000000
# 4 0.000000 0.000000 0.000000 0.204788 0.000000 -0.056640
# 5 0.007608 -0.003721 0.003285 0.000000 0.056531 0.000000
# 6 0.000000 0.000000 0.000000 -0.056640 0.000000 0.055496
#
#
# Mechanical properties :
#
#
# Convention : Reuss Voigt Hill
#
# Bulk Modulus (GPa) = 25.38566 27.07885 26.23226
# Shear Modulus (GPa) = 13.27529 25.18857 19.23193
#
# Velocity S-wave (km/s) = 2.52471 3.47770 3.03879
# Velocity P-wave (km/s) = 4.54839 5.39702 4.99078
#
# Compressibility (1/GPa) = 0.03939232
#
# Stress axis : x y z
#
# Youngs Moduli (GPa) = 57.98379 90.00773 68.08763
#
# Poissons Ratio (x) = 0.27858 -0.00813
# Poissons Ratio (y) = 0.17946 -0.07831
# Poissons Ratio (z) = -0.00692 -0.10353
#
# Static dielectric constant tensor:
#      x y z
#    x 1.790310 0.000000 -0.012640 
#    y 0.000000 1.709260 0.000000 
#    z -0.012640 0.000000 1.718020 
# 
# From -- ./inp_files/68428.got.cif
#   From: 2010.05.17/outbox.cif.g08.bks.cpg/sg12_35_cif.got.tgz:68428.got - 2010.06.03 13:09:07.
