data_PCOD9202014
_publ_section_title
;
Structure prediction by ZEFSAII (Michael W. Deem and Ramdas Pophale) SiO2 
 PCOD9202014
Probable space group: C 2/M
;
_chemical_formula_sum "Si O2"
_cell_formula_units_Z 64
_cell_length_a 25.272075
_cell_length_b 16.483374
_cell_length_c 11.763314
_cell_angle_alpha 90.000000
_cell_angle_beta 140.834969
_cell_angle_gamma 90.000000
_cell_volume 3094.772431
_symmetry_space_group_name_H-M "C 2/M"
_symmetry_group_IT_number 12
_symmetry_cell_setting 'monoclinic'
loop_
_space_group_symop_operation_xyz
x,y,z
-x,y,-z
-x,-y,-z
x,-y,z
1/2+x,1/2+y,z
1/2-x,1/2+y,-z
1/2-x,1/2-y,-z
1/2+x,1/2-y,z
loop_
_atom_site_type_symbol
_atom_site_label
_atom_site_fract_x
_atom_site_fract_y
_atom_site_fract_z
Si Si1 0.589006 0.810656 0.636266
Si Si2 0.652395 0.246032 0.503335
Si Si3 0.610468 0.638543 0.247522
Si Si4 0.226568 0.592769 0.995516
Si Si5 0.921616 0.134481 0.291221
Si Si6 0.941409 0.088853 0.063587
Si Si7 0.729091 0.903689 0.255007
Si Si8 0.296573 0.089373 0.545897
O O1 0.500000 0.856698 0.500000
O O2 0.600937 0.778023 0.528329
O O3 0.579555 0.731041 0.698109
O O4 0.673111 0.854446 0.818500
O O5 0.607283 0.280269 0.315974
O O6 0.709483 0.324511 0.632230
O O7 0.691405 0.162632 0.521325
O O8 0.536396 0.586844 0.178464
O O9 0.697480 0.592947 0.405746
O O10 0.599122 0.650131 0.094064
O O11 0.214352 0.500000 0.942375
O O12 0.327282 0.607338 0.166956
O O13 0.192999 0.605752 0.067947
O O14 0.936727 0.110158 0.186722
O O15 0.000000 0.104826 0.500000
O O16 0.902199 0.000000 0.980976
O O17 0.670593 0.897744 0.269861
O O18 0.760344 0.000000 0.306891
O O19 0.321469 0.000000 0.545950
#
# Coordination Sequence:
#
# PCOD9202014 Si02
#       8
#     8   8   8   8   8   8   8   8
#     4  11  25  44  65  93 130 172 227 278 333 390
#     4  11  22  40  63  91 124 171 216 271 335 383
#     4  10  20  38  56  88 129 169 206 246 324 395
#     4  11  24  42  66  93 129 179 226 275 333 393
#     4  11  24  42  63  97 134 173 219 266 332 398
#     4  11  23  36  59  93 133 171 208 258 319 396
#     4   9  19  36  60  94 128 164 212 261 328 405
#     4  10  21  36  61  90 122 161 213 272 321 385
#
# _framework density 20.680033999999999
#
# number of rings (size 3 to 8) (size 9 to 14) (size 15 to 20)
#    0.000    1.500    1.250    5.250    3.500    3.750 
#    0.000    0.000    0.000    0.375    0.000    4.375 
#    0.000    0.000    0.000    0.000    0.000    0.000 
#
# Total GULP energy -178154.195221 kJ/mol
# GULP energy per Si atom -5567.318601 kJ/mol
# Density = 2.063297 g / cm^3
# Si number density = 20.680034 Si / 1000 Ang^3
#
#
#
# Elastic Constant Matrix: (Units=GPa)
#
#
# Indices 1 2 3 4 5 6 
#
# 1 74.9564 42.6517 33.8661 0.0000 -21.6747 0.0000
# 2 42.6517 102.0253 40.1974 0.0000 -7.8128 0.0000
# 3 33.8661 40.1974 83.9435 0.0000 -19.8383 0.0000
# 4 0.0000 0.0000 0.0000 1.1939 0.0000 -2.2836
# 5 -21.6747 -7.8128 -19.8383 0.0000 32.2201 0.0000
# 6 0.0000 0.0000 0.0000 -2.2836 0.0000 11.2829
#
#
#
# Elastic Compliance Matrix: (Units=1/GPa)
#
#
# Indices 1 2 3 4 5 6 
#
# 1 0.021974 -0.007249 -0.002710 0.000000 0.011356 0.000000
# 2 -0.007249 0.014487 -0.005073 0.000000 -0.004487 0.000000
# 3 -0.002710 -0.005073 0.017220 0.000000 0.007549 0.000000
# 4 0.000000 0.000000 0.000000 1.366670 0.000000 0.276608
# 5 0.011356 -0.004487 0.007549 0.000000 0.042235 0.000000
# 6 0.000000 0.000000 0.000000 0.276608 0.000000 0.144614
#
#
# Mechanical properties :
#
#
# Convention : Reuss Voigt Hill
#
# Bulk Modulus (GPa) = 42.34448 54.92843 48.63645
# Shear Modulus (GPa) = 3.03926 18.55337 10.79631
#
# Velocity S-wave (km/s) = 1.21361 2.99852 2.28735
# Velocity P-wave (km/s) = 4.74176 6.21345 5.52681
#
# Compressibility (1/GPa) = 0.02361583
#
# Stress axis : x y z
#
# Youngs Moduli (GPa) = 45.50835 69.02695 58.07314
#
# Poissons Ratio (x) = 0.50036 0.15740
# Poissons Ratio (y) = 0.32988 0.29462
# Poissons Ratio (z) = 0.12334 0.35020
#
# Static dielectric constant tensor:
#      x y z
#    x 1.754230 0.000000 -0.002140 
#    y 0.000000 1.795910 0.000000 
#    z -0.002140 0.000000 1.861150 
# 
# From -- ./inp_files/183817.got.cif
#   From: 2010.05.17/outbox.cif.g08.bks.cpg/sg12_92_cif.got.tgz:183817.got - 2010.06.03 13:09:07.
