data_PCOD9202703
_publ_section_title
;
Structure prediction by ZEFSAII (Michael W. Deem and Ramdas Pophale) SiO2 
 PCOD9202703
Probable space group: C 2/M
;
_chemical_formula_sum "Si O2"
_cell_formula_units_Z 64
_cell_length_a 30.188131
_cell_length_b 7.647922
_cell_length_c 23.086724
_cell_angle_alpha 90.000000
_cell_angle_beta 151.847355
_cell_angle_gamma 90.000000
_cell_volume 2514.897930
_symmetry_space_group_name_H-M "C 2/M"
_symmetry_group_IT_number 12
_symmetry_cell_setting 'monoclinic'
loop_
_space_group_symop_operation_xyz
x,y,z
-x,y,-z
-x,-y,-z
x,-y,z
1/2+x,1/2+y,z
1/2-x,1/2+y,-z
1/2-x,1/2-y,-z
1/2+x,1/2-y,z
loop_
_atom_site_type_symbol
_atom_site_label
_atom_site_fract_x
_atom_site_fract_y
_atom_site_fract_z
Si Si1 0.473615 0.714533 0.216809
Si Si2 0.629420 0.300437 0.315162
Si Si3 0.508595 0.798710 0.943538
Si Si4 0.631603 0.301633 0.695989
Si Si5 0.229093 0.790935 0.042940
Si Si6 0.485149 0.291373 0.610538
Si Si7 0.229257 0.288405 0.609823
Si Si8 0.203570 0.201952 0.192338
O O1 0.477085 0.500000 0.220910
O O2 0.569426 0.780839 0.297984
O O3 0.466367 0.774355 0.274682
O O4 0.379566 0.763140 0.074710
O O5 0.650728 0.500000 0.356102
O O6 0.723261 0.222601 0.394719
O O7 0.553986 0.300898 0.175205
O O8 0.620217 0.790693 0.061138
O O9 0.478173 0.000000 0.906546
O O10 0.500000 0.733657 0.000000
O O11 0.615717 0.500000 0.657357
O O12 0.699524 0.298712 0.830828
O O13 0.534964 0.223059 0.609906
O O14 0.694724 0.213634 0.719996
O O15 0.236068 0.000000 0.060726
O O16 0.250000 0.750000 0.000000
O O17 0.499452 0.500000 0.624038
O O18 0.376570 0.259518 0.497507
O O19 0.235055 0.500000 0.615381
O O20 0.288223 0.225265 0.733363
O O21 0.177411 0.000000 0.165059
#
# Coordination Sequence:
#
# PCOD9202703 Si02
#       8
#     8   8   8   8   8   8   8   8
#     4   9  19  37  60  86 116 153 193 233 288 352
#     4  10  20  38  63  87 118 157 196 239 291 354
#     4  11  22  36  59  91 124 155 193 241 292 351
#     4  11  23  40  61  89 120 153 200 248 298 357
#     4  11  20  35  60  90 123 159 196 238 296 358
#     4  10  22  41  61  82 115 157 197 245 299 350
#     4  10  23  40  59  86 116 152 201 250 291 347
#     4  11  23  40  61  87 120 158 196 240 300 356
#
# _framework density 25.448350999999999
#
# number of rings (size 3 to 8) (size 9 to 14) (size 15 to 20)
#    0.000    1.625    2.500    2.250    0.000    5.000 
#    0.000    3.750    0.000    0.000    0.000    0.000 
#    0.000    0.000    0.000    0.000    0.000    0.000 
#
# Total GULP energy -179015.418368 kJ/mol
# GULP energy per Si atom -5594.231824 kJ/mol
# Density = 2.539043 g / cm^3
# Si number density = 25.448351 Si / 1000 Ang^3
#
#
#
# Elastic Constant Matrix: (Units=GPa)
#
#
# Indices 1 2 3 4 5 6 
#
# 1 145.5083 4.5143 8.5797 0.0000 33.2143 0.0000
# 2 4.5143 74.5577 0.8041 0.0000 3.3236 0.0000
# 3 8.5797 0.8041 75.3233 0.0000 27.4738 0.0000
# 4 0.0000 0.0000 0.0000 22.1350 0.0000 7.1173
# 5 33.2143 3.3236 27.4738 0.0000 52.4690 0.0000
# 6 0.0000 0.0000 0.0000 7.1173 0.0000 15.1944
#
#
#
# Elastic Compliance Matrix: (Units=1/GPa)
#
#
# Indices 1 2 3 4 5 6 
#
# 1 0.008121 -0.000249 0.001171 0.000000 -0.005738 0.000000
# 2 -0.000249 0.013461 0.000171 0.000000 -0.000785 0.000000
# 3 0.001171 0.000171 0.016582 0.000000 -0.009435 0.000000
# 4 0.000000 0.000000 0.000000 0.053188 0.000000 -0.024914
# 5 -0.005738 -0.000785 -0.009435 0.000000 0.027681 0.000000
# 6 0.000000 0.000000 0.000000 -0.024914 0.000000 0.077484
#
#
# Mechanical properties :
#
#
# Convention : Reuss Voigt Hill
#
# Bulk Modulus (GPa) = 24.78356 35.90951 30.34654
# Shear Modulus (GPa) = 24.06385 36.72577 30.39481
#
# Velocity S-wave (km/s) = 3.07839 3.80300 3.45972
# Velocity P-wave (km/s) = 4.73236 5.78145 5.28301
#
# Compressibility (1/GPa) = 0.04034932
#
# Stress axis : x y z
#
# Youngs Moduli (GPa) = 123.13892 74.29081 60.30583
#
# Poissons Ratio (x) = 0.01846 -0.07059
# Poissons Ratio (y) = 0.03061 -0.01030
# Poissons Ratio (z) = -0.14414 -0.01269
#
# Static dielectric constant tensor:
#      x y z
#    x 2.047580 0.000000 0.037110 
#    y 0.000000 1.970680 0.000000 
#    z 0.037110 0.000000 2.025690 
# 
# From -- ./inp_files/353446.got.cif
#   From: 2010.05.17/outbox.cif.g08.bks.cpg/sg12_177_cif.got.tgz:353446.got - 2010.06.03 13:09:07.
