data_PCOD9202957
_publ_section_title
;
Structure prediction by ZEFSAII (Michael W. Deem and Ramdas Pophale) SiO2 
 PCOD9202957
Probable space group: C 2/M
;
_chemical_formula_sum "Si O2"
_cell_formula_units_Z 64
_cell_length_a 33.526218
_cell_length_b 17.213147
_cell_length_c 9.880172
_cell_angle_alpha 90.000000
_cell_angle_beta 32.907170
_cell_angle_gamma 90.000000
_cell_volume 3097.652368
_symmetry_space_group_name_H-M "C 2/M"
_symmetry_group_IT_number 12
_symmetry_cell_setting 'monoclinic'
loop_
_space_group_symop_operation_xyz
x,y,z
-x,y,-z
-x,-y,-z
x,-y,z
1/2+x,1/2+y,z
1/2-x,1/2+y,-z
1/2-x,1/2-y,-z
1/2+x,1/2-y,z
loop_
_atom_site_type_symbol
_atom_site_label
_atom_site_fract_x
_atom_site_fract_y
_atom_site_fract_z
Si Si1 0.269286 0.410580 0.124922
Si Si2 0.687033 0.814685 0.147589
Si Si3 0.716385 0.088649 0.795065
Si Si4 0.607263 0.414580 0.701095
Si Si5 0.575013 0.586653 0.472628
Si Si6 0.523506 0.246917 0.578617
Si Si7 0.565250 0.247500 0.912849
Si Si8 0.213899 0.675739 0.531893
O O1 0.257115 0.500000 0.194785
O O2 0.206779 0.380514 0.200649
O O3 0.266795 0.360987 0.269050
O O4 0.346506 0.404752 0.826115
O O5 0.605037 0.780341 0.390407
O O6 0.750000 0.750000 0.000000
O O7 0.695030 0.852059 0.975413
O O8 0.805032 0.088171 0.539032
O O9 0.693923 0.117180 0.709995
O O10 0.692111 0.000000 0.892500
O O11 0.582384 0.500000 0.821108
O O12 0.588236 0.407872 0.596466
O O13 0.576156 0.340357 0.866875
O O14 0.546454 0.500000 0.524420
O O15 0.526888 0.659363 0.567421
O O16 0.500000 0.216659 0.500000
O O17 0.461756 0.225604 0.861986
O O18 0.641249 0.206133 0.664402
O O19 0.500000 0.224888 0.000000
O O20 0.250000 0.750000 0.500000
#
# Coordination Sequence:
#
# PCOD9202957 Si02
#       8
#     8   8   8   8   8   8   8   8
#     4  11  23  40  68  99 127 162 217 272 317 369
#     4  12  22  41  72  94 122 170 222 266 309 372
#     4  11  22  40  67  98 129 161 211 273 325 371
#     4  10  20  38  64  96 128 169 214 251 309 391
#     4  10  21  39  63  94 131 170 210 253 313 391
#     4  12  26  40  61  94 135 167 207 263 325 374
#     4  12  25  42  62  92 128 174 213 257 314 381
#     4  12  25  41  66  95 132 169 213 264 322 374
#
# _framework density 20.660807999999999
#
# number of rings (size 3 to 8) (size 9 to 14) (size 15 to 20)
#    0.000    0.750    5.000    3.000    1.750    1.000 
#    0.000    0.000    0.000   15.000    0.000    0.000 
#    0.000    0.000    0.000    0.000    0.000    0.000 
#
# Total GULP energy -178979.815307 kJ/mol
# GULP energy per Si atom -5593.119228 kJ/mol
# Density = 2.061378 g / cm^3
# Si number density = 20.660808 Si / 1000 Ang^3
#
#
#
# Elastic Constant Matrix: (Units=GPa)
#
#
# Indices 1 2 3 4 5 6 
#
# 1 36.0873 -3.1401 -6.3360 0.0000 11.5986 0.0000
# 2 -3.1401 58.5859 15.1020 0.0000 5.3080 0.0000
# 3 -6.3360 15.1020 67.2627 0.0000 13.8747 0.0000
# 4 0.0000 0.0000 0.0000 26.7381 0.0000 10.8956
# 5 11.5986 5.3080 13.8747 0.0000 39.7625 0.0000
# 6 0.0000 0.0000 0.0000 10.8956 0.0000 26.2913
#
#
#
# Elastic Compliance Matrix: (Units=1/GPa)
#
#
# Indices 1 2 3 4 5 6 
#
# 1 0.032399 0.001462 0.005079 0.000000 -0.011418 0.000000
# 2 0.001462 0.018226 -0.003626 0.000000 -0.001594 0.000000
# 3 0.005079 -0.003626 0.017635 0.000000 -0.007151 0.000000
# 4 0.000000 0.000000 0.000000 0.044999 0.000000 -0.018648
# 5 -0.011418 -0.001594 -0.007151 0.000000 0.031188 0.000000
# 6 0.000000 0.000000 0.000000 -0.018648 0.000000 0.045764
#
#
# Mechanical properties :
#
#
# Convention : Reuss Voigt Hill
#
# Bulk Modulus (GPa) = 13.49697 19.24309 16.37003
# Shear Modulus (GPa) = 23.91457 28.97904 26.44680
#
# Velocity S-wave (km/s) = 3.40587 3.74921 3.58166
# Velocity P-wave (km/s) = 4.69185 5.29869 5.00448
#
# Compressibility (1/GPa) = 0.07409068
#
# Stress axis : x y z
#
# Youngs Moduli (GPa) = 30.86482 54.86560 56.70659
#
# Poissons Ratio (x) = -0.08020 -0.28802
# Poissons Ratio (y) = -0.04512 0.20560
# Poissons Ratio (z) = -0.15676 0.19892
#
# Static dielectric constant tensor:
#      x y z
#    x 1.736040 0.000000 0.020350 
#    y 0.000000 1.756470 0.000000 
#    z 0.020350 0.000000 1.732700 
# 
# From -- ./inp_files/112795.got.cif
#   From: 2010.05.17/outbox.cif.g08.bks.cpg/sg12_57_cif.got.tgz:112795.got - 2010.06.03 13:09:07.
