data_PCOD9202851
_publ_section_title
;
Structure prediction by ZEFSAII (Michael W. Deem and Ramdas Pophale) SiO2 
 PCOD9202851
Probable space group: C 2/M
;
_chemical_formula_sum "Si O2"
_cell_formula_units_Z 64
_cell_length_a 12.622828
_cell_length_b 18.023923
_cell_length_c 30.426708
_cell_angle_alpha 90.000000
_cell_angle_beta 30.247334
_cell_angle_gamma 90.000000
_cell_volume 3487.080967
_symmetry_space_group_name_H-M "C 2/M"
_symmetry_group_IT_number 12
_symmetry_cell_setting 'monoclinic'
loop_
_space_group_symop_operation_xyz
x,y,z
-x,y,-z
-x,-y,-z
x,-y,z
1/2+x,1/2+y,z
1/2-x,1/2+y,-z
1/2-x,1/2-y,-z
1/2+x,1/2-y,z
loop_
_atom_site_type_symbol
_atom_site_label
_atom_site_fract_x
_atom_site_fract_y
_atom_site_fract_z
Si Si1 0.258260 0.825490 0.292775
Si Si2 0.170376 0.605914 0.902248
Si Si3 0.350526 0.329487 0.977987
Si Si4 0.725573 0.412095 0.395786
Si Si5 0.287979 0.229493 0.839407
Si Si6 0.531491 0.582348 0.832539
Si Si7 0.529727 0.082825 0.854053
Si Si8 0.088018 0.693574 0.302936
O O1 0.206289 0.873847 0.354553
O O2 0.493064 0.792428 0.216840
O O3 0.293175 0.879698 0.239156
O O4 0.102756 0.758175 0.334520
O O5 0.201672 0.694040 0.888875
O O6 0.393425 0.577260 0.838468
O O7 0.102719 0.581617 0.878415
O O8 0.000000 0.585650 0.000000
O O9 0.583185 0.322765 0.914930
O O10 0.387178 0.377921 0.920981
O O11 0.250000 0.250000 0.000000
O O12 0.182761 0.369134 0.068961
O O13 0.500000 0.411751 0.500000
O O14 0.794055 0.500000 0.368476
O O15 0.883695 0.357114 0.365961
O O16 0.345040 0.232664 0.767076
O O17 0.591486 0.500000 0.826193
O O18 0.729167 0.634282 0.753437
O O19 0.486624 0.000000 0.853798
#
# Coordination Sequence:
#
# PCOD9202851 Si02
#       8
#     8   8   8   8   8   8   8   8
#     4  11  22  39  63  85 116 148 194 241 292 351
#     4  12  21  32  53  74 113 155 203 242 286 333
#     4  11  20  35  50  71 105 152 204 245 285 335
#     4  10  23  44  67  93 124 153 184 234 303 372
#     4  10  21  35  53  81 105 150 196 242 289 329
#     4  11  21  33  52  80 113 152 196 247 296 339
#     4  12  24  36  51  78 114 154 202 248 299 346
#     4  10  20  38  64  88 114 149 196 238 287 356
#
# _framework density 18.353459000000001
#
# number of rings (size 3 to 8) (size 9 to 14) (size 15 to 20)
#    0.000    1.125    5.000    2.250    1.750    1.000 
#    0.000    2.500    0.000    0.000    0.000    0.000 
#    0.000   10.500    0.000    0.000    0.000    0.000 
#
# Total GULP energy -178527.983581 kJ/mol
# GULP energy per Si atom -5578.999487 kJ/mol
# Density = 1.831169 g / cm^3
# Si number density = 18.353459 Si / 1000 Ang^3
#
#
#
# Elastic Constant Matrix: (Units=GPa)
#
#
# Indices 1 2 3 4 5 6 
#
# 1 88.9817 32.5198 30.5051 -0.0155 -3.1610 -0.0254
# 2 32.5198 132.5121 37.8769 -0.0242 6.0027 -0.0259
# 3 30.5051 37.8769 71.9309 -0.0862 -0.9672 -0.1714
# 4 -0.0155 -0.0242 -0.0862 18.0374 0.0123 -10.1221
# 5 -3.1610 6.0027 -0.9672 0.0123 15.0590 0.0577
# 6 -0.0254 -0.0259 -0.1714 -10.1221 0.0577 40.6066
#
#
#
# Elastic Compliance Matrix: (Units=1/GPa)
#
#
# Indices 1 2 3 4 5 6 
#
# 1 0.013754 -0.002212 -0.004622 -0.000029 0.003472 -0.000025
# 2 -0.002212 0.009467 -0.004108 -0.000011 -0.004502 -0.000009
# 3 -0.004622 -0.004108 0.018050 0.000132 0.001826 0.000101
# 4 -0.000029 -0.000011 0.000132 0.064458 -0.000108 0.016068
# 5 0.003472 -0.004502 0.001826 -0.000108 0.069047 -0.000118
# 6 -0.000025 -0.000009 0.000101 0.016068 -0.000118 0.028632
#
#
# Mechanical properties :
#
#
# Convention : Reuss Voigt Hill
#
# Bulk Modulus (GPa) = 51.57494 55.02535 53.30014
# Shear Modulus (GPa) = 21.57450 27.57547 24.57499
#
# Velocity S-wave (km/s) = 3.43228 3.88037 3.66318
# Velocity P-wave (km/s) = 6.62339 7.07972 6.85535
#
# Compressibility (1/GPa) = 0.01938926
#
# Stress axis : x y z
#
# Youngs Moduli (GPa) = 72.70413 105.62620 55.40052
#
# Poissons Ratio (x) = 0.23361 0.25606
# Poissons Ratio (y) = 0.16080 0.22758
# Poissons Ratio (z) = 0.33603 0.43390
#
# Static dielectric constant tensor:
#      x y z
#    x 1.684120 0.000000 -0.002120 
#    y 0.000000 1.681100 0.000000 
#    z -0.002120 0.000000 1.587560 
# 
# From -- ./inp_files/374452.got.cif
#   From: 2010.05.17/outbox.cif.g08.bks.cpg/sg12_188_cif.got.tgz:374452.got - 2010.06.03 13:09:07.
