data_PCOD9202897
_publ_section_title
;
Structure prediction by ZEFSAII (Michael W. Deem and Ramdas Pophale) SiO2 
 PCOD9202897
Probable space group: C 2/M
;
_chemical_formula_sum "Si O2"
_cell_formula_units_Z 48
_cell_length_a 9.698279
_cell_length_b 25.233381
_cell_length_c 8.463340
_cell_angle_alpha 90.000000
_cell_angle_beta 102.854722
_cell_angle_gamma 90.000000
_cell_volume 2019.243062
_symmetry_space_group_name_H-M "C 2/M"
_symmetry_group_IT_number 12
_symmetry_cell_setting 'monoclinic'
loop_
_space_group_symop_operation_xyz
x,y,z
-x,y,-z
-x,-y,-z
x,-y,z
1/2+x,1/2+y,z
1/2-x,1/2+y,-z
1/2-x,1/2-y,-z
1/2+x,1/2-y,z
loop_
_atom_site_type_symbol
_atom_site_label
_atom_site_fract_x
_atom_site_fract_y
_atom_site_fract_z
Si Si1 0.163490 0.561720 0.753708
Si Si2 0.943328 0.784370 0.643405
Si Si3 0.090064 0.607281 0.174003
Si Si4 0.591128 0.596371 0.378167
Si Si5 0.653891 0.561392 0.888584
Si Si6 0.243528 0.281282 0.163091
O O1 0.122931 0.500000 0.762991
O O2 0.263486 0.568717 0.628684
O O3 0.025112 0.598777 0.719553
O O4 0.265690 0.576874 0.929115
O O5 0.092403 0.794181 0.767423
O O6 0.000000 0.755354 0.500000
O O7 0.880854 0.841634 0.580883
O O8 0.829801 0.754709 0.721135
O O9 0.228776 0.571552 0.216587
O O10 0.148948 0.665535 0.147845
O O11 0.000000 0.587964 0.000000
O O12 0.500000 0.574121 0.500000
O O13 0.485760 0.591403 0.201098
O O14 0.617046 0.500000 0.892036
O O15 0.250000 0.250000 0.000000
#
# Coordination Sequence:
#
# PCOD9202897 Si02
#       6
#     8   8   8   8   8   8
#     4  10  22  39  65  95 128 170 215 267 328 385
#     4  11  26  45  66  95 135 177 214 263 337 405
#     4  10  21  39  62  96 129 161 207 267 326 381
#     4  11  24  41  63  92 130 173 216 263 321 385
#     4  10  20  38  64  91 124 166 210 266 326 383
#     4  12  25  43  70 104 128 169 220 279 326 383
#
# _framework density 23.771284999999999
#
# number of rings (size 3 to 8) (size 9 to 14) (size 15 to 20)
#    0.000    1.333    1.667    3.500    7.000    6.000 
#    0.000    0.833    0.000    2.000    0.000    0.000 
#    0.000    0.000    0.000    0.000    0.000    0.000 
#
# Total GULP energy -134075.578656 kJ/mol
# GULP energy per Si atom -5586.482444 kJ/mol
# Density = 2.371718 g / cm^3
# Si number density = 23.771285 Si / 1000 Ang^3
#
#
#
# Elastic Constant Matrix: (Units=GPa)
#
#
# Indices 1 2 3 4 5 6 
#
# 1 133.1045 37.6925 18.1050 0.0000 -31.4639 0.0000
# 2 37.6925 71.7588 14.7315 0.0000 -20.0961 0.0000
# 3 18.1050 14.7315 60.6861 0.0000 -26.0802 0.0000
# 4 0.0000 0.0000 0.0000 16.1444 0.0000 -2.7047
# 5 -31.4639 -20.0961 -26.0802 0.0000 42.9946 0.0000
# 6 0.0000 0.0000 0.0000 -2.7047 0.0000 22.4280
#
#
#
# Elastic Compliance Matrix: (Units=1/GPa)
#
#
# Indices 1 2 3 4 5 6 
#
# 1 0.009850 -0.003648 0.000422 0.000000 0.005759 0.000000
# 2 -0.003648 0.017422 -0.001067 0.000000 0.004827 0.000000
# 3 0.000422 -0.001067 0.022358 0.000000 0.013373 0.000000
# 4 0.000000 0.000000 0.000000 0.063218 0.000000 0.007624
# 5 0.005759 0.004827 0.013373 0.000000 0.037841 0.000000
# 6 0.000000 0.000000 0.000000 0.007624 0.000000 0.045506
#
#
# Mechanical properties :
#
#
# Convention : Reuss Voigt Hill
#
# Bulk Modulus (GPa) = 24.36297 45.17861 34.77079
# Shear Modulus (GPa) = 22.88723 29.31478 26.10100
#
# Velocity S-wave (km/s) = 3.10628 3.51551 3.31721
# Velocity P-wave (km/s) = 4.81004 5.96030 5.41579
#
# Compressibility (1/GPa) = 0.04104591
#
# Stress axis : x y z
#
# Youngs Moduli (GPa) = 101.52489 57.39779 44.72628
#
# Poissons Ratio (x) = 0.20936 -0.01887
# Poissons Ratio (y) = 0.37031 0.04771
# Poissons Ratio (z) = -0.04284 0.06122
#
# Static dielectric constant tensor:
#      x y z
#    x 1.900490 0.000000 -0.025590 
#    y 0.000000 1.873830 0.000000 
#    z -0.025590 0.000000 2.040200 
# 
# From -- ./inp_files/42213.got.cif
#   From: 2010.05.17/outbox.cif.g08.bks.cpg/sg12_22_cif.got.tgz:42213.got - 2010.06.03 13:09:07.
