data_PCOD9202234
_publ_section_title
;
Structure prediction by ZEFSAII (Michael W. Deem and Ramdas Pophale) SiO2 
 PCOD9202234
Probable space group: C 2/M
;
_chemical_formula_sum "Si O2"
_cell_formula_units_Z 60
_cell_length_a 7.775181
_cell_length_b 28.129416
_cell_length_c 17.572153
_cell_angle_alpha 90.000000
_cell_angle_beta 51.879302
_cell_angle_gamma 90.000000
_cell_volume 3023.514193
_symmetry_space_group_name_H-M "C 2/M"
_symmetry_group_IT_number 12
_symmetry_cell_setting 'monoclinic'
loop_
_space_group_symop_operation_xyz
x,y,z
-x,y,-z
-x,-y,-z
x,-y,z
1/2+x,1/2+y,z
1/2-x,1/2+y,-z
1/2-x,1/2-y,-z
1/2+x,1/2-y,z
loop_
_atom_site_type_symbol
_atom_site_label
_atom_site_fract_x
_atom_site_fract_y
_atom_site_fract_z
Si Si1 0.385243 0.322839 0.103698
Si Si2 0.271712 0.218320 0.103190
Si Si3 0.489549 0.588863 0.331260
Si Si4 0.230421 0.910554 0.455252
Si Si5 0.811016 0.000000 0.651366
Si Si6 0.818348 0.638975 0.701887
Si Si7 0.779707 0.269323 0.608906
Si Si8 0.829024 0.189154 0.697179
O O1 0.265407 0.275706 0.105111
O O2 0.573255 0.303716 0.109657
O O3 0.230410 0.355664 0.195867
O O4 0.500000 0.346495 0.000000
O O5 0.251756 0.202850 0.196340
O O6 0.500000 0.205137 0.000000
O O7 0.298587 0.580762 0.446753
O O8 0.630204 0.541685 0.301480
O O9 0.365226 0.606047 0.289202
O O10 0.646238 0.632979 0.310462
O O11 0.446794 0.882150 0.379934
O O12 0.000000 0.884599 0.500000
O O13 0.225099 0.958054 0.405149
O O14 0.804635 0.691224 0.668163
O O15 0.708841 0.219208 0.665270
O O16 0.575229 0.290133 0.618852
O O17 0.000000 0.267774 0.500000
#
# Coordination Sequence:
#
# PCOD9202234 Si02
#       8
#     8   8   8   8   4   8   8   8
#     4  11  22  39  59  88 119 161 206 251 293 345
#     4  11  20  39  59  85 121 159 207 251 294 338
#     4  10  20  38  60  82 120 156 198 241 293 357
#     4  10  21  39  58  88 121 152 195 250 292 350
#     4  10  23  42  60  90 122 148 199 260 301 346
#     4  11  21  38  60  86 121 161 198 240 294 359
#     4  11  22  35  52  79 124 165 198 224 273 348
#     4  11  21  36  54  85 117 159 199 232 286 350
#
# _framework density 19.844457999999999
#
# number of rings (size 3 to 8) (size 9 to 14) (size 15 to 20)
#    0.000    1.333    4.000    5.800    0.000    4.267 
#    9.600    3.333    0.000    0.000    0.000    5.133 
#    0.000    0.000    0.000    0.000    0.000    0.000 
#
# Total GULP energy -167077.151602 kJ/mol
# GULP energy per Si atom -5569.238387 kJ/mol
# Density = 1.979929 g / cm^3
# Si number density = 19.844458 Si / 1000 Ang^3
#
#
#
# Elastic Constant Matrix: (Units=GPa)
#
#
# Indices 1 2 3 4 5 6 
#
# 1 40.0178 12.4214 -6.6825 0.0000 -2.4685 0.0000
# 2 12.4214 121.8182 9.9853 0.0000 4.8206 0.0000
# 3 -6.6825 9.9853 89.5590 0.0000 10.6752 0.0000
# 4 0.0000 0.0000 0.0000 9.8478 0.0000 13.1983
# 5 -2.4685 4.8206 10.6752 0.0000 26.0710 0.0000
# 6 0.0000 0.0000 0.0000 13.1983 0.0000 16.4835
#
#
#
# Elastic Compliance Matrix: (Units=1/GPa)
#
#
# Indices 1 2 3 4 5 6 
#
# 1 0.026378 -0.002944 0.002033 0.000000 0.002209 0.000000
# 2 -0.002944 0.008650 -0.001009 0.000000 -0.001465 0.000000
# 3 0.002033 -0.001009 0.011969 0.000000 -0.004522 0.000000
# 4 0.000000 0.000000 0.000000 -1.388887 0.000000 1.112078
# 5 0.002209 -0.001465 -0.004522 0.000000 0.040688 0.000000
# 6 0.000000 0.000000 0.000000 1.112078 0.000000 -0.829770
#
#
# Mechanical properties :
#
#
# Convention : Reuss Voigt Hill
#
# Bulk Modulus (GPa) = 23.17122 31.42704 27.29913
# Shear Modulus (GPa) = -2.36659 26.19185 11.91263
#
# Velocity S-wave (km/s) = -1.09323 3.63693 2.45276
# Velocity P-wave (km/s) = 3.17934 5.78855 4.66988
#
# Compressibility (1/GPa) = 0.04315698
#
# Stress axis : x y z
#
# Youngs Moduli (GPa) = 37.90978 115.60921 83.54878
#
# Poissons Ratio (x) = 0.34033 -0.16986
# Poissons Ratio (y) = 0.11160 0.08434
# Poissons Ratio (z) = -0.07707 0.11670
#
# Static dielectric constant tensor:
#      x y z
#    x 1.834490 0.000000 0.027130 
#    y 0.000000 1.693180 0.000000 
#    z 0.027130 0.000000 1.747870 
# 
# From -- ./inp_files/259714.got.cif
#   From: 2010.05.17/outbox.cif.g08.bks.cpg/sg12_130_cif.got.tgz:259714.got - 2010.06.03 13:09:07.
