data_PCOD9202563
_publ_section_title
;
Structure prediction by ZEFSAII (Michael W. Deem and Ramdas Pophale) SiO2 
 PCOD9202563
Probable space group: C 2/M
;
_chemical_formula_sum "Si O2"
_cell_formula_units_Z 36
_cell_length_a 9.015677
_cell_length_b 14.286668
_cell_length_c 20.880917
_cell_angle_alpha 90.000000
_cell_angle_beta 40.948886
_cell_angle_gamma 90.000000
_cell_volume 1762.688954
_symmetry_space_group_name_H-M "C 2/M"
_symmetry_group_IT_number 12
_symmetry_cell_setting 'monoclinic'
loop_
_space_group_symop_operation_xyz
x,y,z
-x,y,-z
-x,-y,-z
x,-y,z
1/2+x,1/2+y,z
1/2-x,1/2+y,-z
1/2-x,1/2-y,-z
1/2+x,1/2-y,z
loop_
_atom_site_type_symbol
_atom_site_label
_atom_site_fract_x
_atom_site_fract_y
_atom_site_fract_z
Si Si1 0.014647 0.500000 0.280203
Si Si2 0.756598 0.822027 0.439258
Si Si3 0.399128 0.800139 0.896689
Si Si4 0.877632 0.292217 0.753967
Si Si5 0.498217 0.500000 0.578501
Si Si6 0.733214 0.000000 0.074920
O O1 0.769623 0.500000 0.326690
O O2 0.064212 0.396734 0.293761
O O3 0.170181 0.500000 0.169065
O O4 0.500000 0.841279 0.500000
O O5 0.750000 0.750000 0.500000
O O6 0.909581 0.773115 0.334397
O O7 0.882876 0.911754 0.427503
O O8 0.648411 0.757136 0.806137
O O9 0.321296 0.797232 0.848103
O O10 0.373910 0.908947 0.922519
O O11 0.250000 0.750000 0.000000
O O12 0.500000 0.500000 0.500000
O O13 0.000000 0.000000 0.000000
#
# Coordination Sequence:
#
# PCOD9202563 Si02
#       6
#     4   8   8   8   4   4
#     4  10  20  39  62  87 118 163 208 253 317 383
#     4  12  24  42  65  96 131 169 216 272 328 389
#     4  11  22  40  63  92 125 166 212 260 316 382
#     4  11  23  40  64  92 125 165 211 263 319 386
#     4  12  25  43  67  92 126 174 221 266 325 391
#     4  10  20  38  62  87 119 163 205 247 307 382
#
# _framework density 20.423342999999999
#
# number of rings (size 3 to 8) (size 9 to 14) (size 15 to 20)
#    0.000    0.889    0.000   11.000    0.000    0.000 
#    0.000    7.778    0.000    0.000    0.000    0.000 
#    0.000    0.000    0.000    0.000    0.000    0.000 
#
# Total GULP energy -100238.741799 kJ/mol
# GULP energy per Si atom -5568.818989 kJ/mol
# Density = 2.037686 g / cm^3
# Si number density = 20.423343 Si / 1000 Ang^3
#
#
#
# Elastic Constant Matrix: (Units=GPa)
#
#
# Indices 1 2 3 4 5 6 
#
# 1 71.4907 46.1230 22.5405 0.0002 -24.8166 -0.0003
# 2 46.1230 196.7717 35.8992 0.0003 -18.7206 -0.0004
# 3 22.5405 35.8992 119.0163 0.0000 -14.4226 -0.0004
# 4 0.0002 0.0003 0.0000 28.9855 -0.0003 -3.3050
# 5 -24.8166 -18.7206 -14.4226 -0.0003 55.3116 0.0003
# 6 -0.0003 -0.0004 -0.0004 -3.3050 0.0003 32.7037
#
#
#
# Elastic Compliance Matrix: (Units=1/GPa)
#
#
# Indices 1 2 3 4 5 6 
#
# 1 0.019235 -0.003528 -0.001732 0.000000 0.006984 0.000000
# 2 -0.003528 0.006139 -0.001160 0.000000 0.000192 0.000000
# 3 -0.001732 -0.001160 0.009230 0.000000 0.001237 0.000000
# 4 0.000000 0.000000 0.000000 0.034902 0.000000 0.003527
# 5 0.006984 0.000192 0.001237 0.000000 0.021601 0.000000
# 6 0.000000 0.000000 0.000000 0.003527 0.000000 0.030934
#
#
# Mechanical properties :
#
#
# Convention : Reuss Voigt Hill
#
# Bulk Modulus (GPa) = 45.95057 66.26713 56.10885
# Shear Modulus (GPa) = 35.17764 42.24792 38.71278
#
# Velocity S-wave (km/s) = 4.15471 4.55313 4.35848
# Velocity P-wave (km/s) = 6.75007 7.75619 7.27055
#
# Compressibility (1/GPa) = 0.02176252
#
# Stress axis : x y z
#
# Youngs Moduli (GPa) = 51.98966 162.89379 108.34075
#
# Poissons Ratio (x) = 0.57470 0.18768
# Poissons Ratio (y) = 0.18342 0.12570
# Poissons Ratio (z) = 0.09006 0.18899
#
# Static dielectric constant tensor:
#      x y z
#    x 1.708170 0.000000 0.034830 
#    y 0.000000 2.108470 0.000000 
#    z 0.034830 0.000000 1.705310 
# 
# From -- ./inp_files/300097.got.cif
#   From: 2010.05.17/outbox.cif.g08.bks.cpg/sg12_151_cif.got.tgz:300097.got - 2010.06.03 13:09:07.
