data_PCOD9202207
_publ_section_title
;
Structure prediction by ZEFSAII (Michael W. Deem and Ramdas Pophale) SiO2 
 PCOD9202207
Probable space group: C 2/M
;
_chemical_formula_sum "Si O2"
_cell_formula_units_Z 56
_cell_length_a 15.151013
_cell_length_b 9.148292
_cell_length_c 24.613729
_cell_angle_alpha 90.000000
_cell_angle_beta 63.680810
_cell_angle_gamma 90.000000
_cell_volume 3057.953689
_symmetry_space_group_name_H-M "C 2/M"
_symmetry_group_IT_number 12
_symmetry_cell_setting 'monoclinic'
loop_
_space_group_symop_operation_xyz
x,y,z
-x,y,-z
-x,-y,-z
x,-y,z
1/2+x,1/2+y,z
1/2-x,1/2+y,-z
1/2-x,1/2-y,-z
1/2+x,1/2-y,z
loop_
_atom_site_type_symbol
_atom_site_label
_atom_site_fract_x
_atom_site_fract_y
_atom_site_fract_z
Si Si1 0.181241 0.675402 0.775246
Si Si2 0.152614 0.175954 0.000676
Si Si3 0.906461 0.671267 0.317111
Si Si4 0.223700 0.834657 0.561685
Si Si5 0.931176 0.175999 0.095316
Si Si6 0.615965 0.173496 0.301729
Si Si7 0.568719 0.832415 0.434473
O O1 0.181324 0.500000 0.779202
O O2 0.136221 0.717884 0.728980
O O3 0.118292 0.744446 0.840725
O O4 0.290976 0.739210 0.744792
O O5 0.128737 0.212322 0.943886
O O6 0.164527 0.000000 0.000847
O O7 0.250000 0.250000 0.000000
O O8 0.047482 0.213567 0.057742
O O9 0.882882 0.500000 0.331374
O O10 0.858175 0.757303 0.379818
O O11 0.023441 0.686742 0.287441
O O12 0.250000 0.750000 0.500000
O O13 0.322485 0.837361 0.570743
O O14 0.194887 0.000000 0.556470
O O15 0.925888 0.000000 0.102689
O O16 0.579793 0.229138 0.370999
O O17 0.640498 0.000000 0.301044
O O18 0.500000 0.763454 0.500000
O O19 0.530538 0.000000 0.437196
#
# Coordination Sequence:
#
# PCOD9202207 Si02
#       7
#     8   8   8   8   8   8   8
#     4  11  23  38  57  86 121 151 191 248 294 331
#     4   9  19  37  62  91 122 156 196 241 283 333
#     4  10  22  39  58  80 111 147 187 237 291 345
#     4  11  21  34  55  81 109 143 184 233 290 351
#     4   9  20  39  60  84 119 163 200 229 279 350
#     4  10  20  38  60  79 107 152 193 230 286 356
#     4   9  17  31  53  78 102 135 183 228 274 344
#
# _framework density 18.312899999999999
#
# number of rings (size 3 to 8) (size 9 to 14) (size 15 to 20)
#    0.000    2.143    1.429    2.571    0.000    5.714 
#    0.000    5.714    0.000    2.143    0.000    0.000 
#    0.000    0.000    0.000    0.000    0.000    0.000 
#
# Total GULP energy -156189.605373 kJ/mol
# GULP energy per Si atom -5578.200192 kJ/mol
# Density = 1.827122 g / cm^3
# Si number density = 18.312900 Si / 1000 Ang^3
#
#
#
# Elastic Constant Matrix: (Units=GPa)
#
#
# Indices 1 2 3 4 5 6 
#
# 1 103.8524 47.4785 53.9966 0.0000 -7.7634 0.0000
# 2 47.4785 53.3829 63.9574 0.0000 -0.8181 0.0000
# 3 53.9966 63.9574 147.3271 0.0000 -13.0841 0.0000
# 4 0.0000 0.0000 0.0000 28.8426 0.0000 -1.5484
# 5 -7.7634 -0.8181 -13.0841 0.0000 18.1808 0.0000
# 6 0.0000 0.0000 0.0000 -1.5484 0.0000 28.6361
#
#
#
# Elastic Compliance Matrix: (Units=1/GPa)
#
#
# Indices 1 2 3 4 5 6 
#
# 1 0.017246 -0.017713 0.002085 0.000000 0.008068 0.000000
# 2 -0.017713 0.059467 -0.021107 0.000000 -0.020078 0.000000
# 3 0.002085 -0.021107 0.016217 0.000000 0.011612 0.000000
# 4 0.000000 0.000000 0.000000 0.034772 0.000000 0.001880
# 5 0.008068 -0.020078 0.011612 0.000000 0.065901 0.000000
# 6 0.000000 0.000000 0.000000 0.001880 0.000000 0.035023
#
#
# Mechanical properties :
#
#
# Convention : Reuss Voigt Hill
#
# Bulk Modulus (GPa) = 51.38514 70.60305 60.99409
# Shear Modulus (GPa) = 16.20316 24.40719 20.30517
#
# Velocity S-wave (km/s) = 2.97778 3.65470 3.33346
# Velocity P-wave (km/s) = 6.32007 7.51309 6.94225
#
# Compressibility (1/GPa) = 0.01946088
#
# Stress axis : x y z
#
# Youngs Moduli (GPa) = 57.98462 16.81615 61.66263
#
# Poissons Ratio (x) = 0.29787 -0.12859
# Poissons Ratio (y) = 1.02710 1.30149
# Poissons Ratio (z) = -0.12092 0.35493
#
# Static dielectric constant tensor:
#      x y z
#    x 1.630020 0.000000 0.008080 
#    y 0.000000 1.630870 0.000000 
#    z 0.008080 0.000000 1.617090 
# 
# From -- ./inp_files/338456.got.cif
#   From: 2010.05.17/outbox.cif.g08.bks.cpg/sg12_170_cif.got.tgz:338456.got - 2010.06.03 13:09:07.
