data_PCOD9202759
_publ_section_title
;
Structure prediction by ZEFSAII (Michael W. Deem and Ramdas Pophale) SiO2 
 PCOD9202759
Probable space group: C 2/M
;
_chemical_formula_sum "Si O2"
_cell_formula_units_Z 48
_cell_length_a 9.010130
_cell_length_b 15.439246
_cell_length_c 17.402858
_cell_angle_alpha 90.000000
_cell_angle_beta 92.773821
_cell_angle_gamma 90.000000
_cell_volume 2418.068405
_symmetry_space_group_name_H-M "C 2/M"
_symmetry_group_IT_number 12
_symmetry_cell_setting 'monoclinic'
loop_
_space_group_symop_operation_xyz
x,y,z
-x,y,-z
-x,-y,-z
x,-y,z
1/2+x,1/2+y,z
1/2-x,1/2+y,-z
1/2-x,1/2-y,-z
1/2+x,1/2-y,z
loop_
_atom_site_type_symbol
_atom_site_label
_atom_site_fract_x
_atom_site_fract_y
_atom_site_fract_z
Si Si1 0.800560 0.665921 0.550863
Si Si2 0.628655 0.097871 0.596757
Si Si3 0.063741 0.898706 0.916289
Si Si4 0.320196 0.253580 0.304998
Si Si5 0.940343 0.248747 0.804932
Si Si6 0.080439 0.399049 0.083245
O O1 0.750000 0.750000 0.500000
O O2 0.784469 0.595862 0.482442
O O3 0.714557 0.676756 0.629115
O O4 0.972829 0.649283 0.578316
O O5 0.709484 0.159059 0.659443
O O6 0.599141 0.000000 0.621191
O O7 0.241989 0.884655 0.920810
O O8 0.980574 0.834606 0.856097
O O9 0.038400 0.000000 0.896098
O O10 0.000000 0.883694 0.000000
O O11 0.229239 0.261932 0.224039
O O12 0.485321 0.257863 0.276891
O O13 0.982209 0.333534 0.854893
O O14 0.057421 0.500000 0.103323
O O15 0.000000 0.383320 0.000000
#
# Coordination Sequence:
#
# PCOD9202759 Si02
#       6
#     8   8   8   8   8   8
#     4   9  18  35  58  85 117 153 194 242 292 353
#     4  10  20  38  63  91 117 158 212 252 294 361
#     4  10  23  42  63  88 122 162 203 252 307 362
#     4  11  23  38  59  90 124 157 200 247 311 362
#     4  12  23  40  62  90 124 166 198 252 313 371
#     4  10  23  42  63  89 120 161 212 253 296 367
#
# _framework density 19.850553999999999
#
# number of rings (size 3 to 8) (size 9 to 14) (size 15 to 20)
#    0.000    1.667    3.333    1.500    2.333    2.667 
#    0.000    1.667    0.000    1.000    0.000    0.000 
#    0.000    0.000    0.000    0.000    0.000    0.000 
#
# Total GULP energy -133603.105342 kJ/mol
# GULP energy per Si atom -5566.796056 kJ/mol
# Density = 1.980537 g / cm^3
# Si number density = 19.850554 Si / 1000 Ang^3
#
#
#
# Elastic Constant Matrix: (Units=GPa)
#
#
# Indices 1 2 3 4 5 6 
#
# 1 24.3142 16.9734 9.3980 0.0000 -10.2920 0.0000
# 2 16.9734 86.7220 55.1089 0.0000 -5.0380 0.0000
# 3 9.3980 55.1089 104.0306 0.0000 -10.0034 0.0000
# 4 0.0000 0.0000 0.0000 6.8261 0.0000 -5.1244
# 5 -10.2920 -5.0380 -10.0034 0.0000 40.4529 0.0000
# 6 0.0000 0.0000 0.0000 -5.1244 0.0000 -0.8349
#
#
#
# Elastic Compliance Matrix: (Units=1/GPa)
#
#
# Indices 1 2 3 4 5 6 
#
# 1 0.053458 -0.011204 0.002335 0.000000 0.012783 0.000000
# 2 -0.011204 0.019731 -0.009709 0.000000 -0.002794 0.000000
# 3 0.002335 -0.009709 0.014839 0.000000 0.003054 0.000000
# 4 0.000000 0.000000 0.000000 0.026124 0.000000 -0.160344
# 5 0.012783 -0.002794 0.003054 0.000000 0.028380 0.000000
# 6 0.000000 0.000000 0.000000 -0.160344 0.000000 -0.213591
#
#
# Mechanical properties :
#
#
# Convention : Reuss Voigt Hill
#
# Bulk Modulus (GPa) = 19.65721 42.00303 30.83012
# Shear Modulus (GPa) = -295.05727 18.19459 -138.43134
#
# Velocity S-wave (km/s) = -12.20500 3.03079 -8.35991
# Velocity P-wave (km/s) = 13.73652 5.78387 8.81019
#
# Compressibility (1/GPa) = 0.05087191
#
# Stress axis : x y z
#
# Youngs Moduli (GPa) = 18.70627 50.68073 67.39225
#
# Poissons Ratio (x) = 0.56783 -0.15737
# Poissons Ratio (y) = 0.20959 0.65431
# Poissons Ratio (z) = -0.04368 0.49206
#
# Static dielectric constant tensor:
#      x y z
#    x 1.709470 0.000000 -0.006200 
#    y 0.000000 1.678030 0.000000 
#    z -0.006200 0.000000 1.703580 
# 
# From -- ./inp_files/251392.got.cif
#   From: 2010.05.17/outbox.cif.g08.bks.cpg/sg12_126_cif.got.tgz:251392.got - 2010.06.03 13:09:07.
