data_PCOD9202235
_publ_section_title
;
Structure prediction by ZEFSAII (Michael W. Deem and Ramdas Pophale) SiO2 
 PCOD9202235
Probable space group: C 2/M
;
_chemical_formula_sum "Si O2"
_cell_formula_units_Z 32
_cell_length_a 26.178287
_cell_length_b 7.840128
_cell_length_c 9.191922
_cell_angle_alpha 90.000000
_cell_angle_beta 110.585191
_cell_angle_gamma 90.000000
_cell_volume 1766.104331
_symmetry_space_group_name_H-M "C 2/M"
_symmetry_group_IT_number 12
_symmetry_cell_setting 'monoclinic'
loop_
_space_group_symop_operation_xyz
x,y,z
-x,y,-z
-x,-y,-z
x,-y,z
1/2+x,1/2+y,z
1/2-x,1/2+y,-z
1/2-x,1/2-y,-z
1/2+x,1/2-y,z
loop_
_atom_site_type_symbol
_atom_site_label
_atom_site_fract_x
_atom_site_fract_y
_atom_site_fract_z
Si Si1 0.253713 0.296736 0.172463
Si Si2 0.058466 0.000000 0.133514
Si Si3 0.862762 0.309469 0.439978
Si Si4 0.441552 0.500000 0.516276
Si Si5 0.358985 0.800494 0.783265
O O1 0.260051 0.500000 0.194690
O O2 0.306187 0.212728 0.298775
O O3 0.197358 0.249772 0.195766
O O4 0.250000 0.250000 0.000000
O O5 0.051996 0.000000 0.302172
O O6 0.093522 0.168273 0.128714
O O7 0.000000 0.000000 0.000000
O O8 0.884388 0.500000 0.437480
O O9 0.905896 0.165539 0.439702
O O10 0.851684 0.288933 0.601488
O O11 0.500000 0.500000 0.500000
O O12 0.370903 0.000000 0.830079
#
# Coordination Sequence:
#
# PCOD9202235 Si02
#       5
#     8   4   8   4   8
#     4  11  22  35  54  87 121 150 185 235 290 340
#     4  10  22  38  60  84 110 154 195 232 285 334
#     4  10  20  38  60  83 112 152 192 234 283 340
#     4  10  22  40  58  84 116 150 197 238 277 342
#     4   9  21  38  58  83 113 149 193 233 279 342
#
# _framework density 18.118973
#
# number of rings (size 3 to 8) (size 9 to 14) (size 15 to 20)
#    0.000    2.000    1.250    1.500    3.500    3.000 
#    0.000    0.000    0.000    0.000    0.000    0.000 
#    0.000    0.000    0.000    0.000    0.000    0.000 
#
# Total GULP energy -89350.152251 kJ/mol
# GULP energy per Si atom -5584.384516 kJ/mol
# Density = 1.807773 g / cm^3
# Si number density = 18.118973 Si / 1000 Ang^3
#
#
#
# Elastic Constant Matrix: (Units=GPa)
#
#
# Indices 1 2 3 4 5 6 
#
# 1 158.1980 91.5251 48.0483 0.0000 18.1467 0.0000
# 2 91.5251 128.8665 57.1874 0.0000 17.2720 0.0000
# 3 48.0483 57.1874 78.5097 0.0000 35.9970 0.0000
# 4 0.0000 0.0000 0.0000 22.1208 0.0000 7.4413
# 5 18.1467 17.2720 35.9970 0.0000 26.6659 0.0000
# 6 0.0000 0.0000 0.0000 7.4413 0.0000 21.5282
#
#
#
# Elastic Compliance Matrix: (Units=1/GPa)
#
#
# Indices 1 2 3 4 5 6 
#
# 1 0.010898 -0.007296 -0.000319 0.000000 -0.002260 0.000000
# 2 -0.007296 0.017490 -0.014058 0.000000 0.012614 0.000000
# 3 -0.000319 -0.014058 0.049595 0.000000 -0.057626 0.000000
# 4 0.000000 0.000000 0.000000 0.051154 0.000000 -0.017682
# 5 -0.002260 0.012614 -0.057626 0.000000 0.108660 0.000000
# 6 0.000000 0.000000 0.000000 -0.017682 0.000000 0.052562
#
#
# Mechanical properties :
#
#
# Convention : Reuss Voigt Hill
#
# Bulk Modulus (GPa) = 28.87168 84.34396 56.60782
# Shear Modulus (GPa) = 14.48217 25.31722 19.89970
#
# Velocity S-wave (km/s) = 2.83023 3.74207 3.31763
# Velocity P-wave (km/s) = 5.16230 8.08220 6.78127
#
# Compressibility (1/GPa) = 0.03463602
#
# Stress axis : x y z
#
# Youngs Moduli (GPa) = 91.75702 57.17680 20.16333
#
# Poissons Ratio (x) = 0.41715 0.00644
# Poissons Ratio (y) = 0.66943 0.28346
# Poissons Ratio (z) = 0.02931 0.80381
#
# Static dielectric constant tensor:
#      x y z
#    x 1.580600 0.000000 -0.012440 
#    y 0.000000 1.653240 0.000000 
#    z -0.012440 0.000000 1.595400 
# 
# From -- ./inp_files/81729.got.cif
#   From: 2010.05.17/outbox.cif.g08.bks.cpg/sg12_41_cif.got.tgz:81729.got - 2010.06.03 13:09:07.
