data_PCOD9202129
_publ_section_title
;
Structure prediction by ZEFSAII (Michael W. Deem and Ramdas Pophale) SiO2 
 PCOD9202129
Probable space group: C 2/M
;
_chemical_formula_sum "Si O2"
_cell_formula_units_Z 64
_cell_length_a 19.358992
_cell_length_b 7.645164
_cell_length_c 29.689070
_cell_angle_alpha 90.000000
_cell_angle_beta 143.091993
_cell_angle_gamma 90.000000
_cell_volume 2638.774482
_symmetry_space_group_name_H-M "C 2/M"
_symmetry_group_IT_number 12
_symmetry_cell_setting 'monoclinic'
loop_
_space_group_symop_operation_xyz
x,y,z
-x,y,-z
-x,-y,-z
x,-y,z
1/2+x,1/2+y,z
1/2-x,1/2+y,-z
1/2-x,1/2-y,-z
1/2+x,1/2-y,z
loop_
_atom_site_type_symbol
_atom_site_label
_atom_site_fract_x
_atom_site_fract_y
_atom_site_fract_z
Si Si1 0.655212 0.714251 0.039782
Si Si2 0.897130 0.789676 0.888209
Si Si3 0.510908 0.208866 0.390010
Si Si4 0.897111 0.297240 0.141878
Si Si5 0.280942 0.796224 0.447832
Si Si6 0.475924 0.295983 0.701807
Si Si7 0.623003 0.206987 0.219332
Si Si8 0.341647 0.290712 0.383820
O O1 0.655799 0.500000 0.039115
O O2 0.658910 0.767480 0.094278
O O3 0.769415 0.779891 0.074940
O O4 0.530495 0.770855 0.957334
O O5 0.839770 0.731728 0.812416
O O6 0.898118 0.000000 0.889433
O O7 0.637589 0.278342 0.470542
O O8 0.473361 0.279628 0.321993
O O9 0.427536 0.249985 0.388043
O O10 0.517269 0.000000 0.389148
O O11 0.883729 0.500000 0.121750
O O12 0.949445 0.290606 0.219882
O O13 0.996823 0.216965 0.162980
O O14 0.154439 0.720569 0.371531
O O15 0.356177 0.783472 0.441231
O O16 0.262084 0.000000 0.448053
O O17 0.468496 0.500000 0.710299
O O18 0.718004 0.278390 0.302409
O O19 0.616732 0.000000 0.225024
O O20 0.340330 0.500000 0.388326
#
# Coordination Sequence:
#
# PCOD9202129 Si02
#       8
#     8   8   8   8   8   8   8   8
#     4   8  17  35  59  85 112 145 190 234 276 332
#     4   9  18  35  59  86 113 145 188 236 279 331
#     4  11  24  40  60  85 113 151 195 238 289 348
#     4  10  20  38  59  80 112 157 195 230 281 341
#     4  10  22  41  62  84 114 150 192 239 288 346
#     4  11  23  39  59  87 118 148 189 242 289 340
#     4  10  22  37  54  81 117 151 187 233 284 337
#     4  11  23  39  58  85 119 153 191 240 290 339
#
# _framework density 24.253684
#
# number of rings (size 3 to 8) (size 9 to 14) (size 15 to 20)
#    0.000    2.000    1.250    2.625    1.750    5.000 
#    0.000    1.875    0.000    0.000    0.000    0.000 
#    0.000    0.000    0.000    0.000    0.000    0.000 
#
# Total GULP energy -178885.682156 kJ/mol
# GULP energy per Si atom -5590.177567 kJ/mol
# Density = 2.419848 g / cm^3
# Si number density = 24.253684 Si / 1000 Ang^3
#
#
#
# Elastic Constant Matrix: (Units=GPa)
#
#
# Indices 1 2 3 4 5 6 
#
# 1 72.6770 -4.4032 0.9938 0.0001 2.6311 -0.0003
# 2 -4.4032 60.9693 -6.3537 0.0003 8.2372 -0.0003
# 3 0.9938 -6.3537 10.3280 0.0000 -5.2682 -0.0002
# 4 0.0001 0.0003 0.0000 8.9059 0.0000 -1.7381
# 5 2.6311 8.2372 -5.2682 0.0000 48.1783 0.0001
# 6 -0.0003 -0.0003 -0.0002 -1.7381 0.0001 12.6426
#
#
#
# Elastic Compliance Matrix: (Units=1/GPa)
#
#
# Indices 1 2 3 4 5 6 
#
# 1 0.013877 0.001016 -0.001256 0.000000 -0.001069 0.000000
# 2 0.001016 0.017770 0.009803 0.000000 -0.002022 0.000000
# 3 -0.001256 0.009803 0.108190 0.000000 0.010223 0.000002
# 4 0.000000 0.000000 0.000000 0.115381 0.000000 0.015862
# 5 -0.001069 -0.002022 0.010223 0.000000 0.022278 0.000000
# 6 0.000000 0.000000 0.000002 0.015862 0.000000 0.081278
#
#
# Mechanical properties :
#
#
# Convention : Reuss Voigt Hill
#
# Bulk Modulus (GPa) = 6.29077 13.82754 10.05915
# Shear Modulus (GPa) = 12.73444 24.19452 18.46448
#
# Velocity S-wave (km/s) = 2.29389 3.16185 2.76217
# Velocity P-wave (km/s) = 3.10085 4.36386 3.78540
#
# Compressibility (1/GPa) = 0.15896317
#
# Stress axis : x y z
#
# Youngs Moduli (GPa) = 72.06212 56.27529 9.24298
#
# Poissons Ratio (x) = -0.05716 0.01160
# Poissons Ratio (y) = -0.07320 -0.09061
# Poissons Ratio (z) = 0.09048 -0.55166
#
# Static dielectric constant tensor:
#      x y z
#    x 1.941070 0.000000 0.052290 
#    y 0.000000 1.900380 0.000000 
#    z 0.052290 0.000000 1.931150 
# 
# From -- ./inp_files/378139.got.cif
#   From: 2010.05.17/outbox.cif.g08.bks.cpg/sg12_190_cif.got.tgz:378139.got - 2010.06.03 13:09:07.
