data_PCOD9202961
_publ_section_title
;
Structure prediction by ZEFSAII (Michael W. Deem and Ramdas Pophale) SiO2 
 PCOD9202961
Probable space group: C 2/M
;
_chemical_formula_sum "Si O2"
_cell_formula_units_Z 56
_cell_length_a 12.406126
_cell_length_b 15.720767
_cell_length_c 29.498258
_cell_angle_alpha 90.000000
_cell_angle_beta 28.970424
_cell_angle_gamma 90.000000
_cell_volume 2786.588470
_symmetry_space_group_name_H-M "C 2/M"
_symmetry_group_IT_number 12
_symmetry_cell_setting 'monoclinic'
loop_
_space_group_symop_operation_xyz
x,y,z
-x,y,-z
-x,-y,-z
x,-y,z
1/2+x,1/2+y,z
1/2-x,1/2+y,-z
1/2-x,1/2-y,-z
1/2+x,1/2-y,z
loop_
_atom_site_type_symbol
_atom_site_label
_atom_site_fract_x
_atom_site_fract_y
_atom_site_fract_z
Si Si1 0.029933 0.287458 0.604728
Si Si2 0.889253 0.816142 0.767767
Si Si3 0.236703 0.903121 0.098748
Si Si4 0.762341 0.402384 0.394340
Si Si5 0.618856 0.172290 0.742593
Si Si6 0.435126 0.244018 0.892523
Si Si7 0.187206 0.597436 0.393243
O O1 0.250000 0.250000 0.500000
O O2 0.098553 0.337203 0.625327
O O3 0.850120 0.211826 0.675786
O O4 0.908177 0.353101 0.615261
O O5 0.821812 0.890771 0.827303
O O6 0.669659 0.772581 0.829849
O O7 0.003903 0.744001 0.755050
O O8 0.095009 0.857790 0.665774
O O9 0.097936 0.833355 0.121649
O O10 0.199706 0.000000 0.097186
O O11 0.500000 0.883368 0.000000
O O12 0.500000 0.383297 0.500000
O O13 0.802195 0.500000 0.394090
O O14 0.820097 0.394978 0.319289
O O15 0.450403 0.168866 0.848007
O O16 0.250000 0.250000 0.000000
O O17 0.233637 0.500000 0.364151
O O18 0.000000 0.600206 0.500000
#
# Coordination Sequence:
#
# PCOD9202961 Si02
#       7
#     8   8   8   8   8   8   8
#     4  11  22  37  64  89 125 174 225 262 323 403
#     4  10  21  38  63  90 126 166 215 272 330 394
#     4  10  20  38  64  97 128 162 212 274 337 401
#     4  11  23  40  61  92 133 177 221 274 334 402
#     4  10  23  38  61  92 123 172 218 270 325 398
#     4  11  22  40  65  97 128 171 224 280 341 404
#     4  10  23  39  60  93 132 169 214 274 333 396
#
# _framework density 20.096257000000001
#
# number of rings (size 3 to 8) (size 9 to 14) (size 15 to 20)
#    0.000    1.571    2.857    1.714    6.000    0.000 
#    0.000    7.857    0.000    0.000    0.000    6.000 
#    0.000    0.000    0.000    0.000    0.000    0.000 
#
# Total GULP energy -155919.615200 kJ/mol
# GULP energy per Si atom -5568.557686 kJ/mol
# Density = 2.005052 g / cm^3
# Si number density = 20.096257 Si / 1000 Ang^3
#
#
#
# Elastic Constant Matrix: (Units=GPa)
#
#
# Indices 1 2 3 4 5 6 
#
# 1 114.4956 54.0729 47.8737 0.0010 -14.1468 -0.0060
# 2 54.0729 74.1656 31.0891 0.0054 -15.9357 -0.0041
# 3 47.8737 31.0891 125.1541 0.0054 -0.8716 -0.0227
# 4 0.0010 0.0054 0.0054 19.9099 0.0042 4.7251
# 5 -14.1468 -15.9357 -0.8716 0.0042 34.6624 0.0094
# 6 -0.0060 -0.0041 -0.0227 4.7251 0.0094 24.8853
#
#
#
# Elastic Compliance Matrix: (Units=1/GPa)
#
#
# Indices 1 2 3 4 5 6 
#
# 1 0.014508 -0.008785 -0.003355 0.000003 0.001798 -0.000002
# 2 -0.008785 0.022179 -0.002103 -0.000006 0.006558 -0.000002
# 3 -0.003355 -0.002103 0.009781 -0.000004 -0.002090 0.000009
# 4 0.000003 -0.000006 -0.000004 0.052596 -0.000005 -0.009987
# 5 0.001798 0.006558 -0.002090 -0.000005 0.032546 -0.000012
# 6 -0.000002 -0.000002 0.000009 -0.009987 -0.000012 0.042081
#
#
# Mechanical properties :
#
#
# Convention : Reuss Voigt Hill
#
# Bulk Modulus (GPa) = 55.61032 64.43186 60.02109
# Shear Modulus (GPa) = 24.01876 27.94349 25.98113
#
# Velocity S-wave (km/s) = 3.46090 3.73296 3.59950
# Velocity P-wave (km/s) = 6.61078 7.12118 6.87072
#
# Compressibility (1/GPa) = 0.01798227
#
# Stress axis : x y z
#
# Youngs Moduli (GPa) = 68.92962 45.08765 102.23543
#
# Poissons Ratio (x) = 0.39608 0.34297
# Poissons Ratio (y) = 0.60552 0.21505
# Poissons Ratio (z) = 0.23124 0.09484
#
# Static dielectric constant tensor:
#      x y z
#    x 1.747360 0.000020 0.065690 
#    y 0.000020 1.695320 0.000000 
#    z 0.065690 0.000000 1.780700 
# 
# From -- ./inp_files/374211.got.cif
#   From: 2010.05.17/outbox.cif.g08.bks.cpg/sg12_188_cif.got.tgz:374211.got - 2010.06.03 13:09:07.
