data_PCOD9202638
_publ_section_title
;
Structure prediction by ZEFSAII (Michael W. Deem and Ramdas Pophale) SiO2 
 PCOD9202638
Probable space group: C 2/M
;
_chemical_formula_sum "Si O2"
_cell_formula_units_Z 40
_cell_length_a 10.222703
_cell_length_b 17.963261
_cell_length_c 25.524220
_cell_angle_alpha 90.000000
_cell_angle_beta 153.651251
_cell_angle_gamma 90.000000
_cell_volume 2080.289438
_symmetry_space_group_name_H-M "C 2/M"
_symmetry_group_IT_number 12
_symmetry_cell_setting 'monoclinic'
loop_
_space_group_symop_operation_xyz
x,y,z
-x,y,-z
-x,-y,-z
x,-y,z
1/2+x,1/2+y,z
1/2-x,1/2+y,-z
1/2-x,1/2-y,-z
1/2+x,1/2-y,z
loop_
_atom_site_type_symbol
_atom_site_label
_atom_site_fract_x
_atom_site_fract_y
_atom_site_fract_z
Si Si1 0.168235 0.816394 0.363992
Si Si2 0.345696 0.222516 0.747751
Si Si3 0.260466 0.914270 0.136292
Si Si4 0.873030 0.854445 0.090567
Si Si5 0.768902 0.415815 0.849712
O O1 0.500000 0.831476 0.500000
O O2 0.165124 0.762446 0.312368
O O3 0.973910 0.781264 0.340564
O O4 0.986767 0.888636 0.280076
O O5 0.484893 0.141328 0.790579
O O6 0.550749 0.273692 0.858902
O O7 0.118290 0.882674 0.138675
O O8 0.354607 0.000000 0.176120
O O9 0.000000 0.912284 0.000000
O O10 0.847828 0.907099 0.132721
O O11 0.552320 0.861682 0.948800
O O12 0.864752 0.500000 0.873705
#
# Coordination Sequence:
#
# PCOD9202638 Si02
#       5
#     8   8   8   8   8
#     4  11  24  41  62  88 120 167 216 260 300 361
#     4  11  23  40  65  91 122 162 212 259 310 370
#     4  11  23  36  59  93 133 162 194 253 322 377
#     4  10  20  38  62  92 126 164 198 253 317 387
#     4  10  21  37  62  92 125 160 203 256 314 376
#
# _framework density 19.228093000000001
#
# number of rings (size 3 to 8) (size 9 to 14) (size 15 to 20)
#    0.000    1.400    2.000    4.200    5.600    4.400 
#    0.000    0.000    0.000    0.600    0.000    0.000 
#    0.000    0.000    0.000    0.000    0.000    0.000 
#
# Total GULP energy -111805.488856 kJ/mol
# GULP energy per Si atom -5590.274443 kJ/mol
# Density = 1.918433 g / cm^3
# Si number density = 19.228093 Si / 1000 Ang^3
#
#
#
# Elastic Constant Matrix: (Units=GPa)
#
#
# Indices 1 2 3 4 5 6 
#
# 1 109.7488 37.1625 31.4648 0.0029 19.6999 -0.0015
# 2 37.1625 99.6566 53.0160 0.0048 4.3246 -0.0017
# 3 31.4648 53.0160 126.5065 0.0017 17.1337 -0.0011
# 4 0.0029 0.0048 0.0017 14.1692 0.0005 6.0157
# 5 19.6999 4.3246 17.1337 0.0005 26.2343 0.0008
# 6 -0.0015 -0.0017 -0.0011 6.0157 0.0008 18.9447
#
#
#
# Elastic Compliance Matrix: (Units=1/GPa)
#
#
# Indices 1 2 3 4 5 6 
#
# 1 0.012003 -0.004020 -0.000186 -0.000001 -0.008229 0.000001
# 2 -0.004020 0.014317 -0.005583 -0.000004 0.004305 0.000002
# 3 -0.000186 -0.005583 0.011132 0.000001 -0.006210 0.000000
# 4 -0.000001 -0.000004 0.000001 0.081573 0.000001 -0.025903
# 5 -0.008229 0.004305 -0.006210 0.000001 0.047644 -0.000003
# 6 0.000001 0.000002 0.000000 -0.025903 -0.000003 0.061010
#
#
# Mechanical properties :
#
#
# Convention : Reuss Voigt Hill
#
# Bulk Modulus (GPa) = 55.94845 64.35537 60.15191
# Shear Modulus (GPa) = 19.74599 26.15421 22.95010
#
# Velocity S-wave (km/s) = 3.20806 3.69210 3.45856
# Velocity P-wave (km/s) = 6.54848 7.19149 6.87751
#
# Compressibility (1/GPa) = 0.01787360
#
# Stress axis : x y z
#
# Youngs Moduli (GPa) = 83.30905 69.84797 89.83232
#
# Poissons Ratio (x) = 0.28079 0.01673
# Poissons Ratio (y) = 0.33490 0.50154
# Poissons Ratio (z) = 0.01552 0.38996
#
# Static dielectric constant tensor:
#      x y z
#    x 1.694730 0.000000 -0.008090 
#    y 0.000000 1.660780 0.000000 
#    z -0.008090 0.000000 1.638740 
# 
# From -- ./inp_files/374386.got.cif
#   From: 2010.05.17/outbox.cif.g08.bks.cpg/sg12_188_cif.got.tgz:374386.got - 2010.06.03 13:09:07.
