data_PCOD9202553
_publ_section_title
;
Structure prediction by ZEFSAII (Michael W. Deem and Ramdas Pophale) SiO2 
 PCOD9202553
Probable space group: C 2/M
;
_chemical_formula_sum "Si O2"
_cell_formula_units_Z 64
_cell_length_a 31.951467
_cell_length_b 8.582103
_cell_length_c 14.782253
_cell_angle_alpha 90.000000
_cell_angle_beta 56.188641
_cell_angle_gamma 90.000000
_cell_volume 3367.909496
_symmetry_space_group_name_H-M "C 2/M"
_symmetry_group_IT_number 12
_symmetry_cell_setting 'monoclinic'
loop_
_space_group_symop_operation_xyz
x,y,z
-x,y,-z
-x,-y,-z
x,-y,z
1/2+x,1/2+y,z
1/2-x,1/2+y,-z
1/2-x,1/2-y,-z
1/2+x,1/2-y,z
loop_
_atom_site_type_symbol
_atom_site_label
_atom_site_fract_x
_atom_site_fract_y
_atom_site_fract_z
Si Si1 0.406920 0.188490 0.516255
Si Si2 0.354532 0.186360 0.080725
Si Si3 0.195184 0.813477 0.041363
Si Si4 0.028538 0.690015 0.055726
Si Si5 0.600210 0.686599 0.272818
Si Si6 0.503566 0.188329 0.284167
Si Si7 0.699325 0.314009 0.677645
Si Si8 0.685618 0.812211 0.498949
O O1 0.405900 0.255230 0.617820
O O2 0.456013 0.239537 0.400898
O O3 0.357241 0.233698 0.520095
O O4 0.408046 0.000000 0.520824
O O5 0.328631 0.234843 0.205480
O O6 0.354034 0.000000 0.072321
O O7 0.324554 0.257298 0.032305
O O8 0.412984 0.238496 0.010900
O O9 0.153232 0.762550 0.165161
O O10 0.197145 0.000000 0.038966
O O11 0.250000 0.750000 0.000000
O O12 0.028255 0.500000 0.053736
O O13 0.001987 0.737882 0.181236
O O14 0.000000 0.744474 0.000000
O O15 0.598264 0.500000 0.273214
O O16 0.554866 0.752494 0.267096
O O17 0.504184 0.000000 0.284652
O O18 0.696175 0.500000 0.690727
O O19 0.677564 0.261873 0.606992
O O20 0.758553 0.269133 0.602550
O O21 0.684337 0.000000 0.510628
#
# Coordination Sequence:
#
# PCOD9202553 Si02
#       8
#     8   8   8   8   8   8   8   8
#     4  10  22  37  61  89 115 151 202 250 291 347
#     4  11  22  38  64  92 121 159 199 248 302 358
#     4  11  25  43  63  89 121 158 202 251 303 364
#     4   9  19  35  60  91 119 153 199 248 294 346
#     4  11  24  41  60  85 120 154 191 242 302 362
#     4  10  20  38  62  87 116 152 199 247 291 347
#     4  10  21  37  58  85 121 158 194 241 293 350
#     4   9  20  39  59  85 115 153 197 244 293 344
#
# _framework density 19.002886
#
# number of rings (size 3 to 8) (size 9 to 14) (size 15 to 20)
#    0.000    1.875    1.250    1.875    3.500    4.500 
#    0.000    0.000    0.000    1.875    0.000    0.000 
#    0.000    0.000    0.000    0.000    0.000    0.000 
#
# Total GULP energy -178788.006720 kJ/mol
# GULP energy per Si atom -5587.125210 kJ/mol
# Density = 1.895963 g / cm^3
# Si number density = 19.002886 Si / 1000 Ang^3
#
#
#
# Elastic Constant Matrix: (Units=GPa)
#
#
# Indices 1 2 3 4 5 6 
#
# 1 115.5737 10.2964 35.1085 0.0000 27.3413 0.0000
# 2 10.2964 15.3958 12.3855 0.0000 5.7793 0.0001
# 3 35.1085 12.3855 113.0898 0.0000 32.1936 0.0000
# 4 0.0000 0.0000 0.0000 28.0310 0.0000 2.7044
# 5 27.3413 5.7793 32.1936 0.0000 21.2372 0.0000
# 6 0.0000 0.0001 0.0000 2.7044 0.0000 26.2956
#
#
#
# Elastic Compliance Matrix: (Units=1/GPa)
#
#
# Indices 1 2 3 4 5 6 
#
# 1 0.012660 -0.002987 0.001417 0.000000 -0.017633 0.000000
# 2 -0.002987 0.074133 -0.004474 0.000000 -0.009546 0.000000
# 3 0.001417 -0.004474 0.015947 0.000000 -0.024781 0.000000
# 4 0.000000 0.000000 0.000000 0.036032 0.000000 -0.003706
# 5 -0.017633 -0.009546 -0.024781 0.000000 0.109951 0.000000
# 6 0.000000 0.000000 0.000000 -0.003706 0.000000 0.038410
#
#
# Mechanical properties :
#
#
# Convention : Reuss Voigt Hill
#
# Bulk Modulus (GPa) = 11.03141 39.96001 25.49571
# Shear Modulus (GPa) = 15.17729 27.53070 21.35400
#
# Velocity S-wave (km/s) = 2.82916 3.81039 3.35584
# Velocity P-wave (km/s) = 4.06078 6.35868 5.33492
#
# Compressibility (1/GPa) = 0.09065025
#
# Stress axis : x y z
#
# Youngs Moduli (GPa) = 78.99074 13.48928 62.70723
#
# Poissons Ratio (x) = 0.04029 -0.08883
# Poissons Ratio (y) = 0.23595 0.28057
# Poissons Ratio (z) = -0.11190 0.06036
#
# Static dielectric constant tensor:
#      x y z
#    x 1.627330 0.000000 -0.013710 
#    y 0.000000 1.651940 0.000000 
#    z -0.013710 0.000000 1.644950 
# 
# From -- ./inp_files/249710.got.cif
#   From: 2010.05.17/outbox.cif.g08.bks.cpg/sg12_125_cif.got.tgz:249710.got - 2010.06.03 13:09:07.
