data_PCOD9202319
_publ_section_title
;
Structure prediction by ZEFSAII (Michael W. Deem and Ramdas Pophale) SiO2 
 PCOD9202319
Probable space group: C 2/M
;
_chemical_formula_sum "Si O2"
_cell_formula_units_Z 40
_cell_length_a 18.568824
_cell_length_b 22.428463
_cell_length_c 8.091364
_cell_angle_alpha 90.000000
_cell_angle_beta 30.885776
_cell_angle_gamma 90.000000
_cell_volume 1729.819502
_symmetry_space_group_name_H-M "C 2/M"
_symmetry_group_IT_number 12
_symmetry_cell_setting 'monoclinic'
loop_
_space_group_symop_operation_xyz
x,y,z
-x,y,-z
-x,-y,-z
x,-y,z
1/2+x,1/2+y,z
1/2-x,1/2+y,-z
1/2-x,1/2-y,-z
1/2+x,1/2-y,z
loop_
_atom_site_type_symbol
_atom_site_label
_atom_site_fract_x
_atom_site_fract_y
_atom_site_fract_z
Si Si1 0.405525 0.566722 0.524843
Si Si2 0.106803 0.725097 0.431748
Si Si3 0.115383 0.624656 0.653020
Si Si4 0.336033 0.105429 0.782000
Si Si5 0.371031 0.674700 0.362397
O O1 0.500000 0.577141 0.500000
O O2 0.429220 0.500000 0.416471
O O3 0.427503 0.616501 0.345738
O O4 0.250354 0.573616 0.907223
O O5 0.040561 0.678745 0.697418
O O6 0.207342 0.675968 0.146139
O O7 0.168561 0.777005 0.420922
O O8 0.000000 0.745379 0.500000
O O9 0.177413 0.584492 0.382000
O O10 0.241111 0.654341 0.507124
O O11 0.000000 0.596877 0.000000
O O12 0.500000 0.102217 0.500000
O O13 0.500000 0.698854 0.000000
#
# Coordination Sequence:
#
# PCOD9202319 Si02
#       5
#     8   8   8   8   8
#     4  11  25  45  65  88 123 170 219 260 299 363
#     4   9  21  38  63  93 130 163 203 246 313 380
#     4  10  20  38  60  94 133 161 194 258 316 368
#     4   9  20  41  66  93 120 164 206 260 308 378
#     4  12  24  39  63  96 130 166 208 255 317 375
#
# _framework density 23.123799000000002
#
# number of rings (size 3 to 8) (size 9 to 14) (size 15 to 20)
#    1.200    0.600    0.000    4.200    0.000    1.600 
#    0.000    1.000    0.000    2.400    0.000    0.000 
#    0.000    0.000    0.000    0.000    0.000    0.000 
#
# Total GULP energy -111556.098889 kJ/mol
# GULP energy per Si atom -5577.804944 kJ/mol
# Density = 2.307117 g / cm^3
# Si number density = 23.123799 Si / 1000 Ang^3
#
#
#
# Elastic Constant Matrix: (Units=GPa)
#
#
# Indices 1 2 3 4 5 6 
#
# 1 50.6699 21.4361 -20.8924 -0.0010 -3.6456 -0.0001
# 2 21.4361 47.6916 -17.2484 -0.0030 5.5459 -0.0030
# 3 -20.8924 -17.2484 53.2616 -0.0059 4.4239 -0.0036
# 4 -0.0010 -0.0030 -0.0059 -9.4187 0.0028 -40.8422
# 5 -3.6456 5.5459 4.4239 0.0028 35.1192 0.0014
# 6 -0.0001 -0.0030 -0.0036 -40.8422 0.0014 -42.9224
#
#
#
# Elastic Compliance Matrix: (Units=1/GPa)
#
#
# Indices 1 2 3 4 5 6 
#
# 1 0.027172 -0.010049 0.007113 0.000001 0.003512 -0.000001
# 2 -0.010049 0.028284 0.005735 0.000001 -0.006232 -0.000003
# 3 0.007113 0.005735 0.023684 0.000002 -0.003151 -0.000005
# 4 0.000001 0.000001 0.000002 0.033963 -0.000002 -0.032317
# 5 0.003512 -0.006232 -0.003151 -0.000002 0.030220 0.000003
# 6 -0.000001 -0.000003 -0.000005 -0.032317 0.000003 0.007453
#
#
# Mechanical properties :
#
#
# Convention : Reuss Voigt Hill
#
# Bulk Modulus (GPa) = 11.80111 13.13484 12.46797
# Shear Modulus (GPa) = 28.83104 7.77748 18.30426
#
# Velocity S-wave (km/s) = 3.53485 1.83595 2.81655
# Velocity P-wave (km/s) = 4.66635 3.19168 3.99760
#
# Compressibility (1/GPa) = 0.08473779
#
# Stress axis : x y z
#
# Youngs Moduli (GPa) = 36.80221 35.35585 42.22209
#
# Poissons Ratio (x) = 0.35530 -0.30031
# Poissons Ratio (y) = 0.36983 -0.24215
# Poissons Ratio (z) = -0.26176 -0.20278
#
# Static dielectric constant tensor:
#      x y z
#    x 1.856650 0.000000 0.080650 
#    y 0.000000 1.909740 0.000000 
#    z 0.080650 0.000000 1.262440 
# 
# From -- ./inp_files/90551.got.cif
#   From: 2010.05.17/outbox.cif.g08.bks.cpg/sg12_46_cif.got.tgz:90551.got - 2010.06.03 13:09:07.
