data_PCOD9202354
_publ_section_title
;
Structure prediction by ZEFSAII (Michael W. Deem and Ramdas Pophale) SiO2 
 PCOD9202354
Probable space group: C 2/M
;
_chemical_formula_sum "Si O2"
_cell_formula_units_Z 56
_cell_length_a 17.264152
_cell_length_b 8.866465
_cell_length_c 20.976225
_cell_angle_alpha 90.000000
_cell_angle_beta 53.489296
_cell_angle_gamma 90.000000
_cell_volume 2580.725197
_symmetry_space_group_name_H-M "C 2/M"
_symmetry_group_IT_number 12
_symmetry_cell_setting 'monoclinic'
loop_
_space_group_symop_operation_xyz
x,y,z
-x,y,-z
-x,-y,-z
x,-y,z
1/2+x,1/2+y,z
1/2-x,1/2+y,-z
1/2-x,1/2-y,-z
1/2+x,1/2-y,z
loop_
_atom_site_type_symbol
_atom_site_label
_atom_site_fract_x
_atom_site_fract_y
_atom_site_fract_z
Si Si1 0.117796 0.177059 0.179722
Si Si2 0.930563 0.825488 0.594954
Si Si3 0.624901 0.170998 0.045900
Si Si4 0.774001 0.326406 0.357802
Si Si5 0.455348 0.818092 0.341588
Si Si6 0.201382 0.828054 0.883286
Si Si7 0.396536 0.836821 0.169256
O O1 0.155694 0.235981 0.092830
O O2 0.023097 0.259480 0.251081
O O3 0.205096 0.230686 0.181323
O O4 0.103251 0.000000 0.186018
O O5 0.827493 0.761447 0.619305
O O6 0.989905 0.742527 0.622148
O O7 0.000000 0.827465 0.500000
O O8 0.913486 0.000000 0.624753
O O9 0.510927 0.160473 0.113045
O O10 0.663709 0.000000 0.025292
O O11 0.647459 0.256383 0.969934
O O12 0.749953 0.500000 0.387637
O O13 0.844981 0.329762 0.262232
O O14 0.844749 0.266259 0.379761
O O15 0.454579 0.000000 0.342578
O O16 0.132342 0.806637 0.857542
O O17 0.228769 0.000000 0.881766
O O18 0.366987 0.000000 0.153828
#
# Coordination Sequence:
#
# PCOD9202354 Si02
#       7
#     8   8   8   8   8   8   8
#     4  12  24  40  61  86 118 157 205 261 318 379
#     4  10  22  41  66  99 136 173 211 253 307 381
#     4  11  22  39  60  84 116 159 208 259 318 378
#     4   9  19  39  65  91 126 170 211 256 318 380
#     4  11  22  41  67  95 125 168 215 264 321 380
#     4  12  25  38  55  84 121 161 207 263 319 373
#     4  10  20  38  61  83 114 161 211 256 315 380
#
# _framework density 21.699327
#
# number of rings (size 3 to 8) (size 9 to 14) (size 15 to 20)
#    0.000    1.286    1.429    5.143    0.000    4.857 
#    0.000    1.429    0.000    0.000    0.000    0.000 
#    0.000    0.000    0.000    0.000    0.000    0.000 
#
# Total GULP energy -156230.681259 kJ/mol
# GULP energy per Si atom -5579.667188 kJ/mol
# Density = 2.164994 g / cm^3
# Si number density = 21.699327 Si / 1000 Ang^3
#
#
#
# Elastic Constant Matrix: (Units=GPa)
#
#
# Indices 1 2 3 4 5 6 
#
# 1 139.1614 38.4534 27.2912 0.0000 -15.4515 0.0001
# 2 38.4534 82.0119 11.0852 0.0000 6.4254 0.0003
# 3 27.2912 11.0852 49.1587 0.0000 -8.4667 0.0000
# 4 0.0000 0.0000 0.0000 18.8959 0.0000 3.6870
# 5 -15.4515 6.4254 -8.4667 0.0000 32.2538 0.0000
# 6 0.0001 0.0003 0.0000 3.6870 0.0000 32.3337
#
#
#
# Elastic Compliance Matrix: (Units=1/GPa)
#
#
# Indices 1 2 3 4 5 6 
#
# 1 0.009596 -0.004373 -0.003560 0.000000 0.004534 0.000000
# 2 -0.004373 0.014937 -0.001900 0.000000 -0.005569 0.000000
# 3 -0.003560 -0.001900 0.023585 0.000000 0.004864 0.000000
# 4 0.000000 0.000000 0.000000 0.054126 0.000000 -0.006172
# 5 0.004534 -0.005569 0.004864 0.000000 0.035562 0.000000
# 6 0.000000 0.000000 0.000000 -0.006172 0.000000 0.031631
#
#
# Mechanical properties :
#
#
# Convention : Reuss Voigt Hill
#
# Bulk Modulus (GPa) = 35.14759 47.11018 41.12889
# Shear Modulus (GPa) = 25.17782 29.59682 27.38732
#
# Velocity S-wave (km/s) = 3.41002 3.69718 3.55650
# Velocity P-wave (km/s) = 5.63356 6.32322 5.98833
#
# Compressibility (1/GPa) = 0.02845145
#
# Stress axis : x y z
#
# Youngs Moduli (GPa) = 104.21079 66.94797 42.39999
#
# Poissons Ratio (x) = 0.29278 0.15096
# Poissons Ratio (y) = 0.45574 0.08054
# Poissons Ratio (z) = 0.37102 0.12717
#
# Static dielectric constant tensor:
#      x y z
#    x 1.913730 0.000000 -0.004330 
#    y 0.000000 1.790470 0.000000 
#    z -0.004330 0.000000 1.750810 
# 
# From -- ./inp_files/342353.got.cif
#   From: 2010.05.17/outbox.cif.g08.bks.cpg/sg12_172_cif.got.tgz:342353.got - 2010.06.03 13:09:07.
