data_PCOD9202002
_publ_section_title
;
Structure prediction by ZEFSAII (Michael W. Deem and Ramdas Pophale) SiO2 
 PCOD9202002
Probable space group: C 2/M
;
_chemical_formula_sum "Si O2"
_cell_formula_units_Z 40
_cell_length_a 17.674546
_cell_length_b 12.263498
_cell_length_c 8.716814
_cell_angle_alpha 90.000000
_cell_angle_beta 88.655707
_cell_angle_gamma 90.000000
_cell_volume 1888.864760
_symmetry_space_group_name_H-M "C 2/M"
_symmetry_group_IT_number 12
_symmetry_cell_setting 'monoclinic'
loop_
_space_group_symop_operation_xyz
x,y,z
-x,y,-z
-x,-y,-z
x,-y,z
1/2+x,1/2+y,z
1/2-x,1/2+y,-z
1/2-x,1/2-y,-z
1/2+x,1/2-y,z
loop_
_atom_site_type_symbol
_atom_site_label
_atom_site_fract_x
_atom_site_fract_y
_atom_site_fract_z
Si Si1 0.327591 0.230220 0.084825
Si Si2 0.417331 0.873685 0.321800
Si Si3 0.722508 0.621398 0.676005
Si Si4 0.542031 0.269192 0.140967
Si Si5 0.140135 0.778939 0.408140
O O1 0.342576 0.140819 0.216687
O O2 0.333838 0.340783 0.186061
O O3 0.250000 0.250000 0.000000
O O4 0.390511 0.210121 0.953922
O O5 0.483805 0.814516 0.222981
O O6 0.403254 0.805999 0.477580
O O7 0.432233 0.000000 0.349571
O O8 0.750935 0.500000 0.697889
O O9 0.790844 0.708001 0.665067
O O10 0.677608 0.633571 0.519001
O O11 0.585192 0.325728 0.280113
O O12 0.500000 0.328478 0.000000
#
# Coordination Sequence:
#
# PCOD9202002 Si02
#       5
#     8   8   8   8   8
#     4  10  20  38  56  82 124 163 200 248 294 352
#     4  10  22  37  60  93 124 158 199 247 315 376
#     4  10  21  37  62  90 118 162 208 250 302 358
#     4  10  21  37  59  84 123 160 192 245 308 358
#     4  10  20  38  61  88 128 156 197 256 303 366
#
# _framework density 21.176742000000001
#
# number of rings (size 3 to 8) (size 9 to 14) (size 15 to 20)
#    0.000    2.000    2.000    1.200    0.000    6.800 
#    0.000    1.000    0.000   37.200    0.000    0.000 
#    0.000    0.000    0.000    0.000    0.000    0.000 
#
# Total GULP energy -111342.070196 kJ/mol
# GULP energy per Si atom -5567.103510 kJ/mol
# Density = 2.112854 g / cm^3
# Si number density = 21.176742 Si / 1000 Ang^3
#
#
#
# Elastic Constant Matrix: (Units=GPa)
#
#
# Indices 1 2 3 4 5 6 
#
# 1 89.2210 4.9821 39.0098 0.0000 3.4215 0.0000
# 2 4.9821 37.8875 -0.9841 0.0000 -13.1638 0.0000
# 3 39.0098 -0.9841 131.9365 0.0000 19.3400 0.0000
# 4 0.0000 0.0000 0.0000 0.2042 0.0000 -1.9388
# 5 3.4215 -13.1638 19.3400 0.0000 66.2365 0.0000
# 6 0.0000 0.0000 0.0000 -1.9388 0.0000 9.4035
#
#
#
# Elastic Compliance Matrix: (Units=1/GPa)
#
#
# Indices 1 2 3 4 5 6 
#
# 1 0.012996 -0.001772 -0.003871 0.000000 0.000107 0.000000
# 2 -0.001772 0.028645 -0.000115 0.000000 0.005818 0.000000
# 3 -0.003871 -0.000115 0.009086 0.000000 -0.002476 0.000000
# 4 0.000000 0.000000 0.000000 -5.114100 0.000000 -1.054444
# 5 0.000107 0.005818 -0.002476 0.000000 0.016971 0.000000
# 6 0.000000 0.000000 0.000000 -1.054444 0.000000 -0.111066
#
#
# Mechanical properties :
#
#
# Convention : Reuss Voigt Hill
#
# Bulk Modulus (GPa) = 25.50396 38.34007 31.92201
# Shear Modulus (GPa) = -0.97411 29.57133 14.29861
#
# Velocity S-wave (km/s) = -0.67896 3.74091 2.60129
# Velocity P-wave (km/s) = 3.38450 6.06657 4.91214
#
# Compressibility (1/GPa) = 0.03920960
#
# Stress axis : x y z
#
# Youngs Moduli (GPa) = 76.94895 34.90955 110.05812
#
# Poissons Ratio (x) = 0.06187 0.42607
# Poissons Ratio (y) = 0.13638 0.01268
# Poissons Ratio (z) = 0.29789 0.00402
#
# Static dielectric constant tensor:
#      x y z
#    x 1.870480 0.000000 0.029820 
#    y 0.000000 1.676550 0.000000 
#    z 0.029820 0.000000 1.824260 
# 
# From -- ./inp_files/71326.got.cif
#   From: 2010.05.17/outbox.cif.g08.bks.cpg/sg12_36_cif.got.tgz:71326.got - 2010.06.03 13:09:07.
