data_PCOD9202654
_publ_section_title
;
Structure prediction by ZEFSAII (Michael W. Deem and Ramdas Pophale) SiO2 
 PCOD9202654
Probable space group: C 2/M
;
_chemical_formula_sum "Si O2"
_cell_formula_units_Z 52
_cell_length_a 25.434994
_cell_length_b 18.352273
_cell_length_c 6.835980
_cell_angle_alpha 90.000000
_cell_angle_beta 54.074125
_cell_angle_gamma 90.000000
_cell_volume 2583.970714
_symmetry_space_group_name_H-M "C 2/M"
_symmetry_group_IT_number 12
_symmetry_cell_setting 'monoclinic'
loop_
_space_group_symop_operation_xyz
x,y,z
-x,y,-z
-x,-y,-z
x,-y,z
1/2+x,1/2+y,z
1/2-x,1/2+y,-z
1/2-x,1/2-y,-z
1/2+x,1/2-y,z
loop_
_atom_site_type_symbol
_atom_site_label
_atom_site_fract_x
_atom_site_fract_y
_atom_site_fract_z
Si Si1 0.595167 0.759556 0.606442
Si Si2 0.693781 0.415034 0.825888
Si Si3 0.938523 0.142199 0.014849
Si Si4 0.296407 0.915817 0.272007
Si Si5 0.923206 0.416651 0.212894
Si Si6 0.215498 0.179860 0.157845
Si Si7 0.500000 0.304603 0.500000
O O1 0.598332 0.846501 0.615477
O O2 0.658541 0.713145 0.414321
O O3 0.545698 0.742125 0.540037
O O4 0.572259 0.721652 0.859960
O O5 0.696383 0.500000 0.870286
O O6 0.757484 0.397217 0.557354
O O7 0.629623 0.399534 0.835981
O O8 0.691343 0.367771 0.027608
O O9 0.959227 0.148927 0.744409
O O10 0.000000 0.109964 0.000000
O O11 0.373505 0.910417 0.138504
O O12 0.266694 0.865778 0.171446
O O13 0.280860 0.000000 0.262897
O O14 0.913153 0.500000 0.311969
O O15 0.000000 0.409431 0.000000
O O16 0.250000 0.250000 0.000000
#
# Coordination Sequence:
#
# PCOD9202654 Si02
#       7
#     8   8   8   8   8   8   4
#     4  11  22  39  65  92 130 170 214 265 322 392
#     4  11  23  42  65  94 133 173 217 268 323 387
#     4  10  21  38  64  94 125 169 218 259 315 381
#     4  10  23  44  66  92 132 173 214 272 331 387
#     4  10  22  41  66  95 124 165 215 271 333 391
#     4  12  25  38  64  97 128 170 221 265 321 393
#     4  10  20  38  62  94 128 164 214 264 312 374
#
# _framework density 20.124068999999999
#
# number of rings (size 3 to 8) (size 9 to 14) (size 15 to 20)
#    0.000    1.385    3.077    2.769    2.154    2.769 
#    0.000    1.538    0.000    0.923    0.000    0.000 
#    0.000    0.000    0.000    0.000    0.000    0.000 
#
# Total GULP energy -145042.038037 kJ/mol
# GULP energy per Si atom -5578.539925 kJ/mol
# Density = 2.007827 g / cm^3
# Si number density = 20.124069 Si / 1000 Ang^3
#
#
#
# Elastic Constant Matrix: (Units=GPa)
#
#
# Indices 1 2 3 4 5 6 
#
# 1 132.0625 48.9783 36.0988 0.0000 -19.7779 0.0000
# 2 48.9783 72.2804 35.4330 0.0000 1.1458 0.0000
# 3 36.0988 35.4330 84.2568 0.0000 2.0696 0.0000
# 4 0.0000 0.0000 0.0000 19.0942 0.0000 -5.6314
# 5 -19.7779 1.1458 2.0696 0.0000 21.4182 0.0000
# 6 0.0000 0.0000 0.0000 -5.6314 0.0000 24.9984
#
#
#
# Elastic Compliance Matrix: (Units=1/GPa)
#
#
# Indices 1 2 3 4 5 6 
#
# 1 0.013091 -0.007772 -0.002654 0.000000 0.012761 0.000000
# 2 -0.007772 0.022043 -0.005748 0.000000 -0.007801 0.000000
# 3 -0.002654 -0.005748 0.015512 0.000000 -0.003642 0.000000
# 4 0.000000 0.000000 0.000000 0.056099 0.000000 0.012638
# 5 0.012761 -0.007801 -0.003642 0.000000 0.059242 0.000000
# 6 0.000000 0.000000 0.000000 0.012638 0.000000 0.042849
#
#
# Mechanical properties :
#
#
# Convention : Reuss Voigt Hill
#
# Bulk Modulus (GPa) = 54.65080 58.84666 56.74873
# Shear Modulus (GPa) = 20.21961 24.30815 22.26388
#
# Velocity S-wave (km/s) = 3.17321 3.47928 3.32976
# Velocity P-wave (km/s) = 6.37508 6.74136 6.56077
#
# Compressibility (1/GPa) = 0.01829799
#
# Stress axis : x y z
#
# Youngs Moduli (GPa) = 76.38794 45.36561 64.46490
#
# Poissons Ratio (x) = 0.35259 0.17107
# Poissons Ratio (y) = 0.59369 0.37057
# Poissons Ratio (z) = 0.20271 0.26078
#
# Static dielectric constant tensor:
#      x y z
#    x 1.664680 0.000000 0.145500 
#    y 0.000000 1.696400 0.000000 
#    z 0.145500 0.000000 1.169080 
# 
# From -- ./inp_files/25588.got.cif
#   From: 2010.05.17/outbox.cif.g08.bks.cpg/sg12_13_cif.got.tgz:25588.got - 2010.06.03 13:09:07.
