data_PCOD9202752
_publ_section_title
;
Structure prediction by ZEFSAII (Michael W. Deem and Ramdas Pophale) SiO2 
 PCOD9202752
Probable space group: C 2/M
;
_chemical_formula_sum "Si O2"
_cell_formula_units_Z 64
_cell_length_a 14.320351
_cell_length_b 14.698168
_cell_length_c 18.076426
_cell_angle_alpha 90.000000
_cell_angle_beta 54.961577
_cell_angle_gamma 90.000000
_cell_volume 3115.228319
_symmetry_space_group_name_H-M "C 2/M"
_symmetry_group_IT_number 12
_symmetry_cell_setting 'monoclinic'
loop_
_space_group_symop_operation_xyz
x,y,z
-x,y,-z
-x,-y,-z
x,-y,z
1/2+x,1/2+y,z
1/2-x,1/2+y,-z
1/2-x,1/2-y,-z
1/2+x,1/2-y,z
loop_
_atom_site_type_symbol
_atom_site_label
_atom_site_fract_x
_atom_site_fract_y
_atom_site_fract_z
Si Si1 0.620233 0.894865 0.969545
Si Si2 0.829083 0.691356 0.908961
Si Si3 0.753607 0.609535 0.225488
Si Si4 0.417642 0.252511 0.218393
Si Si5 0.260449 0.611161 0.204224
Si Si6 0.021063 0.108139 0.407911
Si Si7 0.111851 0.393992 0.410458
Si Si8 0.690366 0.318841 0.583366
O O1 0.725676 0.863554 0.869962
O O2 0.611807 0.000000 0.953267
O O3 0.500000 0.849349 0.000000
O O4 0.636184 0.887532 0.049035
O O5 0.771713 0.650163 0.861736
O O6 0.946800 0.744224 0.840479
O O7 0.750000 0.750000 0.000000
O O8 0.757103 0.500000 0.232555
O O9 0.858594 0.659801 0.216858
O O10 0.635198 0.642527 0.315160
O O11 0.369685 0.334770 0.188309
O O12 0.369273 0.267389 0.322010
O O13 0.273966 0.500000 0.197663
O O14 0.159732 0.636702 0.308938
O O15 0.908335 0.127055 0.412879
O O16 0.000000 0.144408 0.500000
O O17 0.036709 0.000000 0.406936
O O18 0.087659 0.500000 0.409707
O O19 0.214097 0.380981 0.421919
O O20 0.000000 0.352420 0.500000
O O21 0.750000 0.250000 0.500000
#
# Coordination Sequence:
#
# PCOD9202752 Si02
#       8
#     8   8   8   8   8   8   8   8
#     4  10  20  38  63  90 124 162 210 268 328 382
#     4  12  26  40  67  96 130 174 227 276 333 392
#     4  10  21  39  66  94 128 171 211 270 339 395
#     4  11  25  43  66  95 135 172 222 279 333 399
#     4  10  24  46  69  97 138 181 225 281 342 406
#     4  10  22  41  64  91 127 164 210 270 330 398
#     4   9  20  41  66  90 124 171 219 267 321 392
#     4  11  24  37  61  94 127 169 211 262 330 395
#
# _framework density 20.544241
#
# number of rings (size 3 to 8) (size 9 to 14) (size 15 to 20)
#    0.000    1.625    1.250    2.250    5.250    2.500 
#    0.000    2.500    0.000    0.000    0.000    0.000 
#    0.000    0.000    0.000    0.000    0.000    0.000 
#
# Total GULP energy -178494.124014 kJ/mol
# GULP energy per Si atom -5577.941375 kJ/mol
# Density = 2.049748 g / cm^3
# Si number density = 20.544241 Si / 1000 Ang^3
#
#
#
# Elastic Constant Matrix: (Units=GPa)
#
#
# Indices 1 2 3 4 5 6 
#
# 1 96.8557 18.0468 68.1620 0.0000 4.5897 0.0000
# 2 18.0468 80.6189 32.3992 0.0000 -3.4731 0.0000
# 3 68.1620 32.3992 156.4104 0.0000 1.2493 0.0000
# 4 0.0000 0.0000 0.0000 13.7676 0.0000 -6.2750
# 5 4.5897 -3.4731 1.2493 0.0000 47.2683 0.0000
# 6 0.0000 0.0000 0.0000 -6.2750 0.0000 10.7734
#
#
#
# Elastic Compliance Matrix: (Units=1/GPa)
#
#
# Indices 1 2 3 4 5 6 
#
# 1 0.015024 -0.000867 -0.006357 0.000000 -0.001354 0.000000
# 2 -0.000867 0.013635 -0.002456 0.000000 0.001151 0.000000
# 3 -0.006357 -0.002456 0.009671 0.000000 0.000181 0.000000
# 4 0.000000 0.000000 0.000000 0.098886 0.000000 0.057597
# 5 -0.001354 0.001151 0.000181 0.000000 0.021367 0.000000
# 6 0.000000 0.000000 0.000000 0.057597 0.000000 0.126369
#
#
# Mechanical properties :
#
#
# Convention : Reuss Voigt Hill
#
# Bulk Modulus (GPa) = 52.71315 63.45564 58.08440
# Shear Modulus (GPa) = 16.09608 28.71365 22.40486
#
# Velocity S-wave (km/s) = 2.80211 3.74257 3.30596
# Velocity P-wave (km/s) = 6.01525 7.04487 6.55032
#
# Compressibility (1/GPa) = 0.01897060
#
# Stress axis : x y z
#
# Youngs Moduli (GPa) = 66.56014 73.34293 103.40230
#
# Poissons Ratio (x) = 0.06357 0.65732
# Poissons Ratio (y) = 0.05769 0.25393
# Poissons Ratio (z) = 0.42312 0.18011
#
# Static dielectric constant tensor:
#      x y z
#    x 1.778950 0.000000 -0.015380 
#    y 0.000000 1.777020 0.000000 
#    z -0.015380 0.000000 1.777030 
# 
# From -- ./inp_files/270654.got.cif
#   From: 2010.05.17/outbox.cif.g08.bks.cpg/sg12_136_cif.got.tgz:270654.got - 2010.06.03 13:09:07.
