data_PCOD9202497
_publ_section_title
;
Structure prediction by ZEFSAII (Michael W. Deem and Ramdas Pophale) SiO2 
 PCOD9202497
Probable space group: C 2/M
;
_chemical_formula_sum "Si O2"
_cell_formula_units_Z 64
_cell_length_a 16.173460
_cell_length_b 8.287677
_cell_length_c 20.272264
_cell_angle_alpha 90.000000
_cell_angle_beta 72.301985
_cell_angle_gamma 90.000000
_cell_volume 2588.698167
_symmetry_space_group_name_H-M "C 2/M"
_symmetry_group_IT_number 12
_symmetry_cell_setting 'monoclinic'
loop_
_space_group_symop_operation_xyz
x,y,z
-x,y,-z
-x,-y,-z
x,-y,z
1/2+x,1/2+y,z
1/2-x,1/2+y,-z
1/2-x,1/2-y,-z
1/2+x,1/2-y,z
loop_
_atom_site_type_symbol
_atom_site_label
_atom_site_fract_x
_atom_site_fract_y
_atom_site_fract_z
Si Si1 0.340441 0.310306 0.359188
Si Si2 0.370086 0.190564 0.981876
Si Si3 0.020587 0.192533 0.771840
Si Si4 0.671529 0.694500 0.146463
Si Si5 0.074482 0.691761 0.894085
Si Si6 0.781465 0.192039 0.725285
Si Si7 0.878420 0.682436 0.484005
Si Si8 0.060049 0.815318 0.401235
O O1 0.348203 0.500000 0.369537
O O2 0.430019 0.247098 0.304526
O O3 0.272848 0.281296 0.317146
O O4 0.323225 0.229485 0.433370
O O5 0.317138 0.260340 0.932893
O O6 0.472545 0.210707 0.938493
O O7 0.352436 0.000000 0.988962
O O8 0.369075 0.253764 0.057557
O O9 0.079412 0.229096 0.821589
O O10 0.925218 0.256490 0.811231
O O11 0.012584 0.000000 0.767125
O O12 0.672371 0.500000 0.147895
O O13 0.727544 0.745179 0.196483
O O14 0.091157 0.500000 0.883882
O O15 0.881299 0.210402 0.677059
O O16 0.761666 0.000000 0.726115
O O17 0.860060 0.500000 0.508654
O O18 0.879048 0.791592 0.549085
O O19 0.977774 0.702561 0.433447
O O20 0.028274 0.000000 0.407785
#
# Coordination Sequence:
#
# PCOD9202497 Si02
#       8
#     8   8   8   8   8   8   8   8
#     4  11  23  38  55  76 106 143 179 217 263 312
#     4   8  14  25  42  69 102 131 163 204 254 308
#     4   9  18  32  51  75 101 132 171 213 258 311
#     4   9  17  31  51  74 101 132 168 211 259 309
#     4   8  14  25  43  69 101 132 162 205 257 306
#     4  10  22  38  55  77 106 140 177 218 262 310
#     4  11  22  37  59  86 112 137 173 216 256 308
#     4  10  20  38  62  84 110 141 172 212 262 310
#
# _framework density 24.722852
#
# number of rings (size 3 to 8) (size 9 to 14) (size 15 to 20)
#    0.000    2.500    0.000    4.125    0.000    5.500 
#    0.000    5.000    0.000    0.750    0.000    0.000 
#    0.000    0.000    0.000    0.000    0.000    0.000 
#
# Total GULP energy -178875.853129 kJ/mol
# GULP energy per Si atom -5589.870410 kJ/mol
# Density = 2.466658 g / cm^3
# Si number density = 24.722852 Si / 1000 Ang^3
#
#
#
# Elastic Constant Matrix: (Units=GPa)
#
#
# Indices 1 2 3 4 5 6 
#
# 1 85.2802 -0.3425 32.5368 0.0000 23.9790 0.0000
# 2 -0.3425 23.1562 14.1857 0.0000 7.4569 0.0000
# 3 32.5368 14.1857 191.2411 0.0000 23.8720 0.0000
# 4 0.0000 0.0000 0.0000 21.7586 0.0000 8.8671
# 5 23.9790 7.4569 23.8720 0.0000 55.9477 0.0000
# 6 0.0000 0.0000 0.0000 8.8671 0.0000 13.6088
#
#
#
# Elastic Compliance Matrix: (Units=1/GPa)
#
#
# Indices 1 2 3 4 5 6 
#
# 1 0.014057 0.003201 -0.001926 0.000000 -0.005629 0.000000
# 2 0.003201 0.047254 -0.003266 0.000000 -0.006276 0.000000
# 3 -0.001926 -0.003266 0.005959 0.000000 -0.001282 0.000000
# 4 0.000000 0.000000 0.000000 0.062574 0.000000 -0.040772
# 5 -0.005629 -0.006276 -0.001282 0.000000 0.021670 0.000000
# 6 0.000000 0.000000 0.000000 -0.040772 0.000000 0.100047
#
#
# Mechanical properties :
#
#
# Convention : Reuss Voigt Hill
#
# Bulk Modulus (GPa) = 15.80117 43.60419 29.70268
# Shear Modulus (GPa) = 18.07397 35.14953 26.61175
#
# Velocity S-wave (km/s) = 2.70675 3.77469 3.28442
# Velocity P-wave (km/s) = 4.02167 6.05584 5.14038
#
# Compressibility (1/GPa) = 0.06328647
#
# Stress axis : x y z
#
# Youngs Moduli (GPa) = 71.14050 21.16206 167.81344
#
# Poissons Ratio (x) = -0.06773 0.32325
# Poissons Ratio (y) = -0.22770 0.54813
# Poissons Ratio (z) = 0.13704 0.06912
#
# Static dielectric constant tensor:
#      x y z
#    x 2.101580 0.000000 -0.015840 
#    y 0.000000 1.849310 0.000000 
#    z -0.015840 0.000000 1.979260 
# 
# From -- ./inp_files/314187.got.cif
#   From: 2010.05.17/outbox.cif.g08.bks.cpg/sg12_158_cif.got.tgz:314187.got - 2010.06.03 13:09:07.
