data_PCOD9202899
_publ_section_title
;
Structure prediction by ZEFSAII (Michael W. Deem and Ramdas Pophale) SiO2 
 PCOD9202899
Probable space group: C 2/M
;
_chemical_formula_sum "Si O2"
_cell_formula_units_Z 52
_cell_length_a 11.015119
_cell_length_b 24.670311
_cell_length_c 11.338993
_cell_angle_alpha 90.000000
_cell_angle_beta 124.974302
_cell_angle_gamma 90.000000
_cell_volume 2524.870748
_symmetry_space_group_name_H-M "C 2/M"
_symmetry_group_IT_number 12
_symmetry_cell_setting 'monoclinic'
loop_
_space_group_symop_operation_xyz
x,y,z
-x,y,-z
-x,-y,-z
x,-y,z
1/2+x,1/2+y,z
1/2-x,1/2+y,-z
1/2-x,1/2-y,-z
1/2+x,1/2-y,z
loop_
_atom_site_type_symbol
_atom_site_label
_atom_site_fract_x
_atom_site_fract_y
_atom_site_fract_z
Si Si1 0.621412 0.290326 0.391502
Si Si2 0.433559 0.439213 0.761127
Si Si3 0.647814 0.660313 0.148899
Si Si4 0.883741 0.280661 0.142812
Si Si5 0.000000 0.347310 0.000000
Si Si6 0.348003 0.594606 0.472383
Si Si7 0.257739 0.064952 0.831344
O O1 0.750000 0.250000 0.500000
O O2 0.655653 0.312279 0.280488
O O3 0.467261 0.258400 0.282788
O O4 0.626982 0.341940 0.482218
O O5 0.440855 0.500000 0.804525
O O6 0.380238 0.401702 0.835812
O O7 0.327581 0.432633 0.587782
O O8 0.596257 0.423881 0.799965
O O9 0.796069 0.672633 0.162410
O O10 0.500000 0.680625 0.000000
O O11 0.750000 0.250000 0.000000
O O12 0.996558 0.307582 0.111817
O O13 0.865088 0.389234 0.942536
O O14 0.500000 0.572696 0.500000
O O15 0.237848 0.579636 0.306209
O O16 0.288904 0.000000 0.863840
#
# Coordination Sequence:
#
# PCOD9202899 Si02
#       7
#     8   8   8   8   4   8   8
#     4  11  24  39  60  90 125 169 215 261 311 375
#     4   9  19  37  62  91 121 158 206 262 317 374
#     4  11  22  40  60  90 124 163 212 258 312 384
#     4  12  25  41  64  89 129 176 213 260 324 382
#     4  12  25  40  60  92 128 166 217 258 322 388
#     4   9  19  33  59  86 118 150 206 256 305 364
#     4  10  20  38  64  91 125 165 208 264 326 382
#
# _framework density 20.595113999999999
#
# number of rings (size 3 to 8) (size 9 to 14) (size 15 to 20)
#    0.000    1.538    1.538    3.462    6.462    2.154 
#    0.000    1.538    0.000    0.000    0.000    5.385 
#    0.000    0.000    0.000    0.000    0.000    0.000 
#
# Total GULP energy -145017.102106 kJ/mol
# GULP energy per Si atom -5577.580850 kJ/mol
# Density = 2.054824 g / cm^3
# Si number density = 20.595114 Si / 1000 Ang^3
#
#
#
# Elastic Constant Matrix: (Units=GPa)
#
#
# Indices 1 2 3 4 5 6 
#
# 1 62.6944 31.5981 -15.4001 0.0000 -11.1231 0.0000
# 2 31.5981 110.1135 17.3503 0.0000 3.6768 0.0000
# 3 -15.4001 17.3503 34.8817 0.0000 6.3142 0.0000
# 4 0.0000 0.0000 0.0000 20.4971 0.0000 4.7835
# 5 -11.1231 3.6768 6.3142 0.0000 25.1963 0.0000
# 6 0.0000 0.0000 0.0000 4.7835 0.0000 25.6145
#
#
#
# Elastic Compliance Matrix: (Units=1/GPa)
#
#
# Indices 1 2 3 4 5 6 
#
# 1 0.026543 -0.010318 0.015144 0.000000 0.009428 0.000000
# 2 -0.010318 0.013866 -0.010749 0.000000 -0.003885 0.000000
# 3 0.015144 -0.010749 0.041070 0.000000 -0.002038 0.000000
# 4 0.000000 0.000000 0.000000 0.051011 0.000000 -0.009526
# 5 0.009428 -0.003885 -0.002038 0.000000 0.044928 0.000000
# 6 0.000000 0.000000 0.000000 -0.009526 0.000000 0.040819
#
#
# Mechanical properties :
#
#
# Convention : Reuss Voigt Hill
#
# Bulk Modulus (GPa) = 14.36084 30.53180 22.44632
# Shear Modulus (GPa) = 19.73991 25.87100 22.80545
#
# Velocity S-wave (km/s) = 3.09928 3.54810 3.33126
# Velocity P-wave (km/s) = 4.44921 5.62515 5.07138
#
# Compressibility (1/GPa) = 0.06963380
#
# Stress axis : x y z
#
# Youngs Moduli (GPa) = 37.67413 72.12005 24.34870
#
# Poissons Ratio (x) = 0.74413 -0.36874
# Poissons Ratio (y) = 0.38872 0.26172
# Poissons Ratio (z) = -0.57055 0.77522
#
# Static dielectric constant tensor:
#      x y z
#    x 1.707330 0.000000 -0.005920 
#    y 0.000000 1.772630 0.000000 
#    z -0.005920 0.000000 1.784850 
# 
# From -- ./inp_files/133818.got.cif
#   From: 2010.05.17/outbox.cif.g08.bks.cpg/sg12_67_cif.got.tgz:133818.got - 2010.06.03 13:09:07.
