data_PCOD9202005
_publ_section_title
;
Structure prediction by ZEFSAII (Michael W. Deem and Ramdas Pophale) SiO2 
 PCOD9202005
Probable space group: C 2/M
;
_chemical_formula_sum "Si O2"
_cell_formula_units_Z 48
_cell_length_a 11.635154
_cell_length_b 20.841159
_cell_length_c 11.725640
_cell_angle_alpha 90.000000
_cell_angle_beta 127.516427
_cell_angle_gamma 90.000000
_cell_volume 2255.286094
_symmetry_space_group_name_H-M "C 2/M"
_symmetry_group_IT_number 12
_symmetry_cell_setting 'monoclinic'
loop_
_space_group_symop_operation_xyz
x,y,z
-x,y,-z
-x,-y,-z
x,-y,z
1/2+x,1/2+y,z
1/2-x,1/2+y,-z
1/2-x,1/2-y,-z
1/2+x,1/2-y,z
loop_
_atom_site_type_symbol
_atom_site_label
_atom_site_fract_x
_atom_site_fract_y
_atom_site_fract_z
Si Si1 0.780808 0.140128 0.661118
Si Si2 0.448467 0.164418 0.843226
Si Si3 0.833926 0.000000 0.936066
Si Si4 0.844298 0.225642 0.366349
Si Si5 0.781316 0.628308 0.108257
Si Si6 0.173143 0.500000 0.596154
Si Si7 0.072692 0.792209 0.832987
O O1 0.695974 0.208408 0.589253
O O2 0.766289 0.135012 0.789877
O O3 0.724373 0.070929 0.580568
O O4 0.947755 0.155207 0.732575
O O5 0.280067 0.171226 0.709041
O O6 0.547435 0.128533 0.810326
O O7 0.494013 0.238999 0.861029
O O8 0.500000 0.142061 0.000000
O O9 0.789712 0.937496 0.976503
O O10 0.738932 0.000000 0.763395
O O11 0.000000 0.000000 0.000000
O O12 0.870332 0.239542 0.248405
O O13 0.000000 0.201983 0.500000
O O14 0.706021 0.679862 0.982374
O O15 0.000000 0.500000 0.500000
#
# Coordination Sequence:
#
# PCOD9202005 Si02
#       7
#     8   8   4   8   8   4   8
#     4  10  21  35  59  88 116 152 192 240 297 344
#     4  11  21  35  59  84 114 152 190 237 292 350
#     4  10  22  38  61  88 117 149 195 246 289 341
#     4  11  23  38  54  86 120 156 194 234 294 355
#     4  11  19  37  60  88 115 146 193 243 292 342
#     4  10  20  38  56  84 122 149 189 240 285 345
#     4  11  20  35  59  85 118 151 191 244 288 350
#
# _framework density 21.283331
#
# number of rings (size 3 to 8) (size 9 to 14) (size 15 to 20)
#    0.000    1.333    3.333    5.500    0.000    2.667 
#    6.000    0.417    0.000    0.000    0.000    2.917 
#    0.000    0.000    0.000    0.000    0.000    0.000 
#
# Total GULP energy -133832.659419 kJ/mol
# GULP energy per Si atom -5576.360809 kJ/mol
# Density = 2.123489 g / cm^3
# Si number density = 21.283331 Si / 1000 Ang^3
#
#
#
# Elastic Constant Matrix: (Units=GPa)
#
#
# Indices 1 2 3 4 5 6 
#
# 1 83.7498 31.6135 27.1313 0.0000 31.2972 0.0000
# 2 31.6135 89.7677 12.8472 0.0000 16.8299 0.0000
# 3 27.1313 12.8472 72.9754 0.0000 34.8790 0.0000
# 4 0.0000 0.0000 0.0000 12.1803 0.0000 9.7948
# 5 31.2972 16.8299 34.8790 0.0000 47.0959 0.0000
# 6 0.0000 0.0000 0.0000 9.7948 0.0000 27.3611
#
#
#
# Elastic Compliance Matrix: (Units=1/GPa)
#
#
# Indices 1 2 3 4 5 6 
#
# 1 0.017345 -0.004224 -0.001420 0.000000 -0.008966 0.000000
# 2 -0.004224 0.012969 0.000249 0.000000 -0.002012 0.000000
# 3 -0.001420 0.000249 0.021329 0.000000 -0.014941 0.000000
# 4 0.000000 0.000000 0.000000 0.115288 0.000000 -0.041271
# 5 -0.008966 -0.002012 -0.014941 0.000000 0.038975 0.000000
# 6 0.000000 0.000000 0.000000 -0.041271 0.000000 0.051323
#
#
# Mechanical properties :
#
#
# Convention : Reuss Voigt Hill
#
# Bulk Modulus (GPa) = 24.47868 43.29744 33.88806
# Shear Modulus (GPa) = 17.75328 28.98750 23.37039
#
# Velocity S-wave (km/s) = 2.89128 3.69451 3.31730
# Velocity P-wave (km/s) = 4.76155 6.21182 5.53439
#
# Compressibility (1/GPa) = 0.04085188
#
# Stress axis : x y z
#
# Youngs Moduli (GPa) = 57.65227 77.10631 46.88549
#
# Poissons Ratio (x) = 0.32573 0.06658
# Poissons Ratio (y) = 0.24355 -0.01167
# Poissons Ratio (z) = 0.08186 -0.01919
#
# Static dielectric constant tensor:
#      x y z
#    x 1.789670 0.000000 0.022800 
#    y 0.000000 1.928690 0.000000 
#    z 0.022800 0.000000 1.809960 
# 
# From -- ./inp_files/135577.got.cif
#   From: 2010.05.17/outbox.cif.g08.bks.cpg/sg12_68_cif.got.tgz:135577.got - 2010.06.03 13:09:07.
