data_PCOD9202772
_publ_section_title
;
Structure prediction by ZEFSAII (Michael W. Deem and Ramdas Pophale) SiO2 
 PCOD9202772
Probable space group: C 2/M
;
_chemical_formula_sum "Si O2"
_cell_formula_units_Z 56
_cell_length_a 27.499091
_cell_length_b 17.843192
_cell_length_c 9.987477
_cell_angle_alpha 90.000000
_cell_angle_beta 142.433712
_cell_angle_gamma 90.000000
_cell_volume 2987.774626
_symmetry_space_group_name_H-M "C 2/M"
_symmetry_group_IT_number 12
_symmetry_cell_setting 'monoclinic'
loop_
_space_group_symop_operation_xyz
x,y,z
-x,y,-z
-x,-y,-z
x,-y,z
1/2+x,1/2+y,z
1/2-x,1/2+y,-z
1/2-x,1/2-y,-z
1/2+x,1/2-y,z
loop_
_atom_site_type_symbol
_atom_site_label
_atom_site_fract_x
_atom_site_fract_y
_atom_site_fract_z
Si Si1 0.428867 0.916428 0.955598
Si Si2 0.702788 0.909274 0.716608
Si Si3 0.474184 0.852117 0.597845
Si Si4 0.369341 0.409772 0.191607
Si Si5 0.189954 0.694274 0.441073
Si Si6 0.012385 0.089482 0.313413
Si Si7 0.543891 0.273744 0.231748
O O1 0.363925 0.853571 0.779953
O O2 0.394313 0.000000 0.869325
O O3 0.500000 0.912139 0.000000
O O4 0.469377 0.904932 0.188220
O O5 0.616860 0.881439 0.582859
O O6 0.719330 0.868146 0.611175
O O7 0.700526 0.000000 0.697701
O O8 0.778029 0.886807 0.973808
O O9 0.500000 0.848643 0.500000
O O10 0.482551 0.773239 0.695475
O O11 0.368905 0.500000 0.193134
O O12 0.417612 0.387882 0.429403
O O13 0.427497 0.389987 0.195154
O O14 0.250000 0.750000 0.500000
O O15 0.133902 0.749524 0.404226
O O16 0.027712 0.139559 0.219189
O O17 0.014627 0.000000 0.299169
O O18 0.500000 0.250372 0.000000
#
# Coordination Sequence:
#
# PCOD9202772 Si02
#       7
#     8   8   8   8   8   8   8
#     4  11  20  41  70  89 119 169 213 253 313 381
#     4  10  20  38  63  91 123 159 204 258 313 373
#     4  11  23  39  62  96 123 158 206 263 321 377
#     4   8  17  35  59  86 115 152 197 248 302 360
#     4  11  23  40  58  89 124 163 206 251 307 377
#     4   9  19  37  61  86 115 161 210 248 299 369
#     4  11  22  41  61  85 123 162 200 256 314 373
#
# _framework density 18.743046
#
# number of rings (size 3 to 8) (size 9 to 14) (size 15 to 20)
#    0.000    1.857    4.286    1.714    4.000    1.429 
#    2.571    2.857    0.000    0.000    0.000    0.000 
#    0.000    0.000    0.000    0.000    0.000    0.000 
#
# Total GULP energy -156023.650982 kJ/mol
# GULP energy per Si atom -5572.273249 kJ/mol
# Density = 1.870039 g / cm^3
# Si number density = 18.743046 Si / 1000 Ang^3
#
#
#
# Elastic Constant Matrix: (Units=GPa)
#
#
# Indices 1 2 3 4 5 6 
#
# 1 89.4181 53.6239 49.3192 0.0000 -15.2359 0.0000
# 2 53.6239 102.2183 30.0809 0.0000 1.7654 0.0000
# 3 49.3192 30.0809 94.0568 0.0000 3.0137 0.0000
# 4 0.0000 0.0000 0.0000 23.5104 0.0000 4.3492
# 5 -15.2359 1.7654 3.0137 0.0000 30.0562 0.0000
# 6 0.0000 0.0000 0.0000 4.3492 0.0000 24.9807
#
#
#
# Elastic Compliance Matrix: (Units=1/GPa)
#
#
# Indices 1 2 3 4 5 6 
#
# 1 0.026128 -0.010810 -0.010723 0.000000 0.014955 0.000000
# 2 -0.010810 0.015274 0.000991 0.000000 -0.006476 0.000000
# 3 -0.010723 0.000991 0.016165 0.000000 -0.007114 0.000000
# 4 0.000000 0.000000 0.000000 0.043950 0.000000 -0.007652
# 5 0.014955 -0.006476 -0.007114 0.000000 0.041946 0.000000
# 6 0.000000 0.000000 0.000000 -0.007652 0.000000 0.041363
#
#
# Mechanical properties :
#
#
# Convention : Reuss Voigt Hill
#
# Bulk Modulus (GPa) = 60.66246 61.30459 60.98352
# Shear Modulus (GPa) = 21.60719 25.88739 23.74729
#
# Velocity S-wave (km/s) = 3.39899 3.72045 3.56334
# Velocity P-wave (km/s) = 6.91663 7.15783 7.03826
#
# Compressibility (1/GPa) = 0.01648466
#
# Stress axis : x y z
#
# Youngs Moduli (GPa) = 38.27268 65.47026 61.86051
#
# Poissons Ratio (x) = 0.70772 0.66330
# Poissons Ratio (y) = 0.41372 -0.06129
# Poissons Ratio (z) = 0.41038 -0.06487
#
# Static dielectric constant tensor:
#      x y z
#    x 1.639180 0.000000 -0.001180 
#    y 0.000000 1.679140 0.000000 
#    z -0.001180 0.000000 1.692300 
# 
# From -- ./inp_files/106025.got.cif
#   From: 2010.05.17/outbox.cif.g08.bks.cpg/sg12_54_cif.got.tgz:106025.got - 2010.06.03 13:09:07.
