data_PCOD9202167
_publ_section_title
;
Structure prediction by ZEFSAII (Michael W. Deem and Ramdas Pophale) SiO2 
 PCOD9202167
Probable space group: C 2/M
;
_chemical_formula_sum "Si O2"
_cell_formula_units_Z 58
_cell_length_a 23.718002
_cell_length_b 11.329268
_cell_length_c 9.295059
_cell_angle_alpha 90.000000
_cell_angle_beta 76.244191
_cell_angle_gamma 90.000000
_cell_volume 2426.015239
_symmetry_space_group_name_H-M "C 2/M"
_symmetry_group_IT_number 12
_symmetry_cell_setting 'monoclinic'
loop_
_space_group_symop_operation_xyz
x,y,z
-x,y,-z
-x,-y,-z
x,-y,z
1/2+x,1/2+y,z
1/2-x,1/2+y,-z
1/2-x,1/2-y,-z
1/2+x,1/2-y,z
loop_
_atom_site_type_symbol
_atom_site_label
_atom_site_fract_x
_atom_site_fract_y
_atom_site_fract_z
Si Si1 0.030644 0.133495 0.827864
Si Si2 0.045805 0.363123 0.169119
Si Si3 0.106227 0.661150 0.526261
Si Si4 0.327454 0.130316 0.784112
Si Si5 0.823572 0.131141 0.465953
Si Si6 0.500000 0.000000 0.500000
Si Si7 0.234816 0.290889 0.747747
Si Si8 0.111570 0.324183 0.848495
O O1 0.996923 0.250488 0.780576
O O2 0.093135 0.187345 0.834915
O O3 0.029830 0.000000 0.763882
O O4 0.000000 0.121191 0.000000
O O5 0.027855 0.500000 0.230860
O O6 0.109018 0.334382 0.197210
O O7 0.064022 0.370998 0.989476
O O8 0.160988 0.623790 0.395986
O O9 0.117253 0.801977 0.521771
O O10 0.050036 0.603407 0.493948
O O11 0.108800 0.623846 0.690470
O O12 0.275323 0.219442 0.831447
O O13 0.314312 0.000000 0.845314
O O14 0.793594 0.205246 0.356602
O O15 0.778743 0.130998 0.627294
O O16 0.834855 0.000000 0.411998
O O17 0.177553 0.343214 0.857168
#
# Coordination Sequence:
#
# PCOD9202167 Si02
#       8
#     8   8   8   8   8   2   8   8
#     4   9  20  40  61  83 118 162 203 245 304 371
#     4  10  23  39  61  90 122 155 203 255 306 360
#     4  10  23  37  61  89 119 161 197 252 305 358
#     4  10  20  38  59  85 123 164 199 241 303 371
#     4   9  18  37  58  87 124 160 205 249 300 366
#     4  12  24  40  62  90 128 160 208 252 304 384
#     4   9  19  34  58  89 119 163 200 242 310 364
#     4  10  22  37  59  95 117 151 205 262 303 353
#
# _framework density 23.907516000000001
#
# number of rings (size 3 to 8) (size 9 to 14) (size 15 to 20)
#    0.000    2.345    0.690    1.241    2.897    6.345 
#    3.724    3.103    0.000    0.000    0.000    0.000 
#    0.000    0.000    0.000    0.000    0.000    0.000 
#
# Total GULP energy -161460.874780 kJ/mol
# GULP energy per Si atom -5567.616372 kJ/mol
# Density = 2.385310 g / cm^3
# Si number density = 23.907516 Si / 1000 Ang^3
#
#
#
# Elastic Constant Matrix: (Units=GPa)
#
#
# Indices 1 2 3 4 5 6 
#
# 1 141.8323 48.7516 22.5891 0.0000 -19.5369 0.0000
# 2 48.7516 177.1047 9.6609 0.0000 1.5304 0.0000
# 3 22.5891 9.6609 67.8416 0.0000 -10.5408 0.0000
# 4 0.0000 0.0000 0.0000 11.4618 0.0000 28.3088
# 5 -19.5369 1.5304 -10.5408 0.0000 32.6132 0.0000
# 6 0.0000 0.0000 0.0000 28.3088 0.0000 -31.9091
#
#
#
# Elastic Compliance Matrix: (Units=1/GPa)
#
#
# Indices 1 2 3 4 5 6 
#
# 1 0.008821 -0.002368 -0.001855 0.000000 0.004796 0.000000
# 2 -0.002368 0.006336 -0.000400 0.000000 -0.001845 0.000000
# 3 -0.001855 -0.000400 0.016051 0.000000 0.004096 0.000000
# 4 0.000000 0.000000 0.000000 0.027340 0.000000 0.024255
# 5 0.004796 -0.001845 0.004096 0.000000 0.034946 0.000000
# 6 0.000000 0.000000 0.000000 0.024255 0.000000 -0.009821
#
#
# Mechanical properties :
#
#
# Convention : Reuss Voigt Hill
#
# Bulk Modulus (GPa) = 45.53508 60.97575 53.25541
# Shear Modulus (GPa) = 49.88034 22.81832 36.34933
#
# Velocity S-wave (km/s) = 4.57265 3.09276 3.90348
# Velocity P-wave (km/s) = 6.85322 6.18981 6.52994
#
# Compressibility (1/GPa) = 0.02196109
#
# Stress axis : x y z
#
# Youngs Moduli (GPa) = 113.37098 157.82589 62.30094
#
# Poissons Ratio (x) = 0.37378 0.11554
# Poissons Ratio (y) = 0.26850 0.02495
# Poissons Ratio (z) = 0.21026 0.06320
#
# Static dielectric constant tensor:
#      x y z
#    x 1.912130 0.000000 -0.056430 
#    y 0.000000 1.994590 0.000000 
#    z -0.056430 0.000000 1.871570 
# 
# From -- ./inp_files/174546.got.cif
#   From: 2010.05.17/outbox.cif.g08.bks.cpg/sg12_88_cif.got.tgz:174546.got - 2010.06.03 13:09:07.
