data_PCOD9202683
_publ_section_title
;
Structure prediction by ZEFSAII (Michael W. Deem and Ramdas Pophale) SiO2 
 PCOD9202683
Probable space group: C 2/M
;
_chemical_formula_sum "Si O2"
_cell_formula_units_Z 48
_cell_length_a 11.694070
_cell_length_b 16.778307
_cell_length_c 23.074444
_cell_angle_alpha 90.000000
_cell_angle_beta 150.249504
_cell_angle_gamma 90.000000
_cell_volume 2246.584991
_symmetry_space_group_name_H-M "C 2/M"
_symmetry_group_IT_number 12
_symmetry_cell_setting 'monoclinic'
loop_
_space_group_symop_operation_xyz
x,y,z
-x,y,-z
-x,-y,-z
x,-y,z
1/2+x,1/2+y,z
1/2-x,1/2+y,-z
1/2-x,1/2-y,-z
1/2+x,1/2-y,z
loop_
_atom_site_type_symbol
_atom_site_label
_atom_site_fract_x
_atom_site_fract_y
_atom_site_fract_z
Si Si1 0.436175 0.291453 0.124281
Si Si2 0.825272 0.090888 0.174935
Si Si3 0.948062 0.908926 0.540654
Si Si4 0.938928 0.090441 0.033946
Si Si5 0.094754 0.375747 0.191468
Si Si6 0.196992 0.406661 0.544056
O O1 0.325317 0.339731 0.127809
O O2 0.546414 0.359683 0.133154
O O3 0.595496 0.217477 0.209583
O O4 0.250000 0.250000 0.000000
O O5 0.645489 0.110011 0.146256
O O6 0.071850 0.093683 0.315602
O O7 0.792032 0.000000 0.137727
O O8 0.196085 0.913197 0.681323
O O9 0.000000 0.871811 0.500000
O O10 0.773362 0.874505 0.513567
O O11 0.866918 0.000000 0.493957
O O12 0.022954 0.000000 0.072630
O O13 0.661326 0.091228 0.912460
O O14 0.000000 0.129654 0.000000
O O15 0.133551 0.500000 0.506127
O O16 0.000000 0.371436 0.500000
#
# Coordination Sequence:
#
# PCOD9202683 Si02
#       6
#     8   8   8   8   8   8
#     4  10  23  36  56  81 116 149 189 241 296 342
#     4  10  20  38  63  86 111 153 206 239 280 353
#     4   9  17  33  58  88 116 152 200 244 292 356
#     4  10  21  37  56  81 115 148 189 239 290 348
#     4  10  21  37  61  84 118 153 192 242 294 349
#     4   8  15  31  55  84 115 143 185 243 292 335
#
# _framework density 21.365762
#
# number of rings (size 3 to 8) (size 9 to 14) (size 15 to 20)
#    0.000    2.500    0.000    3.000    4.667    2.000 
#    3.000    5.000    0.000    4.000    0.000    0.000 
#    0.000    0.000    0.000    0.000    0.000    0.000 
#
# Total GULP energy -133693.651015 kJ/mol
# GULP energy per Si atom -5570.568792 kJ/mol
# Density = 2.131713 g / cm^3
# Si number density = 21.365762 Si / 1000 Ang^3
#
#
#
# Elastic Constant Matrix: (Units=GPa)
#
#
# Indices 1 2 3 4 5 6 
#
# 1 175.9529 29.6124 28.4453 0.3731 0.2394 -0.1635
# 2 29.6124 80.8133 6.8112 0.3167 -11.7504 -0.1406
# 3 28.4453 6.8112 24.8343 0.7758 4.1893 -0.3204
# 4 0.3731 0.3167 0.7758-5535.5774 0.5317 2357.9287
# 5 0.2394 -11.7504 4.1893 0.5317 34.7444 -0.2346
# 6 -0.1635 -0.1406 -0.3204 2357.9287 -0.2346-1246.3821
#
#
#
# Elastic Compliance Matrix: (Units=1/GPa)
#
#
# Indices 1 2 3 4 5 6 
#
# 1 0.007283 -0.001975 -0.007838 -0.000001 0.000227 0.000000
# 2 -0.001975 0.014039 -0.002441 0.000001 0.005056 -0.000001
# 3 -0.007838 -0.002441 0.051083 0.000007 -0.006931 0.000003
# 4 -0.000001 0.000001 0.000007 -0.000930 0.000002 -0.001760
# 5 0.000227 0.005056 -0.006931 0.000002 0.031326 -0.000001
# 6 0.000000 -0.000001 0.000003 -0.001760 -0.000001 -0.004132
#
#
# Mechanical properties :
#
#
# Convention : Reuss Voigt Hill
#
# Bulk Modulus (GPa) = 20.87854 45.70429 33.29141
# Shear Modulus (GPa) = 35.93475 -1334.99424 -649.52975
#
# Velocity S-wave (km/s) = 4.10553 -25.02369 -17.45465
# Velocity P-wave (km/s) = 5.68040 28.52150 19.76371
#
# Compressibility (1/GPa) = 0.04789608
#
# Stress axis : x y z
#
# Youngs Moduli (GPa) = 137.31469 71.23146 19.57593
#
# Poissons Ratio (x) = 0.14068 0.15344
# Poissons Ratio (y) = 0.27118 0.04779
# Poissons Ratio (z) = 1.07628 0.17389
#
# Static dielectric constant tensor:
#      x y z
#    x 1.834100 0.000000 -0.022020 
#    y 0.000000 1.829520 0.000000 
#    z -0.022020 0.000000 1.770800 
# 
# From -- ./inp_files/336482.got.cif
#   From: 2010.05.17/outbox.cif.g08.bks.cpg/sg12_169_cif.got.tgz:336482.got - 2010.06.03 13:09:07.
