data_PCOD9202812
_publ_section_title
;
Structure prediction by ZEFSAII (Michael W. Deem and Ramdas Pophale) SiO2 
 PCOD9202812
Probable space group: C 2/M
;
_chemical_formula_sum "Si O2"
_cell_formula_units_Z 56
_cell_length_a 9.623688
_cell_length_b 17.738245
_cell_length_c 18.896544
_cell_angle_alpha 90.000000
_cell_angle_beta 115.258817
_cell_angle_gamma 90.000000
_cell_volume 2917.360339
_symmetry_space_group_name_H-M "C 2/M"
_symmetry_group_IT_number 12
_symmetry_cell_setting 'monoclinic'
loop_
_space_group_symop_operation_xyz
x,y,z
-x,y,-z
-x,-y,-z
x,-y,z
1/2+x,1/2+y,z
1/2-x,1/2+y,-z
1/2-x,1/2-y,-z
1/2+x,1/2-y,z
loop_
_atom_site_type_symbol
_atom_site_label
_atom_site_fract_x
_atom_site_fract_y
_atom_site_fract_z
Si Si1 0.069585 0.235124 0.671584
Si Si2 0.261481 0.720143 0.423867
Si Si3 0.537497 0.914143 0.184991
Si Si4 0.032279 0.088088 0.923083
Si Si5 0.749357 0.188514 0.836310
Si Si6 0.164374 0.340220 0.073319
Si Si7 0.186549 0.085546 0.647456
O O1 0.113340 0.257886 0.600448
O O2 0.187517 0.270482 0.752431
O O3 0.084259 0.144179 0.671094
O O4 0.899679 0.262613 0.649162
O O5 0.250000 0.750000 0.500000
O O6 0.295781 0.631033 0.422462
O O7 0.388748 0.863218 0.165294
O O8 0.636722 0.882230 0.141733
O O9 0.648951 0.914781 0.277306
O O10 0.490055 0.000000 0.159379
O O11 0.199842 0.119700 0.940184
O O12 0.901013 0.138508 0.857561
O O13 0.021461 0.000000 0.900916
O O14 0.000000 0.093974 0.000000
O O15 0.788405 0.254455 0.900119
O O16 0.000000 0.342311 0.000000
O O17 0.132037 0.000000 0.630145
#
# Coordination Sequence:
#
# PCOD9202812 Si02
#       7
#     8   8   8   8   8   8   8
#     4  10  21  37  64  93 121 164 202 251 298 366
#     4  10  20  38  63  94 125 163 202 246 299 363
#     4  11  22  39  62  88 119 159 202 249 305 369
#     4  11  26  44  61  87 124 162 205 260 319 366
#     4  12  22  40  62  92 121 156 207 256 310 361
#     4  12  25  40  62  88 119 161 210 258 302 364
#     4   9  20  37  63  92 122 160 203 247 300 360
#
# _framework density 19.195436000000001
#
# number of rings (size 3 to 8) (size 9 to 14) (size 15 to 20)
#    0.857    0.429    2.857    3.429    2.000    4.000 
#    0.000    1.429    0.000    4.286    0.000    0.000 
#    0.000    0.000    0.000    0.000    0.000    0.000 
#
# Total GULP energy -156237.479204 kJ/mol
# GULP energy per Si atom -5579.909972 kJ/mol
# Density = 1.915175 g / cm^3
# Si number density = 19.195436 Si / 1000 Ang^3
#
#
#
# Elastic Constant Matrix: (Units=GPa)
#
#
# Indices 1 2 3 4 5 6 
#
# 1 97.9592 37.8761 2.1351 0.0000 -0.6619 0.0000
# 2 37.8761 154.5513 14.5052 0.0000 -4.1547 0.0000
# 3 2.1351 14.5052 41.8103 0.0000 -0.6104 0.0000
# 4 0.0000 0.0000 0.0000 12.1499 0.0000 6.8959
# 5 -0.6619 -4.1547 -0.6104 0.0000 21.1773 0.0000
# 6 0.0000 0.0000 0.0000 6.8959 0.0000 25.0425
#
#
#
# Elastic Compliance Matrix: (Units=1/GPa)
#
#
# Indices 1 2 3 4 5 6 
#
# 1 0.011284 -0.002807 0.000395 0.000000 -0.000187 0.000000
# 2 -0.002807 0.007420 -0.002412 0.000000 0.001298 0.000000
# 3 0.000395 -0.002412 0.024738 0.000000 0.000252 0.000000
# 4 0.000000 0.000000 0.000000 0.097552 0.000000 -0.026863
# 5 -0.000187 0.001298 0.000252 0.000000 0.047477 0.000000
# 6 0.000000 0.000000 0.000000 -0.026863 0.000000 0.047329
#
#
# Mechanical properties :
#
#
# Convention : Reuss Voigt Hill
#
# Bulk Modulus (GPa) = 29.59194 44.81706 37.20450
# Shear Modulus (GPa) = 19.47710 27.66090 23.56900
#
# Velocity S-wave (km/s) = 3.18885 3.80019 3.50786
# Velocity P-wave (km/s) = 5.38590 6.53098 5.98589
#
# Compressibility (1/GPa) = 0.03379299
#
# Stress axis : x y z
#
# Youngs Moduli (GPa) = 88.62128 134.77758 40.42403
#
# Poissons Ratio (x) = 0.37838 -0.01597
# Poissons Ratio (y) = 0.24880 0.09749
# Poissons Ratio (z) = -0.03501 0.32505
#
# Static dielectric constant tensor:
#      x y z
#    x 1.756960 0.000000 -0.023100 
#    y 0.000000 1.671530 0.000000 
#    z -0.023100 0.000000 1.710510 
# 
# From -- ./inp_files/300907.got.cif
#   From: 2010.05.17/outbox.cif.g08.bks.cpg/sg12_151_cif.got.tgz:300907.got - 2010.06.03 13:09:07.
