data_PCOD9202786
_publ_section_title
;
Structure prediction by ZEFSAII (Michael W. Deem and Ramdas Pophale) SiO2 
 PCOD9202786
Probable space group: C 2/M
;
_chemical_formula_sum "Si O2"
_cell_formula_units_Z 42
_cell_length_a 29.980652
_cell_length_b 7.331293
_cell_length_c 8.743828
_cell_angle_alpha 90.000000
_cell_angle_beta 69.829754
_cell_angle_gamma 90.000000
_cell_volume 1804.002841
_symmetry_space_group_name_H-M "C 2/M"
_symmetry_group_IT_number 12
_symmetry_cell_setting 'monoclinic'
loop_
_space_group_symop_operation_xyz
x,y,z
-x,y,-z
-x,-y,-z
x,-y,z
1/2+x,1/2+y,z
1/2-x,1/2+y,-z
1/2-x,1/2-y,-z
1/2+x,1/2-y,z
loop_
_atom_site_type_symbol
_atom_site_label
_atom_site_fract_x
_atom_site_fract_y
_atom_site_fract_z
Si Si1 0.734031 0.283983 0.191484
Si Si2 0.573880 0.781555 0.999863
Si Si3 0.173887 0.279237 0.743364
Si Si4 0.500000 0.500000 0.000000
Si Si5 0.139183 0.707815 0.459879
Si Si6 0.949378 0.277739 0.625134
O O1 0.729475 0.500000 0.219208
O O2 0.775845 0.212935 0.252620
O O3 0.682923 0.204054 0.290986
O O4 0.750000 0.250000 0.000000
O O5 0.558676 0.725574 0.189386
O O6 0.567104 0.000000 0.987235
O O7 0.629383 0.741500 0.906403
O O8 0.540930 0.660996 0.930632
O O9 0.178389 0.500000 0.731209
O O10 0.159247 0.211372 0.593127
O O11 0.125408 0.500000 0.516298
O O12 0.093389 0.788263 0.431510
O O13 0.948263 0.500000 0.626881
O O14 0.000000 0.219818 0.500000
#
# Coordination Sequence:
#
# PCOD9202786 Si02
#       6
#     8   8   8   2   8   8
#     4  11  22  39  61  90 123 162 204 250 312 375
#     4  10  22  43  65  89 128 170 211 264 317 376
#     4   9  20  39  65  89 120 163 207 250 311 382
#     4  12  26  40  62 102 124 164 224 260 318 378
#     4  10  20  38  63  92 119 155 207 257 313 378
#     4   9  19  37  64  90 119 166 215 252 309 382
#
# _framework density 23.281562000000001
#
# number of rings (size 3 to 8) (size 9 to 14) (size 15 to 20)
#    0.000    2.095    0.000    2.571    2.667    3.048 
#   10.286    0.476    0.000    0.000    0.000    0.000 
#    0.000    0.000    0.000    0.000    0.000    0.000 
#
# Total GULP energy -117179.343763 kJ/mol
# GULP energy per Si atom -5579.968751 kJ/mol
# Density = 2.322857 g / cm^3
# Si number density = 23.281562 Si / 1000 Ang^3
#
#
#
# Elastic Constant Matrix: (Units=GPa)
#
#
# Indices 1 2 3 4 5 6 
#
# 1 149.6032 11.0151 34.5138 0.0000 -26.6526 0.0000
# 2 11.0151 110.2346 -13.3448 0.0000 2.3693 0.0000
# 3 34.5138 -13.3448 116.4426 0.0000 -11.3637 0.0000
# 4 0.0000 0.0000 0.0000 55.5294 0.0000 162.1517
# 5 -26.6526 2.3693 -11.3637 0.0000 25.8987 0.0000
# 6 0.0000 0.0000 0.0000 162.1517 0.0000 504.7232
#
#
#
# Elastic Compliance Matrix: (Units=1/GPa)
#
#
# Indices 1 2 3 4 5 6 
#
# 1 0.008684 -0.001277 -0.001919 0.000000 0.008212 0.000000
# 2 -0.001277 0.009391 0.001298 0.000000 -0.001603 0.000000
# 3 -0.001919 0.001298 0.009508 0.000000 0.002079 0.000000
# 4 0.000000 0.000000 0.000000 0.291104 0.000000 -0.093522
# 5 0.008212 -0.001603 0.002079 0.000000 0.048121 0.000000
# 6 0.000000 0.000000 0.000000 -0.093522 0.000000 0.032027
#
#
# Mechanical properties :
#
#
# Convention : Reuss Voigt Hill
#
# Bulk Modulus (GPa) = 42.03721 48.96096 45.49908
# Shear Modulus (GPa) = 12.17852 140.17003 76.17427
#
# Velocity S-wave (km/s) = 2.28961 7.76770 5.72623
# Velocity P-wave (km/s) = 5.00849 10.07597 7.95645
#
# Compressibility (1/GPa) = 0.02378845
#
# Stress axis : x y z
#
# Youngs Moduli (GPa) = 115.15485 106.48806 105.17137
#
# Poissons Ratio (x) = 0.13593 0.20181
# Poissons Ratio (y) = 0.14700 -0.13653
# Poissons Ratio (z) = 0.22097 -0.13823
#
# Static dielectric constant tensor:
#      x y z
#    x 1.864030 0.000000 0.032590 
#    y 0.000000 1.909710 0.000000 
#    z 0.032590 0.000000 1.852850 
# 
# From -- ./inp_files/107853.got.cif
#   From: 2010.05.17/outbox.cif.g08.bks.cpg/sg12_54_cif.got.tgz:107853.got - 2010.06.03 13:09:07.
