data_PCOD9202050
_publ_section_title
;
Structure prediction by ZEFSAII (Michael W. Deem and Ramdas Pophale) SiO2 
 PCOD9202050
Probable space group: C 2/M
;
_chemical_formula_sum "Si O2"
_cell_formula_units_Z 64
_cell_length_a 27.401250
_cell_length_b 7.703732
_cell_length_c 14.375170
_cell_angle_alpha 90.000000
_cell_angle_beta 67.243800
_cell_angle_gamma 90.000000
_cell_volume 2798.275024
_symmetry_space_group_name_H-M "C 2/M"
_symmetry_group_IT_number 12
_symmetry_cell_setting 'monoclinic'
loop_
_space_group_symop_operation_xyz
x,y,z
-x,y,-z
-x,-y,-z
x,-y,z
1/2+x,1/2+y,z
1/2-x,1/2+y,-z
1/2-x,1/2-y,-z
1/2+x,1/2-y,z
loop_
_atom_site_type_symbol
_atom_site_label
_atom_site_fract_x
_atom_site_fract_y
_atom_site_fract_z
Si Si1 0.858497 0.790372 0.956115
Si Si2 0.357090 0.799555 0.456525
Si Si3 0.273025 0.787291 0.654276
Si Si4 0.577496 0.795695 0.762114
Si Si5 0.143309 0.703971 0.251870
Si Si6 0.974018 0.202088 0.926053
Si Si7 0.440064 0.702199 0.550107
Si Si8 0.168409 0.209758 0.825912
O O1 0.842743 0.733344 0.865278
O O2 0.918508 0.726385 0.931518
O O3 0.858231 0.000000 0.954308
O O4 0.825092 0.735866 0.071441
O O5 0.303159 0.724120 0.539574
O O6 0.386007 0.719185 0.346690
O O7 0.400156 0.793529 0.507870
O O8 0.345916 0.000000 0.441089
O O9 0.310386 0.734650 0.713254
O O10 0.214381 0.727927 0.722843
O O11 0.272555 0.000000 0.651087
O O12 0.520175 0.713309 0.815886
O O13 0.611897 0.768783 0.829477
O O14 0.569446 0.000000 0.751444
O O15 0.137629 0.500000 0.271242
O O16 0.088044 0.784175 0.328521
O O17 0.963033 0.000000 0.956007
O O18 0.000000 0.281993 0.000000
O O19 0.500000 0.769634 0.500000
O O20 0.441500 0.500000 0.522077
O O21 0.168959 0.000000 0.824162
#
# Coordination Sequence:
#
# PCOD9202050 Si02
#       8
#     8   8   8   8   8   8   8   8
#     4  10  21  36  56  83 112 144 188 234 272 325
#     4   9  20  38  56  80 114 147 179 224 279 333
#     4   8  17  37  61  80 106 146 187 227 273 331
#     4  11  23  36  54  85 118 146 183 229 280 332
#     4  10  21  37  57  82 114 148 181 223 281 336
#     4  10  20  38  58  77 108 150 190 228 276 328
#     4  10  21  36  55  81 109 142 187 233 271 320
#     4  10  20  38  61  81 106 148 193 230 275 326
#
# _framework density 22.871234000000001
#
# number of rings (size 3 to 8) (size 9 to 14) (size 15 to 20)
#    0.000    2.250    1.250    1.875    1.750    4.250 
#    0.000    3.125    0.000    0.000    0.000    0.000 
#    0.000    0.000    0.000    0.000    0.000    0.000 
#
# Total GULP energy -178683.798128 kJ/mol
# GULP energy per Si atom -5583.868691 kJ/mol
# Density = 2.281918 g / cm^3
# Si number density = 22.871234 Si / 1000 Ang^3
#
#
#
# Elastic Constant Matrix: (Units=GPa)
#
#
# Indices 1 2 3 4 5 6 
#
# 1 29.9645 -4.0520 -1.4901 0.0000 -21.0424 0.0000
# 2 -4.0520 42.6269 -7.4392 0.0000 -1.6072 0.0000
# 3 -1.4901 -7.4392 98.8379 0.0000 -10.3884 0.0000
# 4 0.0000 0.0000 0.0000 21.2509 0.0000 3.7736
# 5 -21.0424 -1.6072 -10.3884 0.0000 40.7793 0.0000
# 6 0.0000 0.0000 0.0000 3.7736 0.0000 10.2706
#
#
#
# Elastic Compliance Matrix: (Units=1/GPa)
#
#
# Indices 1 2 3 4 5 6 
#
# 1 0.055826 0.007244 0.004567 0.000000 0.030256 0.000000
# 2 0.007244 0.024793 0.002539 0.000000 0.005362 0.000000
# 3 0.004567 0.002539 0.010928 0.000000 0.005241 0.000000
# 4 0.000000 0.000000 0.000000 0.050341 0.000000 -0.018496
# 5 0.030256 0.005362 0.005241 0.000000 0.041681 0.000000
# 6 0.000000 0.000000 0.000000 -0.018496 0.000000 0.104161
#
#
# Mechanical properties :
#
#
# Convention : Reuss Voigt Hill
#
# Bulk Modulus (GPa) = 8.31610 16.16297 12.23953
# Shear Modulus (GPa) = 16.71609 26.75421 21.73515
#
# Velocity S-wave (km/s) = 2.70641 3.42391 3.08608
# Velocity P-wave (km/s) = 3.66199 4.76583 4.24990
#
# Compressibility (1/GPa) = 0.12024870
#
# Stress axis : x y z
#
# Youngs Moduli (GPa) = 17.91267 40.33358 91.50512
#
# Poissons Ratio (x) = -0.29219 -0.41790
# Poissons Ratio (y) = -0.12977 -0.23232
# Poissons Ratio (z) = -0.08181 -0.10240
#
# Static dielectric constant tensor:
#      x y z
#    x 1.825110 0.000000 -0.008280 
#    y 0.000000 1.861980 0.000000 
#    z -0.008280 0.000000 1.908520 
# 
# From -- ./inp_files/248971.got.cif
#   From: 2010.05.17/outbox.cif.g08.bks.cpg/sg12_125_cif.got.tgz:248971.got - 2010.06.03 13:09:07.
