data_PCOD9202616
_publ_section_title
;
Structure prediction by ZEFSAII (Michael W. Deem and Ramdas Pophale) SiO2 
 PCOD9202616
Probable space group: C 2/M
;
_chemical_formula_sum "Si O2"
_cell_formula_units_Z 64
_cell_length_a 30.407562
_cell_length_b 8.054951
_cell_length_c 19.029934
_cell_angle_alpha 90.000000
_cell_angle_beta 139.885075
_cell_angle_gamma 90.000000
_cell_volume 3003.207415
_symmetry_space_group_name_H-M "C 2/M"
_symmetry_group_IT_number 12
_symmetry_cell_setting 'monoclinic'
loop_
_space_group_symop_operation_xyz
x,y,z
-x,y,-z
-x,-y,-z
x,-y,z
1/2+x,1/2+y,z
1/2-x,1/2+y,-z
1/2-x,1/2-y,-z
1/2+x,1/2-y,z
loop_
_atom_site_type_symbol
_atom_site_label
_atom_site_fract_x
_atom_site_fract_y
_atom_site_fract_z
Si Si1 0.088939 0.804671 0.189202
Si Si2 0.446678 0.302935 0.068905
Si Si3 0.326676 0.199432 0.574282
Si Si4 0.177018 0.686888 0.167537
Si Si5 0.812198 0.299510 0.126268
Si Si6 0.815436 0.691867 0.288641
Si Si7 0.399237 0.796952 0.519731
Si Si8 0.457752 0.201182 0.241949
O O1 0.123744 0.777576 0.307127
O O2 0.134992 0.718873 0.187059
O O3 0.011037 0.745065 0.101000
O O4 0.087282 0.000000 0.170398
O O5 0.438789 0.500000 0.048671
O O6 0.463349 0.267193 0.169867
O O7 0.377181 0.217053 0.960615
O O8 0.250000 0.250000 0.500000
O O9 0.350455 0.251284 0.525413
O O10 0.332824 0.000000 0.585981
O O11 0.202860 0.500000 0.197666
O O12 0.242315 0.801708 0.237470
O O13 0.811533 0.500000 0.126873
O O14 0.806601 0.236330 0.199724
O O15 0.885307 0.245517 0.185041
O O16 0.750000 0.250000 0.000000
O O17 0.835716 0.500000 0.302982
O O18 0.869852 0.765402 0.409836
O O19 0.476276 0.746686 0.632595
O O20 0.398003 0.000000 0.516189
O O21 0.458499 0.000000 0.239820
#
# Coordination Sequence:
#
# PCOD9202616 Si02
#       8
#     8   8   8   8   8   8   8   8
#     4  11  23  39  58  84 118 156 201 251 304 365
#     4  11  23  39  60  87 119 158 200 249 306 365
#     4  11  21  35  57  85 119 163 207 253 303 357
#     4  12  25  39  59  87 118 158 202 251 305 364
#     4  10  22  38  62  91 121 157 200 248 302 362
#     4  10  21  40  62  88 121 158 198 246 302 361
#     4   9  19  36  60  86 118 156 198 247 299 351
#     4  10  20  38  62  90 121 157 201 251 302 360
#
# _framework density 21.310549000000002
#
# number of rings (size 3 to 8) (size 9 to 14) (size 15 to 20)
#    0.000    1.500    1.250    4.125    0.000    7.500 
#    0.000    3.750    0.000    0.000    0.000    2.625 
#    0.000    0.000    0.000    0.000    0.000    0.000 
#
# Total GULP energy -178898.735580 kJ/mol
# GULP energy per Si atom -5590.585487 kJ/mol
# Density = 2.126205 g / cm^3
# Si number density = 21.310549 Si / 1000 Ang^3
#
#
#
# Elastic Constant Matrix: (Units=GPa)
#
#
# Indices 1 2 3 4 5 6 
#
# 1 119.4218 5.8279 64.4578 0.0000 -2.1044 0.0000
# 2 5.8279 24.6061 2.6091 0.0000 -1.4966 0.0000
# 3 64.4578 2.6091 156.6561 0.0000 -15.4308 0.0000
# 4 0.0000 0.0000 0.0000 19.3198 0.0000 -0.1625
# 5 -2.1044 -1.4966 -15.4308 0.0000 35.8245 0.0000
# 6 0.0000 0.0000 0.0000 -0.1625 0.0000 15.8893
#
#
#
# Elastic Compliance Matrix: (Units=1/GPa)
#
#
# Indices 1 2 3 4 5 6 
#
# 1 0.010942 -0.002190 -0.004607 0.000000 -0.001433 0.000000
# 2 -0.002190 0.041225 0.000388 0.000000 0.001761 0.000000
# 3 -0.004607 0.000388 0.008613 0.000000 0.003455 0.000000
# 4 0.000000 0.000000 0.000000 0.051765 0.000000 0.000529
# 5 -0.001433 0.001761 0.003455 0.000000 0.029392 0.000000
# 6 0.000000 0.000000 0.000000 0.000529 0.000000 0.062941
#
#
# Mechanical properties :
#
#
# Convention : Reuss Voigt Hill
#
# Bulk Modulus (GPa) = 20.84998 49.60818 35.22908
# Shear Modulus (GPa) = 21.39658 29.39267 25.39463
#
# Velocity S-wave (km/s) = 3.17209 3.71786 3.45577
# Velocity P-wave (km/s) = 4.81885 6.46214 5.70002
#
# Compressibility (1/GPa) = 0.04796167
#
# Stress axis : x y z
#
# Youngs Moduli (GPa) = 91.39236 24.25709 116.10578
#
# Poissons Ratio (x) = 0.05313 0.53488
# Poissons Ratio (y) = 0.20017 -0.04505
# Poissons Ratio (z) = 0.42103 -0.00941
#
# Static dielectric constant tensor:
#      x y z
#    x 1.744260 0.000000 -0.023270 
#    y 0.000000 1.766320 0.000000 
#    z -0.023270 0.000000 1.745550 
# 
# From -- ./inp_files/295766.got.cif
#   From: 2010.05.17/outbox.cif.g08.bks.cpg/sg12_148_cif.got.tgz:295766.got - 2010.06.03 13:09:07.
