data_PCOD9202010
_publ_section_title
;
Structure prediction by ZEFSAII (Michael W. Deem and Ramdas Pophale) SiO2 
 PCOD9202010
Probable space group: C 2/M
;
_chemical_formula_sum "Si O2"
_cell_formula_units_Z 52
_cell_length_a 13.590164
_cell_length_b 9.769560
_cell_length_c 19.613431
_cell_angle_alpha 90.000000
_cell_angle_beta 68.722005
_cell_angle_gamma 90.000000
_cell_volume 2426.555753
_symmetry_space_group_name_H-M "C 2/M"
_symmetry_group_IT_number 12
_symmetry_cell_setting 'monoclinic'
loop_
_space_group_symop_operation_xyz
x,y,z
-x,y,-z
-x,-y,-z
x,-y,z
1/2+x,1/2+y,z
1/2-x,1/2+y,-z
1/2-x,1/2-y,-z
1/2+x,1/2-y,z
loop_
_atom_site_type_symbol
_atom_site_label
_atom_site_fract_x
_atom_site_fract_y
_atom_site_fract_z
Si Si1 0.166290 0.282048 0.950422
Si Si2 0.931526 0.842292 0.779094
Si Si3 0.676056 0.843421 0.297236
Si Si4 0.998007 0.344687 0.886820
Si Si5 0.351798 0.343126 0.362198
Si Si6 0.792503 0.000000 0.990917
Si Si7 0.040693 0.343374 0.562289
O O1 0.264477 0.378723 0.941596
O O2 0.085628 0.334453 0.030158
O O3 0.109246 0.310901 0.893788
O O4 0.185118 0.122637 0.958480
O O5 0.842182 0.756729 0.761634
O O6 0.966531 0.761928 0.837579
O O7 0.036953 0.843687 0.705719
O O8 0.904316 0.000000 0.796982
O O9 0.763058 0.797120 0.330443
O O10 0.563670 0.848200 0.364297
O O11 0.702676 0.000000 0.269518
O O12 0.995328 0.500000 0.861102
O O13 0.326258 0.500000 0.388143
O O14 0.371757 0.246844 0.421918
O O15 0.077565 0.500000 0.542744
O O16 0.000000 0.288514 0.500000
#
# Coordination Sequence:
#
# PCOD9202010 Si02
#       7
#     8   8   8   8   8   4   8
#     4  10  21  38  59  78 112 138 175 220 276 326
#     4  10  22  37  54  79 106 138 184 231 268 320
#     4   9  18  37  57  75 108 148 180 219 272 323
#     4  11  21  39  56  77 105 149 175 215 277 340
#     4   9  19  37  55  76 107 144 183 222 267 317
#     4  10  20  38  56  86 108 136 172 224 270 322
#     4   9  18  32  54  83 113 143 178 220 266 319
#
# _framework density 21.429549999999999
#
# number of rings (size 3 to 8) (size 9 to 14) (size 15 to 20)
#    0.000    2.308    1.538    0.923    2.154    2.769 
#    5.538    0.000    0.000    0.000    0.000    0.000 
#    0.000    0.000    0.000    0.000    0.000    0.000 
#
# Total GULP energy -144736.465547 kJ/mol
# GULP energy per Si atom -5566.787136 kJ/mol
# Density = 2.138078 g / cm^3
# Si number density = 21.429550 Si / 1000 Ang^3
#
#
#
# Elastic Constant Matrix: (Units=GPa)
#
#
# Indices 1 2 3 4 5 6 
#
# 1 71.4480 37.9069 19.9505 0.0000 32.9748 0.0000
# 2 37.9069 163.7589 50.2025 0.0000 38.0469 0.0000
# 3 19.9505 50.2025 75.7114 0.0000 37.9064 0.0000
# 4 0.0000 0.0000 0.0000 30.4953 0.0000 14.3598
# 5 32.9748 38.0469 37.9064 0.0000 50.6950 0.0000
# 6 0.0000 0.0000 0.0000 14.3598 0.0000 31.2641
#
#
#
# Elastic Compliance Matrix: (Units=1/GPa)
#
#
# Indices 1 2 3 4 5 6 
#
# 1 0.020983 -0.002567 0.003264 0.000000 -0.014162 0.000000
# 2 -0.002567 0.008300 -0.004067 0.000000 -0.001519 0.000000
# 3 0.003264 -0.004067 0.023304 0.000000 -0.016495 0.000000
# 4 0.000000 0.000000 0.000000 0.041841 0.000000 -0.019218
# 5 -0.014162 -0.001519 -0.016495 0.000000 0.042412 0.000000
# 6 0.000000 0.000000 0.000000 -0.019218 0.000000 0.040813
#
#
# Mechanical properties :
#
#
# Convention : Reuss Voigt Hill
#
# Bulk Modulus (GPa) = 21.81226 58.55978 40.18602
# Shear Modulus (GPa) = 25.04057 36.01477 30.52767
#
# Velocity S-wave (km/s) = 3.42205 4.10397 3.77843
# Velocity P-wave (km/s) = 5.08081 7.05994 6.15050
#
# Compressibility (1/GPa) = 0.04584578
#
# Stress axis : x y z
#
# Youngs Moduli (GPa) = 47.65739 120.47561 42.91182
#
# Poissons Ratio (x) = 0.30930 -0.14005
# Poissons Ratio (y) = 0.12235 0.17452
# Poissons Ratio (z) = -0.15554 0.48998
#
# Static dielectric constant tensor:
#      x y z
#    x 1.841740 0.000000 -0.056120 
#    y 0.000000 1.746780 0.000000 
#    z -0.056120 0.000000 1.802920 
# 
# From -- ./inp_files/308452.got.cif
#   From: 2010.05.17/outbox.cif.g08.bks.cpg/sg12_155_cif.got.tgz:308452.got - 2010.06.03 13:09:07.
