data_PCOD9202822
_publ_section_title
;
Structure prediction by ZEFSAII (Michael W. Deem and Ramdas Pophale) SiO2 
 PCOD9202822
Probable space group: C 2/M
;
_chemical_formula_sum "Si O2"
_cell_formula_units_Z 34
_cell_length_a 18.970285
_cell_length_b 10.243068
_cell_length_c 8.020841
_cell_angle_alpha 90.000000
_cell_angle_beta 91.615303
_cell_angle_gamma 90.000000
_cell_volume 1557.941712
_symmetry_space_group_name_H-M "C 2/M"
_symmetry_group_IT_number 12
_symmetry_cell_setting 'monoclinic'
loop_
_space_group_symop_operation_xyz
x,y,z
-x,y,-z
-x,-y,-z
x,-y,z
1/2+x,1/2+y,z
1/2-x,1/2+y,-z
1/2-x,1/2-y,-z
1/2+x,1/2-y,z
loop_
_atom_site_type_symbol
_atom_site_label
_atom_site_fract_x
_atom_site_fract_y
_atom_site_fract_z
Si Si1 0.236259 0.649055 0.252781
Si Si2 0.599065 0.154473 0.056480
Si Si3 0.500000 0.500000 0.500000
Si Si4 0.341537 0.855428 0.396259
Si Si5 0.522817 0.753305 0.730005
O O1 0.261170 0.500000 0.230992
O O2 0.179762 0.683162 0.107415
O O3 0.299443 0.747653 0.288454
O O4 0.190191 0.651572 0.420609
O O5 0.549462 0.181288 0.213011
O O6 0.592440 0.000000 0.014807
O O7 0.568606 0.240673 0.904602
O O8 0.508903 0.615035 0.644575
O O9 0.424699 0.829980 0.390705
O O10 0.326084 0.000000 0.329558
#
# Coordination Sequence:
#
# PCOD9202822 Si02
#       5
#     8   8   2   8   8
#     4   9  20  37  60  93 132 169 211 264 328 383
#     4  10  21  42  68  97 126 168 214 277 327 386
#     4  12  28  42  58  96 128 178 214 264 340 386
#     4  10  20  38  63  95 126 174 221 264 315 391
#     4  11  23  41  63  91 126 167 217 271 321 390
#
# _framework density 21.823668999999999
#
# number of rings (size 3 to 8) (size 9 to 14) (size 15 to 20)
#    0.000    1.882    0.000    4.235    1.647    2.824 
#   12.706    7.647    0.000    0.000    0.000    0.000 
#    0.000    0.000    0.000    0.000    0.000    0.000 
#
# Total GULP energy -94672.458853 kJ/mol
# GULP energy per Si atom -5568.968168 kJ/mol
# Density = 2.177400 g / cm^3
# Si number density = 21.823669 Si / 1000 Ang^3
#
#
#
# Elastic Constant Matrix: (Units=GPa)
#
#
# Indices 1 2 3 4 5 6 
#
# 1 82.8404 38.4013 21.8221 0.0000 -1.8853 0.0000
# 2 38.4013 110.8792 48.4283 0.0000 21.2640 0.0000
# 3 21.8221 48.4283 104.9796 0.0000 7.5333 0.0000
# 4 0.0000 0.0000 0.0000 26.2716 0.0000 6.4323
# 5 -1.8853 21.2640 7.5333 0.0000 47.4302 0.0000
# 6 0.0000 0.0000 0.0000 6.4323 0.0000 3.7633
#
#
#
# Elastic Compliance Matrix: (Units=1/GPa)
#
#
# Indices 1 2 3 4 5 6 
#
# 1 0.014857 -0.005385 -0.000829 0.000000 0.003136 0.000000
# 2 -0.005385 0.014178 -0.005007 0.000000 -0.005775 0.000000
# 3 -0.000829 -0.005007 0.011986 0.000000 0.000308 0.000000
# 4 0.000000 0.000000 0.000000 0.065456 0.000000 -0.111878
# 5 0.003136 -0.005775 0.000308 0.000000 0.023749 0.000000
# 6 0.000000 0.000000 0.000000 -0.111878 0.000000 0.456947
#
#
# Mechanical properties :
#
#
# Convention : Reuss Voigt Hill
#
# Bulk Modulus (GPa) = 53.82371 57.33362 55.57867
# Shear Modulus (GPa) = 8.11941 28.16286 18.14114
#
# Velocity S-wave (km/s) = 1.93094 3.59621 2.88629
# Velocity P-wave (km/s) = 5.44866 6.60091 6.05227
#
# Compressibility (1/GPa) = 0.01857917
#
# Stress axis : x y z
#
# Youngs Moduli (GPa) = 67.30614 70.53115 83.43327
#
# Poissons Ratio (x) = 0.37980 0.06920
# Poissons Ratio (y) = 0.36244 0.41773
# Poissons Ratio (z) = 0.05582 0.35313
#
# Static dielectric constant tensor:
#      x y z
#    x 1.787770 0.000000 -0.009600 
#    y 0.000000 1.738670 0.000000 
#    z -0.009600 0.000000 1.885090 
# 
# From -- ./inp_files/82045.got.cif
#   From: 2010.05.17/outbox.cif.g08.bks.cpg/sg12_42_cif.got.tgz:82045.got - 2010.06.03 13:09:07.
