data_PCOD9202322
_publ_section_title
;
Structure prediction by ZEFSAII (Michael W. Deem and Ramdas Pophale) SiO2 
 PCOD9202322
Probable space group: C 2/M
;
_chemical_formula_sum "Si O2"
_cell_formula_units_Z 50
_cell_length_a 13.100771
_cell_length_b 12.550586
_cell_length_c 14.162466
_cell_angle_alpha 90.000000
_cell_angle_beta 68.999757
_cell_angle_gamma 90.000000
_cell_volume 2173.956101
_symmetry_space_group_name_H-M "C 2/M"
_symmetry_group_IT_number 12
_symmetry_cell_setting 'monoclinic'
loop_
_space_group_symop_operation_xyz
x,y,z
-x,y,-z
-x,-y,-z
x,-y,z
1/2+x,1/2+y,z
1/2-x,1/2+y,-z
1/2-x,1/2-y,-z
1/2+x,1/2-y,z
loop_
_atom_site_type_symbol
_atom_site_label
_atom_site_fract_x
_atom_site_fract_y
_atom_site_fract_z
Si Si1 0.287955 0.384619 0.413814
Si Si2 0.000000 0.000000 0.000000
Si Si3 0.749714 0.155922 0.640392
Si Si4 0.475973 0.697292 0.614758
Si Si5 0.392510 0.879893 0.779198
Si Si6 0.823776 0.191758 0.055826
Si Si7 0.921863 0.383421 0.140552
O O1 0.267625 0.500000 0.378437
O O2 0.247246 0.284449 0.368784
O O3 0.237093 0.379681 0.536194
O O4 0.417262 0.364681 0.385786
O O5 0.907810 0.095774 0.004181
O O6 0.868120 0.125275 0.640786
O O7 0.656206 0.120893 0.741253
O O8 0.500000 0.735503 0.500000
O O9 0.448352 0.793106 0.693615
O O10 0.266570 0.855449 0.841794
O O11 0.457381 0.873399 0.857101
O O12 0.407765 0.000000 0.738482
O O13 0.887958 0.286099 0.087336
O O14 0.750000 0.250000 0.000000
O O15 0.906329 0.500000 0.101175
#
# Coordination Sequence:
#
# PCOD9202322 Si02
#       7
#     8   2   8   8   8   8   8
#     4  10  21  37  60  90 135 188 242 300 347 416
#     4  12  28  56  86 114 150 192 238 326 384 478
#     4  10  20  38  60  95 136 182 242 292 356 426
#     4  10  21  38  61  95 140 188 242 292 350 429
#     4  11  23  44  68  98 144 184 232 302 364 441
#     4  12  27  51  79 112 143 186 247 309 397 463
#     4  11  24  43  72 105 142 189 239 303 374 459
#
# _framework density 22.999545000000001
#
# number of rings (size 3 to 8) (size 9 to 14) (size 15 to 20)
#    0.000    1.280    4.000    1.440    1.120    4.480 
#    1.440    2.000    0.000    0.000    0.000    0.000 
#    0.000    0.000    0.000    0.000    0.000    0.000 
#
# Total GULP energy -139575.707457 kJ/mol
# GULP energy per Si atom -5583.028298 kJ/mol
# Density = 2.294720 g / cm^3
# Si number density = 22.999545 Si / 1000 Ang^3
#
#
#
# Elastic Constant Matrix: (Units=GPa)
#
#
# Indices 1 2 3 4 5 6 
#
# 1 112.4838 34.8937 20.2599 0.0000 -0.8324 0.0000
# 2 34.8937 198.9904 29.3664 0.0000 11.3319 0.0000
# 3 20.2599 29.3664 65.6307 0.0000 -15.8625 0.0000
# 4 0.0000 0.0000 0.0000 -0.3855 0.0000 -7.8299
# 5 -0.8324 11.3319 -15.8625 0.0000 36.1691 0.0000
# 6 0.0000 0.0000 0.0000 -7.8299 0.0000 7.9606
#
#
#
# Elastic Compliance Matrix: (Units=1/GPa)
#
#
# Indices 1 2 3 4 5 6 
#
# 1 0.009750 -0.001307 -0.002541 0.000000 -0.000480 0.000000
# 2 -0.001307 0.005878 -0.002997 0.000000 -0.003186 0.000000
# 3 -0.002541 -0.002997 0.019659 0.000000 0.009502 0.000000
# 4 0.000000 0.000000 0.000000 -0.123657 0.000000 -0.121627
# 5 -0.000480 -0.003186 0.009502 0.000000 0.032802 0.000000
# 6 0.000000 0.000000 0.000000 -0.121627 0.000000 0.005988
#
#
# Mechanical properties :
#
#
# Convention : Reuss Voigt Hill
#
# Bulk Modulus (GPa) = 46.30301 60.68277 53.49289
# Shear Modulus (GPa) = -174.26969 28.25451 -73.00759
#
# Velocity S-wave (km/s) = -8.71409 3.50877 -5.64021
# Velocity P-wave (km/s) = 9.00396 6.54652 4.37118
#
# Compressibility (1/GPa) = 0.02159687
#
# Stress axis : x y z
#
# Youngs Moduli (GPa) = 102.56611 170.11732 50.86840
#
# Poissons Ratio (x) = 0.22240 0.12925
# Poissons Ratio (y) = 0.13409 0.15244
# Poissons Ratio (z) = 0.26060 0.50979
#
# Static dielectric constant tensor:
#      x y z
#    x 1.883760 0.000000 -0.005020 
#    y 0.000000 1.848210 0.000000 
#    z -0.005020 0.000000 1.869820 
# 
# From -- ./inp_files/213319.got.cif
#   From: 2010.05.17/outbox.cif.g08.bks.cpg/sg12_107_cif.got.tgz:213319.got - 2010.06.03 13:09:07.
