data_PCOD9202976
_publ_section_title
;
Structure prediction by ZEFSAII (Michael W. Deem and Ramdas Pophale) SiO2 
 PCOD9202976
Probable space group: C 2/M
;
_chemical_formula_sum "Si O2"
_cell_formula_units_Z 40
_cell_length_a 13.206728
_cell_length_b 11.262329
_cell_length_c 12.464730
_cell_angle_alpha 90.000000
_cell_angle_beta 77.653426
_cell_angle_gamma 90.000000
_cell_volume 1811.106623
_symmetry_space_group_name_H-M "C 2/M"
_symmetry_group_IT_number 12
_symmetry_cell_setting 'monoclinic'
loop_
_space_group_symop_operation_xyz
x,y,z
-x,y,-z
-x,-y,-z
x,-y,z
1/2+x,1/2+y,z
1/2-x,1/2+y,-z
1/2-x,1/2-y,-z
1/2+x,1/2-y,z
loop_
_atom_site_type_symbol
_atom_site_label
_atom_site_fract_x
_atom_site_fract_y
_atom_site_fract_z
Si Si1 0.872480 0.000000 0.260264
Si Si2 0.126033 0.261062 0.037252
Si Si3 0.691420 0.000000 0.479036
Si Si4 0.853265 0.500000 0.078162
Si Si5 0.281713 0.500000 0.697542
Si Si6 0.952325 0.808829 0.728474
Si Si7 0.351526 0.500000 0.020775
Si Si8 0.000000 0.322901 0.500000
O O1 0.825610 0.000000 0.151970
O O2 0.950712 0.888937 0.255624
O O3 0.780504 0.000000 0.368085
O O4 0.084736 0.277655 0.167565
O O5 0.250000 0.250000 0.000000
O O6 0.100761 0.372589 0.966879
O O7 0.094700 0.125205 0.017661
O O8 0.608880 0.106837 0.486234
O O9 0.750595 0.000000 0.580084
O O10 0.822823 0.500000 0.208995
O O11 0.747317 0.500000 0.033645
O O12 0.353125 0.389464 0.718294
O O13 0.988704 0.748619 0.611704
#
# Coordination Sequence:
#
# PCOD9202976 Si02
#       8
#     4   8   4   4   4   8   4   4
#     4  11  26  42  72 108 138 187 241 302 346 437
#     4  10  20  38  65 105 139 194 227 291 350 418
#     4  11  28  47  68  98 135 188 240 298 371 432
#     4  10  21  37  67 107 137 199 228 291 355 414
#     4  11  21  44  70  97 141 179 242 286 354 430
#     4  11  23  43  68 104 144 179 240 294 353 431
#     4  10  20  39  65 104 139 188 239 280 351 422
#     4  11  28  47  68  98 134 185 236 305 372 432
#
# _framework density 22.085946
#
# number of rings (size 3 to 8) (size 9 to 14) (size 15 to 20)
#    0.000    1.400    4.000    1.800    5.600    8.800 
#    0.000    0.000    0.000    3.600    0.000    0.000 
#    0.000    0.000    0.000    0.000    0.000    0.000 
#
# Total GULP energy -111616.587682 kJ/mol
# GULP energy per Si atom -5580.829384 kJ/mol
# Density = 2.203568 g / cm^3
# Si number density = 22.085946 Si / 1000 Ang^3
#
#
#
# Elastic Constant Matrix: (Units=GPa)
#
#
# Indices 1 2 3 4 5 6 
#
# 1 96.4241 -24.5801 8.5198 0.0000 -17.1192 0.0000
# 2 -24.5801 91.4782 21.0465 0.0000 -16.3272 0.0000
# 3 8.5198 21.0465 203.1471 0.0000 -20.6076 0.0000
# 4 0.0000 0.0000 0.0000 -206.8398 0.0000 -248.5829
# 5 -17.1192 -16.3272 -20.6076 0.0000 40.4206 0.0000
# 6 0.0000 0.0000 0.0000 -248.5829 0.0000 -346.2469
#
#
#
# Elastic Compliance Matrix: (Units=1/GPa)
#
#
# Indices 1 2 3 4 5 6 
#
# 1 0.012923 0.004841 -0.000306 0.000000 0.007273 0.000000
# 2 0.004841 0.013712 -0.000900 0.000000 0.007130 0.000000
# 3 -0.000306 -0.000900 0.005250 0.000000 0.002184 0.000000
# 4 0.000000 0.000000 0.000000 -0.035244 0.000000 0.025303
# 5 0.007273 0.007130 0.002184 0.000000 0.031813 0.000000
# 6 0.000000 0.000000 0.000000 0.025303 0.000000 -0.021054
#
#
# Mechanical properties :
#
#
# Convention : Reuss Voigt Hill
#
# Bulk Modulus (GPa) = 25.53971 44.55796 35.04884
# Shear Modulus (GPa) = 379.30454 -76.79567 151.25444
#
# Velocity S-wave (km/s) = 13.11919 -5.90312 8.28451
# Velocity P-wave (km/s) = 15.52652 5.12287 10.36410
#
# Compressibility (1/GPa) = 0.03915471
#
# Stress axis : x y z
#
# Youngs Moduli (GPa) = 77.38089 72.92881 190.47111
#
# Poissons Ratio (x) = -0.35304 0.05823
# Poissons Ratio (y) = -0.37459 0.17149
# Poissons Ratio (z) = 0.02366 0.06566
#
# Static dielectric constant tensor:
#      x y z
#    x 1.771100 0.000000 0.014310 
#    y 0.000000 1.872580 0.000000 
#    z 0.014310 0.000000 1.752990 
# 
# From -- ./inp_files/140907.got.cif
#   From: 2010.05.17/outbox.cif.g08.bks.cpg/sg12_71_cif.got.tgz:140907.got - 2010.06.03 13:09:07.
