data_PCOD9202704
_publ_section_title
;
Structure prediction by ZEFSAII (Michael W. Deem and Ramdas Pophale) SiO2 
 PCOD9202704
Probable space group: C 2/M
;
_chemical_formula_sum "Si O2"
_cell_formula_units_Z 42
_cell_length_a 5.220576
_cell_length_b 18.864618
_cell_length_c 18.688360
_cell_angle_alpha 90.000000
_cell_angle_beta 80.223228
_cell_angle_gamma 90.000000
_cell_volume 1813.777639
_symmetry_space_group_name_H-M "C 2/M"
_symmetry_group_IT_number 12
_symmetry_cell_setting 'monoclinic'
loop_
_space_group_symop_operation_xyz
x,y,z
-x,y,-z
-x,-y,-z
x,-y,z
1/2+x,1/2+y,z
1/2-x,1/2+y,-z
1/2-x,1/2-y,-z
1/2+x,1/2-y,z
loop_
_atom_site_type_symbol
_atom_site_label
_atom_site_fract_x
_atom_site_fract_y
_atom_site_fract_z
Si Si1 0.711325 0.084692 0.267150
Si Si2 0.727785 0.219455 0.581134
Si Si3 0.134503 0.078503 0.137159
Si Si4 0.966950 0.294640 0.086818
Si Si5 0.166745 0.916429 0.354655
Si Si6 0.000000 0.000000 0.000000
O O1 0.894516 0.108846 0.193574
O O2 0.892767 0.096074 0.328563
O O3 0.412601 0.105729 0.292839
O O4 0.697626 0.000000 0.257921
O O5 0.750000 0.250000 0.500000
O O6 0.438807 0.239191 0.617954
O O7 0.795475 0.136974 0.581513
O O8 0.374586 0.131356 0.124325
O O9 0.208635 0.000000 0.163859
O O10 0.049741 0.060684 0.060055
O O11 0.726283 0.240255 0.104635
O O12 0.000000 0.306286 0.000000
O O13 0.188827 0.000000 0.370309
#
# Coordination Sequence:
#
# PCOD9202704 Si02
#       6
#     8   8   8   8   8   2
#     4   9  19  37  60  89 121 156 205 264 303 357
#     4  10  21  39  61  92 130 163 198 248 309 354
#     4   9  20  39  61  90 116 155 209 261 312 377
#     4  10  23  39  57  78 112 150 189 242 312 372
#     4  10  20  38  63  87 118 166 208 244 302 362
#     4   8  20  36  66  92 118 152 212 264 326 360
#
# _framework density 23.156089999999999
#
# number of rings (size 3 to 8) (size 9 to 14) (size 15 to 20)
#    0.571    1.905    0.000    1.143    4.000    1.905 
#    0.000   12.381    0.000    0.571    0.000    0.000 
#    0.000    0.000    0.000    0.000    0.000    0.000 
#
# Total GULP energy -116958.074115 kJ/mol
# GULP energy per Si atom -5569.432101 kJ/mol
# Density = 2.310339 g / cm^3
# Si number density = 23.156090 Si / 1000 Ang^3
#
#
#
# Elastic Constant Matrix: (Units=GPa)
#
#
# Indices 1 2 3 4 5 6 
#
# 1 107.5653 13.6714 12.3430 0.0000 -9.4457 0.0000
# 2 13.6714 97.3228 37.0473 0.0000 1.7846 0.0000
# 3 12.3430 37.0473 49.8059 0.0000 0.1941 0.0000
# 4 0.0000 0.0000 0.0000 26.1111 0.0000 -9.9587
# 5 -9.4457 1.7846 0.1941 0.0000 26.6508 0.0000
# 6 0.0000 0.0000 0.0000 -9.9587 0.0000 28.2474
#
#
#
# Elastic Compliance Matrix: (Units=1/GPa)
#
#
# Indices 1 2 3 4 5 6 
#
# 1 0.009925 -0.000723 -0.001936 0.000000 0.003580 0.000000
# 2 -0.000723 0.014407 -0.010533 0.000000 -0.001144 0.000000
# 3 -0.001936 -0.010533 0.028393 0.000000 -0.000188 0.000000
# 4 0.000000 0.000000 0.000000 0.044248 0.000000 0.015600
# 5 0.003580 -0.001144 -0.000188 0.000000 0.038869 0.000000
# 6 0.000000 0.000000 0.000000 0.015600 0.000000 0.040901
#
#
# Mechanical properties :
#
#
# Convention : Reuss Voigt Hill
#
# Bulk Modulus (GPa) = 37.96223 42.31304 40.13764
# Shear Modulus (GPa) = 23.59524 28.97736 26.28630
#
# Velocity S-wave (km/s) = 3.19559 3.54134 3.37290
# Velocity P-wave (km/s) = 5.48136 5.91896 5.70436
#
# Compressibility (1/GPa) = 0.02634197
#
# Stress axis : x y z
#
# Youngs Moduli (GPa) = 100.75467 69.41024 35.21986
#
# Poissons Ratio (x) = 0.05018 0.06818
# Poissons Ratio (y) = 0.07284 0.37097
# Poissons Ratio (z) = 0.19504 0.73109
#
# Static dielectric constant tensor:
#      x y z
#    x 1.934290 0.000000 -0.025360 
#    y 0.000000 1.893040 0.000000 
#    z -0.025360 0.000000 1.903400 
# 
# From -- ./inp_files/297603.got.cif
#   From: 2010.05.17/outbox.cif.g08.bks.cpg/sg12_149_cif.got.tgz:297603.got - 2010.06.03 13:09:07.
