data_PCOD9202874
_publ_section_title
;
Structure prediction by ZEFSAII (Michael W. Deem and Ramdas Pophale) SiO2 
 PCOD9202874
Probable space group: C 2/M
;
_chemical_formula_sum "Si O2"
_cell_formula_units_Z 64
_cell_length_a 15.181158
_cell_length_b 17.079227
_cell_length_c 19.067933
_cell_angle_alpha 90.000000
_cell_angle_beta 41.302112
_cell_angle_gamma 90.000000
_cell_volume 3263.172129
_symmetry_space_group_name_H-M "C 2/M"
_symmetry_group_IT_number 12
_symmetry_cell_setting 'monoclinic'
loop_
_space_group_symop_operation_xyz
x,y,z
-x,y,-z
-x,-y,-z
x,-y,z
1/2+x,1/2+y,z
1/2-x,1/2+y,-z
1/2-x,1/2-y,-z
1/2+x,1/2-y,z
loop_
_atom_site_type_symbol
_atom_site_label
_atom_site_fract_x
_atom_site_fract_y
_atom_site_fract_z
Si Si1 0.803569 0.332242 0.119476
Si Si2 0.750269 0.091920 0.371525
Si Si3 0.863271 0.654643 0.309930
Si Si4 0.965666 0.914347 0.725463
Si Si5 0.406431 0.371089 0.489660
Si Si6 0.254984 0.781968 0.730542
Si Si7 0.432737 0.203813 0.423940
Si Si8 0.002554 0.409891 0.099449
O O1 0.650960 0.352364 0.194642
O O2 0.807511 0.250567 0.159676
O O3 0.865082 0.394680 0.138514
O O4 0.894404 0.348853 0.997662
O O5 0.895415 0.101921 0.319456
O O6 0.766201 0.131174 0.285855
O O7 0.641611 0.139970 0.482661
O O8 0.717216 0.000000 0.389680
O O9 0.737479 0.598049 0.401557
O O10 0.801774 0.723825 0.296559
O O11 0.923107 0.682188 0.348069
O O12 0.972091 0.611747 0.197264
O O13 0.008171 0.915232 0.618923
O O14 0.916214 0.000000 0.776943
O O15 0.500000 0.359975 0.500000
O O16 0.367962 0.288141 0.477098
O O17 0.414759 0.780215 0.644367
O O18 0.044258 0.500000 0.065797
#
# Coordination Sequence:
#
# PCOD9202874 Si02
#       8
#     8   8   8   8   8   8   8   8
#     4  10  20  38  64  90 115 159 209 252 310 365
#     4  11  24  39  58  88 127 168 203 249 308 368
#     4  11  22  35  59  88 122 161 204 248 306 364
#     4  11  22  35  57  91 124 160 205 250 308 374
#     4  12  19  33  55  84 122 161 195 245 312 360
#     4  11  22  37  62  88 118 159 213 255 299 365
#     4  12  21  37  60  84 123 167 207 252 296 367
#     4  10  21  39  62  89 127 161 197 257 316 368
#
# _framework density 19.612817
#
# number of rings (size 3 to 8) (size 9 to 14) (size 15 to 20)
#    0.000    1.000    5.000    3.750    0.000    2.250 
#    0.000    0.625    5.500    0.000    0.000    7.000 
#    0.000    0.000    0.000    0.000    0.000    0.000 
#
# Total GULP energy -178527.403978 kJ/mol
# GULP energy per Si atom -5578.981374 kJ/mol
# Density = 1.956818 g / cm^3
# Si number density = 19.612817 Si / 1000 Ang^3
#
#
#
# Elastic Constant Matrix: (Units=GPa)
#
#
# Indices 1 2 3 4 5 6 
#
# 1 67.8785 26.8669 25.9805 0.0000 9.0136 0.0000
# 2 26.8669 93.5939 45.6771 0.0000 0.3649 0.0000
# 3 25.9805 45.6771 105.7127 0.0000 13.9215 0.0000
# 4 0.0000 0.0000 0.0000 11.5936 0.0000 6.2930
# 5 9.0136 0.3649 13.9215 0.0000 22.9475 0.0000
# 6 0.0000 0.0000 0.0000 6.2930 0.0000 8.4197
#
#
#
# Elastic Compliance Matrix: (Units=1/GPa)
#
#
# Indices 1 2 3 4 5 6 
#
# 1 0.017872 -0.004234 -0.001790 0.000000 -0.005867 0.000000
# 2 -0.004234 0.014825 -0.006036 0.000000 0.005089 0.000000
# 3 -0.001790 -0.006036 0.013479 0.000000 -0.007378 0.000000
# 4 0.000000 0.000000 0.000000 0.145135 0.000000 -0.108476
# 5 -0.005867 0.005089 -0.007378 0.000000 0.050277 0.000000
# 6 0.000000 0.000000 0.000000 -0.108476 0.000000 0.199846
#
#
# Mechanical properties :
#
#
# Convention : Reuss Voigt Hill
#
# Bulk Modulus (GPa) = 45.33611 51.58155 48.45883
# Shear Modulus (GPa) = 10.57289 19.83621 15.20455
#
# Velocity S-wave (km/s) = 2.32433 3.18369 2.78733
# Velocity P-wave (km/s) = 5.51082 6.31439 5.92624
#
# Compressibility (1/GPa) = 0.02205747
#
# Stress axis : x y z
#
# Youngs Moduli (GPa) = 55.95257 67.45140 74.18868
#
# Poissons Ratio (x) = 0.28557 0.13283
# Poissons Ratio (y) = 0.23689 0.44777
# Poissons Ratio (z) = 0.10018 0.40711
#
# Static dielectric constant tensor:
#      x y z
#    x 1.719600 0.000000 -0.005470 
#    y 0.000000 1.731360 0.000000 
#    z -0.005470 0.000000 1.717150 
# 
# From -- ./inp_files/271675.got.cif
#   From: 2010.05.17/outbox.cif.g08.bks.cpg/sg12_136_cif.got.tgz:271675.got - 2010.06.03 13:09:07.
