data_PCOD9202063
_publ_section_title
;
Structure prediction by ZEFSAII (Michael W. Deem and Ramdas Pophale) SiO2 
 PCOD9202063
Probable space group: C 2/M
;
_chemical_formula_sum "Si O2"
_cell_formula_units_Z 56
_cell_length_a 19.425360
_cell_length_b 8.547243
_cell_length_c 25.174734
_cell_angle_alpha 90.000000
_cell_angle_beta 46.588412
_cell_angle_gamma 90.000000
_cell_volume 3036.387486
_symmetry_space_group_name_H-M "C 2/M"
_symmetry_group_IT_number 12
_symmetry_cell_setting 'monoclinic'
loop_
_space_group_symop_operation_xyz
x,y,z
-x,y,-z
-x,-y,-z
x,-y,z
1/2+x,1/2+y,z
1/2-x,1/2+y,-z
1/2-x,1/2-y,-z
1/2+x,1/2-y,z
loop_
_atom_site_type_symbol
_atom_site_label
_atom_site_fract_x
_atom_site_fract_y
_atom_site_fract_z
Si Si1 0.506407 0.190219 0.733175
Si Si2 0.999548 0.681708 0.563286
Si Si3 0.795041 0.322032 0.696155
Si Si4 0.705708 0.822725 0.176430
Si Si5 0.590274 0.310363 0.917879
Si Si6 0.902501 0.315163 0.204906
Si Si7 0.355400 0.684511 0.433372
O O1 0.397918 0.246288 0.780923
O O2 0.536345 0.236693 0.776912
O O3 0.582973 0.247963 0.648980
O O4 0.506069 0.000000 0.729598
O O5 0.003414 0.500000 0.580533
O O6 0.082690 0.773232 0.547603
O O7 0.000000 0.679721 0.500000
O O8 0.897139 0.749215 0.631746
O O9 0.792053 0.500000 0.675696
O O10 0.788866 0.333786 0.762761
O O11 0.706136 0.225870 0.723371
O O12 0.809554 0.750354 0.110272
O O13 0.704751 0.000000 0.154400
O O14 0.595603 0.500000 0.916138
O O15 0.578654 0.261572 0.862467
O O16 0.500000 0.260209 0.000000
O O17 0.913909 0.500000 0.192743
O O18 0.347972 0.500000 0.429672
O O19 0.250000 0.750000 0.500000
#
# Coordination Sequence:
#
# PCOD9202063 Si02
#       7
#     8   8   8   8   8   8   8
#     4  10  20  38  58  79 111 150 190 231 284 343
#     4  10  21  38  59  82 109 144 187 233 288 346
#     4   9  17  33  55  76 104 143 184 225 270 331
#     4   8  14  30  56  77 100 140 182 219 265 325
#     4   9  18  35  59  84 110 145 189 230 271 332
#     4  10  21  33  53  83 114 143 179 231 282 330
#     4  12  26  41  58  81 113 152 194 242 292 338
#
# _framework density 18.442969000000002
#
# number of rings (size 3 to 8) (size 9 to 14) (size 15 to 20)
#    0.000    2.286    1.429    2.571    2.000    2.286 
#    0.000    0.714    0.000    0.000    0.000    0.000 
#    0.000    0.000    0.000    0.000    0.000    0.000 
#
# Total GULP energy -155941.682255 kJ/mol
# GULP energy per Si atom -5569.345795 kJ/mol
# Density = 1.840099 g / cm^3
# Si number density = 18.442969 Si / 1000 Ang^3
#
#
#
# Elastic Constant Matrix: (Units=GPa)
#
#
# Indices 1 2 3 4 5 6 
#
# 1 140.3916 24.1698 73.1852 0.0000 -20.8138 0.0005
# 2 24.1698 30.0611 22.0099 0.0001 -3.6151 0.0008
# 3 73.1852 22.0099 118.0873 0.0000 -35.1357 0.0000
# 4 0.0000 0.0001 0.0000 19.2840 0.0000 1.5075
# 5 -20.8138 -3.6151 -35.1357 0.0000 31.0385 0.0000
# 6 0.0005 0.0008 0.0000 1.5075 0.0000 30.8996
#
#
#
# Elastic Compliance Matrix: (Units=1/GPa)
#
#
# Indices 1 2 3 4 5 6 
#
# 1 0.011018 -0.004483 -0.005956 0.000000 0.000124 0.000000
# 2 -0.004483 0.040977 -0.006535 0.000000 -0.005631 -0.000001
# 3 -0.005956 -0.006535 0.018038 0.000000 0.015664 0.000000
# 4 0.000000 0.000000 0.000000 0.052055 0.000000 -0.002540
# 5 0.000124 -0.005631 0.015664 0.000000 0.049378 0.000000
# 6 0.000000 -0.000001 0.000000 -0.002540 0.000000 0.032487
#
#
# Mechanical properties :
#
#
# Convention : Reuss Voigt Hill
#
# Bulk Modulus (GPa) = 27.71129 58.58556 43.14843
# Shear Modulus (GPa) = 20.00570 27.52276 23.76423
#
# Velocity S-wave (km/s) = 3.29710 3.86724 3.59350
# Velocity P-wave (km/s) = 5.43622 7.19552 6.37683
#
# Compressibility (1/GPa) = 0.03608637
#
# Stress axis : x y z
#
# Youngs Moduli (GPa) = 90.76144 24.40374 55.43767
#
# Poissons Ratio (x) = 0.10940 0.33018
# Poissons Ratio (y) = 0.40688 0.36227
# Poissons Ratio (z) = 0.54057 0.15947
#
# Static dielectric constant tensor:
#      x y z
#    x 1.650100 0.000000 -0.017350 
#    y 0.000000 1.658120 0.000000 
#    z -0.017350 0.000000 1.690080 
# 
# From -- ./inp_files/342352.got.cif
#   From: 2010.05.17/outbox.cif.g08.bks.cpg/sg12_172_cif.got.tgz:342352.got - 2010.06.03 13:09:07.
