data_PCOD9202044
_publ_section_title
;
Structure prediction by ZEFSAII (Michael W. Deem and Ramdas Pophale) SiO2 
 PCOD9202044
Probable space group: C 2/M
;
_chemical_formula_sum "Si O2"
_cell_formula_units_Z 52
_cell_length_a 23.249102
_cell_length_b 7.743174
_cell_length_c 21.880517
_cell_angle_alpha 90.000000
_cell_angle_beta 37.929542
_cell_angle_gamma 90.000000
_cell_volume 2421.253846
_symmetry_space_group_name_H-M "C 2/M"
_symmetry_group_IT_number 12
_symmetry_cell_setting 'monoclinic'
loop_
_space_group_symop_operation_xyz
x,y,z
-x,y,-z
-x,-y,-z
x,-y,z
1/2+x,1/2+y,z
1/2-x,1/2+y,-z
1/2-x,1/2-y,-z
1/2+x,1/2-y,z
loop_
_atom_site_type_symbol
_atom_site_label
_atom_site_fract_x
_atom_site_fract_y
_atom_site_fract_z
Si Si1 0.394208 0.203788 0.097258
Si Si2 0.019568 0.204254 0.324003
Si Si3 0.157952 0.500000 0.194623
Si Si4 0.811988 0.803209 0.506389
Si Si5 0.838595 0.800141 0.274020
Si Si6 0.032939 0.202050 0.166210
Si Si7 0.290798 0.193076 0.054670
O O1 0.342447 0.286901 0.197997
O O2 0.337608 0.221372 0.082239
O O3 0.402196 0.000000 0.104424
O O4 0.500000 0.272378 0.000000
O O5 0.096536 0.343440 0.279511
O O6 0.022375 0.214303 0.247496
O O7 0.915363 0.272777 0.427819
O O8 0.034283 0.000000 0.329127
O O9 0.219520 0.348194 0.107944
O O10 0.750000 0.750000 0.500000
O O11 0.747906 0.786184 0.619690
O O12 0.834887 0.000000 0.474188
O O13 0.937746 0.728874 0.215325
O O14 0.834901 0.000000 0.296166
O O15 0.041958 0.000000 0.141612
O O16 0.123229 0.295089 0.064148
O O17 0.248835 0.000000 0.086837
#
# Coordination Sequence:
#
# PCOD9202044 Si02
#       7
#     8   8   4   8   8   8   8
#     4  10  21  38  61  92 128 165 204 261 326 377
#     4  10  24  43  62  90 127 169 212 262 313 377
#     4  12  26  44  65  85 124 179 221 263 312 362
#     4  11  22  38  63  93 131 164 202 255 324 387
#     4  11  22  34  62  97 131 165 202 251 317 395
#     4  10  20  38  57  91 133 166 206 256 315 378
#     4  11  24  41  63  91 128 169 218 263 310 376
#
# _framework density 21.476476000000002
#
# number of rings (size 3 to 8) (size 9 to 14) (size 15 to 20)
#    0.000    1.385    3.846    1.385    4.308    1.538 
#    0.000    0.000    0.000    1.846    0.000    4.308 
#    0.000    0.000    0.000    0.000    0.000    0.000 
#
# Total GULP energy -144753.906329 kJ/mol
# GULP energy per Si atom -5567.457936 kJ/mol
# Density = 2.142759 g / cm^3
# Si number density = 21.476476 Si / 1000 Ang^3
#
#
#
# Elastic Constant Matrix: (Units=GPa)
#
#
# Indices 1 2 3 4 5 6 
#
# 1 27.1866 21.2624 13.3744 -0.0115 3.2431 0.0023
# 2 21.2624 98.4289 20.7622 -0.0153 -9.4123 0.0032
# 3 13.3744 20.7622 133.1993 -0.0071 -13.8220 0.0016
# 4 -0.0115 -0.0153 -0.0071 31.4638 0.0052 -1.2622
# 5 3.2431 -9.4123 -13.8220 0.0052 29.4937 -0.0019
# 6 0.0023 0.0032 0.0016 -1.2622 -0.0019 16.7291
#
#
#
# Elastic Compliance Matrix: (Units=1/GPa)
#
#
# Indices 1 2 3 4 5 6 
#
# 1 0.048472 -0.010584 -0.004332 0.000013 -0.010738 -0.000005
# 2 -0.010584 0.013027 -0.000437 0.000002 0.005116 0.000000
# 3 -0.004332 -0.000437 0.008457 -0.000001 0.004300 0.000000
# 4 0.000013 0.000002 -0.000001 0.031879 -0.000007 0.002405
# 5 -0.010738 0.005116 0.004300 -0.000007 0.038734 0.000004
# 6 -0.000005 0.000000 0.000000 0.002405 0.000004 0.059958
#
#
# Mechanical properties :
#
#
# Convention : Reuss Voigt Hill
#
# Bulk Modulus (GPa) = 25.47670 41.06808 33.27239
# Shear Modulus (GPa) = 20.46528 29.09838 24.78183
#
# Velocity S-wave (km/s) = 3.09028 3.68488 3.40060
# Velocity P-wave (km/s) = 4.96200 6.10478 5.56282
#
# Compressibility (1/GPa) = 0.03925155
#
# Stress axis : x y z
#
# Youngs Moduli (GPa) = 20.63031 76.76133 118.24811
#
# Poissons Ratio (x) = 0.81244 0.51220
# Poissons Ratio (y) = 0.21835 0.05167
# Poissons Ratio (z) = 0.08936 0.03354
#
# Static dielectric constant tensor:
#      x y z
#    x 1.806250 0.000000 -0.055400 
#    y 0.000000 1.804110 0.000000 
#    z -0.055400 0.000000 1.810870 
# 
# From -- ./inp_files/186899.got.cif
#   From: 2010.05.17/outbox.cif.g08.bks.cpg/sg12_94_cif.got.tgz:186899.got - 2010.06.03 13:09:07.
