data_PCOD9202064
_publ_section_title
;
Structure prediction by ZEFSAII (Michael W. Deem and Ramdas Pophale) SiO2 
 PCOD9202064
Probable space group: C 2/M
;
_chemical_formula_sum "Si O2"
_cell_formula_units_Z 40
_cell_length_a 10.979007
_cell_length_b 12.902958
_cell_length_c 18.499770
_cell_angle_alpha 90.000000
_cell_angle_beta 138.227723
_cell_angle_gamma 90.000000
_cell_volume 1745.841634
_symmetry_space_group_name_H-M "C 2/M"
_symmetry_group_IT_number 12
_symmetry_cell_setting 'monoclinic'
loop_
_space_group_symop_operation_xyz
x,y,z
-x,y,-z
-x,-y,-z
x,-y,z
1/2+x,1/2+y,z
1/2-x,1/2+y,-z
1/2-x,1/2-y,-z
1/2+x,1/2-y,z
loop_
_atom_site_type_symbol
_atom_site_label
_atom_site_fract_x
_atom_site_fract_y
_atom_site_fract_z
Si Si1 0.977092 0.160587 0.106301
Si Si2 0.590086 0.886975 0.883576
Si Si3 0.610294 0.156927 0.730836
Si Si4 0.140645 0.672318 0.503345
Si Si5 0.025542 0.113493 0.727461
O O1 0.974316 0.286152 0.101578
O O2 0.180111 0.123843 0.180018
O O3 0.934083 0.128946 0.169893
O O4 0.811279 0.120500 0.984766
O O5 0.531886 0.872699 0.774434
O O6 0.534610 0.000000 0.886115
O O7 0.490024 0.115295 0.611728
O O8 0.603699 0.283480 0.723879
O O9 0.250000 0.750000 0.500000
O O10 0.305640 0.616683 0.618016
O O11 0.000000 0.718157 0.500000
O O12 0.090815 0.000000 0.732064
#
# Coordination Sequence:
#
# PCOD9202064 Si02
#       5
#     8   8   8   8   8
#     4  10  20  38  58  79 115 154 190 242 298 354
#     4  10  22  37  56  85 114 148 195 245 297 355
#     4  10  21  37  58  81 116 154 192 241 299 354
#     4  10  20  38  62  86 121 161 198 247 304 355
#     4  10  21  36  57  86 116 151 197 244 294 354
#
# _framework density 22.911584999999999
#
# number of rings (size 3 to 8) (size 9 to 14) (size 15 to 20)
#    0.000    2.000    2.000    1.200    0.000    4.400 
#    0.000    0.000    0.000    9.600    0.000    0.000 
#    0.000    0.000    0.000    0.000    0.000    0.000 
#
# Total GULP energy -111618.970611 kJ/mol
# GULP energy per Si atom -5580.948531 kJ/mol
# Density = 2.285944 g / cm^3
# Si number density = 22.911585 Si / 1000 Ang^3
#
#
#
# Elastic Constant Matrix: (Units=GPa)
#
#
# Indices 1 2 3 4 5 6 
#
# 1 59.3493 7.9352 19.6472 0.0000 7.7666 0.0000
# 2 7.9352 160.9383 -4.3694 0.0000 3.0980 0.0000
# 3 19.6472 -4.3694 137.0449 0.0000 -4.7646 0.0000
# 4 0.0000 0.0000 0.0000 -10.6892 0.0000 -0.7982
# 5 7.7666 3.0980 -4.7646 0.0000 42.2811 0.0000
# 6 0.0000 0.0000 0.0000 -0.7982 0.0000 -6.4280
#
#
#
# Elastic Compliance Matrix: (Units=1/GPa)
#
#
# Indices 1 2 3 4 5 6 
#
# 1 0.018368 -0.000912 -0.002788 0.000000 -0.003621 0.000000
# 2 -0.000912 0.006272 0.000322 0.000000 -0.000256 0.000000
# 3 -0.002788 0.000322 0.007754 0.000000 0.001362 0.000000
# 4 0.000000 0.000000 0.000000 -0.094428 0.000000 0.011726
# 5 -0.003621 -0.000256 0.001362 0.000000 0.024489 0.000000
# 6 0.000000 0.000000 0.000000 0.011726 0.000000 -0.157027
#
#
# Mechanical properties :
#
#
# Convention : Reuss Voigt Hill
#
# Bulk Modulus (GPa) = 39.00413 44.86206 41.93310
# Shear Modulus (GPa) = -27.89104 27.30743 -0.29180
#
# Velocity S-wave (km/s) = -3.49282 3.45608 -0.35726
# Velocity P-wave (km/s) = 0.89127 5.96230 4.26283
#
# Compressibility (1/GPa) = 0.02563831
#
# Stress axis : x y z
#
# Youngs Moduli (GPa) = 54.44177 159.43441 128.96165
#
# Poissons Ratio (x) = 0.14535 0.35958
# Poissons Ratio (y) = 0.04963 -0.04150
# Poissons Ratio (z) = 0.15180 -0.05130
#
# Static dielectric constant tensor:
#      x y z
#    x 1.820700 0.000000 0.016480 
#    y 0.000000 1.937840 0.000000 
#    z 0.016480 0.000000 1.858130 
# 
# From -- ./inp_files/176338.got.cif
#   From: 2010.05.17/outbox.cif.g08.bks.cpg/sg12_89_cif.got.tgz:176338.got - 2010.06.03 13:09:07.
