data_PCOD9202846
_publ_section_title
;
Structure prediction by ZEFSAII (Michael W. Deem and Ramdas Pophale) SiO2 
 PCOD9202846
Probable space group: C 2/M
;
_chemical_formula_sum "Si O2"
_cell_formula_units_Z 48
_cell_length_a 16.543116
_cell_length_b 12.885785
_cell_length_c 21.965543
_cell_angle_alpha 90.000000
_cell_angle_beta 29.226235
_cell_angle_gamma 90.000000
_cell_volume 2286.233955
_symmetry_space_group_name_H-M "C 2/M"
_symmetry_group_IT_number 12
_symmetry_cell_setting 'monoclinic'
loop_
_space_group_symop_operation_xyz
x,y,z
-x,y,-z
-x,-y,-z
x,-y,z
1/2+x,1/2+y,z
1/2-x,1/2+y,-z
1/2-x,1/2-y,-z
1/2+x,1/2-y,z
loop_
_atom_site_type_symbol
_atom_site_label
_atom_site_fract_x
_atom_site_fract_y
_atom_site_fract_z
Si Si1 0.365711 0.380888 0.252968
Si Si2 0.657447 0.384390 0.296090
Si Si3 0.081775 0.375922 0.649682
Si Si4 0.364497 0.690427 0.828379
Si Si5 0.877404 0.735916 0.505530
Si Si6 0.492964 0.216713 0.077083
O O1 0.341462 0.500000 0.254728
O O2 0.505805 0.364696 0.212810
O O3 0.201118 0.331511 0.389663
O O4 0.429108 0.317594 0.153507
O O5 0.604580 0.500000 0.345986
O O6 0.633218 0.362801 0.239719
O O7 0.545847 0.299248 0.402074
O O8 0.851145 0.368131 0.182373
O O9 0.071625 0.500000 0.662979
O O10 0.100428 0.340654 0.567052
O O11 0.241312 0.324318 0.577439
O O12 0.927048 0.309150 0.777483
O O13 0.177610 0.687153 0.975483
O O14 0.500000 0.233388 0.000000
#
# Coordination Sequence:
#
# PCOD9202846 Si02
#       6
#     8   8   8   8   8   8
#     4  11  22  38  61  84 114 154 193 239 288 333
#     4  10  20  38  64  87 116 154 184 228 291 346
#     4   9  16  30  55  84 118 151 179 230 292 338
#     4   9  20  37  60  90 116 143 194 242 276 336
#     4   9  19  33  53  87 117 143 192 237 276 341
#     4  10  23  41  57  83 118 150 193 241 282 340
#
# _framework density 20.995227
#
# number of rings (size 3 to 8) (size 9 to 14) (size 15 to 20)
#    0.000    2.333    0.000    3.000    0.000    5.333 
#    0.000   13.333    0.000    0.000    0.000    0.000 
#    0.000    0.000    0.000    0.000    0.000    0.000 
#
# Total GULP energy -134131.805866 kJ/mol
# GULP energy per Si atom -5588.825244 kJ/mol
# Density = 2.094744 g / cm^3
# Si number density = 20.995227 Si / 1000 Ang^3
#
#
#
# Elastic Constant Matrix: (Units=GPa)
#
#
# Indices 1 2 3 4 5 6 
#
# 1 21.0765 3.8227 2.4832 -0.0010 -12.1669 -0.0004
# 2 3.8227 81.7011 -18.2013 -0.0009 -4.6693 -0.0003
# 3 2.4832 -18.2013 72.7295 -0.0029 -15.7232 0.0005
# 4 -0.0010 -0.0009 -0.0029 10.4251 0.0010 -1.5457
# 5 -12.1669 -4.6693 -15.7232 0.0010 25.6207 0.0000
# 6 -0.0004 -0.0003 0.0005 -1.5457 0.0000 10.3819
#
#
#
# Elastic Compliance Matrix: (Units=1/GPa)
#
#
# Indices 1 2 3 4 5 6 
#
# 1 0.067092 0.000054 0.005318 0.000005 0.035135 0.000003
# 2 0.000054 0.013548 0.004529 0.000002 0.005274 0.000000
# 3 0.005318 0.004529 0.017785 0.000005 0.014266 0.000000
# 4 0.000005 0.000002 0.000005 0.098088 0.000002 0.014604
# 5 0.035135 0.005274 0.014266 0.000002 0.065432 0.000001
# 6 0.000003 0.000000 0.000000 0.014604 0.000001 0.098495
#
#
# Mechanical properties :
#
#
# Convention : Reuss Voigt Hill
#
# Bulk Modulus (GPa) = 8.45833 16.85736 12.65785
# Shear Modulus (GPa) = 13.15627 21.77906 17.46766
#
# Velocity S-wave (km/s) = 2.50598 3.22426 2.88754
# Velocity P-wave (km/s) = 3.52288 4.68057 4.14236
#
# Compressibility (1/GPa) = 0.11822659
#
# Stress axis : x y z
#
# Youngs Moduli (GPa) = 14.90489 73.81423 56.22585
#
# Poissons Ratio (x) = -0.00396 -0.29903
# Poissons Ratio (y) = -0.00080 -0.25463
# Poissons Ratio (z) = -0.07927 -0.33428
#
# Static dielectric constant tensor:
#      x y z
#    x 1.789210 0.000000 -0.017070 
#    y 0.000000 1.687570 0.000000 
#    z -0.017070 0.000000 1.756810 
# 
# From -- ./inp_files/343295.got.cif
#   From: 2010.05.17/outbox.cif.g08.bks.cpg/sg12_172_cif.got.tgz:343295.got - 2010.06.03 13:09:07.
