data_PCOD9202931
_publ_section_title
;
Structure prediction by ZEFSAII (Michael W. Deem and Ramdas Pophale) SiO2 
 PCOD9202931
Probable space group: C 2/M
;
_chemical_formula_sum "Si O2"
_cell_formula_units_Z 60
_cell_length_a 15.101361
_cell_length_b 17.933211
_cell_length_c 12.631598
_cell_angle_alpha 90.000000
_cell_angle_beta 115.171419
_cell_angle_gamma 90.000000
_cell_volume 3095.992483
_symmetry_space_group_name_H-M "C 2/M"
_symmetry_group_IT_number 12
_symmetry_cell_setting 'monoclinic'
loop_
_space_group_symop_operation_xyz
x,y,z
-x,y,-z
-x,-y,-z
x,-y,z
1/2+x,1/2+y,z
1/2-x,1/2+y,-z
1/2-x,1/2-y,-z
1/2+x,1/2-y,z
loop_
_atom_site_type_symbol
_atom_site_label
_atom_site_fract_x
_atom_site_fract_y
_atom_site_fract_z
Si Si1 0.609977 0.081005 0.596370
Si Si2 0.569217 0.676265 0.271718
Si Si3 0.158323 0.700253 0.978960
Si Si4 0.388983 0.085864 0.900916
Si Si5 0.500000 0.698729 0.000000
Si Si6 0.280181 0.191221 0.694330
Si Si7 0.895296 0.267088 0.274682
Si Si8 0.288768 0.584632 0.524289
O O1 0.500000 0.075224 0.500000
O O2 0.609295 0.160274 0.654397
O O3 0.689956 0.086202 0.544251
O O4 0.630908 0.000000 0.662952
O O5 0.656045 0.737634 0.307492
O O6 0.487322 0.711437 0.308584
O O7 0.621135 0.606068 0.352993
O O8 0.525194 0.662514 0.129196
O O9 0.104574 0.695586 0.840979
O O10 0.250000 0.750000 0.000000
O O11 0.176479 0.620420 0.038450
O O12 0.091961 0.748107 0.024379
O O13 0.357905 0.133493 0.784107
O O14 0.371855 0.000000 0.872283
O O15 0.500000 0.095152 0.000000
O O16 0.199286 0.218942 0.738208
O O17 0.224731 0.147277 0.572751
O O18 0.299859 0.500000 0.488096
#
# Coordination Sequence:
#
# PCOD9202931 Si02
#       8
#     8   8   8   8   4   8   8   8
#     4  10  22  40  60  91 128 158 199 260 318 373
#     4  11  22  40  67  95 123 166 218 256 312 377
#     4  11  19  37  59  89 122 161 200 251 306 366
#     4  11  22  38  62  94 130 164 204 258 325 380
#     4  10  20  38  64  94 122 156 210 258 302 358
#     4  12  22  41  62  95 127 166 211 264 313 378
#     4  11  23  35  66  93 121 164 215 254 311 377
#     4  11  25  43  63  90 128 170 209 262 321 373
#
# _framework density 19.379892000000002
#
# number of rings (size 3 to 8) (size 9 to 14) (size 15 to 20)
#    0.000    1.067    4.667    2.400    1.867    0.533 
#    0.000    5.667    0.000    0.000    0.000    0.000 
#    0.000    0.000    0.000    0.000    0.000    0.000 
#
# Total GULP energy -167104.922869 kJ/mol
# GULP energy per Si atom -5570.164096 kJ/mol
# Density = 1.933578 g / cm^3
# Si number density = 19.379892 Si / 1000 Ang^3
#
#
#
# Elastic Constant Matrix: (Units=GPa)
#
#
# Indices 1 2 3 4 5 6 
#
# 1 96.1368 16.0405 -5.0626 0.0000 -6.4709 0.0000
# 2 16.0405 69.9894 24.6107 0.0000 2.6325 0.0000
# 3 -5.0626 24.6107 71.3701 0.0000 4.5467 0.0000
# 4 0.0000 0.0000 0.0000 25.0925 0.0000 4.7599
# 5 -6.4709 2.6325 4.5467 0.0000 21.9275 0.0000
# 6 0.0000 0.0000 0.0000 4.7599 0.0000 36.0896
#
#
#
# Elastic Compliance Matrix: (Units=1/GPa)
#
#
# Indices 1 2 3 4 5 6 
#
# 1 0.011273 -0.003318 0.001729 0.000000 0.003367 0.000000
# 2 -0.003318 0.017250 -0.006070 0.000000 -0.001792 0.000000
# 3 0.001729 -0.006070 0.016364 0.000000 -0.002154 0.000000
# 4 0.000000 0.000000 0.000000 0.040875 0.000000 -0.005391
# 5 0.003367 -0.001792 -0.002154 0.000000 0.047260 0.000000
# 6 0.000000 0.000000 0.000000 -0.005391 0.000000 0.028420
#
#
# Mechanical properties :
#
#
# Convention : Reuss Voigt Hill
#
# Bulk Modulus (GPa) = 33.81743 34.29705 34.05724
# Shear Modulus (GPa) = 26.79288 30.08245 28.43766
#
# Velocity S-wave (km/s) = 3.72224 3.94414 3.83480
# Velocity P-wave (km/s) = 5.99676 6.20300 6.10075
#
# Compressibility (1/GPa) = 0.02957055
#
# Stress axis : x y z
#
# Youngs Moduli (GPa) = 88.70593 57.97071 61.10830
#
# Poissons Ratio (x) = 0.19237 -0.10569
# Poissons Ratio (y) = 0.29436 0.37090
# Poissons Ratio (z) = -0.15342 0.35186
#
# Static dielectric constant tensor:
#      x y z
#    x 1.710760 0.000000 0.025950 
#    y 0.000000 1.707130 0.000000 
#    z 0.025950 0.000000 1.763850 
# 
# From -- ./inp_files/146203.got.cif
#   From: 2010.05.17/outbox.cif.g08.bks.cpg/sg12_74_cif.got.tgz:146203.got - 2010.06.03 13:09:07.
