data_PCOD9202818
_publ_section_title
;
Structure prediction by ZEFSAII (Michael W. Deem and Ramdas Pophale) SiO2 
 PCOD9202818
Probable space group: C 2/M
;
_chemical_formula_sum "Si O2"
_cell_formula_units_Z 50
_cell_length_a 17.474553
_cell_length_b 26.817915
_cell_length_c 5.280414
_cell_angle_alpha 90.000000
_cell_angle_beta 122.764647
_cell_angle_gamma 90.000000
_cell_volume 2080.864345
_symmetry_space_group_name_H-M "C 2/M"
_symmetry_group_IT_number 12
_symmetry_cell_setting 'monoclinic'
loop_
_space_group_symop_operation_xyz
x,y,z
-x,y,-z
-x,-y,-z
x,-y,z
1/2+x,1/2+y,z
1/2-x,1/2+y,-z
1/2-x,1/2-y,-z
1/2+x,1/2-y,z
loop_
_atom_site_type_symbol
_atom_site_label
_atom_site_fract_x
_atom_site_fract_y
_atom_site_fract_z
Si Si1 0.918984 0.591468 0.188560
Si Si2 0.391000 0.188538 0.842217
Si Si3 0.890433 0.262794 0.348517
Si Si4 0.232205 0.921122 0.039652
Si Si5 0.138053 0.947516 0.377222
Si Si6 0.500000 0.000000 0.000000
Si Si7 0.600544 0.349185 0.567380
O O1 0.956367 0.543964 0.107665
O O2 0.000000 0.614647 0.500000
O O3 0.879963 0.632590 0.925232
O O4 0.839649 0.579622 0.245128
O O5 0.354214 0.199527 0.497361
O O6 0.500000 0.196223 0.000000
O O7 0.355090 0.224268 0.003757
O O8 0.875417 0.207951 0.439219
O O9 0.000000 0.266829 0.500000
O O10 0.209935 0.947830 0.734720
O O11 0.177679 0.869577 0.897304
O O12 0.186585 0.946185 0.196771
O O13 0.084678 0.000000 0.308418
O O14 0.094524 0.893005 0.345227
O O15 0.500000 0.348546 0.500000
#
# Coordination Sequence:
#
# PCOD9202818 Si02
#       7
#     8   8   8   8   8   2   8
#     4  12  27  45  68 102 137 179 234 290 348 410
#     4  10  20  38  63  94 130 171 222 276 342 403
#     4   9  19  35  65  95 128 174 216 274 338 402
#     4  10  26  42  68  96 141 180 227 290 343 413
#     4  10  23  42  66  95 138 183 219 281 343 405
#     4  12  30  44  76 102 134 184 250 284 340 416
#     4   9  22  43  69 103 136 177 234 282 336 417
#
# _framework density 24.028475
#
# number of rings (size 3 to 8) (size 9 to 14) (size 15 to 20)
#    0.960    0.960    0.800    2.160    6.720    0.960 
#    0.000    2.400    0.000    0.000    0.000    0.000 
#    0.000    0.000    0.000    0.000    0.000    0.000 
#
# Total GULP energy -139198.610434 kJ/mol
# GULP energy per Si atom -5567.944417 kJ/mol
# Density = 2.397378 g / cm^3
# Si number density = 24.028475 Si / 1000 Ang^3
#
#
#
# Elastic Constant Matrix: (Units=GPa)
#
#
# Indices 1 2 3 4 5 6 
#
# 1 50.2646 30.2134 22.0986 0.0000 -4.5146 0.0000
# 2 30.2134 178.4521 12.5278 0.0000 -23.7043 0.0000
# 3 22.0986 12.5278 60.8301 0.0000 -16.7680 0.0000
# 4 0.0000 0.0000 0.0000 39.0121 0.0000 -51.2943
# 5 -4.5146 -23.7043 -16.7680 0.0000 41.0817 0.0000
# 6 0.0000 0.0000 0.0000 -51.2943 0.0000 44.7810
#
#
#
# Elastic Compliance Matrix: (Units=1/GPa)
#
#
# Indices 1 2 3 4 5 6 
#
# 1 0.026392 -0.004255 -0.009678 0.000000 -0.003505 0.000000
# 2 -0.004255 0.006760 0.001239 0.000000 0.003939 0.000000
# 3 -0.009678 0.001239 0.022089 0.000000 0.008667 0.000000
# 4 0.000000 0.000000 0.000000 -0.050651 0.000000 -0.058018
# 5 -0.003505 0.003939 0.008667 0.000000 0.029767 0.000000
# 6 0.000000 0.000000 0.000000 -0.058018 0.000000 -0.044126
#
#
# Mechanical properties :
#
#
# Convention : Reuss Voigt Hill
#
# Bulk Modulus (GPa) = 33.49505 46.58072 40.03789
# Shear Modulus (GPa) = 195.55342 39.95544 117.75443
#
# Velocity S-wave (km/s) = 9.03110 4.08221 7.00804
# Velocity P-wave (km/s) = 11.07780 6.45345 9.06545
#
# Compressibility (1/GPa) = 0.02985515
#
# Stress axis : x y z
#
# Youngs Moduli (GPa) = 37.89027 147.92242 45.27153
#
# Poissons Ratio (x) = 0.62934 0.43812
# Poissons Ratio (y) = 0.16120 -0.05610
# Poissons Ratio (z) = 0.36669 -0.18329
#
# Static dielectric constant tensor:
#      x y z
#    x 1.896930 0.000000 0.023030 
#    y 0.000000 1.957720 0.000000 
#    z 0.023030 0.000000 1.962200 
# 
# From -- ./inp_files/17765.got.cif
#   From: 2010.05.17/outbox.cif.g08.bks.cpg/sg12_9_cif.got.tgz:17765.got - 2010.06.03 13:09:07.
