data_PCOD9202555
_publ_section_title
;
Structure prediction by ZEFSAII (Michael W. Deem and Ramdas Pophale) SiO2 
 PCOD9202555
Probable space group: C 2/M
;
_chemical_formula_sum "Si O2"
_cell_formula_units_Z 48
_cell_length_a 19.604013
_cell_length_b 7.774526
_cell_length_c 25.218243
_cell_angle_alpha 90.000000
_cell_angle_beta 150.725886
_cell_angle_gamma 90.000000
_cell_volume 1879.456542
_symmetry_space_group_name_H-M "C 2/M"
_symmetry_group_IT_number 12
_symmetry_cell_setting 'monoclinic'
loop_
_space_group_symop_operation_xyz
x,y,z
-x,y,-z
-x,-y,-z
x,-y,z
1/2+x,1/2+y,z
1/2-x,1/2+y,-z
1/2-x,1/2-y,-z
1/2+x,1/2-y,z
loop_
_atom_site_type_symbol
_atom_site_label
_atom_site_fract_x
_atom_site_fract_y
_atom_site_fract_z
Si Si1 0.096920 0.299959 0.460687
Si Si2 0.435105 0.200131 0.791040
Si Si3 0.175331 0.708379 0.674852
Si Si4 0.661953 0.710907 0.109424
Si Si5 0.196095 0.192523 0.020253
Si Si6 0.910068 0.794464 0.657968
O O1 0.118079 0.500000 0.488786
O O2 0.034563 0.288166 0.358560
O O3 0.251059 0.224186 0.558461
O O4 0.983022 0.229353 0.424199
O O5 0.272635 0.236176 0.692416
O O6 0.528682 0.301364 0.896908
O O7 0.476835 0.254272 0.759898
O O8 0.463046 0.000000 0.817318
O O9 0.169820 0.500000 0.669995
O O10 0.257551 0.765994 0.783551
O O11 0.665449 0.500000 0.111258
O O12 0.500000 0.761811 0.000000
O O13 0.724074 0.778794 0.095730
O O14 0.246446 0.000000 0.060265
O O15 0.250000 0.250000 0.000000
O O16 0.908422 0.000000 0.649127
#
# Coordination Sequence:
#
# PCOD9202555 Si02
#       6
#     8   8   8   8   8   8
#     4   9  20  38  63  91 118 153 195 242 303 366
#     4  12  25  40  58  85 119 159 202 249 297 346
#     4  10  20  38  62  87 117 155 196 241 296 361
#     4   9  17  34  60  85 113 152 190 228 286 353
#     4  11  23  40  61  89 121 157 196 242 296 353
#     4  10  21  39  61  87 120 156 196 246 299 358
#
# _framework density 25.539296
#
# number of rings (size 3 to 8) (size 9 to 14) (size 15 to 20)
#    0.000    1.833    1.667    2.500    2.333    2.000 
#    0.000    5.833    0.000    0.000    0.000    0.000 
#    0.000    0.000    0.000    0.000    0.000    0.000 
#
# Total GULP energy -134217.493621 kJ/mol
# GULP energy per Si atom -5592.395568 kJ/mol
# Density = 2.548117 g / cm^3
# Si number density = 25.539296 Si / 1000 Ang^3
#
#
#
# Elastic Constant Matrix: (Units=GPa)
#
#
# Indices 1 2 3 4 5 6 
#
# 1 149.1177 -5.4592 4.0840 0.0000 -0.1911 0.0000
# 2 -5.4592 56.9321 -13.8846 0.0004 4.3176 0.0002
# 3 4.0840 -13.8846 56.0789 0.0009 -1.5906 0.0002
# 4 0.0000 0.0004 0.0009 8.7442 0.0000 0.5161
# 5 -0.1911 4.3176 -1.5906 0.0000 52.1587 0.0000
# 6 0.0000 0.0002 0.0002 0.5161 0.0000 27.0207
#
#
#
# Elastic Compliance Matrix: (Units=1/GPa)
#
#
# Indices 1 2 3 4 5 6 
#
# 1 0.006736 0.000563 -0.000352 0.000000 -0.000033 0.000000
# 2 0.000563 0.018844 0.004584 -0.000001 -0.001418 0.000000
# 3 -0.000352 0.004584 0.018998 -0.000002 0.000199 0.000000
# 4 0.000000 -0.000001 -0.000002 0.114491 0.000000 -0.002187
# 5 -0.000033 -0.001418 0.000199 0.000000 0.019296 0.000000
# 6 0.000000 0.000000 0.000000 -0.002187 0.000000 0.037050
#
#
# Mechanical properties :
#
#
# Convention : Reuss Voigt Hill
#
# Bulk Modulus (GPa) = 18.46088 25.73433 22.09761
# Shear Modulus (GPa) = 22.33310 36.07727 29.20519
#
# Velocity S-wave (km/s) = 2.96034 3.76256 3.38529
# Velocity P-wave (km/s) = 4.35074 5.38275 4.89402
#
# Compressibility (1/GPa) = 0.05416859
#
# Stress axis : x y z
#
# Youngs Moduli (GPa) = 148.44917 53.06640 52.63602
#
# Poissons Ratio (x) = -0.02985 0.01854
# Poissons Ratio (y) = -0.08351 -0.24131
# Poissons Ratio (z) = 0.05229 -0.24328
#
# Static dielectric constant tensor:
#      x y z
#    x 2.035030 0.000000 0.037050 
#    y 0.000000 1.934500 0.000000 
#    z 0.037050 0.000000 2.108950 
# 
# From -- ./inp_files/313624.got.cif
#   From: 2010.05.17/outbox.cif.g08.bks.cpg/sg12_157_cif.got.tgz:313624.got - 2010.06.03 13:09:07.
