data_PCOD9202793
_publ_section_title
;
Structure prediction by ZEFSAII (Michael W. Deem and Ramdas Pophale) SiO2 
 PCOD9202793
Probable space group: C 2/M
;
_chemical_formula_sum "Si O2"
_cell_formula_units_Z 60
_cell_length_a 11.158526
_cell_length_b 26.410917
_cell_length_c 19.903868
_cell_angle_alpha 90.000000
_cell_angle_beta 29.624132
_cell_angle_gamma 90.000000
_cell_volume 2899.515712
_symmetry_space_group_name_H-M "C 2/M"
_symmetry_group_IT_number 12
_symmetry_cell_setting 'monoclinic'
loop_
_space_group_symop_operation_xyz
x,y,z
-x,y,-z
-x,-y,-z
x,-y,z
1/2+x,1/2+y,z
1/2-x,1/2+y,-z
1/2-x,1/2-y,-z
1/2+x,1/2-y,z
loop_
_atom_site_type_symbol
_atom_site_label
_atom_site_fract_x
_atom_site_fract_y
_atom_site_fract_z
Si Si1 0.275998 0.874500 0.447462
Si Si2 0.492021 0.112998 0.199826
Si Si3 0.262981 0.196024 0.747692
Si Si4 0.805901 0.814454 0.730868
Si Si5 0.619103 0.943264 0.016108
Si Si6 0.252911 0.944319 0.578080
Si Si7 0.000000 0.852726 0.000000
Si Si8 0.063485 0.140481 0.195857
O O1 0.319901 0.888667 0.348713
O O2 0.497489 0.838158 0.361886
O O3 0.294321 0.925068 0.482832
O O4 0.032177 0.844011 0.586003
O O5 0.428718 0.166047 0.194527
O O6 0.452773 0.070611 0.161376
O O7 0.768616 0.113830 0.090754
O O8 0.331278 0.254644 0.713275
O O9 0.095280 0.181996 0.892923
O O10 0.112728 0.179251 0.755543
O O11 0.790356 0.831528 0.816352
O O12 0.722610 0.000000 0.975544
O O13 0.500000 0.943548 0.000000
O O14 0.791583 0.894169 0.927505
O O15 0.500000 0.945537 0.500000
O O16 0.089633 0.902063 0.691239
O O17 0.140309 0.000000 0.635160
#
# Coordination Sequence:
#
# PCOD9202793 Si02
#       8
#     8   8   8   8   8   8   4   8
#     4  10  23  43  62  92 137 172 216 277 317 393
#     4  11  23  44  62  93 133 166 217 267 327 390
#     4  11  23  40  63  95 131 175 222 266 325 385
#     4  11  25  40  66  92 127 181 219 265 323 386
#     4  11  23  43  70  96 129 170 216 274 332 389
#     4  10  20  38  63  92 125 166 212 270 330 380
#     4  10  24  40  63  86 132 166 203 278 320 380
#     4  11  22  41  64  96 128 167 217 277 318 389
#
# _framework density 20.693110000000001
#
# number of rings (size 3 to 8) (size 9 to 14) (size 15 to 20)
#    0.000    1.333    4.000    1.200    3.733    2.133 
#    4.800    0.333    0.000    2.400    0.000    0.000 
#    0.000    0.000    0.000    0.000    0.000    0.000 
#
# Total GULP energy -167499.902787 kJ/mol
# GULP energy per Si atom -5583.330093 kJ/mol
# Density = 2.064601 g / cm^3
# Si number density = 20.693110 Si / 1000 Ang^3
#
#
#
# Elastic Constant Matrix: (Units=GPa)
#
#
# Indices 1 2 3 4 5 6 
#
# 1 93.4243 35.8870 23.2194 -0.0306 27.3681 0.0047
# 2 35.8870 91.0652 15.0576 -0.0513 15.4683 0.0121
# 3 23.2194 15.0576 68.2553 -0.1113 16.0689 0.0585
# 4 -0.0306 -0.0513 -0.1113 13.3192 0.0142 5.7844
# 5 27.3681 15.4683 16.0689 0.0142 37.3591 0.0001
# 6 0.0047 0.0121 0.0585 5.7844 0.0001 3.9854
#
#
#
# Elastic Compliance Matrix: (Units=1/GPa)
#
#
# Indices 1 2 3 4 5 6 
#
# 1 0.015406 -0.004241 -0.002294 -0.000009 -0.008543 0.000042
# 2 -0.004241 0.013142 -0.001009 0.000117 -0.001901 -0.000190
# 3 -0.002294 -0.001009 0.016870 0.000655 -0.005158 -0.001192
# 4 -0.000009 0.000117 0.000655 0.203130 -0.000400 -0.294835
# 5 -0.008543 -0.001901 -0.005158 -0.000400 0.036032 0.000671
# 6 0.000042 -0.000190 -0.001192 -0.294835 0.000671 0.678859
#
#
# Mechanical properties :
#
#
# Convention : Reuss Voigt Hill
#
# Bulk Modulus (GPa) = 32.96935 44.56365 38.76650
# Shear Modulus (GPa) = 5.05747 22.83813 13.94780
#
# Velocity S-wave (km/s) = 1.56504 3.32574 2.59903
# Velocity P-wave (km/s) = 4.38553 6.02741 5.27079
#
# Compressibility (1/GPa) = 0.03033120
#
# Stress axis : x y z
#
# Youngs Moduli (GPa) = 64.91144 76.09146 59.27582
#
# Poissons Ratio (x) = 0.32267 0.13598
# Poissons Ratio (y) = 0.27526 0.05979
# Poissons Ratio (z) = 0.14891 0.07676
#
# Static dielectric constant tensor:
#      x y z
#    x 1.779270 0.000010 0.004750 
#    y 0.000010 1.704340 0.000010 
#    z 0.004750 0.000010 1.802100 
# 
# From -- ./inp_files/307294.got.cif
#   From: 2010.05.17/outbox.cif.g08.bks.cpg/sg12_154_cif.got.tgz:307294.got - 2010.06.03 13:09:07.
