data_PCOD9202847
_publ_section_title
;
Structure prediction by ZEFSAII (Michael W. Deem and Ramdas Pophale) SiO2 
 PCOD9202847
Probable space group: C 2/M
;
_chemical_formula_sum "Si O2"
_cell_formula_units_Z 56
_cell_length_a 9.073978
_cell_length_b 28.976210
_cell_length_c 12.497766
_cell_angle_alpha 90.000000
_cell_angle_beta 53.694285
_cell_angle_gamma 90.000000
_cell_volume 2648.111478
_symmetry_space_group_name_H-M "C 2/M"
_symmetry_group_IT_number 12
_symmetry_cell_setting 'monoclinic'
loop_
_space_group_symop_operation_xyz
x,y,z
-x,y,-z
-x,-y,-z
x,-y,z
1/2+x,1/2+y,z
1/2-x,1/2+y,-z
1/2-x,1/2-y,-z
1/2+x,1/2-y,z
loop_
_atom_site_type_symbol
_atom_site_label
_atom_site_fract_x
_atom_site_fract_y
_atom_site_fract_z
Si Si1 0.323234 0.554414 0.637519
Si Si2 0.007644 0.586194 0.620428
Si Si3 0.291435 0.723612 0.116346
Si Si4 0.716997 0.947343 0.917576
Si Si5 0.717901 0.619403 0.911783
Si Si6 0.934424 0.229621 0.282755
Si Si7 0.353768 0.811592 0.470176
O O1 0.500000 0.574077 0.500000
O O2 0.355663 0.500000 0.638440
O O3 0.142336 0.559170 0.642267
O O4 0.293308 0.571635 0.771550
O O5 0.100301 0.636161 0.571346
O O6 0.000000 0.568325 0.500000
O O7 0.817365 0.596561 0.765250
O O8 0.228313 0.673630 0.099817
O O9 0.313073 0.717423 0.233611
O O10 0.145602 0.764216 0.160557
O O11 0.500000 0.736042 0.000000
O O12 0.787785 0.000000 0.907942
O O13 0.500000 0.951499 0.000000
O O14 0.744945 0.912465 0.002488
O O15 0.500000 0.621505 0.000000
O O16 0.856678 0.194313 0.403196
O O17 0.883709 0.278940 0.355802
O O18 0.500000 0.796612 0.500000
#
# Coordination Sequence:
#
# PCOD9202847 Si02
#       7
#     8   8   8   8   8   8   8
#     4  10  23  44  67  96 135 172 213 268 328 391
#     4  11  22  41  64  96 133 170 220 271 329 389
#     4  11  23  41  60  88 126 170 211 270 331 383
#     4  10  21  43  73  98 130 177 222 267 322 397
#     4  11  24  42  65  96 137 174 217 274 333 395
#     4  11  20  40  63  84 119 164 216 263 323 379
#     4  10  20  38  64  87 120 162 212 277 317 377
#
# _framework density 21.147145999999999
#
# number of rings (size 3 to 8) (size 9 to 14) (size 15 to 20)
#    0.000    1.429    4.286    1.286    2.000    0.571 
#    2.571    5.000    0.000    0.000    0.000    0.000 
#    0.000    0.000    0.000    0.000    0.000    0.000 
#
# Total GULP energy -156063.788295 kJ/mol
# GULP energy per Si atom -5573.706725 kJ/mol
# Density = 2.109901 g / cm^3
# Si number density = 21.147146 Si / 1000 Ang^3
#
#
#
# Elastic Constant Matrix: (Units=GPa)
#
#
# Indices 1 2 3 4 5 6 
#
# 1 37.5357 24.4199 45.1338 0.0000 -9.8012 0.0000
# 2 24.4199 48.2530 36.9816 0.0000 7.1046 0.0000
# 3 45.1338 36.9816 152.9313 0.0000 -5.6659 0.0000
# 4 0.0000 0.0000 0.0000 8.5957 0.0000 -2.9811
# 5 -9.8012 7.1046 -5.6659 0.0000 39.7412 0.0000
# 6 0.0000 0.0000 0.0000 -2.9811 0.0000 -19.7622
#
#
#
# Elastic Compliance Matrix: (Units=1/GPa)
#
#
# Indices 1 2 3 4 5 6 
#
# 1 0.061190 -0.024886 -0.011377 0.000000 0.017918 0.000000
# 2 -0.024886 0.036792 -0.002034 0.000000 -0.013005 0.000000
# 3 -0.011377 -0.002034 0.010353 0.000000 -0.000966 0.000000
# 4 0.000000 0.000000 0.000000 0.110554 0.000000 -0.016677
# 5 0.017918 -0.013005 -0.000966 0.000000 0.031769 0.000000
# 6 0.000000 0.000000 0.000000 -0.016677 0.000000 -0.048086
#
#
# Mechanical properties :
#
#
# Convention : Reuss Voigt Hill
#
# Bulk Modulus (GPa) = 31.50540 50.19896 40.85218
# Shear Modulus (GPa) = 17.25646 14.52726 15.89186
#
# Velocity S-wave (km/s) = 2.85970 2.62384 2.74430
# Velocity P-wave (km/s) = 5.08275 5.74185 5.42232
#
# Compressibility (1/GPa) = 0.03174059
#
# Stress axis : x y z
#
# Youngs Moduli (GPa) = 16.34250 27.17964 96.59306
#
# Poissons Ratio (x) = 0.67638 1.09895
# Poissons Ratio (y) = 0.40670 0.19652
# Poissons Ratio (z) = 0.18593 0.05530
#
# Static dielectric constant tensor:
#      x y z
#    x 1.452370 0.000000 -0.088690 
#    y 0.000000 1.760160 0.000000 
#    z -0.088690 0.000000 1.889270 
# 
# From -- ./inp_files/125614.got.cif
#   From: 2010.05.17/outbox.cif.g08.bks.cpg/sg12_63_cif.got.tgz:125614.got - 2010.06.03 13:09:07.
