data_PCOD9202219
_publ_section_title
;
Structure prediction by ZEFSAII (Michael W. Deem and Ramdas Pophale) SiO2 
 PCOD9202219
Probable space group: C 2/M
;
_chemical_formula_sum "Si O2"
_cell_formula_units_Z 64
_cell_length_a 14.837949
_cell_length_b 8.563500
_cell_length_c 35.136420
_cell_angle_alpha 90.000000
_cell_angle_beta 42.857892
_cell_angle_gamma 90.000000
_cell_volume 3036.742912
_symmetry_space_group_name_H-M "C 2/M"
_symmetry_group_IT_number 12
_symmetry_cell_setting 'monoclinic'
loop_
_space_group_symop_operation_xyz
x,y,z
-x,y,-z
-x,-y,-z
x,-y,z
1/2+x,1/2+y,z
1/2-x,1/2+y,-z
1/2-x,1/2-y,-z
1/2+x,1/2-y,z
loop_
_atom_site_type_symbol
_atom_site_label
_atom_site_fract_x
_atom_site_fract_y
_atom_site_fract_z
Si Si1 0.159811 0.687362 0.993844
Si Si2 0.179670 0.185552 0.404877
Si Si3 0.847653 0.311125 0.089571
Si Si4 0.442051 0.689384 0.633304
Si Si5 0.732426 0.313797 0.547662
Si Si6 0.944063 0.185040 0.283557
Si Si7 0.229317 0.684888 0.202700
Si Si8 0.334614 0.812379 0.243095
O O1 0.168108 0.500000 0.991898
O O2 0.003902 0.726881 0.046036
O O3 0.250000 0.750000 0.000000
O O4 0.197043 0.736822 0.939153
O O5 0.075434 0.240364 0.405198
O O6 0.170992 0.254399 0.449494
O O7 0.321567 0.231645 0.342495
O O8 0.170487 0.000000 0.410475
O O9 0.834095 0.500000 0.096734
O O10 0.769865 0.230226 0.147536
O O11 0.440817 0.500000 0.634092
O O12 0.583116 0.738971 0.605375
O O13 0.311189 0.737617 0.696215
O O14 0.736763 0.500000 0.545345
O O15 0.750000 0.250000 0.500000
O O16 0.933762 0.234123 0.242318
O O17 0.086174 0.238327 0.254559
O O18 0.929105 0.000000 0.292794
O O19 0.221128 0.500000 0.209878
O O20 0.335327 0.754911 0.199698
O O21 0.346301 0.000000 0.241626
#
# Coordination Sequence:
#
# PCOD9202219 Si02
#       8
#     8   8   8   8   8   8   8   8
#     4   9  19  37  62  84 108 145 190 235 285 338
#     4  10  20  38  60  82 107 142 186 232 279 337
#     4   9  20  39  57  80 114 152 188 230 285 342
#     4   8  18  36  58  78 104 142 181 219 273 335
#     4  11  22  37  55  80 110 144 184 229 283 341
#     4  11  22  38  59  85 116 152 189 231 282 342
#     4  12  24  37  56  86 120 156 193 235 282 335
#     4  10  20  38  61  85 112 148 191 237 285 339
#
# _framework density 21.075213000000002
#
# number of rings (size 3 to 8) (size 9 to 14) (size 15 to 20)
#    0.000    2.000    0.000    5.625    0.000    3.500 
#    0.000   13.125    0.000    0.000    0.000    0.000 
#    0.000    0.000    0.000    0.000    0.000    0.000 
#
# Total GULP energy -178787.403523 kJ/mol
# GULP energy per Si atom -5587.106360 kJ/mol
# Density = 2.102725 g / cm^3
# Si number density = 21.075213 Si / 1000 Ang^3
#
#
#
# Elastic Constant Matrix: (Units=GPa)
#
#
# Indices 1 2 3 4 5 6 
#
# 1 121.9883 14.5638 13.9611 -0.0015 35.4839 -0.0021
# 2 14.5638 47.6296 -3.6478 -0.0033 6.2826 -0.0028
# 3 13.9611 -3.6478 45.1280 -0.0009 22.4586 -0.0016
# 4 -0.0015 -0.0033 -0.0009 29.4008 -0.0008 8.3796
# 5 35.4839 6.2826 22.4586 -0.0008 29.2275 -0.0010
# 6 -0.0021 -0.0028 -0.0016 8.3796 -0.0010 31.7947
#
#
#
# Elastic Compliance Matrix: (Units=1/GPa)
#
#
# Indices 1 2 3 4 5 6 
#
# 1 0.013819 -0.000914 0.006319 0.000000 -0.021436 0.000000
# 2 -0.000914 0.022943 0.006541 0.000002 -0.008848 0.000001
# 3 0.006319 0.006541 0.040886 0.000001 -0.040494 0.000001
# 4 0.000000 0.000002 0.000001 0.036775 -0.000001 -0.009692
# 5 -0.021436 -0.008848 -0.040494 -0.000001 0.093256 -0.000001
# 6 0.000000 0.000001 0.000001 -0.009692 -0.000001 0.034006
#
#
# Mechanical properties :
#
#
# Convention : Reuss Voigt Hill
#
# Bulk Modulus (GPa) = 9.84855 29.38889 19.61872
# Shear Modulus (GPa) = 19.86968 30.74252 25.30610
#
# Velocity S-wave (km/s) = 3.07383 3.82344 3.46895
# Velocity P-wave (km/s) = 4.15706 5.78504 5.03725
#
# Compressibility (1/GPa) = 0.10153784
#
# Stress axis : x y z
#
# Youngs Moduli (GPa) = 72.36600 43.58664 24.45854
#
# Poissons Ratio (x) = 0.03984 -0.15455
# Poissons Ratio (y) = 0.06614 -0.15997
# Poissons Ratio (z) = -0.45727 -0.28508
#
# Static dielectric constant tensor:
#      x y z
#    x 1.779940 0.000000 0.009950 
#    y 0.000000 1.707290 0.000000 
#    z 0.009950 0.000000 1.800340 
# 
# From -- ./inp_files/375441.got.cif
#   From: 2010.05.17/outbox.cif.g08.bks.cpg/sg12_188_cif.got.tgz:375441.got - 2010.06.03 13:09:07.
