data_PCOD9202053
_publ_section_title
;
Structure prediction by ZEFSAII (Michael W. Deem and Ramdas Pophale) SiO2 
 PCOD9202053
Probable space group: C 2/M
;
_chemical_formula_sum "Si O2"
_cell_formula_units_Z 48
_cell_length_a 9.831621
_cell_length_b 22.593126
_cell_length_c 11.735026
_cell_angle_alpha 90.000000
_cell_angle_beta 69.551173
_cell_angle_gamma 90.000000
_cell_volume 2442.406581
_symmetry_space_group_name_H-M "C 2/M"
_symmetry_group_IT_number 12
_symmetry_cell_setting 'monoclinic'
loop_
_space_group_symop_operation_xyz
x,y,z
-x,y,-z
-x,-y,-z
x,-y,z
1/2+x,1/2+y,z
1/2-x,1/2+y,-z
1/2-x,1/2-y,-z
1/2+x,1/2-y,z
loop_
_atom_site_type_symbol
_atom_site_label
_atom_site_fract_x
_atom_site_fract_y
_atom_site_fract_z
Si Si1 0.353562 0.928805 0.481360
Si Si2 0.224756 0.875180 0.879037
Si Si3 0.416696 0.430330 0.293144
Si Si4 0.162699 0.254626 0.909035
Si Si5 0.286430 0.622906 0.851317
Si Si6 0.963084 0.568829 0.200501
O O1 0.500000 0.906290 0.500000
O O2 0.206022 0.907627 0.583314
O O3 0.371701 0.919055 0.342305
O O4 0.352064 0.000000 0.499626
O O5 0.151109 0.920038 0.812801
O O6 0.185214 0.809249 0.845697
O O7 0.395712 0.889816 0.836474
O O8 0.174658 0.878091 0.025321
O O9 0.441696 0.500000 0.304279
O O10 0.570148 0.397707 0.254946
O O11 0.229004 0.312387 0.831063
O O12 0.250000 0.250000 0.000000
O O13 0.000000 0.264749 0.000000
O O14 0.148185 0.581009 0.869108
O O15 0.009262 0.500000 0.188259
#
# Coordination Sequence:
#
# PCOD9202053 Si02
#       6
#     8   8   8   8   8   8
#     4   9  18  37  59  78 106 152 201 225 259 338
#     4  11  21  36  60  84 112 150 191 231 274 333
#     4  11  22  36  58  85 114 148 186 233 280 330
#     4  10  20  38  58  77 110 155 196 222 259 335
#     4  11  23  36  54  86 120 146 181 232 289 336
#     4  11  22  36  58  85 116 152 184 229 287 338
#
# _framework density 19.652747000000002
#
# number of rings (size 3 to 8) (size 9 to 14) (size 15 to 20)
#    0.000    1.500    1.667    6.000    0.000    4.667 
#    0.000    2.500    0.000    6.000    0.000    0.000 
#    0.000    0.000    0.000    0.000    0.000    0.000 
#
# Total GULP energy -133930.494815 kJ/mol
# GULP energy per Si atom -5580.437284 kJ/mol
# Density = 1.960802 g / cm^3
# Si number density = 19.652747 Si / 1000 Ang^3
#
#
#
# Elastic Constant Matrix: (Units=GPa)
#
#
# Indices 1 2 3 4 5 6 
#
# 1 102.8528 21.7892 14.6269 0.0000 -38.6805 0.0000
# 2 21.7892 78.0413 29.2836 0.0000 -27.9865 0.0000
# 3 14.6269 29.2836 53.6699 0.0000 -30.3687 0.0000
# 4 0.0000 0.0000 0.0000 -24.8206 0.0000 -11.3457
# 5 -38.6805 -27.9865 -30.3687 0.0000 45.3121 0.0000
# 6 0.0000 0.0000 0.0000 -11.3457 0.0000 27.4014
#
#
#
# Elastic Compliance Matrix: (Units=1/GPa)
#
#
# Indices 1 2 3 4 5 6 
#
# 1 0.015160 -0.000388 0.005263 0.000000 0.016229 0.000000
# 2 -0.000388 0.017423 -0.005636 0.000000 0.006652 0.000000
# 3 0.005263 -0.005636 0.033581 0.000000 0.023518 0.000000
# 4 0.000000 0.000000 0.000000 -0.033877 0.000000 -0.014027
# 5 0.016229 0.006652 0.023518 0.000000 0.055793 0.000000
# 6 0.000000 0.000000 0.000000 -0.014027 0.000000 0.030687
#
#
# Mechanical properties :
#
#
# Convention : Reuss Voigt Hill
#
# Bulk Modulus (GPa) = 15.47010 40.66260 28.06635
# Shear Modulus (GPa) = 35.25243 20.83619 28.04431
#
# Velocity S-wave (km/s) = 4.23988 3.25963 3.78165
# Velocity P-wave (km/s) = 5.64425 5.90782 5.77754
#
# Compressibility (1/GPa) = 0.06464084
#
# Stress axis : x y z
#
# Youngs Moduli (GPa) = 65.96489 57.39703 29.77911
#
# Poissons Ratio (x) = 0.02224 -0.15672
# Poissons Ratio (y) = 0.02556 0.16784
# Poissons Ratio (z) = -0.34717 0.32351
#
# Static dielectric constant tensor:
#      x y z
#    x 1.693580 0.000000 0.011560 
#    y 0.000000 1.781570 0.000000 
#    z 0.011560 0.000000 1.706240 
# 
# From -- ./inp_files/122420.got.cif
#   From: 2010.05.17/outbox.cif.g08.bks.cpg/sg12_62_cif.got.tgz:122420.got - 2010.06.03 13:09:07.
