data_PCOD9202856
_publ_section_title
;
Structure prediction by ZEFSAII (Michael W. Deem and Ramdas Pophale) SiO2 
 PCOD9202856
Probable space group: C 2/M
;
_chemical_formula_sum "Si O2"
_cell_formula_units_Z 46
_cell_length_a 8.811516
_cell_length_b 16.332147
_cell_length_c 24.626389
_cell_angle_alpha 90.000000
_cell_angle_beta 136.575376
_cell_angle_gamma 90.000000
_cell_volume 2436.149816
_symmetry_space_group_name_H-M "C 2/M"
_symmetry_group_IT_number 12
_symmetry_cell_setting 'monoclinic'
loop_
_space_group_symop_operation_xyz
x,y,z
-x,y,-z
-x,-y,-z
x,-y,z
1/2+x,1/2+y,z
1/2-x,1/2+y,-z
1/2-x,1/2-y,-z
1/2+x,1/2-y,z
loop_
_atom_site_type_symbol
_atom_site_label
_atom_site_fract_x
_atom_site_fract_y
_atom_site_fract_z
Si Si1 0.000000 0.784649 0.000000
Si Si2 0.500000 0.000000 0.000000
Si Si3 0.054974 0.356322 0.927680
Si Si4 0.315272 0.818561 0.562003
Si Si5 0.678043 0.500000 0.365027
Si Si6 0.769276 0.257819 0.670125
Si Si7 0.348338 0.353570 0.255107
Si Si8 0.310536 0.000000 0.525166
O O1 0.987600 0.725204 0.944212
O O2 0.778974 0.836918 0.952997
O O3 0.419659 0.928193 0.022222
O O4 0.855347 0.377537 0.835258
O O5 0.250000 0.750000 0.500000
O O6 0.581728 0.810500 0.631511
O O7 0.235220 0.791217 0.600422
O O8 0.244027 0.911453 0.531676
O O9 0.530039 0.423109 0.310436
O O10 0.724378 0.500000 0.441282
O O11 0.922391 0.500000 0.403761
O O12 0.732969 0.324809 0.706923
O O13 0.013442 0.220738 0.735522
#
# Coordination Sequence:
#
# PCOD9202856 Si02
#       8
#     4   2   8   8   4   8   8   4
#     4   9  20  38  64  97 114 160 208 239 302 392
#     4  10  22  38  58  94 120 162 202 244 302 382
#     4  10  20  38  64  88 127 156 201 251 309 370
#     4  11  22  38  59  84 118 160 209 263 311 363
#     4  11  23  35  57  85 112 158 205 241 313 364
#     4  10  22  36  57  87 115 153 205 250 309 373
#     4  11  21  39  59  86 121 155 195 253 308 369
#     4  11  22  39  58  81 118 160 207 263 301 363
#
# _framework density 18.882254
#
# number of rings (size 3 to 8) (size 9 to 14) (size 15 to 20)
#    0.000    1.565    1.739    4.174    2.435    1.043 
#    0.000    2.609    0.000    0.000    0.000    0.000 
#    0.000    0.000    0.000    0.000    0.000    0.000 
#
# Total GULP energy -128076.791127 kJ/mol
# GULP energy per Si atom -5568.556136 kJ/mol
# Density = 1.883928 g / cm^3
# Si number density = 18.882254 Si / 1000 Ang^3
#
#
#
# Elastic Constant Matrix: (Units=GPa)
#
#
# Indices 1 2 3 4 5 6 
#
# 1 125.1654 36.0909 35.5865 0.0000 13.7833 0.0000
# 2 36.0909 97.5546 19.0836 0.0000 9.8801 0.0000
# 3 35.5865 19.0836 72.0401 0.0000 19.6432 0.0000
# 4 0.0000 0.0000 0.0000 -30.7734 0.0000 -22.0085
# 5 13.7833 9.8801 19.6432 0.0000 20.4591 0.0000
# 6 0.0000 0.0000 0.0000 -22.0085 0.0000 11.7673
#
#
#
# Elastic Compliance Matrix: (Units=1/GPa)
#
#
# Indices 1 2 3 4 5 6 
#
# 1 0.010061 -0.002807 -0.003722 0.000000 -0.001849 0.000000
# 2 -0.002807 0.011766 -0.000944 0.000000 -0.002885 0.000000
# 3 -0.003722 -0.000944 0.020539 0.000000 -0.016756 0.000000
# 4 0.000000 0.000000 0.000000 -0.013901 0.000000 -0.026000
# 5 -0.001849 -0.002885 -0.016756 0.000000 0.067605 0.000000
# 6 0.000000 0.000000 0.000000 -0.026000 0.000000 0.036354
#
#
# Mechanical properties :
#
#
# Convention : Reuss Voigt Hill
#
# Bulk Modulus (GPa) = 36.46947 52.92022 44.69485
# Shear Modulus (GPa) = 31.94728 13.89053 22.91891
#
# Velocity S-wave (km/s) = 4.11776 2.71521 3.48771
# Velocity P-wave (km/s) = 6.47796 6.15769 6.31985
#
# Compressibility (1/GPa) = 0.02742019
#
# Stress axis : x y z
#
# Youngs Moduli (GPa) = 99.39814 84.99220 48.68833
#
# Poissons Ratio (x) = 0.23854 0.18123
# Poissons Ratio (y) = 0.27897 0.04595
# Poissons Ratio (z) = 0.36998 0.08021
#
# Static dielectric constant tensor:
#      x y z
#    x 1.648600 0.000000 0.023230 
#    y 0.000000 1.687270 0.000000 
#    z 0.023230 0.000000 1.657750 
# 
# From -- ./inp_files/356393.got.cif
#   From: 2010.05.17/outbox.cif.g08.bks.cpg/sg12_179_cif.got.tgz:356393.got - 2010.06.03 13:09:07.
