data_PCOD9202657
_publ_section_title
;
Structure prediction by ZEFSAII (Michael W. Deem and Ramdas Pophale) SiO2 
 PCOD9202657
Probable space group: C 2/M
;
_chemical_formula_sum "Si O2"
_cell_formula_units_Z 44
_cell_length_a 30.184573
_cell_length_b 9.456206
_cell_length_c 23.145350
_cell_angle_alpha 90.000000
_cell_angle_beta 160.782811
_cell_angle_gamma 90.000000
_cell_volume 2174.500471
_symmetry_space_group_name_H-M "C 2/M"
_symmetry_group_IT_number 12
_symmetry_cell_setting 'monoclinic'
loop_
_space_group_symop_operation_xyz
x,y,z
-x,y,-z
-x,-y,-z
x,-y,z
1/2+x,1/2+y,z
1/2-x,1/2+y,-z
1/2-x,1/2-y,-z
1/2+x,1/2-y,z
loop_
_atom_site_type_symbol
_atom_site_label
_atom_site_fract_x
_atom_site_fract_y
_atom_site_fract_z
Si Si1 0.146452 0.289214 0.297889
Si Si2 0.641374 0.839867 0.019458
Si Si3 0.851369 0.661296 0.343420
Si Si4 0.123976 0.835772 0.509650
Si Si5 0.112996 0.331072 0.848504
Si Si6 0.769248 0.000000 0.545365
O O1 0.238384 0.329101 0.356898
O O2 0.165979 0.125017 0.335094
O O3 0.202410 0.380382 0.420154
O O4 0.988888 0.323724 0.100795
O O5 0.597291 0.819062 0.898463
O O6 0.695457 0.000000 0.090538
O O7 0.751002 0.726305 0.172778
O O8 0.814539 0.500000 0.313448
O O9 0.853754 0.762462 0.401665
O O10 0.000000 0.659662 0.500000
O O11 0.010966 0.745863 0.335772
O O12 0.081027 0.000000 0.461671
O O13 0.117025 0.500000 0.839659
O O14 0.250000 0.250000 0.000000
#
# Coordination Sequence:
#
# PCOD9202657 Si02
#       6
#     8   8   8   8   8   4
#     4  11  23  39  66 103 137 181 216 272 336 402
#     4  11  24  43  68  98 136 176 221 274 334 401
#     4  11  27  49  70  93 130 180 229 281 340 400
#     4  12  25  42  69 100 136 177 223 276 337 402
#     4  11  24  41  66  99 134 173 226 284 333 391
#     4  10  20  38  62  94 146 176 214 258 330 402
#
# _framework density 20.234532000000002
#
# number of rings (size 3 to 8) (size 9 to 14) (size 15 to 20)
#    0.000    0.909    1.818    4.909    6.364    6.545 
#    0.000    2.727    0.000    0.000    0.000    0.000 
#    0.000    0.000    0.000    0.000    0.000    0.000 
#
# Total GULP energy -122468.910478 kJ/mol
# GULP energy per Si atom -5566.768658 kJ/mol
# Density = 2.018848 g / cm^3
# Si number density = 20.234532 Si / 1000 Ang^3
#
#
#
# Elastic Constant Matrix: (Units=GPa)
#
#
# Indices 1 2 3 4 5 6 
#
# 1 31.8555 -31.6088 -286.5869 0.0000 -14.2617 0.0000
# 2 -31.6088-1606.5652-9630.0800 0.0000 -661.7297 -0.0003
# 3 -286.5869-9630.0800********** -0.0001-3432.9277 -0.0016
# 4 0.0000 0.0000 -0.0001 7.5682 0.0000 -30.0672
# 5 -14.2617 -661.7297-3432.9277 0.0000 -196.3821 -0.0001
# 6 0.0000 -0.0003 -0.0016 -30.0672 -0.0001 -0.7305
#
#
#
# Elastic Compliance Matrix: (Units=1/GPa)
#
#
# Indices 1 2 3 4 5 6 
#
# 1 0.033897 -0.004418 0.001133 0.000000 -0.007385 0.000000
# 2 -0.004418 0.005835 -0.001323 0.000000 0.003790 0.000000
# 3 0.001133 -0.001323 0.000416 0.000000 -0.002895 0.000000
# 4 0.000000 0.000000 0.000000 0.000803 0.000000 -0.033057
# 5 -0.007385 0.003790 -0.002895 0.000000 0.033288 0.000000
# 6 0.000000 0.000000 0.000000 -0.033057 0.000000 -0.008321
#
#
# Mechanical properties :
#
#
# Convention : Reuss Voigt Hill
#
# Bulk Modulus (GPa) = 32.32856 -8090.36101 -4029.01622
# Shear Modulus (GPa) = 58.51754 -2902.47036 -1421.97641
#
# Velocity S-wave (km/s) = 5.38353 -37.91475 -26.53814
# Velocity P-wave (km/s) = 7.39289 76.96544 54.17113
#
# Compressibility (1/GPa) = 0.03093240
#
# Stress axis : x y z
#
# Youngs Moduli (GPa) = 29.50145 171.38050 2403.95298
#
# Poissons Ratio (x) = 0.75708 -2.72406
# Poissons Ratio (y) = 0.13032 3.18088
# Poissons Ratio (z) = -0.03343 0.22677
#
# Static dielectric constant tensor:
#      x y z
#    x 1.714220 0.000000 0.021920 
#    y 0.000000 1.709630 0.000000 
#    z 0.021920 0.000000 1.690850 
# 
# From -- ./inp_files/353595.got.cif
#   From: 2010.05.17/outbox.cif.g08.bks.cpg/sg12_177_cif.got.tgz:353595.got - 2010.06.03 13:09:07.
