data_PCOD9202169
_publ_section_title
;
Structure prediction by ZEFSAII (Michael W. Deem and Ramdas Pophale) SiO2 
 PCOD9202169
Probable space group: C 2/M
;
_chemical_formula_sum "Si O2"
_cell_formula_units_Z 40
_cell_length_a 11.751948
_cell_length_b 26.667448
_cell_length_c 5.152546
_cell_angle_alpha 90.000000
_cell_angle_beta 102.501988
_cell_angle_gamma 90.000000
_cell_volume 1576.490536
_symmetry_space_group_name_H-M "C 2/M"
_symmetry_group_IT_number 12
_symmetry_cell_setting 'monoclinic'
loop_
_space_group_symop_operation_xyz
x,y,z
-x,y,-z
-x,-y,-z
x,-y,z
1/2+x,1/2+y,z
1/2-x,1/2+y,-z
1/2-x,1/2-y,-z
1/2+x,1/2-y,z
loop_
_atom_site_type_symbol
_atom_site_label
_atom_site_fract_x
_atom_site_fract_y
_atom_site_fract_z
Si Si1 0.894120 0.500000 0.154280
Si Si2 0.400969 0.695260 0.145998
Si Si3 0.318686 0.786900 0.329917
Si Si4 0.612388 0.500000 0.868225
Si Si5 0.820377 0.099913 0.347774
Si Si6 0.175026 0.396604 0.759133
O O1 0.901948 0.446274 0.296615
O O2 0.753091 0.500000 0.013542
O O3 0.000000 0.500000 0.000000
O O4 0.282263 0.700578 0.926293
O O5 0.500000 0.679188 0.000000
O O6 0.417005 0.751191 0.258651
O O7 0.381469 0.653597 0.352297
O O8 0.250000 0.750000 0.500000
O O9 0.365399 0.843583 0.387829
O O10 0.608018 0.552316 0.712217
O O11 0.500000 0.500000 0.000000
O O12 0.784080 0.091689 0.624884
O O13 0.714092 0.105547 0.082614
#
# Coordination Sequence:
#
# PCOD9202169 Si02
#       6
#     4   8   8   4   8   8
#     4  10  23  44  68  98 136 180 228 280 338 400
#     4  10  21  36  59  88 125 163 214 266 337 389
#     4  10  20  38  59  85 124 166 211 270 320 397
#     4  10  21  40  66  96 132 170 224 272 336 392
#     4  10  20  39  62  94 126 165 211 272 331 399
#     4  10  21  40  66  90 128 171 218 268 333 394
#
# _framework density 25.372816
#
# number of rings (size 3 to 8) (size 9 to 14) (size 15 to 20)
#    0.000    2.000    2.000    1.200    0.000    1.600 
#    0.000   22.000    8.800    0.000    0.000    0.000 
#    0.000    0.000    0.000    0.000    0.000    0.000 
#
# Total GULP energy -111484.880138 kJ/mol
# GULP energy per Si atom -5574.244007 kJ/mol
# Density = 2.531507 g / cm^3
# Si number density = 25.372816 Si / 1000 Ang^3
#
#
#
# Elastic Constant Matrix: (Units=GPa)
#
#
# Indices 1 2 3 4 5 6 
#
# 1 111.1622 16.7054 32.0512 0.0000 9.2034 0.0000
# 2 16.7054 257.9652 25.7428 0.0000 -30.4046 0.0000
# 3 32.0512 25.7428 75.0052 0.0000 -12.8595 0.0000
# 4 0.0000 0.0000 0.0000 22.2627 0.0000 -64.2789
# 5 9.2034 -30.4046 -12.8595 0.0000 58.2043 0.0000
# 6 0.0000 0.0000 0.0000 -64.2789 0.0000 -57.2664
#
#
#
# Elastic Compliance Matrix: (Units=1/GPa)
#
#
# Indices 1 2 3 4 5 6 
#
# 1 0.010759 -0.000569 -0.004932 0.000000 -0.003088 0.000000
# 2 -0.000569 0.004248 -0.000851 0.000000 0.002121 0.000000
# 3 -0.004932 -0.000851 0.016411 0.000000 0.003961 0.000000
# 4 0.000000 0.000000 0.000000 0.010592 0.000000 -0.011889
# 5 -0.003088 0.002121 0.003961 0.000000 0.019652 0.000000
# 6 0.000000 0.000000 0.000000 -0.011889 0.000000 -0.004118
#
#
# Mechanical properties :
#
#
# Convention : Reuss Voigt Hill
#
# Bulk Modulus (GPa) = 53.43367 65.90350 59.66859
# Shear Modulus (GPa) = 65.37096 29.28231 47.32664
#
# Velocity S-wave (km/s) = 5.08135 3.40086 4.32354
# Velocity P-wave (km/s) = 7.45198 6.43829 6.96360
#
# Compressibility (1/GPa) = 0.01871479
#
# Stress axis : x y z
#
# Youngs Moduli (GPa) = 92.94612 235.39025 60.93406
#
# Poissons Ratio (x) = 0.13382 0.30051
# Poissons Ratio (y) = 0.05284 0.05188
# Poissons Ratio (z) = 0.45839 0.20043
#
# Static dielectric constant tensor:
#      x y z
#    x 2.070900 0.000000 0.049660 
#    y 0.000000 2.111280 0.000000 
#    z 0.049660 0.000000 2.008460 
# 
# From -- ./inp_files/8362.got.cif
#   From: 2010.05.17/outbox.cif.g08.bks.cpg/sg12_5_cif.got.tgz:8362.got - 2010.06.03 13:09:07.
