data_PCOD9202483
_publ_section_title
;
Structure prediction by ZEFSAII (Michael W. Deem and Ramdas Pophale) SiO2 
 PCOD9202483
Probable space group: C 2/M
;
_chemical_formula_sum "Si O2"
_cell_formula_units_Z 44
_cell_length_a 32.762295
_cell_length_b 12.189658
_cell_length_c 6.998366
_cell_angle_alpha 90.000000
_cell_angle_beta 129.410024
_cell_angle_gamma 90.000000
_cell_volume 2159.383847
_symmetry_space_group_name_H-M "C 2/M"
_symmetry_group_IT_number 12
_symmetry_cell_setting 'monoclinic'
loop_
_space_group_symop_operation_xyz
x,y,z
-x,y,-z
-x,-y,-z
x,-y,z
1/2+x,1/2+y,z
1/2-x,1/2+y,-z
1/2-x,1/2-y,-z
1/2+x,1/2-y,z
loop_
_atom_site_type_symbol
_atom_site_label
_atom_site_fract_x
_atom_site_fract_y
_atom_site_fract_z
Si Si1 0.274637 0.816002 0.819743
Si Si2 0.625763 0.873019 0.627874
Si Si3 0.297016 0.130595 0.455693
Si Si4 0.055700 0.822122 0.561460
Si Si5 0.687374 0.500000 0.538874
Si Si6 0.604159 0.500000 0.981006
Si Si7 0.928350 0.000000 0.695010
O O1 0.296748 0.827198 0.670870
O O2 0.251788 0.694868 0.786395
O O3 0.223995 0.895353 0.678118
O O4 0.320706 0.857134 0.091702
O O5 0.647342 0.844199 0.480850
O O6 0.583138 0.790503 0.583970
O O7 0.609421 0.000000 0.585305
O O8 0.289621 0.000000 0.427090
O O9 0.091545 0.894739 0.813292
O O10 0.050318 0.894847 0.353539
O O11 0.000000 0.807509 0.500000
O O12 0.635809 0.500000 0.518549
O O13 0.661953 0.500000 0.249842
O O14 0.566914 0.500000 0.061295
#
# Coordination Sequence:
#
# PCOD9202483 Si02
#       7
#     8   8   8   8   4   4   4
#     4  11  21  38  57  87 129 159 205 239 295 375
#     4  11  24  41  58  86 125 168 207 254 295 351
#     4  10  22  36  57  84 122 166 202 245 298 362
#     4  11  24  42  65  92 120 161 215 262 308 362
#     4  10  20  38  61  96 123 161 191 240 311 381
#     4   9  23  41  67  92 127 154 193 260 329 357
#     4   9  21  41  65  98 127 148 199 257 319 384
#
# _framework density 20.376185
#
# number of rings (size 3 to 8) (size 9 to 14) (size 15 to 20)
#    0.545    1.091    1.818    2.727    5.091    1.818 
#    4.909    0.000    0.000    0.000    0.000    6.364 
#    0.000    0.000    0.000    0.000    0.000    0.000 
#
# Total GULP energy -122918.693761 kJ/mol
# GULP energy per Si atom -5587.213353 kJ/mol
# Density = 2.032981 g / cm^3
# Si number density = 20.376185 Si / 1000 Ang^3
#
#
#
# Elastic Constant Matrix: (Units=GPa)
#
#
# Indices 1 2 3 4 5 6 
#
# 1 134.9645 54.3490 4.7262 0.0000 -4.0095 0.0000
# 2 54.3490 100.2226 3.4924 0.0000 -0.2089 0.0000
# 3 4.7262 3.4924 27.1073 0.0000 3.4747 0.0000
# 4 0.0000 0.0000 0.0000 15.0197 0.0000 7.3997
# 5 -4.0095 -0.2089 3.4747 0.0000 29.3248 0.0000
# 6 0.0000 0.0000 0.0000 7.3997 0.0000 36.2165
#
#
#
# Elastic Compliance Matrix: (Units=1/GPa)
#
#
# Indices 1 2 3 4 5 6 
#
# 1 0.009563 -0.005142 -0.001186 0.000000 0.001411 0.000000
# 2 -0.005142 0.012789 -0.000683 0.000000 -0.000531 0.000000
# 3 -0.001186 -0.000683 0.037780 0.000000 -0.004644 0.000000
# 4 0.000000 0.000000 0.000000 0.074031 0.000000 -0.015126
# 5 0.001411 -0.000531 -0.004644 0.000000 0.034840 0.000000
# 6 0.000000 0.000000 0.000000 -0.015126 0.000000 0.030702
#
#
# Mechanical properties :
#
#
# Convention : Reuss Voigt Hill
#
# Bulk Modulus (GPa) = 21.68677 43.04775 32.36726
# Shear Modulus (GPa) = 21.82467 29.42731 25.62599
#
# Velocity S-wave (km/s) = 3.27630 3.80439 3.55018
# Velocity P-wave (km/s) = 4.99785 6.36162 5.72052
#
# Compressibility (1/GPa) = 0.04611107
#
# Stress axis : x y z
#
# Youngs Moduli (GPa) = 104.56569 78.19352 26.46869
#
# Poissons Ratio (x) = 0.40205 0.03139
# Poissons Ratio (y) = 0.53765 0.01808
# Poissons Ratio (z) = 0.12400 0.05342
#
# Static dielectric constant tensor:
#      x y z
#    x 1.778860 0.000000 -0.058110 
#    y 0.000000 1.720150 0.000000 
#    z -0.058110 0.000000 1.753440 
# 
# From -- ./inp_files/110194.got.cif
#   From: 2010.05.17/outbox.cif.g08.bks.cpg/sg12_56_cif.got.tgz:110194.got - 2010.06.03 13:09:07.
