data_PCOD9202206
_publ_section_title
;
Structure prediction by ZEFSAII (Michael W. Deem and Ramdas Pophale) SiO2 
 PCOD9202206
Probable space group: C 2/M
;
_chemical_formula_sum "Si O2"
_cell_formula_units_Z 40
_cell_length_a 20.808281
_cell_length_b 13.617233
_cell_length_c 9.260438
_cell_angle_alpha 90.000000
_cell_angle_beta 132.285010
_cell_angle_gamma 90.000000
_cell_volume 1941.221637
_symmetry_space_group_name_H-M "C 2/M"
_symmetry_group_IT_number 12
_symmetry_cell_setting 'monoclinic'
loop_
_space_group_symop_operation_xyz
x,y,z
-x,y,-z
-x,-y,-z
x,-y,z
1/2+x,1/2+y,z
1/2-x,1/2+y,-z
1/2-x,1/2-y,-z
1/2+x,1/2-y,z
loop_
_atom_site_type_symbol
_atom_site_label
_atom_site_fract_x
_atom_site_fract_y
_atom_site_fract_z
Si Si1 0.797116 0.178815 0.954904
Si Si2 0.897318 0.894899 0.368816
Si Si3 0.023319 0.500000 0.370147
Si Si4 0.394866 0.210850 0.854975
Si Si5 0.906847 0.500000 0.942418
Si Si6 0.358736 0.193155 0.481575
O O1 0.865875 0.229582 0.951219
O O2 0.722887 0.147310 0.728670
O O3 0.750000 0.250000 0.000000
O O4 0.848408 0.108668 0.140688
O O5 0.880415 0.792608 0.426179
O O6 0.000000 0.896069 0.500000
O O7 0.872616 0.000000 0.403055
O O8 0.073077 0.602002 0.409330
O O9 0.000000 0.500000 0.500000
O O10 0.933417 0.500000 0.147962
O O11 0.362498 0.100103 0.835469
O O12 0.352999 0.232826 0.636743
O O13 0.500000 0.214698 0.000000
O O14 0.000000 0.500000 0.000000
#
# Coordination Sequence:
#
# PCOD9202206 Si02
#       6
#     8   8   4   8   4   8
#     4  10  24  40  61  94 126 168 208 271 325 370
#     4  10  22  42  63  86 125 173 221 264 308 378
#     4  12  24  36  68 106 134 169 207 264 329 401
#     4  11  20  40  66  94 131 169 213 259 323 402
#     4  10  20  38  60 104 128 161 210 263 331 377
#     4  11  22  40  63  95 134 162 213 260 330 383
#
# _framework density 20.60558
#
# number of rings (size 3 to 8) (size 9 to 14) (size 15 to 20)
#    0.000    1.400    4.000    2.400    7.000    0.000 
#    7.200    1.000    0.000    3.600    0.000    0.000 
#    0.000    0.000    0.000    0.000    0.000    0.000 
#
# Total GULP energy -111376.605677 kJ/mol
# GULP energy per Si atom -5568.830284 kJ/mol
# Density = 2.055868 g / cm^3
# Si number density = 20.605580 Si / 1000 Ang^3
#
#
#
# Elastic Constant Matrix: (Units=GPa)
#
#
# Indices 1 2 3 4 5 6 
#
# 1 68.4869 27.3124 28.5462 0.0000 -17.6041 0.0000
# 2 27.3124 130.3761 23.2585 0.0000 -7.1522 0.0000
# 3 28.5462 23.2585 139.2229 0.0000 -12.9312 0.0000
# 4 0.0000 0.0000 0.0000 7.2658 0.0000 -19.2538
# 5 -17.6041 -7.1522 -12.9312 0.0000 38.6870 0.0000
# 6 0.0000 0.0000 0.0000 -19.2538 0.0000 5.2751
#
#
#
# Elastic Compliance Matrix: (Units=1/GPa)
#
#
# Indices 1 2 3 4 5 6 
#
# 1 0.018757 -0.003064 -0.002677 0.000000 0.007074 0.000000
# 2 -0.003064 0.008448 -0.000792 0.000000 -0.000097 0.000000
# 3 -0.002677 -0.000792 0.007985 0.000000 0.001304 0.000000
# 4 0.000000 0.000000 0.000000 -0.015871 0.000000 -0.057927
# 5 0.007074 -0.000097 0.001304 0.000000 0.029486 0.000000
# 6 0.000000 0.000000 0.000000 -0.057927 0.000000 -0.021860
#
#
# Mechanical properties :
#
#
# Convention : Reuss Voigt Hill
#
# Bulk Modulus (GPa) = 45.19906 55.14667 50.17287
# Shear Modulus (GPa) = 105.51532 27.51016 66.51274
#
# Velocity S-wave (km/s) = 7.16368 3.65784 5.68762
# Velocity P-wave (km/s) = 9.50828 6.68288 8.21791
#
# Compressibility (1/GPa) = 0.02212435
#
# Stress axis : x y z
#
# Youngs Moduli (GPa) = 53.31236 118.37212 125.23287
#
# Poissons Ratio (x) = 0.36267 0.33526
# Poissons Ratio (y) = 0.16334 0.09920
# Poissons Ratio (z) = 0.14272 0.09377
#
# Static dielectric constant tensor:
#      x y z
#    x 1.744390 0.000000 0.037300 
#    y 0.000000 1.779300 0.000000 
#    z 0.037300 0.000000 1.756040 
# 
# From -- ./inp_files/86100.got.cif
#   From: 2010.05.17/outbox.cif.g08.bks.cpg/sg12_44_cif.got.tgz:86100.got - 2010.06.03 13:09:07.
