data_PCOD9202030
_publ_section_title
;
Structure prediction by ZEFSAII (Michael W. Deem and Ramdas Pophale) SiO2 
 PCOD9202030
Probable space group: C 2/M
;
_chemical_formula_sum "Si O2"
_cell_formula_units_Z 56
_cell_length_a 14.342189
_cell_length_b 13.514282
_cell_length_c 14.047699
_cell_angle_alpha 90.000000
_cell_angle_beta 89.342132
_cell_angle_gamma 90.000000
_cell_volume 2722.607164
_symmetry_space_group_name_H-M "C 2/M"
_symmetry_group_IT_number 12
_symmetry_cell_setting 'monoclinic'
loop_
_space_group_symop_operation_xyz
x,y,z
-x,y,-z
-x,-y,-z
x,-y,z
1/2+x,1/2+y,z
1/2-x,1/2+y,-z
1/2-x,1/2-y,-z
1/2+x,1/2-y,z
loop_
_atom_site_type_symbol
_atom_site_label
_atom_site_fract_x
_atom_site_fract_y
_atom_site_fract_z
Si Si1 0.109291 0.825177 0.702751
Si Si2 0.584914 0.104497 0.719462
Si Si3 0.149084 0.199236 0.495651
Si Si4 0.905006 0.392228 0.592549
Si Si5 0.392800 0.384250 0.708433
Si Si6 0.796757 0.690430 0.776697
Si Si7 0.544979 0.114817 0.094202
O O1 0.131136 0.707626 0.696751
O O2 0.126827 0.857499 0.593490
O O3 0.190357 0.849963 0.777522
O O4 0.001178 0.849096 0.725590
O O5 0.502995 0.098000 0.643655
O O6 0.532335 0.116477 0.821206
O O7 0.638041 0.000000 0.717914
O O8 0.250000 0.250000 0.500000
O O9 0.092738 0.300011 0.476879
O O10 0.130034 0.132792 0.403295
O O11 0.879219 0.500000 0.551897
O O12 0.837273 0.361885 0.680509
O O13 0.384160 0.500000 0.732847
O O14 0.323860 0.306684 0.761806
O O15 0.860498 0.659335 0.864624
O O16 0.565729 0.000000 0.073673
O O17 0.500000 0.160488 0.000000
#
# Coordination Sequence:
#
# PCOD9202030 Si02
#       7
#     8   8   8   8   8   8   8
#     4  12  21  36  57  78 111 154 193 236 279 334
#     4   9  18  33  55  81 107 139 179 226 284 341
#     4  11  21  37  50  76 112 150 197 246 277 326
#     4   9  17  33  52  71 103 140 181 232 279 322
#     4  11  24  40  56  79 116 159 200 238 280 334
#     4  10  20  38  57  82 116 148 182 234 286 343
#     4   9  17  35  65  91 110 134 172 230 292 345
#
# _framework density 20.568519999999999
#
# number of rings (size 3 to 8) (size 9 to 14) (size 15 to 20)
#    0.000    1.857    7.143    1.714    0.000    4.000 
#    0.000    2.143    0.000    0.429    0.000    0.000 
#    0.000    0.000    0.000    0.000    0.000    0.000 
#
# Total GULP energy -155931.808141 kJ/mol
# GULP energy per Si atom -5568.993148 kJ/mol
# Density = 2.052171 g / cm^3
# Si number density = 20.568520 Si / 1000 Ang^3
#
#
#
# Elastic Constant Matrix: (Units=GPa)
#
#
# Indices 1 2 3 4 5 6 
#
# 1 100.4854 1.8527 26.7393 0.0000 27.2491 0.0000
# 2 1.8527 84.4040 12.4795 0.0000 9.7789 0.0000
# 3 26.7393 12.4795 72.0178 0.0000 34.7810 0.0000
# 4 0.0000 0.0000 0.0000 20.1213 0.0000 7.7566
# 5 27.2491 9.7789 34.7810 0.0000 27.8872 0.0000
# 6 0.0000 0.0000 0.0000 7.7566 0.0000 -3.3576
#
#
#
# Elastic Compliance Matrix: (Units=1/GPa)
#
#
# Indices 1 2 3 4 5 6 
#
# 1 0.014024 0.001322 0.003535 0.000000 -0.018575 0.000000
# 2 0.001322 0.012474 0.000211 0.000000 -0.005929 0.000000
# 3 0.003535 0.000211 0.035810 0.000000 -0.048191 0.000000
# 4 0.000000 0.000000 0.000000 0.026288 0.000000 0.060729
# 5 -0.018575 -0.005929 -0.048191 0.000000 0.116192 0.000000
# 6 0.000000 0.000000 0.000000 0.060729 0.000000 -0.157538
#
#
# Mechanical properties :
#
#
# Convention : Reuss Voigt Hill
#
# Bulk Modulus (GPa) = 13.80378 37.67224 25.73801
# Shear Modulus (GPa) = 81.61482 23.31922 52.46702
#
# Velocity S-wave (km/s) = 6.30600 3.37075 5.05606
# Velocity P-wave (km/s) = 7.72959 5.78831 6.82829
#
# Compressibility (1/GPa) = 0.07244393
#
# Stress axis : x y z
#
# Youngs Moduli (GPa) = 71.30739 80.16371 27.92505
#
# Poissons Ratio (x) = -0.10594 -0.09872
# Poissons Ratio (y) = -0.09424 -0.00589
# Poissons Ratio (z) = -0.25208 -0.01692
#
# Static dielectric constant tensor:
#      x y z
#    x 1.879560 0.000000 0.076230 
#    y 0.000000 1.816180 0.000000 
#    z 0.076230 0.000000 1.791100 
# 
# From -- ./inp_files/214274.got.cif
#   From: 2010.05.17/outbox.cif.g08.bks.cpg/sg12_108_cif.got.tgz:214274.got - 2010.06.03 13:09:07.
