data_PCOD9202503
_publ_section_title
;
Structure prediction by ZEFSAII (Michael W. Deem and Ramdas Pophale) SiO2 
 PCOD9202503
Probable space group: C 2/M
;
_chemical_formula_sum "Si O2"
_cell_formula_units_Z 64
_cell_length_a 20.355462
_cell_length_b 7.670096
_cell_length_c 32.214400
_cell_angle_alpha 90.000000
_cell_angle_beta 144.991003
_cell_angle_gamma 90.000000
_cell_volume 2885.496086
_symmetry_space_group_name_H-M "C 2/M"
_symmetry_group_IT_number 12
_symmetry_cell_setting 'monoclinic'
loop_
_space_group_symop_operation_xyz
x,y,z
-x,y,-z
-x,-y,-z
x,-y,z
1/2+x,1/2+y,z
1/2-x,1/2+y,-z
1/2-x,1/2-y,-z
1/2+x,1/2-y,z
loop_
_atom_site_type_symbol
_atom_site_label
_atom_site_fract_x
_atom_site_fract_y
_atom_site_fract_z
Si Si1 0.143619 0.791616 0.475082
Si Si2 0.984886 0.297168 0.118826
Si Si3 0.565933 0.297882 0.994471
Si Si4 0.405352 0.203563 0.310812
Si Si5 0.816441 0.286557 0.099186
Si Si6 0.523491 0.786627 0.741249
Si Si7 0.720246 0.292325 0.279075
Si Si8 0.262779 0.790387 0.618735
O O1 0.250000 0.750000 0.500000
O O2 0.177803 0.727917 0.538778
O O3 0.027400 0.714726 0.396811
O O4 0.129028 0.000000 0.468581
O O5 0.966073 0.500000 0.100512
O O6 0.005781 0.209828 0.085225
O O7 0.874846 0.224708 0.086664
O O8 0.094231 0.281365 0.205342
O O9 0.588566 0.500000 0.017054
O O10 0.500000 0.220629 0.000000
O O11 0.689791 0.224104 0.045427
O O12 0.421267 0.277342 0.273029
O O13 0.307490 0.278762 0.289671
O O14 0.376750 0.000000 0.290463
O O15 0.814851 0.500000 0.096031
O O16 0.901694 0.236955 0.180519
O O17 0.392172 0.727519 0.676712
O O18 0.520898 0.000000 0.738918
O O19 0.711143 0.500000 0.270430
O O20 0.764577 0.254000 0.348133
O O21 0.265033 0.000000 0.616623
#
# Coordination Sequence:
#
# PCOD9202503 Si02
#       8
#     8   8   8   8   8   8   8   8
#     4  11  22  37  60  88 119 158 202 248 297 355
#     4  11  22  39  62  84 117 159 196 236 290 357
#     4  10  22  38  60  90 120 151 194 242 291 348
#     4  10  22  39  60  86 118 156 196 246 305 357
#     4   9  18  34  60  87 111 152 197 237 287 345
#     4   9  16  33  60  84 110 149 198 240 286 349
#     4  11  24  39  60  90 121 152 195 252 302 348
#     4  10  20  38  62  84 114 157 199 241 294 355
#
# _framework density 22.179894000000001
#
# number of rings (size 3 to 8) (size 9 to 14) (size 15 to 20)
#    0.000    1.875    2.500    1.500    1.750    2.750 
#    0.000    3.125    0.000    0.000    0.000    0.000 
#    0.000    0.000    0.000    0.000    0.000    0.000 
#
# Total GULP energy -178816.947487 kJ/mol
# GULP energy per Si atom -5588.029609 kJ/mol
# Density = 2.212941 g / cm^3
# Si number density = 22.179894 Si / 1000 Ang^3
#
#
#
# Elastic Constant Matrix: (Units=GPa)
#
#
# Indices 1 2 3 4 5 6 
#
# 1 159.5985 2.9343 23.3296 0.0003 -16.1491 -0.0012
# 2 2.9343 41.6757 -11.6663 0.0007 -2.3245 -0.0031
# 3 23.3296 -11.6663 58.5602 0.0000 -17.1726 0.0004
# 4 0.0003 0.0007 0.0000 19.4528 0.0000 -3.6746
# 5 -16.1491 -2.3245 -17.1726 0.0000 38.0298 0.0004
# 6 -0.0012 -0.0031 0.0004 -3.6746 0.0004 14.8400
#
#
#
# Elastic Compliance Matrix: (Units=1/GPa)
#
#
# Indices 1 2 3 4 5 6 
#
# 1 0.006814 -0.001059 -0.002416 0.000000 0.001738 0.000000
# 2 -0.001059 0.026240 0.006902 0.000000 0.004271 0.000005
# 3 -0.002416 0.006902 0.022173 0.000000 0.009408 0.000000
# 4 0.000000 0.000000 0.000000 0.053929 0.000000 0.013354
# 5 0.001738 0.004271 0.009408 0.000000 0.031543 0.000000
# 6 0.000000 0.000005 0.000000 0.013354 0.000000 0.070692
#
#
# Mechanical properties :
#
#
# Convention : Reuss Voigt Hill
#
# Bulk Modulus (GPa) = 16.10835 32.11439 24.11137
# Shear Modulus (GPa) = 22.19950 30.81364 26.50657
#
# Velocity S-wave (km/s) = 3.16711 3.73132 3.46073
# Velocity P-wave (km/s) = 4.54450 5.75101 5.18298
#
# Compressibility (1/GPa) = 0.06207960
#
# Stress axis : x y z
#
# Youngs Moduli (GPa) = 146.75199 38.11037 45.10024
#
# Poissons Ratio (x) = 0.04037 0.10897
# Poissons Ratio (y) = 0.15544 -0.31127
# Poissons Ratio (z) = 0.35456 -0.26303
#
# Static dielectric constant tensor:
#      x y z
#    x 1.835100 0.000000 -0.046230 
#    y 0.000000 1.852820 0.000000 
#    z -0.046230 0.000000 1.927670 
# 
# From -- ./inp_files/378386.got.cif
#   From: 2010.05.17/outbox.cif.g08.bks.cpg/sg12_190_cif.got.tgz:378386.got - 2010.06.03 13:09:07.
