data_PCOD9202640
_publ_section_title
;
Structure prediction by ZEFSAII (Michael W. Deem and Ramdas Pophale) SiO2 
 PCOD9202640
Probable space group: C 2/M
;
_chemical_formula_sum "Si O2"
_cell_formula_units_Z 42
_cell_length_a 20.601965
_cell_length_b 7.518296
_cell_length_c 14.867690
_cell_angle_alpha 90.000000
_cell_angle_beta 55.435107
_cell_angle_gamma 90.000000
_cell_volume 1896.386291
_symmetry_space_group_name_H-M "C 2/M"
_symmetry_group_IT_number 12
_symmetry_cell_setting 'monoclinic'
loop_
_space_group_symop_operation_xyz
x,y,z
-x,y,-z
-x,-y,-z
x,-y,z
1/2+x,1/2+y,z
1/2-x,1/2+y,-z
1/2-x,1/2-y,-z
1/2+x,1/2-y,z
loop_
_atom_site_type_symbol
_atom_site_label
_atom_site_fract_x
_atom_site_fract_y
_atom_site_fract_z
Si Si1 0.805419 0.789069 0.540722
Si Si2 0.985788 0.290307 0.411307
Si Si3 0.000000 0.000000 0.000000
Si Si4 0.267851 0.206198 0.217477
Si Si5 0.593016 0.215600 0.014136
Si Si6 0.133137 0.285743 0.182817
O O1 0.750000 0.750000 0.500000
O O2 0.894864 0.727499 0.456899
O O3 0.767868 0.714811 0.662981
O O4 0.810915 0.000000 0.547586
O O5 0.002435 0.500000 0.404362
O O6 0.000000 0.213741 0.500000
O O7 0.050156 0.222338 0.290365
O O8 0.981697 0.840433 0.939702
O O9 0.202495 0.214505 0.190823
O O10 0.285714 0.000000 0.222147
O O11 0.348096 0.279116 0.111835
O O12 0.634752 0.255921 0.076328
O O13 0.579232 0.000000 0.021050
O O14 0.138075 0.500000 0.184707
#
# Coordination Sequence:
#
# PCOD9202640 Si02
#       6
#     8   8   2   8   8   8
#     4  11  24  41  61  91 126 172 217 262 326 386
#     4  10  20  38  62  92 127 168 210 263 318 381
#     4  12  26  44  68  94 130 182 218 250 332 408
#     4  10  22  40  65  91 128 165 207 273 328 381
#     4  10  24  45  65  97 134 168 216 273 321 387
#     4  10  21  38  67  95 126 165 210 266 329 380
#
# _framework density 22.147385
#
# number of rings (size 3 to 8) (size 9 to 14) (size 15 to 20)
#    0.000    1.714    1.905    1.429    2.667    3.429 
#    3.429    5.714    0.000    0.000    0.000    0.000 
#    0.000    0.000    0.000    0.000    0.000    0.000 
#
# Total GULP energy -117015.009860 kJ/mol
# GULP energy per Si atom -5572.143327 kJ/mol
# Density = 2.209698 g / cm^3
# Si number density = 22.147385 Si / 1000 Ang^3
#
#
#
# Elastic Constant Matrix: (Units=GPa)
#
#
# Indices 1 2 3 4 5 6 
#
# 1 95.9063 -13.1469 18.7793 0.0000 6.8363 0.0000
# 2 -13.1469 68.9846 5.2507 0.0004 8.0157 -0.0001
# 3 18.7793 5.2507 91.0048 0.0002 -9.4047 -0.0001
# 4 0.0000 0.0004 0.0002 -1.7631 -0.0001 11.5348
# 5 6.8363 8.0157 -9.4047 -0.0001 33.0528 0.0000
# 6 0.0000 -0.0001 -0.0001 11.5348 0.0000 20.8285
#
#
#
# Elastic Compliance Matrix: (Units=1/GPa)
#
#
# Indices 1 2 3 4 5 6 
#
# 1 0.011697 0.002919 -0.002993 0.000000 -0.003979 0.000000
# 2 0.002919 0.015789 -0.002031 0.000001 -0.005011 0.000000
# 3 -0.002993 -0.002031 0.012197 0.000000 0.004582 0.000000
# 4 0.000000 0.000001 0.000000 -0.122684 0.000000 0.067942
# 5 -0.003979 -0.005011 0.004582 0.000000 0.033597 0.000000
# 6 0.000000 0.000000 0.000000 0.067942 0.000000 0.010385
#
#
# Mechanical properties :
#
#
# Convention : Reuss Voigt Hill
#
# Bulk Modulus (GPa) = 28.19101 30.85132 29.52116
# Shear Modulus (GPa) = -217.52790 26.75784 -95.38503
#
# Velocity S-wave (km/s) = -9.92127 3.47965 -6.56976
# Velocity P-wave (km/s) = 10.88511 5.48673 6.64761
#
# Compressibility (1/GPa) = 0.03547231
#
# Stress axis : x y z
#
# Youngs Moduli (GPa) = 85.49377 63.33449 81.98842
#
# Poissons Ratio (x) = -0.18489 0.24542
# Poissons Ratio (y) = -0.24958 0.16654
# Poissons Ratio (z) = 0.25591 0.12865
#
# Static dielectric constant tensor:
#      x y z
#    x 1.790370 0.000000 -0.017360 
#    y 0.000000 1.944720 0.000000 
#    z -0.017360 0.000000 1.863360 
# 
# From -- ./inp_files/221427.got.cif
#   From: 2010.05.17/outbox.cif.g08.bks.cpg/sg12_111_cif.got.tgz:221427.got - 2010.06.03 13:09:07.
