data_PCOD9202101
_publ_section_title
;
Structure prediction by ZEFSAII (Michael W. Deem and Ramdas Pophale) SiO2 
 PCOD9202101
Probable space group: C 2/M
;
_chemical_formula_sum "Si O2"
_cell_formula_units_Z 58
_cell_length_a 19.166281
_cell_length_b 7.928236
_cell_length_c 19.215135
_cell_angle_alpha 90.000000
_cell_angle_beta 51.208896
_cell_angle_gamma 90.000000
_cell_volume 2275.819952
_symmetry_space_group_name_H-M "C 2/M"
_symmetry_group_IT_number 12
_symmetry_cell_setting 'monoclinic'
loop_
_space_group_symop_operation_xyz
x,y,z
-x,y,-z
-x,-y,-z
x,-y,z
1/2+x,1/2+y,z
1/2-x,1/2+y,-z
1/2-x,1/2-y,-z
1/2+x,1/2-y,z
loop_
_atom_site_type_symbol
_atom_site_label
_atom_site_fract_x
_atom_site_fract_y
_atom_site_fract_z
Si Si1 0.273097 0.301120 0.282895
Si Si2 0.596495 0.795212 0.910177
Si Si3 0.672833 0.808521 0.998222
Si Si4 0.044241 0.195938 0.189465
Si Si5 0.000000 0.000000 0.500000
Si Si6 0.896802 0.807468 0.695972
Si Si7 0.079025 0.313722 0.527426
Si Si8 0.149934 0.796421 0.625094
O O1 0.257863 0.500000 0.293393
O O2 0.367149 0.270771 0.185009
O O3 0.195942 0.219288 0.284528
O O4 0.281470 0.242096 0.357476
O O5 0.597775 0.000000 0.905250
O O6 0.500000 0.747010 0.000000
O O7 0.661435 0.725754 0.930561
O O8 0.582507 0.795792 0.100424
O O9 0.692372 0.000000 0.969924
O O10 0.750000 0.750000 0.000000
O O11 0.108761 0.207210 0.217162
O O12 0.947391 0.240982 0.279693
O O13 0.042561 0.000000 0.169655
O O14 0.071223 0.846832 0.481878
O O15 0.977756 0.689251 0.622258
O O16 0.931124 0.000000 0.656443
O O17 0.095569 0.500000 0.486657
O O18 0.144727 0.285419 0.552389
O O19 0.154775 0.000000 0.613724
#
# Coordination Sequence:
#
# PCOD9202101 Si02
#       8
#     8   8   8   8   2   8   8   8
#     4  11  22  34  57  87 115 159 206 256 311 366
#     4  10  22  38  51  70 106 151 204 256 316 374
#     4  11  22  33  47  68  98 140 185 246 307 365
#     4   9  18  33  54  73 103 146 190 245 312 356
#     4  12  22  44  68 102 140 160 190 250 288 342
#     4  10  20  38  58  86 125 158 198 258 306 353
#     4  11  22  39  69 101 127 167 205 236 294 359
#     4   9  19  38  57  85 123 153 191 251 300 340
#
# _framework density 25.485320000000002
#
# number of rings (size 3 to 8) (size 9 to 14) (size 15 to 20)
#    0.000    1.793    1.379    3.931    0.000    8.552 
#    0.000    0.000    0.000    0.828    0.000    0.000 
#    0.000    0.000    0.000    0.000    0.000    0.000 
#
# Total GULP energy -162109.177125 kJ/mol
# GULP energy per Si atom -5589.971625 kJ/mol
# Density = 2.542731 g / cm^3
# Si number density = 25.485320 Si / 1000 Ang^3
#
#
#
# Elastic Constant Matrix: (Units=GPa)
#
#
# Indices 1 2 3 4 5 6 
#
# 1 141.1023 29.4735 34.3486 -0.0001 32.0558 0.0002
# 2 29.4735 86.6918 16.0532 -0.0003 15.5858 0.0007
# 3 34.3486 16.0532 123.5526 0.0000 8.1059 0.0001
# 4 -0.0001 -0.0003 0.0000 25.7074 0.0000 1.9569
# 5 32.0558 15.5858 8.1059 0.0000 41.2077 -0.0001
# 6 0.0002 0.0007 0.0001 1.9569 -0.0001 21.2203
#
#
#
# Elastic Compliance Matrix: (Units=1/GPa)
#
#
# Indices 1 2 3 4 5 6 
#
# 1 0.009335 -0.001688 -0.001967 0.000000 -0.006237 0.000000
# 2 -0.001688 0.012898 -0.000985 0.000000 -0.003371 0.000000
# 3 -0.001967 -0.000985 0.008757 0.000000 0.000180 0.000000
# 4 0.000000 0.000000 0.000000 0.039174 0.000000 -0.003613
# 5 -0.006237 -0.003371 0.000180 0.000000 0.030358 0.000000
# 6 0.000000 0.000000 0.000000 -0.003613 0.000000 0.047458
#
#
# Mechanical properties :
#
#
# Convention : Reuss Voigt Hill
#
# Bulk Modulus (GPa) = 46.06419 56.78860 51.42639
# Shear Modulus (GPa) = 30.39569 35.72520 33.06044
#
# Velocity S-wave (km/s) = 3.45726 3.74812 3.60562
# Velocity P-wave (km/s) = 5.83531 6.40800 6.12835
#
# Compressibility (1/GPa) = 0.02170884
#
# Stress axis : x y z
#
# Youngs Moduli (GPa) = 107.12000 77.53366 114.19845
#
# Poissons Ratio (x) = 0.13091 0.22460
# Poissons Ratio (y) = 0.18086 0.11251
# Poissons Ratio (z) = 0.21068 0.07639
#
# Static dielectric constant tensor:
#      x y z
#    x 2.153160 0.000000 -0.026550 
#    y 0.000000 1.913890 0.000000 
#    z -0.026550 0.000000 1.877850 
# 
# From -- ./inp_files/314770.got.cif
#   From: 2010.05.17/outbox.cif.g08.bks.cpg/sg12_158_cif.got.tgz:314770.got - 2010.06.03 13:09:07.
