data_PCOD9202870
_publ_section_title
;
Structure prediction by ZEFSAII (Michael W. Deem and Ramdas Pophale) SiO2 
 PCOD9202870
Probable space group: C 2/M
;
_chemical_formula_sum "Si O2"
_cell_formula_units_Z 56
_cell_length_a 9.587063
_cell_length_b 16.406580
_cell_length_c 17.162415
_cell_angle_alpha 90.000000
_cell_angle_beta 75.035550
_cell_angle_gamma 90.000000
_cell_volume 2607.942023
_symmetry_space_group_name_H-M "C 2/M"
_symmetry_group_IT_number 12
_symmetry_cell_setting 'monoclinic'
loop_
_space_group_symop_operation_xyz
x,y,z
-x,y,-z
-x,-y,-z
x,-y,z
1/2+x,1/2+y,z
1/2-x,1/2+y,-z
1/2-x,1/2-y,-z
1/2+x,1/2-y,z
loop_
_atom_site_type_symbol
_atom_site_label
_atom_site_fract_x
_atom_site_fract_y
_atom_site_fract_z
Si Si1 0.270535 0.598512 0.650051
Si Si2 0.860663 0.905107 0.925521
Si Si3 0.135418 0.406255 0.087581
Si Si4 0.337293 0.900485 0.504275
Si Si5 0.154005 0.844023 0.826364
Si Si6 0.409996 0.401272 0.338342
Si Si7 0.667024 0.842323 0.823699
O O1 0.264770 0.500000 0.652195
O O2 0.217703 0.625922 0.572878
O O3 0.435422 0.622217 0.647007
O O4 0.170557 0.632102 0.733326
O O5 0.781823 0.896310 0.853938
O O6 0.009940 0.857899 0.897943
O O7 0.892027 0.000000 0.937196
O O8 0.745685 0.875321 0.005802
O O9 0.099422 0.500000 0.074242
O O10 0.222503 0.400733 0.155731
O O11 0.988937 0.357200 0.116697
O O12 0.500000 0.873361 0.500000
O O13 0.220871 0.876465 0.586202
O O14 0.338764 0.000000 0.503381
O O15 0.114178 0.865073 0.743659
O O16 0.206848 0.751797 0.825531
O O17 0.409533 0.500000 0.331742
#
# Coordination Sequence:
#
# PCOD9202870 Si02
#       7
#     8   8   8   8   8   8   8
#     4  10  20  38  64  89 122 168 213 251 301 375
#     4  11  23  45  67  88 121 168 219 261 312 381
#     4  11  25  41  65  94 123 162 215 271 316 365
#     4   9  19  35  60  97 128 155 203 265 312 355
#     4  12  25  40  62  94 131 168 207 259 319 376
#     4  10  20  38  64  89 122 168 213 251 301 375
#     4  12  25  40  62  94 131 168 207 259 319 376
#
# _framework density 21.47287
#
# number of rings (size 3 to 8) (size 9 to 14) (size 15 to 20)
#    0.000    1.286    1.429    4.714    2.000    7.429 
#    0.000    0.714    0.000    0.000    0.000    0.000 
#    0.000    0.000    0.000    0.000    0.000    0.000 
#
# Total GULP energy -156652.938569 kJ/mol
# GULP energy per Si atom -5594.747806 kJ/mol
# Density = 2.142400 g / cm^3
# Si number density = 21.472870 Si / 1000 Ang^3
#
#
#
# Elastic Constant Matrix: (Units=GPa)
#
#
# Indices 1 2 3 4 5 6 
#
# 1 66.2226 6.0170 19.4042 0.0000 8.3725 0.0000
# 2 6.0170 31.7655 11.7530 0.0000 -3.6323 0.0000
# 3 19.4042 11.7530 104.0627 0.0000 -1.4074 0.0000
# 4 0.0000 0.0000 0.0000 -7.3303 0.0000 -19.6701
# 5 8.3725 -3.6323 -1.4074 0.0000 32.7561 0.0000
# 6 0.0000 0.0000 0.0000 -19.6701 0.0000 5.8371
#
#
#
# Elastic Compliance Matrix: (Units=1/GPa)
#
#
# Indices 1 2 3 4 5 6 
#
# 1 0.016784 -0.002647 -0.002894 0.000000 -0.004708 0.000000
# 2 -0.002647 0.033674 -0.003252 0.000000 0.004271 0.000000
# 3 -0.002894 -0.003252 0.010528 0.000000 0.000832 0.000000
# 4 0.000000 0.000000 0.000000 -0.013584 0.000000 -0.045776
# 5 -0.004708 0.004271 0.000832 0.000000 0.032241 0.000000
# 6 0.000000 0.000000 0.000000 -0.045776 0.000000 0.017059
#
#
# Mechanical properties :
#
#
# Convention : Reuss Voigt Hill
#
# Bulk Modulus (GPa) = 23.04163 30.71103 26.87633
# Shear Modulus (GPa) = 38.83354 17.24436 28.03895
#
# Velocity S-wave (km/s) = 4.25725 2.83694 3.61748
# Velocity P-wave (km/s) = 5.90927 5.00642 5.47648
#
# Compressibility (1/GPa) = 0.04339970
#
# Stress axis : x y z
#
# Youngs Moduli (GPa) = 59.57912 29.69692 94.98633
#
# Poissons Ratio (x) = 0.07860 0.27494
# Poissons Ratio (y) = 0.15769 0.30888
# Poissons Ratio (z) = 0.17245 0.09657
#
# Static dielectric constant tensor:
#      x y z
#    x 1.753620 0.000000 0.007040 
#    y 0.000000 1.737230 0.000000 
#    z 0.007040 0.000000 1.767760 
# 
# From -- ./inp_files/257042.got.cif
#   From: 2010.05.17/outbox.cif.g08.bks.cpg/sg12_129_cif.got.tgz:257042.got - 2010.06.03 13:09:07.
