data_PCOD9202549
_publ_section_title
;
Structure prediction by ZEFSAII (Michael W. Deem and Ramdas Pophale) SiO2 
 PCOD9202549
Probable space group: C 2/M
;
_chemical_formula_sum "Si O2"
_cell_formula_units_Z 44
_cell_length_a 17.425081
_cell_length_b 22.450234
_cell_length_c 15.276756
_cell_angle_alpha 90.000000
_cell_angle_beta 157.864179
_cell_angle_gamma 90.000000
_cell_volume 2251.861575
_symmetry_space_group_name_H-M "C 2/M"
_symmetry_group_IT_number 12
_symmetry_cell_setting 'monoclinic'
loop_
_space_group_symop_operation_xyz
x,y,z
-x,y,-z
-x,-y,-z
x,-y,z
1/2+x,1/2+y,z
1/2-x,1/2+y,-z
1/2-x,1/2-y,-z
1/2+x,1/2-y,z
loop_
_atom_site_type_symbol
_atom_site_label
_atom_site_fract_x
_atom_site_fract_y
_atom_site_fract_z
Si Si1 0.567335 0.872277 0.256156
Si Si2 0.500000 0.896169 0.500000
Si Si3 0.320061 0.500000 0.376756
Si Si4 0.844634 0.689704 0.184088
Si Si5 0.069037 0.208615 0.345084
Si Si6 0.787987 0.500000 0.552919
Si Si7 0.215849 0.000000 0.275732
Si Si8 0.500000 0.897226 0.000000
O O1 0.442937 0.840079 0.201010
O O2 0.802513 0.850278 0.498356
O O3 0.574676 0.941691 0.288021
O O4 0.470921 0.861650 0.058948
O O5 0.605742 0.852938 0.682661
O O6 0.341306 0.941069 0.379292
O O7 0.500000 0.500000 0.500000
O O8 0.368800 0.500000 0.531462
O O9 0.186230 0.441641 0.215649
O O10 0.955903 0.754407 0.302448
O O11 0.605964 0.697391 0.911663
O O12 0.250000 0.250000 0.500000
O O13 0.694956 0.500000 0.358455
O O14 0.000000 0.000000 0.000000
#
# Coordination Sequence:
#
# PCOD9202549 Si02
#       8
#     8   4   4   8   8   4   4   4
#     4  10  20  39  60  87 125 161 204 257 323 377
#     4  11  24  42  66  98 128 173 226 262 320 395
#     4   9  19  37  57  85 119 162 205 244 313 379
#     4  10  21  41  63  87 125 165 211 266 314 380
#     4   9  21  41  61  87 121 163 211 262 323 375
#     4  10  20  38  62  86 131 167 205 262 319 382
#     4  11  25  41  59 101 136 170 223 266 320 391
#     4   9  20  36  56  88 118 148 198 261 296 376
#
# _framework density 19.539387999999999
#
# number of rings (size 3 to 8) (size 9 to 14) (size 15 to 20)
#    0.000    2.182    1.818    0.545    2.545    2.909 
#    9.818    0.909    0.000    0.000    0.000    0.000 
#    0.000    0.000    0.000    0.000    0.000    0.000 
#
# Total GULP energy -122633.443046 kJ/mol
# GULP energy per Si atom -5574.247411 kJ/mol
# Density = 1.949492 g / cm^3
# Si number density = 19.539388 Si / 1000 Ang^3
#
#
#
# Elastic Constant Matrix: (Units=GPa)
#
#
# Indices 1 2 3 4 5 6 
#
# 1 128.5578 19.3249 64.9678 0.0000 -23.8284 0.0000
# 2 19.3249 91.3599 44.4998 0.0000 -1.9322 0.0000
# 3 64.9678 44.4998 126.6262 -0.0001 -10.6218 0.0000
# 4 0.0000 0.0000 -0.0001 19.3749 0.0000 -19.4152
# 5 -23.8284 -1.9322 -10.6218 0.0000 33.9700 0.0000
# 6 0.0000 0.0000 0.0000 -19.4152 0.0000 9.2961
#
#
#
# Elastic Compliance Matrix: (Units=1/GPa)
#
#
# Indices 1 2 3 4 5 6 
#
# 1 0.011774 0.000390 -0.005631 0.000000 0.006521 0.000000
# 2 0.000390 0.013236 -0.004894 0.000000 -0.000504 0.000000
# 3 -0.005631 -0.004894 0.012479 0.000000 -0.000326 0.000000
# 4 0.000000 0.000000 0.000000 -0.047227 0.000000 -0.098635
# 5 0.006521 -0.000504 -0.000326 0.000000 0.033881 0.000000
# 6 0.000000 0.000000 0.000000 -0.098635 0.000000 -0.098431
#
#
# Mechanical properties :
#
#
# Convention : Reuss Voigt Hill
#
# Bulk Modulus (GPa) = 58.07358 67.12544 62.59951
# Shear Modulus (GPa) = -103.56730 27.04498 -38.26116
#
# Velocity S-wave (km/s) = -7.28831 3.72442 -4.42991
# Velocity P-wave (km/s) = 6.40626 7.27486 2.43757
#
# Compressibility (1/GPa) = 0.01721954
#
# Stress axis : x y z
#
# Youngs Moduli (GPa) = 84.93069 75.54964 80.13505
#
# Poissons Ratio (x) = -0.02948 0.45125
# Poissons Ratio (y) = -0.03314 0.39218
# Poissons Ratio (z) = 0.47826 0.36974
#
# Static dielectric constant tensor:
#      x y z
#    x 1.718390 0.000000 -0.014330 
#    y 0.000000 1.760820 0.000000 
#    z -0.014330 0.000000 1.675120 
# 
# From -- ./inp_files/12148.got.cif
#   From: 2010.05.17/outbox.cif.g08.bks.cpg/sg12_7_cif.got.tgz:12148.got - 2010.06.03 13:09:07.
