data_PCOD9202037
_publ_section_title
;
Structure prediction by ZEFSAII (Michael W. Deem and Ramdas Pophale) SiO2 
 PCOD9202037
Probable space group: C 2/M
;
_chemical_formula_sum "Si O2"
_cell_formula_units_Z 56
_cell_length_a 22.667580
_cell_length_b 12.441153
_cell_length_c 15.135630
_cell_angle_alpha 90.000000
_cell_angle_beta 35.538507
_cell_angle_gamma 90.000000
_cell_volume 2481.014112
_symmetry_space_group_name_H-M "C 2/M"
_symmetry_group_IT_number 12
_symmetry_cell_setting 'monoclinic'
loop_
_space_group_symop_operation_xyz
x,y,z
-x,y,-z
-x,-y,-z
x,-y,z
1/2+x,1/2+y,z
1/2-x,1/2+y,-z
1/2-x,1/2-y,-z
1/2+x,1/2-y,z
loop_
_atom_site_type_symbol
_atom_site_label
_atom_site_fract_x
_atom_site_fract_y
_atom_site_fract_z
Si Si1 0.885048 0.616977 0.252874
Si Si2 0.222474 0.618297 0.427832
Si Si3 0.960690 0.843611 0.142294
Si Si4 0.985887 0.162834 0.731405
Si Si5 0.192990 0.825392 0.175039
Si Si6 0.188255 0.162344 0.383794
Si Si7 0.120137 0.626181 0.169965
O O1 0.934061 0.500000 0.196127
O O2 0.829220 0.638455 0.414411
O O3 0.959260 0.713958 0.142966
O O4 0.793294 0.618127 0.294319
O O5 0.192774 0.500000 0.433857
O O6 0.343541 0.623205 0.295244
O O7 0.196668 0.709951 0.390217
O O8 0.018631 0.872062 0.161521
O O9 0.000000 0.881617 0.000000
O O10 0.891388 0.126045 0.787774
O O11 0.974100 0.294350 0.737237
O O12 0.091377 0.128038 0.559301
O O13 0.175389 0.857861 0.296525
O O14 0.302273 0.860292 0.006380
O O15 0.176108 0.696055 0.179524
O O16 0.100050 0.500000 0.210838
#
# Coordination Sequence:
#
# PCOD9202037 Si02
#       7
#     8   8   8   8   8   8   8
#     4  10  21  38  59  84 117 156 192 238 292 342
#     4  10  21  38  59  83 116 157 195 237 288 343
#     4  11  22  37  61  86 119 152 193 241 297 342
#     4  10  20  38  57  85 117 154 186 241 287 336
#     4   9  22  37  60  86 116 159 187 234 298 344
#     4  11  19  38  61  85 119 154 194 240 286 348
#     4   9  21  40  59  83 119 153 190 237 288 343
#
# _framework density 22.571417
#
# number of rings (size 3 to 8) (size 9 to 14) (size 15 to 20)
#    0.857    1.143    2.857    1.286    4.000    2.857 
#    0.000    2.143    0.000    1.714    0.000    0.000 
#    0.000    0.000    0.000    0.000    0.000    0.000 
#
# Total GULP energy -156340.982154 kJ/mol
# GULP energy per Si atom -5583.606505 kJ/mol
# Density = 2.252004 g / cm^3
# Si number density = 22.571417 Si / 1000 Ang^3
#
#
#
# Elastic Constant Matrix: (Units=GPa)
#
#
# Indices 1 2 3 4 5 6 
#
# 1 121.0468 -2.5512 45.8346 0.0000 24.5024 0.0000
# 2 -2.5512 134.9005 4.1709 0.0000 7.0225 0.0000
# 3 45.8346 4.1709 52.8676 0.0000 29.3275 0.0000
# 4 0.0000 0.0000 0.0000 -0.2637 0.0000 5.3647
# 5 24.5024 7.0225 29.3275 0.0000 34.5777 0.0000
# 6 0.0000 0.0000 0.0000 5.3647 0.0000 -23.3777
#
#
#
# Elastic Compliance Matrix: (Units=1/GPa)
#
#
# Indices 1 2 3 4 5 6 
#
# 1 0.012346 0.000549 -0.011014 0.000000 0.000482 0.000000
# 2 0.000549 0.007523 -0.000011 0.000000 -0.001907 0.000000
# 3 -0.011014 -0.000011 0.045579 0.000000 -0.030852 0.000000
# 4 0.000000 0.000000 0.000000 1.033671 0.000000 0.237208
# 5 0.000482 -0.001907 -0.030852 0.000000 0.055134 0.000000
# 6 0.000000 0.000000 0.000000 0.237208 0.000000 0.011659
#
#
# Mechanical properties :
#
#
# Convention : Reuss Voigt Hill
#
# Bulk Modulus (GPa) = 22.47437 44.85817 33.66627
# Shear Modulus (GPa) = 4.16078 19.61132 11.88605
#
# Velocity S-wave (km/s) = 1.35919 2.95083 2.29726
# Velocity P-wave (km/s) = 3.52729 5.61488 4.68875
#
# Compressibility (1/GPa) = 0.04449512
#
# Stress axis : x y z
#
# Youngs Moduli (GPa) = 80.99931 132.92777 21.93972
#
# Poissons Ratio (x) = -0.07297 0.24164
# Poissons Ratio (y) = -0.04446 0.00025
# Poissons Ratio (z) = 0.89212 0.00153
#
# Static dielectric constant tensor:
#      x y z
#    x 1.820310 0.000000 -0.009040 
#    y 0.000000 1.908660 0.000000 
#    z -0.009040 0.000000 1.787300 
# 
# From -- ./inp_files/240409.got.cif
#   From: 2010.05.17/outbox.cif.g08.bks.cpg/sg12_121_cif.got.tgz:240409.got - 2010.06.03 13:09:07.
