data_PCOD9202731
_publ_section_title
;
Structure prediction by ZEFSAII (Michael W. Deem and Ramdas Pophale) SiO2 
 PCOD9202731
Probable space group: C 2/M
;
_chemical_formula_sum "Si O2"
_cell_formula_units_Z 44
_cell_length_a 12.905301
_cell_length_b 22.784799
_cell_length_c 8.126856
_cell_angle_alpha 90.000000
_cell_angle_beta 123.388372
_cell_angle_gamma 90.000000
_cell_volume 1995.268511
_symmetry_space_group_name_H-M "C 2/M"
_symmetry_group_IT_number 12
_symmetry_cell_setting 'monoclinic'
loop_
_space_group_symop_operation_xyz
x,y,z
-x,y,-z
-x,-y,-z
x,-y,z
1/2+x,1/2+y,z
1/2-x,1/2+y,-z
1/2-x,1/2-y,-z
1/2+x,1/2-y,z
loop_
_atom_site_type_symbol
_atom_site_label
_atom_site_fract_x
_atom_site_fract_y
_atom_site_fract_z
Si Si1 0.703495 0.375181 0.891574
Si Si2 0.228340 0.102550 0.298441
Si Si3 0.533590 0.320825 0.220497
Si Si4 0.929397 0.000000 0.696016
Si Si5 0.000000 0.384349 0.500000
Si Si6 0.314329 0.500000 0.234330
Si Si7 0.939925 0.688868 0.118219
O O1 0.716252 0.388983 0.094636
O O2 0.793778 0.319372 0.948736
O O3 0.559755 0.357125 0.743104
O O4 0.745599 0.435296 0.838484
O O5 0.128582 0.055278 0.265657
O O6 0.372025 0.084618 0.444784
O O7 0.178169 0.160166 0.354050
O O8 0.495363 0.253137 0.201588
O O9 0.500000 0.334077 0.000000
O O10 0.875604 0.000000 0.465606
O O11 0.076719 0.000000 0.808142
O O12 0.034048 0.346826 0.692127
O O13 0.000000 0.666830 0.000000
#
# Coordination Sequence:
#
# PCOD9202731 Si02
#       7
#     8   8   8   4   4   4   8
#     4  10  20  38  63  89 118 159 208 254 303 374
#     4  10  21  39  63  85 124 162 206 255 310 359
#     4   9  18  36  63  91 117 160 206 252 309 368
#     4  11  23  38  58  93 129 160 199 263 304 371
#     4  10  24  41  58  94 122 163 216 250 302 390
#     4  11  23  37  59  97 123 158 209 250 316 368
#     4  10  22  40  62  88 125 164 203 257 309 362
#
# _framework density 22.05217
#
# number of rings (size 3 to 8) (size 9 to 14) (size 15 to 20)
#    0.000    2.000    1.818    1.091    2.545    3.273 
#    3.273    1.364    0.000    0.000    0.000    0.000 
#    0.000    0.000    0.000    0.000    0.000    0.000 
#
# Total GULP energy -122468.258743 kJ/mol
# GULP energy per Si atom -5566.739034 kJ/mol
# Density = 2.200198 g / cm^3
# Si number density = 22.052170 Si / 1000 Ang^3
#
#
#
# Elastic Constant Matrix: (Units=GPa)
#
#
# Indices 1 2 3 4 5 6 
#
# 1 78.6328 7.7121 15.8897 0.0000 5.2997 0.0000
# 2 7.7121 63.8610 -4.9019 0.0000 -5.5736 0.0000
# 3 15.8897 -4.9019 29.9157 0.0000 -3.4133 0.0000
# 4 0.0000 0.0000 0.0000 17.0894 0.0000 -4.8630
# 5 5.2997 -5.5736 -3.4133 0.0000 30.9605 0.0000
# 6 0.0000 0.0000 0.0000 -4.8630 0.0000 24.1559
#
#
#
# Elastic Compliance Matrix: (Units=1/GPa)
#
#
# Indices 1 2 3 4 5 6 
#
# 1 0.015081 -0.002864 -0.008946 0.000000 -0.004083 0.000000
# 2 -0.002864 0.016718 0.004719 0.000000 0.004020 0.000000
# 3 -0.008946 0.004719 0.039723 0.000000 0.006760 0.000000
# 4 0.000000 0.000000 0.000000 0.062072 0.000000 0.012496
# 5 -0.004083 0.004020 0.006760 0.000000 0.034467 0.000000
# 6 0.000000 0.000000 0.000000 0.012496 0.000000 0.043913
#
#
# Mechanical properties :
#
#
# Convention : Reuss Voigt Hill
#
# Bulk Modulus (GPa) = 17.43935 23.31214 20.37574
# Shear Modulus (GPa) = 20.38573 24.68847 22.53710
#
# Velocity S-wave (km/s) = 3.04375 3.34959 3.20033
# Velocity P-wave (km/s) = 4.50310 5.05510 4.78706
#
# Compressibility (1/GPa) = 0.05734158
#
# Stress axis : x y z
#
# Youngs Moduli (GPa) = 66.30793 59.81560 25.17418
#
# Poissons Ratio (x) = 0.17133 0.22520
# Poissons Ratio (y) = 0.18993 -0.11881
# Poissons Ratio (z) = 0.59316 -0.28229
#
# Static dielectric constant tensor:
#      x y z
#    x 1.898740 0.000000 0.080410 
#    y 0.000000 1.903660 0.000000 
#    z 0.080410 0.000000 1.818250 
# 
# From -- ./inp_files/51600.got.cif
#   From: 2010.05.17/outbox.cif.g08.bks.cpg/sg12_26_cif.got.tgz:51600.got - 2010.06.03 13:09:07.
