data_PCOD9202439
_publ_section_title
;
Structure prediction by ZEFSAII (Michael W. Deem and Ramdas Pophale) SiO2 
 PCOD9202439
Probable space group: C 2/M
;
_chemical_formula_sum "Si O2"
_cell_formula_units_Z 58
_cell_length_a 23.408267
_cell_length_b 7.591332
_cell_length_c 17.955451
_cell_angle_alpha 90.000000
_cell_angle_beta 46.586324
_cell_angle_gamma 90.000000
_cell_volume 2317.745613
_symmetry_space_group_name_H-M "C 2/M"
_symmetry_group_IT_number 12
_symmetry_cell_setting 'monoclinic'
loop_
_space_group_symop_operation_xyz
x,y,z
-x,y,-z
-x,-y,-z
x,-y,z
1/2+x,1/2+y,z
1/2-x,1/2+y,-z
1/2-x,1/2-y,-z
1/2+x,1/2-y,z
loop_
_atom_site_type_symbol
_atom_site_label
_atom_site_fract_x
_atom_site_fract_y
_atom_site_fract_z
Si Si1 0.536846 0.292908 0.066419
Si Si2 0.938712 0.712578 0.792873
Si Si3 0.635696 0.706261 0.728803
Si Si4 0.751514 0.794222 0.756508
Si Si5 0.223757 0.708333 0.107109
Si Si6 0.413805 0.716004 0.549463
Si Si7 0.386430 0.700442 0.408760
Si Si8 0.500000 0.000000 0.000000
O O1 0.538145 0.500000 0.044704
O O2 0.580433 0.267593 0.105256
O O3 0.448259 0.223412 0.167805
O O4 0.556833 0.156678 0.984634
O O5 0.946278 0.500000 0.783071
O O6 0.866265 0.775418 0.808237
O O7 0.021155 0.795886 0.696123
O O8 0.620536 0.500000 0.729428
O O9 0.697928 0.719532 0.738651
O O10 0.654539 0.779191 0.629021
O O11 0.729137 0.766909 0.862490
O O12 0.841147 0.728622 0.666026
O O13 0.751907 0.000000 0.741039
O O14 0.221672 0.500000 0.113901
O O15 0.250000 0.750000 0.000000
O O16 0.500000 0.775058 0.500000
O O17 0.417811 0.500000 0.543339
O O18 0.388417 0.779616 0.489413
O O19 0.357449 0.500000 0.443826
#
# Coordination Sequence:
#
# PCOD9202439 Si02
#       8
#     8   8   8   8   8   8   8   2
#     4  10  22  39  61  89 122 166 208 259 330 381
#     4  10  20  38  61  88 119 155 204 265 315 373
#     4   9  20  38  58  84 123 167 210 255 315 384
#     4  11  23  38  62  90 122 165 210 264 324 381
#     4  11  25  43  63  86 118 159 207 260 320 382
#     4   9  18  34  58  92 127 161 209 264 317 382
#     4   9  18  35  62  90 122 166 210 254 313 385
#     4  12  22  36  60  90 128 156 210 276 304 388
#
# _framework density 25.024317
#
# number of rings (size 3 to 8) (size 9 to 14) (size 15 to 20)
#    0.000    2.069    0.690    3.103    0.966    5.517 
#    0.000    1.379    0.000    3.724    0.000    0.000 
#    0.000    0.000    0.000    0.000    0.000    0.000 
#
# Total GULP energy -161772.951463 kJ/mol
# GULP energy per Si atom -5578.377637 kJ/mol
# Density = 2.496736 g / cm^3
# Si number density = 25.024317 Si / 1000 Ang^3
#
#
#
# Elastic Constant Matrix: (Units=GPa)
#
#
# Indices 1 2 3 4 5 6 
#
# 1 184.6847 0.5032 52.7479 -0.0010 32.6925 -0.0562
# 2 0.5032 97.4879 -9.0985 -0.0054 1.9741 -0.0856
# 3 52.7479 -9.0985 90.5669 -0.0025 33.7318 -0.0271
# 4 -0.0010 -0.0054 -0.0025 -1.7498 0.0017 -3.4676
# 5 32.6925 1.9741 33.7318 0.0017 49.7165 0.0256
# 6 -0.0562 -0.0856 -0.0271 -3.4676 0.0256 10.3800
#
#
#
# Elastic Compliance Matrix: (Units=1/GPa)
#
#
# Indices 1 2 3 4 5 6 
#
# 1 0.006701 -0.000274 -0.003069 -0.000039 -0.002314 0.000019
# 2 -0.000274 0.010450 0.001735 -0.000132 -0.001412 0.000049
# 3 -0.003069 0.001735 0.016429 -0.000097 -0.009198 0.000031
# 4 -0.000039 -0.000132 -0.000097 -0.343855 0.000168 -0.114872
# 5 -0.002314 -0.001412 -0.009198 0.000168 0.027932 -0.000061
# 6 0.000019 0.000049 0.000031 -0.114872 -0.000061 0.057966
#
#
# Mechanical properties :
#
#
# Convention : Reuss Voigt Hill
#
# Bulk Modulus (GPa) = 32.93268 51.22718 42.07993
# Shear Modulus (GPa) = -23.69212 33.57513 4.94150
#
# Velocity S-wave (km/s) = -3.08029 3.66690 1.40676
# Velocity P-wave (km/s) = 0.73343 6.20029 4.41483
#
# Compressibility (1/GPa) = 0.03036498
#
# Stress axis : x y z
#
# Youngs Moduli (GPa) = 149.22151 95.69656 60.86815
#
# Poissons Ratio (x) = 0.02623 0.18680
# Poissons Ratio (y) = 0.04091 -0.10563
# Poissons Ratio (z) = 0.45794 -0.16607
#
# Static dielectric constant tensor:
#      x y z
#    x 1.988950 0.000010 0.011740 
#    y 0.000010 1.860220 0.000010 
#    z 0.011740 0.000010 2.095910 
# 
# From -- ./inp_files/282132.got.cif
#   From: 2010.05.17/outbox.cif.g08.bks.cpg/sg12_142_cif.got.tgz:282132.got - 2010.06.03 13:09:07.
