data_PCOD9202807
_publ_section_title
;
Structure prediction by ZEFSAII (Michael W. Deem and Ramdas Pophale) SiO2 
 PCOD9202807
Probable space group: C 2/M
;
_chemical_formula_sum "Si O2"
_cell_formula_units_Z 64
_cell_length_a 18.490488
_cell_length_b 14.329910
_cell_length_c 15.763231
_cell_angle_alpha 90.000000
_cell_angle_beta 132.454353
_cell_angle_gamma 90.000000
_cell_volume 3081.660245
_symmetry_space_group_name_H-M "C 2/M"
_symmetry_group_IT_number 12
_symmetry_cell_setting 'monoclinic'
loop_
_space_group_symop_operation_xyz
x,y,z
-x,y,-z
-x,-y,-z
x,-y,z
1/2+x,1/2+y,z
1/2-x,1/2+y,-z
1/2-x,1/2-y,-z
1/2+x,1/2-y,z
loop_
_atom_site_type_symbol
_atom_site_label
_atom_site_fract_x
_atom_site_fract_y
_atom_site_fract_z
Si Si1 0.260534 0.607066 0.330732
Si Si2 0.259752 0.610925 0.799688
Si Si3 0.308441 0.611133 0.649289
Si Si4 0.655374 0.279595 0.978903
Si Si5 0.491010 0.288315 0.713429
Si Si6 0.129082 0.390471 0.393664
Si Si7 0.889131 0.397587 0.944912
Si Si8 0.910594 0.249465 0.375598
O O1 0.296572 0.500000 0.362928
O O2 0.198289 0.624065 0.366304
O O3 0.185267 0.614671 0.192343
O O4 0.345981 0.680321 0.381933
O O5 0.242672 0.500000 0.787155
O O6 0.314670 0.634215 0.754063
O O7 0.160383 0.671080 0.717089
O O8 0.318226 0.645052 0.928354
O O9 0.319925 0.500000 0.648619
O O10 0.390236 0.660535 0.657396
O O11 0.199291 0.633294 0.528804
O O12 0.568906 0.309703 0.848195
O O13 0.750000 0.250000 0.000000
O O14 0.623553 0.186066 0.001422
O O15 0.461617 0.178887 0.685465
O O16 0.542166 0.308682 0.664494
O O17 0.102319 0.500000 0.375835
O O18 0.869642 0.500000 0.967770
O O19 0.000000 0.396981 0.000000
O O20 0.000000 0.290349 0.500000
#
# Coordination Sequence:
#
# PCOD9202807 Si02
#       8
#     8   8   8   8   8   8   8   8
#     4  10  20  38  63  93 132 169 206 261 324 384
#     4  11  25  46  67  89 128 177 221 263 318 380
#     4  10  23  43  66  94 131 171 215 263 313 378
#     4  12  25  44  62  91 132 172 211 264 320 379
#     4  12  24  38  66  97 128 166 216 263 321 380
#     4  10  21  40  66  99 131 163 211 268 323 376
#     4  10  21  38  65  96 123 160 208 261 319 374
#     4  12  24  41  66  96 132 170 215 266 325 386
#
# _framework density 20.768027
#
# number of rings (size 3 to 8) (size 9 to 14) (size 15 to 20)
#    0.000    1.125    2.500    3.375    1.750    4.000 
#    0.000    1.250    0.000    0.000    0.000    0.000 
#    0.000    0.000    0.000    0.000    0.000    0.000 
#
# Total GULP energy -179015.585819 kJ/mol
# GULP energy per Si atom -5594.237057 kJ/mol
# Density = 2.072076 g / cm^3
# Si number density = 20.768027 Si / 1000 Ang^3
#
#
#
# Elastic Constant Matrix: (Units=GPa)
#
#
# Indices 1 2 3 4 5 6 
#
# 1 48.4125 12.9331 -23.2940 0.0000 -1.5561 0.0000
# 2 12.9331 46.9447 -12.1144 0.0000 4.9888 0.0000
# 3 -23.2940 -12.1144 53.7022 0.0000 2.5776 0.0000
# 4 0.0000 0.0000 0.0000 26.8511 0.0000 -1.6471
# 5 -1.5561 4.9888 2.5776 0.0000 35.3382 0.0000
# 6 0.0000 0.0000 0.0000 -1.6471 0.0000 9.7904
#
#
#
# Elastic Compliance Matrix: (Units=1/GPa)
#
#
# Indices 1 2 3 4 5 6 
#
# 1 0.027087 -0.004843 0.010604 0.000000 0.001103 0.000000
# 2 -0.004843 0.023944 0.003485 0.000000 -0.003848 0.000000
# 3 0.010604 0.003485 0.024093 0.000000 -0.001782 0.000000
# 4 0.000000 0.000000 0.000000 0.037631 0.000000 0.006331
# 5 0.001103 -0.003848 -0.001782 0.000000 0.029020 0.000000
# 6 0.000000 0.000000 0.000000 0.006331 0.000000 0.103206
#
#
# Mechanical properties :
#
#
# Convention : Reuss Voigt Hill
#
# Bulk Modulus (GPa) = 10.68190 11.56763 11.12477
# Shear Modulus (GPa) = 19.40285 25.83158 22.61721
#
# Velocity S-wave (km/s) = 3.05989 3.53060 3.30364
# Velocity P-wave (km/s) = 4.19982 4.71192 4.46322
#
# Compressibility (1/GPa) = 0.09361628
#
# Stress axis : x y z
#
# Youngs Moduli (GPa) = 36.91771 41.76364 41.50648
#
# Poissons Ratio (x) = 0.20227 -0.44013
# Poissons Ratio (y) = 0.17880 -0.14466
# Poissons Ratio (z) = -0.39147 -0.14556
#
# Static dielectric constant tensor:
#      x y z
#    x 1.723300 0.000000 -0.022140 
#    y 0.000000 1.735740 0.000000 
#    z -0.022140 0.000000 1.748670 
# 
# From -- ./inp_files/225734.got.cif
#   From: 2010.05.17/outbox.cif.g08.bks.cpg/sg12_113_cif.got.tgz:225734.got - 2010.06.03 13:09:07.
