data_PCOD9202558
_publ_section_title
;
Structure prediction by ZEFSAII (Michael W. Deem and Ramdas Pophale) SiO2 
 PCOD9202558
Probable space group: C 2/M
;
_chemical_formula_sum "Si O2"
_cell_formula_units_Z 32
_cell_length_a 9.839319
_cell_length_b 22.170079
_cell_length_c 12.735799
_cell_angle_alpha 90.000000
_cell_angle_beta 34.222662
_cell_angle_gamma 90.000000
_cell_volume 1562.470664
_symmetry_space_group_name_H-M "C 2/M"
_symmetry_group_IT_number 12
_symmetry_cell_setting 'monoclinic'
loop_
_space_group_symop_operation_xyz
x,y,z
-x,y,-z
-x,-y,-z
x,-y,z
1/2+x,1/2+y,z
1/2-x,1/2+y,-z
1/2-x,1/2-y,-z
1/2+x,1/2-y,z
loop_
_atom_site_type_symbol
_atom_site_label
_atom_site_fract_x
_atom_site_fract_y
_atom_site_fract_z
Si Si1 0.526690 0.570152 0.829375
Si Si2 0.857173 0.633305 0.781013
Si Si3 0.429003 0.610052 0.432238
Si Si4 0.978569 0.754982 0.633532
O O1 0.526485 0.500000 0.858378
O O2 0.754914 0.602393 0.740011
O O3 0.523123 0.575826 0.706415
O O4 0.298782 0.603971 0.026821
O O5 0.821804 0.705657 0.794549
O O6 0.140580 0.621903 0.616293
O O7 0.500000 0.582960 0.500000
O O8 0.575123 0.673966 0.330629
O O9 0.000000 0.734693 0.500000
O O10 0.250000 0.750000 0.500000
#
# Coordination Sequence:
#
# PCOD9202558 Si02
#       4
#     8   8   8   8
#     4  11  24  40  61  89 119 161 211 245 284 350
#     4  10  20  38  62  87 118 155 201 254 297 344
#     4  10  22  39  60  88 122 158 194 244 306 359
#     4   9  17  33  58  86 116 149 190 240 298 357
#
# _framework density 20.480384000000001
#
# number of rings (size 3 to 8) (size 9 to 14) (size 15 to 20)
#    0.000    2.000    0.000    5.250    0.000    5.500 
#    0.000    6.250    0.000    0.000    0.000    0.000 
#    0.000    0.000    0.000    0.000    0.000    0.000 
#
# Total GULP energy -89233.717256 kJ/mol
# GULP energy per Si atom -5577.107328 kJ/mol
# Density = 2.043377 g / cm^3
# Si number density = 20.480384 Si / 1000 Ang^3
#
#
#
# Elastic Constant Matrix: (Units=GPa)
#
#
# Indices 1 2 3 4 5 6 
#
# 1 141.7187 37.8593 54.1147 0.0000 29.5411 0.0000
# 2 37.8593 91.7368 43.0909 0.0001 -10.9413 0.0000
# 3 54.1147 43.0909 76.2030 -0.0002 3.6423 0.0001
# 4 0.0000 0.0001 -0.0002 51.9351 0.0000 -7.9825
# 5 29.5411 -10.9413 3.6423 0.0000 26.6373 0.0000
# 6 0.0000 0.0000 0.0001 -7.9825 0.0000 28.5118
#
#
#
# Elastic Compliance Matrix: (Units=1/GPa)
#
#
# Indices 1 2 3 4 5 6 
#
# 1 0.014505 -0.004876 -0.006722 0.000000 -0.017170 0.000000
# 2 -0.004876 0.018037 -0.007398 0.000000 0.013828 0.000000
# 3 -0.006722 -0.007398 0.022013 0.000000 0.001407 0.000000
# 4 0.000000 0.000000 0.000000 0.020121 0.000000 0.005633
# 5 -0.017170 0.013828 0.001407 0.000000 0.062070 0.000000
# 6 0.000000 0.000000 0.000000 0.005633 0.000000 0.036650
#
#
# Mechanical properties :
#
#
# Convention : Reuss Voigt Hill
#
# Bulk Modulus (GPa) = 60.37909 64.42092 62.40000
# Shear Modulus (GPa) = 23.05106 33.05641 28.05374
#
# Velocity S-wave (km/s) = 3.35852 4.02189 3.70508
# Velocity P-wave (km/s) = 6.67719 7.28633 6.98840
#
# Compressibility (1/GPa) = 0.01656203
#
# Stress axis : x y z
#
# Youngs Moduli (GPa) = 68.94265 55.44064 45.42822
#
# Poissons Ratio (x) = 0.27034 0.30539
# Poissons Ratio (y) = 0.33618 0.33607
# Poissons Ratio (z) = 0.46346 0.41014
#
# Static dielectric constant tensor:
#      x y z
#    x 1.723690 0.000000 0.017230 
#    y 0.000000 1.762040 0.000000 
#    z 0.017230 0.000000 1.717730 
# 
# From -- ./inp_files/37644.got.cif
#   From: 2010.05.17/outbox.cif.g08.bks.cpg/sg12_19_cif.got.tgz:37644.got - 2010.06.03 13:09:07.
