data_PCOD9202743
_publ_section_title
;
Structure prediction by ZEFSAII (Michael W. Deem and Ramdas Pophale) SiO2 
 PCOD9202743
Probable space group: C 2/M
;
_chemical_formula_sum "Si O2"
_cell_formula_units_Z 48
_cell_length_a 14.964391
_cell_length_b 8.476548
_cell_length_c 30.859949
_cell_angle_alpha 90.000000
_cell_angle_beta 37.801934
_cell_angle_gamma 90.000000
_cell_volume 2399.312378
_symmetry_space_group_name_H-M "C 2/M"
_symmetry_group_IT_number 12
_symmetry_cell_setting 'monoclinic'
loop_
_space_group_symop_operation_xyz
x,y,z
-x,y,-z
-x,-y,-z
x,-y,z
1/2+x,1/2+y,z
1/2-x,1/2+y,-z
1/2-x,1/2-y,-z
1/2+x,1/2-y,z
loop_
_atom_site_type_symbol
_atom_site_label
_atom_site_fract_x
_atom_site_fract_y
_atom_site_fract_z
Si Si1 0.304340 0.690986 0.668662
Si Si2 0.135958 0.191982 0.260097
Si Si3 0.811549 0.813401 0.370816
Si Si4 0.874076 0.812807 0.484457
Si Si5 0.326285 0.809777 0.106124
Si Si6 0.153056 0.811324 0.996812
O O1 0.294944 0.500000 0.668759
O O2 0.283597 0.736951 0.726473
O O3 0.196744 0.770744 0.676259
O O4 0.466667 0.741989 0.591290
O O5 0.214218 0.242922 0.186288
O O6 0.968191 0.243679 0.327692
O O7 0.132698 0.000000 0.260497
O O8 0.679151 0.735193 0.447522
O O9 0.801631 0.000000 0.381476
O O10 0.750000 0.750000 0.500000
O O11 0.876848 0.000000 0.480296
O O12 0.487884 0.756399 0.059238
O O13 0.325561 0.000000 0.103343
O O14 0.289995 0.740978 0.072642
O O15 0.147464 0.000000 0.000911
O O16 0.250000 0.750000 0.000000
#
# Coordination Sequence:
#
# PCOD9202743 Si02
#       6
#     8   8   8   8   8   8
#     4  10  21  39  57  79 112 151 190 235 291 342
#     4   9  20  39  59  81 118 156 185 230 288 343
#     4  11  22  38  57  83 114 148 192 239 287 341
#     4  11  21  36  59  81 109 147 192 242 294 343
#     4  10  20  38  63  90 120 154 192 235 288 342
#     4  11  22  39  62  90 122 154 193 236 283 337
#
# _framework density 20.005731000000001
#
# number of rings (size 3 to 8) (size 9 to 14) (size 15 to 20)
#    0.000    1.667    1.667    4.500    0.000    4.667 
#    0.000    8.333    0.000    0.000    0.000    0.000 
#    0.000    0.000    0.000    0.000    0.000    0.000 
#
# Total GULP energy -134042.551795 kJ/mol
# GULP energy per Si atom -5585.106325 kJ/mol
# Density = 1.996020 g / cm^3
# Si number density = 20.005731 Si / 1000 Ang^3
#
#
#
# Elastic Constant Matrix: (Units=GPa)
#
#
# Indices 1 2 3 4 5 6 
#
# 1 105.7642 9.3078 10.5445 -0.0001 24.7215 -0.0002
# 2 9.3078 46.9205 4.2201 0.0001 2.7521 0.0000
# 3 10.5445 4.2201 80.7914 0.0000 26.0659 0.0000
# 4 -0.0001 0.0001 0.0000 19.8979 0.0001 7.1917
# 5 24.7215 2.7521 26.0659 0.0001 23.8435 0.0001
# 6 -0.0002 0.0000 0.0000 7.1917 0.0001 34.1770
#
#
#
# Elastic Compliance Matrix: (Units=1/GPa)
#
#
# Indices 1 2 3 4 5 6 
#
# 1 0.013525 -0.001985 0.004309 0.000000 -0.018505 0.000000
# 2 -0.001985 0.021762 -0.001130 0.000000 0.000782 0.000000
# 3 0.004309 -0.001130 0.020506 0.000000 -0.026754 0.000000
# 4 0.000000 0.000000 0.000000 0.054393 0.000000 -0.011446
# 5 -0.018505 0.000782 -0.026754 0.000000 0.090284 0.000000
# 6 0.000000 0.000000 0.000000 -0.011446 0.000000 0.031668
#
#
# Mechanical properties :
#
#
# Convention : Reuss Voigt Hill
#
# Bulk Modulus (GPa) = 17.18784 31.29122 24.23953
# Shear Modulus (GPa) = 20.06860 29.54392 24.80626
#
# Velocity S-wave (km/s) = 3.17068 3.84705 3.52512
# Velocity P-wave (km/s) = 4.69195 5.95047 5.35829
#
# Compressibility (1/GPa) = 0.05818068
#
# Stress axis : x y z
#
# Youngs Moduli (GPa) = 73.93477 45.95111 48.76618
#
# Poissons Ratio (x) = 0.09123 -0.21011
# Poissons Ratio (y) = 0.14678 0.05510
# Poissons Ratio (z) = -0.31856 0.05192
#
# Static dielectric constant tensor:
#      x y z
#    x 1.722490 0.000000 0.020270 
#    y 0.000000 1.680720 0.000000 
#    z 0.020270 0.000000 1.734470 
# 
# From -- ./inp_files/374905.got.cif
#   From: 2010.05.17/outbox.cif.g08.bks.cpg/sg12_188_cif.got.tgz:374905.got - 2010.06.03 13:09:07.
