data_PCOD9202334
_publ_section_title
;
Structure prediction by ZEFSAII (Michael W. Deem and Ramdas Pophale) SiO2 
 PCOD9202334
Probable space group: C 2/M
;
_chemical_formula_sum "Si O2"
_cell_formula_units_Z 56
_cell_length_a 15.480311
_cell_length_b 7.969704
_cell_length_c 25.176513
_cell_angle_alpha 90.000000
_cell_angle_beta 61.237730
_cell_angle_gamma 90.000000
_cell_volume 2722.893628
_symmetry_space_group_name_H-M "C 2/M"
_symmetry_group_IT_number 12
_symmetry_cell_setting 'monoclinic'
loop_
_space_group_symop_operation_xyz
x,y,z
-x,y,-z
-x,-y,-z
x,-y,z
1/2+x,1/2+y,z
1/2-x,1/2+y,-z
1/2-x,1/2-y,-z
1/2+x,1/2-y,z
loop_
_atom_site_type_symbol
_atom_site_label
_atom_site_fract_x
_atom_site_fract_y
_atom_site_fract_z
Si Si1 0.071378 0.307223 0.932977
Si Si2 0.928754 0.796014 0.812824
Si Si3 0.374598 0.305752 0.196814
Si Si4 0.657319 0.305119 0.271581
Si Si5 0.649493 0.298139 0.498472
Si Si6 0.427887 0.294591 0.592583
Si Si7 0.757508 0.695256 0.937033
O O1 0.041274 0.500000 0.931719
O O2 0.077500 0.213138 0.875656
O O3 0.180187 0.300057 0.925393
O O4 0.000000 0.237569 0.000000
O O5 0.887325 0.731802 0.769226
O O6 0.863746 0.725211 0.880060
O O7 0.042083 0.750714 0.786943
O O8 0.921333 0.000000 0.817655
O O9 0.350022 0.500000 0.212746
O O10 0.274418 0.205337 0.231308
O O11 0.626933 0.500000 0.280744
O O12 0.619911 0.233914 0.338427
O O13 0.649555 0.500000 0.498086
O O14 0.750000 0.250000 0.500000
O O15 0.543599 0.245406 0.555094
O O16 0.634400 0.241632 0.441301
O O17 0.426299 0.500000 0.592000
O O18 0.731372 0.500000 0.940125
O O19 0.750000 0.750000 0.000000
#
# Coordination Sequence:
#
# PCOD9202334 Si02
#       7
#     8   8   8   8   8   8   8
#     4  11  23  39  59  83 111 146 189 235 290 354
#     4  10  22  39  58  81 113 149 190 237 291 352
#     4  11  23  38  57  85 116 148 188 241 294 342
#     4  10  20  38  61  81 112 158 201 238 287 353
#     4   9  17  33  57  85 119 153 197 243 285 341
#     4   8  17  34  56  82 114 159 200 234 284 348
#     4  12  24  38  59  84 113 145 186 239 294 350
#
# _framework density 20.566355999999999
#
# number of rings (size 3 to 8) (size 9 to 14) (size 15 to 20)
#    0.000    1.857    1.429    3.857    0.000    5.714 
#    0.000    4.286    0.000    0.000    0.000    0.000 
#    0.000    0.000    0.000    0.000    0.000    0.000 
#
# Total GULP energy -156305.367765 kJ/mol
# GULP energy per Si atom -5582.334563 kJ/mol
# Density = 2.051955 g / cm^3
# Si number density = 20.566356 Si / 1000 Ang^3
#
#
#
# Elastic Constant Matrix: (Units=GPa)
#
#
# Indices 1 2 3 4 5 6 
#
# 1 141.6571 6.0413 55.5001 0.0000 12.6734 0.0000
# 2 6.0413 27.3497 8.8994 0.0000 4.5541 0.0000
# 3 55.5001 8.8994 136.0202 0.0000 15.5556 0.0000
# 4 0.0000 0.0000 0.0000 1.9007 0.0000 -4.1874
# 5 12.6734 4.5541 15.5556 0.0000 18.1081 0.0000
# 6 0.0000 0.0000 0.0000 -4.1874 0.0000 18.6637
#
#
#
# Elastic Compliance Matrix: (Units=1/GPa)
#
#
# Indices 1 2 3 4 5 6 
#
# 1 0.008582 -0.000343 -0.003108 0.000000 -0.003251 0.000000
# 2 -0.000343 0.038473 -0.001439 -0.000001 -0.008199 0.000000
# 3 -0.003108 -0.001439 0.009342 0.000000 -0.005488 0.000000
# 4 0.000000 -0.000001 0.000000 1.040307 -0.000001 0.233403
# 5 -0.003251 -0.008199 -0.005488 -0.000001 0.064275 0.000000
# 6 0.000000 0.000000 0.000000 0.233403 0.000000 0.105946
#
#
# Mechanical properties :
#
#
# Convention : Reuss Voigt Hill
#
# Bulk Modulus (GPa) = 21.45176 49.54538 35.49857
# Shear Modulus (GPa) = 3.86924 23.37359 13.62141
#
# Velocity S-wave (km/s) = 1.37311 3.37485 2.57634
# Velocity P-wave (km/s) = 3.60098 6.27128 5.11351
#
# Compressibility (1/GPa) = 0.04661622
#
# Stress axis : x y z
#
# Youngs Moduli (GPa) = 116.51898 25.99227 107.04776
#
# Poissons Ratio (x) = 0.00892 0.33266
# Poissons Ratio (y) = 0.04000 0.15409
# Poissons Ratio (z) = 0.36210 0.03741
#
# Static dielectric constant tensor:
#      x y z
#    x 1.732630 0.000000 0.007530 
#    y 0.000000 1.818000 0.000000 
#    z 0.007530 0.000000 1.736980 
# 
# From -- ./inp_files/338500.got.cif
#   From: 2010.05.17/outbox.cif.g08.bks.cpg/sg12_170_cif.got.tgz:338500.got - 2010.06.03 13:09:07.
