data_PCOD9202213
_publ_section_title
;
Structure prediction by ZEFSAII (Michael W. Deem and Ramdas Pophale) SiO2 
 PCOD9202213
Probable space group: C 2/M
;
_chemical_formula_sum "Si O2"
_cell_formula_units_Z 56
_cell_length_a 9.642026
_cell_length_b 25.526111
_cell_length_c 15.298383
_cell_angle_alpha 90.000000
_cell_angle_beta 61.112765
_cell_angle_gamma 90.000000
_cell_volume 3296.783541
_symmetry_space_group_name_H-M "C 2/M"
_symmetry_group_IT_number 12
_symmetry_cell_setting 'monoclinic'
loop_
_space_group_symop_operation_xyz
x,y,z
-x,y,-z
-x,-y,-z
x,-y,z
1/2+x,1/2+y,z
1/2-x,1/2+y,-z
1/2-x,1/2-y,-z
1/2+x,1/2-y,z
loop_
_atom_site_type_symbol
_atom_site_label
_atom_site_fract_x
_atom_site_fract_y
_atom_site_fract_z
Si Si1 0.758888 0.809440 0.390693
Si Si2 0.064779 0.759524 0.072239
Si Si3 0.903559 0.938839 0.945106
Si Si4 0.951772 0.147871 0.783294
Si Si5 0.119419 0.660765 0.791087
Si Si6 0.537388 0.057420 0.091097
Si Si7 0.942576 0.297177 0.380677
O O1 0.870240 0.760137 0.382395
O O2 0.624827 0.795250 0.358684
O O3 0.659861 0.821191 0.508511
O O4 0.880852 0.852639 0.318157
O O5 0.041308 0.801941 0.154753
O O6 0.970628 0.706669 0.127300
O O7 0.250000 0.750000 0.000000
O O8 0.000000 0.779637 0.000000
O O9 0.924002 0.902220 0.854285
O O10 0.943429 0.000000 0.913723
O O11 0.725011 0.937522 0.034247
O O12 0.000000 0.920174 0.000000
O O13 0.802876 0.157641 0.764392
O O14 0.085709 0.672241 0.700199
O O15 0.045079 0.605170 0.837351
O O16 0.488833 0.000000 0.139215
O O17 0.500000 0.059743 0.000000
#
# Coordination Sequence:
#
# PCOD9202213 Si02
#       7
#     8   8   8   8   8   8   8
#     4  10  22  39  58  81 110 147 188 232 284 336
#     4  12  24  35  47  76 118 150 177 216 273 331
#     4  10  22  39  58  84 115 151 193 234 275 328
#     4  12  23  36  57  83 111 152 187 229 280 332
#     4  12  23  36  56  84 112 148 190 230 277 333
#     4  10  20  38  60  81 112 152 191 232 275 325
#     4  10  22  39  58  81 111 145 189 234 279 342
#
# _framework density 16.986253000000001
#
# number of rings (size 3 to 8) (size 9 to 14) (size 15 to 20)
#    0.000    1.143    4.286    2.571    4.000    1.714 
#    0.000    0.000    0.000    0.857    0.000    4.000 
#    0.000    0.000    0.000    0.000    0.000    0.000 
#
# Total GULP energy -156265.508298 kJ/mol
# GULP energy per Si atom -5580.911011 kJ/mol
# Density = 1.694759 g / cm^3
# Si number density = 16.986253 Si / 1000 Ang^3
#
#
#
# Elastic Constant Matrix: (Units=GPa)
#
#
# Indices 1 2 3 4 5 6 
#
# 1 129.2769 12.3922 36.0636 0.0000 9.1096 0.0000
# 2 12.3922 79.0562 27.8677 0.0000 -1.7056 0.0000
# 3 36.0636 27.8677 71.4900 0.0000 2.5839 0.0000
# 4 0.0000 0.0000 0.0000 18.5138 0.0000 0.2885
# 5 9.1096 -1.7056 2.5839 0.0000 28.0153 0.0000
# 6 0.0000 0.0000 0.0000 0.2885 0.0000 19.7480
#
#
#
# Elastic Compliance Matrix: (Units=1/GPa)
#
#
# Indices 1 2 3 4 5 6 
#
# 1 0.009184 0.000123 -0.004588 0.000000 -0.002556 0.000000
# 2 0.000123 0.014723 -0.005851 0.000000 0.001396 0.000000
# 3 -0.004588 -0.005851 0.018604 0.000000 -0.000580 0.000000
# 4 0.000000 0.000000 0.000000 0.054026 0.000000 -0.000789
# 5 -0.002556 0.001396 -0.000580 0.000000 0.036664 0.000000
# 6 0.000000 0.000000 0.000000 -0.000789 0.000000 0.050649
#
#
# Mechanical properties :
#
#
# Convention : Reuss Voigt Hill
#
# Bulk Modulus (GPa) = 45.71032 48.05221 46.88127
# Shear Modulus (GPa) = 23.60977 26.82209 25.21593
#
# Velocity S-wave (km/s) = 3.73223 3.97803 3.85709
# Velocity P-wave (km/s) = 6.74843 7.03207 6.89171
#
# Compressibility (1/GPa) = 0.02187690
#
# Stress axis : x y z
#
# Youngs Moduli (GPa) = 108.88991 67.92192 53.75054
#
# Poissons Ratio (x) = -0.00833 0.24662
# Poissons Ratio (y) = -0.01336 0.31452
# Poissons Ratio (z) = 0.49961 0.39744
#
# Static dielectric constant tensor:
#      x y z
#    x 1.574440 0.000000 -0.001730 
#    y 0.000000 1.576940 0.000000 
#    z -0.001730 0.000000 1.578170 
# 
# From -- ./inp_files/198355.got.cif
#   From: 2010.05.17/outbox.cif.g08.bks.cpg/sg12_100_cif.got.tgz:198355.got - 2010.06.03 13:09:07.
