data_PCOD9202512
_publ_section_title
;
Structure prediction by ZEFSAII (Michael W. Deem and Ramdas Pophale) SiO2 
 PCOD9202512
Probable space group: C 2/M
;
_chemical_formula_sum "Si O2"
_cell_formula_units_Z 48
_cell_length_a 22.670487
_cell_length_b 13.105197
_cell_length_c 15.227069
_cell_angle_alpha 90.000000
_cell_angle_beta 29.566532
_cell_angle_gamma 90.000000
_cell_volume 2232.285256
_symmetry_space_group_name_H-M "C 2/M"
_symmetry_group_IT_number 12
_symmetry_cell_setting 'monoclinic'
loop_
_space_group_symop_operation_xyz
x,y,z
-x,y,-z
-x,-y,-z
x,-y,z
1/2+x,1/2+y,z
1/2-x,1/2+y,-z
1/2-x,1/2-y,-z
1/2+x,1/2-y,z
loop_
_atom_site_type_symbol
_atom_site_label
_atom_site_fract_x
_atom_site_fract_y
_atom_site_fract_z
Si Si1 0.105739 0.753124 0.785452
Si Si2 0.718906 0.738974 0.142290
Si Si3 0.651425 0.121931 0.553880
Si Si4 0.914090 0.880120 0.938765
Si Si5 0.778479 0.618504 0.221535
Si Si6 0.527598 0.709431 0.612237
O O1 0.217079 0.831787 0.633911
O O2 0.114393 0.670500 0.695261
O O3 0.130511 0.684584 0.838825
O O4 0.992429 0.823903 0.910779
O O5 0.781685 0.647843 0.114573
O O6 0.578339 0.719773 0.320507
O O7 0.750000 0.750000 0.000000
O O8 0.778866 0.836678 0.111131
O O9 0.566458 0.177942 0.593573
O O10 0.648459 0.000000 0.556749
O O11 0.976200 0.849009 0.765157
O O12 0.915796 0.000000 0.947839
O O13 0.797774 0.500000 0.210316
O O14 0.645850 0.651803 0.425940
#
# Coordination Sequence:
#
# PCOD9202512 Si02
#       6
#     8   8   8   8   8   8
#     4   9  19  33  54  90 120 146 199 247 282 348
#     4  10  23  40  55  83 120 152 195 242 286 350
#     4   9  16  30  55  85 122 157 183 235 304 350
#     4  10  20  38  62  84 120 167 197 232 293 357
#     4  11  22  39  66  91 115 150 193 250 304 342
#     4   9  20  37  61  93 119 146 202 254 285 343
#
# _framework density 21.50263
#
# number of rings (size 3 to 8) (size 9 to 14) (size 15 to 20)
#    0.000    2.333    0.000    3.000    0.000    5.333 
#    0.000   13.333    0.000    5.000    0.000    0.000 
#    0.000    0.000    0.000    0.000    0.000    0.000 
#
# Total GULP energy -134021.155405 kJ/mol
# GULP energy per Si atom -5584.214809 kJ/mol
# Density = 2.145369 g / cm^3
# Si number density = 21.502630 Si / 1000 Ang^3
#
#
#
# Elastic Constant Matrix: (Units=GPa)
#
#
# Indices 1 2 3 4 5 6 
#
# 1 167.6364 74.1040 29.6039 0.0000 -25.6549 0.0000
# 2 74.1040 222.7279 24.1764 0.0000 -15.7422 0.0000
# 3 29.6039 24.1764 46.6774 0.0000 -6.9301 0.0000
# 4 0.0000 0.0000 0.0000 19.1837 0.0000 1.3254
# 5 -25.6549 -15.7422 -6.9301 0.0000 33.2805 0.0000
# 6 0.0000 0.0000 0.0000 1.3254 0.0000 14.4530
#
#
#
# Elastic Compliance Matrix: (Units=1/GPa)
#
#
# Indices 1 2 3 4 5 6 
#
# 1 0.008176 -0.002018 -0.003453 0.000000 0.004629 0.000000
# 2 -0.002018 0.005361 -0.001395 0.000000 0.000690 0.000000
# 3 -0.003453 -0.001395 0.024603 0.000000 0.001802 0.000000
# 4 0.000000 0.000000 0.000000 0.052460 0.000000 -0.004811
# 5 0.004629 0.000690 0.001802 0.000000 0.034317 0.000000
# 6 0.000000 0.000000 0.000000 -0.004811 0.000000 0.069631
#
#
# Mechanical properties :
#
#
# Convention : Reuss Voigt Hill
#
# Bulk Modulus (GPa) = 40.96760 76.97894 58.97327
# Shear Modulus (GPa) = 23.10371 33.99392 28.54882
#
# Velocity S-wave (km/s) = 3.28145 3.98039 3.64770
# Velocity P-wave (km/s) = 5.78368 7.54998 6.72507
#
# Compressibility (1/GPa) = 0.02440954
#
# Stress axis : x y z
#
# Youngs Moduli (GPa) = 122.31658 186.51918 40.64514
#
# Poissons Ratio (x) = 0.37643 0.14033
# Poissons Ratio (y) = 0.24685 0.05668
# Poissons Ratio (z) = 0.42231 0.26010
#
# Static dielectric constant tensor:
#      x y z
#    x 1.808360 0.000000 0.087530 
#    y 0.000000 1.696070 0.000000 
#    z 0.087530 0.000000 1.990870 
# 
# From -- ./inp_files/165825.got.cif
#   From: 2010.05.17/outbox.cif.g08.bks.cpg/sg12_83_cif.got.tgz:165825.got - 2010.06.03 13:09:07.
