data_PCOD9202832
_publ_section_title
;
Structure prediction by ZEFSAII (Michael W. Deem and Ramdas Pophale) SiO2 
 PCOD9202832
Probable space group: C 2/M
;
_chemical_formula_sum "Si O2"
_cell_formula_units_Z 48
_cell_length_a 10.170835
_cell_length_b 17.192523
_cell_length_c 15.342265
_cell_angle_alpha 90.000000
_cell_angle_beta 98.871149
_cell_angle_gamma 90.000000
_cell_volume 2650.691554
_symmetry_space_group_name_H-M "C 2/M"
_symmetry_group_IT_number 12
_symmetry_cell_setting 'monoclinic'
loop_
_space_group_symop_operation_xyz
x,y,z
-x,y,-z
-x,-y,-z
x,-y,z
1/2+x,1/2+y,z
1/2-x,1/2+y,-z
1/2-x,1/2-y,-z
1/2+x,1/2-y,z
loop_
_atom_site_type_symbol
_atom_site_label
_atom_site_fract_x
_atom_site_fract_y
_atom_site_fract_z
Si Si1 0.805190 0.089692 0.699865
Si Si2 0.387462 0.730114 0.060343
Si Si3 0.670074 0.910332 0.326516
Si Si4 0.650245 0.405278 0.493342
Si Si5 0.098386 0.135607 0.773249
Si Si6 0.578634 0.188972 0.762270
O O1 0.806102 0.116680 0.599273
O O2 0.584720 0.277893 0.729706
O O3 0.957520 0.094636 0.746803
O O4 0.760214 0.000000 0.699090
O O5 0.374015 0.655716 0.122957
O O6 0.426746 0.797780 0.133762
O O7 0.500000 0.719336 0.000000
O O8 0.250000 0.750000 0.000000
O O9 0.744360 0.882919 0.422018
O O10 0.782486 0.906615 0.263128
O O11 0.289154 0.856093 0.252559
O O12 0.626833 0.000000 0.333718
O O13 0.500000 0.378657 0.500000
O O14 0.645220 0.500000 0.494056
O O15 0.452131 0.143522 0.713115
#
# Coordination Sequence:
#
# PCOD9202832 Si02
#       6
#     8   8   8   8   8   8
#     4  11  20  37  59  84 117 153 191 235 275 326
#     4  10  20  38  64  81 106 151 192 226 280 369
#     4  11  20  37  59  84 117 155 193 232 279 335
#     4   9  18  33  56  82 113 160 201 218 263 347
#     4  10  21  36  61  85 108 146 200 230 279 343
#     4  10  23  36  57  89 116 140 194 238 294 332
#
# _framework density 18.108481999999999
#
# number of rings (size 3 to 8) (size 9 to 14) (size 15 to 20)
#    1.000    0.833    1.667    4.000    0.000    0.667 
#    0.000    7.500    0.000   20.000    0.000    0.000 
#    0.000    0.000    0.000    0.000    0.000    0.000 
#
# Total GULP energy -133796.143311 kJ/mol
# GULP energy per Si atom -5574.839305 kJ/mol
# Density = 1.806727 g / cm^3
# Si number density = 18.108482 Si / 1000 Ang^3
#
#
#
# Elastic Constant Matrix: (Units=GPa)
#
#
# Indices 1 2 3 4 5 6 
#
# 1 24.8901 -4.2522 -19.4476 0.0000 9.9761 0.0000
# 2 -4.2522 52.2165 -2.3994 0.0000 3.5389 0.0000
# 3 -19.4476 -2.3994 79.7775 0.0000 8.5780 0.0000
# 4 0.0000 0.0000 0.0000 -67.6869 0.0000 14.4934
# 5 9.9761 3.5389 8.5780 0.0000 35.9549 0.0000
# 6 0.0000 0.0000 0.0000 14.4934 0.0000 44.4777
#
#
#
# Elastic Compliance Matrix: (Units=1/GPa)
#
#
# Indices 1 2 3 4 5 6 
#
# 1 0.065519 0.007783 0.018723 0.000000 -0.023412 0.000000
# 2 0.007783 0.020255 0.003031 0.000000 -0.004876 0.000000
# 3 0.018723 0.003031 0.018249 0.000000 -0.009847 0.000000
# 4 0.000000 0.000000 0.000000 -0.013810 0.000000 0.004500
# 5 -0.023412 -0.004876 -0.009847 0.000000 0.037138 0.000000
# 6 0.000000 0.000000 0.000000 0.004500 0.000000 0.021017
#
#
# Mechanical properties :
#
#
# Convention : Reuss Voigt Hill
#
# Bulk Modulus (GPa) = 6.13138 11.63175 8.88156
# Shear Modulus (GPa) = 34.80461 14.74803 24.77632
#
# Velocity S-wave (km/s) = 4.38882 2.85691 3.70295
# Velocity P-wave (km/s) = 5.39218 4.16172 4.81641
#
# Compressibility (1/GPa) = 0.16309536
#
# Stress axis : x y z
#
# Youngs Moduli (GPa) = 15.26274 49.37173 54.79742
#
# Poissons Ratio (x) = -0.38424 -1.02598
# Poissons Ratio (y) = -0.11878 -0.16607
# Poissons Ratio (z) = -0.28577 -0.14963
#
# Static dielectric constant tensor:
#      x y z
#    x 1.581750 0.000000 0.004720 
#    y 0.000000 1.625410 0.000000 
#    z 0.004720 0.000000 1.619110 
# 
# From -- ./inp_files/196484.got.cif
#   From: 2010.05.17/outbox.cif.g08.bks.cpg/sg12_99_cif.got.tgz:196484.got - 2010.06.03 13:09:07.
