data_PCOD9202739
_publ_section_title
;
Structure prediction by ZEFSAII (Michael W. Deem and Ramdas Pophale) SiO2 
 PCOD9202739
Probable space group: C 2/M
;
_chemical_formula_sum "Si O2"
_cell_formula_units_Z 64
_cell_length_a 17.655728
_cell_length_b 14.358559
_cell_length_c 14.668487
_cell_angle_alpha 90.000000
_cell_angle_beta 54.021224
_cell_angle_gamma 90.000000
_cell_volume 3009.236276
_symmetry_space_group_name_H-M "C 2/M"
_symmetry_group_IT_number 12
_symmetry_cell_setting 'monoclinic'
loop_
_space_group_symop_operation_xyz
x,y,z
-x,y,-z
-x,-y,-z
x,-y,z
1/2+x,1/2+y,z
1/2-x,1/2+y,-z
1/2-x,1/2-y,-z
1/2+x,1/2-y,z
loop_
_atom_site_type_symbol
_atom_site_label
_atom_site_fract_x
_atom_site_fract_y
_atom_site_fract_z
Si Si1 0.903865 0.607726 0.781932
Si Si2 0.100545 0.897672 0.477031
Si Si3 0.063387 0.761939 0.661219
Si Si4 0.631267 0.749968 0.792483
Si Si5 0.512222 0.099307 0.098321
Si Si6 0.762006 0.105076 0.792480
Si Si7 0.194292 0.888185 0.885934
Si Si8 0.402825 0.610927 0.857614
O O1 0.917710 0.500000 0.742443
O O2 0.803843 0.641112 0.814992
O O3 0.993452 0.673050 0.694780
O O4 0.898694 0.604849 0.897323
O O5 0.101797 0.810633 0.543516
O O6 0.173199 0.893811 0.342987
O O7 0.000000 0.896777 0.500000
O O8 0.111535 0.000000 0.515129
O O9 0.149269 0.746576 0.671485
O O10 0.995262 0.838705 0.756295
O O11 0.531558 0.799708 0.857991
O O12 0.685683 0.819289 0.821582
O O13 0.645079 0.652167 0.830867
O O14 0.467269 0.000000 0.165116
O O15 0.500000 0.089663 0.000000
O O16 0.823718 0.126839 0.836739
O O17 0.723146 0.000000 0.831434
O O18 0.194551 0.000000 0.885276
O O19 0.137356 0.858084 0.016267
O O20 0.418944 0.500000 0.850293
#
# Coordination Sequence:
#
# PCOD9202739 Si02
#       8
#     8   8   8   8   8   8   8   8
#     4   9  20  38  56  78 112 155 192 228 273 329
#     4  10  20  38  63  90 113 136 181 244 298 333
#     4  11  22  36  60  86 112 147 187 235 286 342
#     4  11  24  35  55  84 118 153 187 224 276 346
#     4   9  19  34  53  79 112 145 183 233 282 327
#     4  10  21  38  62  88 112 140 184 244 293 330
#     4  10  23  38  53  78 119 161 194 227 267 330
#     4  10  21  37  58  84 111 148 195 237 280 330
#
# _framework density 21.267854
#
# number of rings (size 3 to 8) (size 9 to 14) (size 15 to 20)
#    0.000    2.000    1.250    1.500    5.250    3.000 
#    0.000    1.250    0.000    1.125    0.000    0.000 
#    0.000    0.000    0.000    0.000    0.000    0.000 
#
# Total GULP energy -178199.821257 kJ/mol
# GULP energy per Si atom -5568.744414 kJ/mol
# Density = 2.121945 g / cm^3
# Si number density = 21.267854 Si / 1000 Ang^3
#
#
#
# Elastic Constant Matrix: (Units=GPa)
#
#
# Indices 1 2 3 4 5 6 
#
# 1 60.7022 17.3674 0.0137 0.0000 9.9140 0.0000
# 2 17.3674 72.1770 13.3961 0.0000 2.5315 0.0000
# 3 0.0137 13.3961 35.9322 0.0000 7.3460 0.0000
# 4 0.0000 0.0000 0.0000 28.2618 0.0000 7.2606
# 5 9.9140 2.5315 7.3460 0.0000 22.7659 0.0000
# 6 0.0000 0.0000 0.0000 7.2606 0.0000 -26.4627
#
#
#
# Elastic Compliance Matrix: (Units=1/GPa)
#
#
# Indices 1 2 3 4 5 6 
#
# 1 0.019400 -0.005042 0.003731 0.000000 -0.009092 0.000000
# 2 -0.005042 0.016195 -0.006549 0.000000 0.002508 0.000000
# 3 0.003731 -0.006549 0.032604 0.000000 -0.011417 0.000000
# 4 0.000000 0.000000 0.000000 0.033054 0.000000 0.009069
# 5 -0.009092 0.002508 -0.011417 0.000000 0.051290 0.000000
# 6 0.000000 0.000000 0.000000 0.009069 0.000000 -0.035301
#
#
# Mechanical properties :
#
#
# Convention : Reuss Voigt Hill
#
# Bulk Modulus (GPa) = 19.05444 25.59620 22.32532
# Shear Modulus (GPa) = 33.23239 14.11526 23.67383
#
# Velocity S-wave (km/s) = 3.95722 2.57901 3.33998
# Velocity P-wave (km/s) = 5.46426 4.57490 5.03924
#
# Compressibility (1/GPa) = 0.05248121
#
# Stress axis : x y z
#
# Youngs Moduli (GPa) = 51.54533 61.74569 30.67077
#
# Poissons Ratio (x) = 0.31131 -0.11443
# Poissons Ratio (y) = 0.25988 0.20085
# Poissons Ratio (z) = -0.19231 0.40435
#
# Static dielectric constant tensor:
#      x y z
#    x 1.789150 0.000000 0.012660 
#    y 0.000000 1.867520 0.000000 
#    z 0.012660 0.000000 1.829180 
# 
# From -- ./inp_files/225272.got.cif
#   From: 2010.05.17/outbox.cif.g08.bks.cpg/sg12_113_cif.got.tgz:225272.got - 2010.06.03 13:09:07.
