data_PCOD9202491
_publ_section_title
;
Structure prediction by ZEFSAII (Michael W. Deem and Ramdas Pophale) SiO2 
 PCOD9202491
Probable space group: C 2/M
;
_chemical_formula_sum "Si O2"
_cell_formula_units_Z 60
_cell_length_a 9.325459
_cell_length_b 30.242660
_cell_length_c 10.658037
_cell_angle_alpha 90.000000
_cell_angle_beta 97.740098
_cell_angle_gamma 90.000000
_cell_volume 2978.465111
_symmetry_space_group_name_H-M "C 2/M"
_symmetry_group_IT_number 12
_symmetry_cell_setting 'monoclinic'
loop_
_space_group_symop_operation_xyz
x,y,z
-x,y,-z
-x,-y,-z
x,-y,z
1/2+x,1/2+y,z
1/2-x,1/2+y,-z
1/2-x,1/2-y,-z
1/2+x,1/2-y,z
loop_
_atom_site_type_symbol
_atom_site_label
_atom_site_fract_x
_atom_site_fract_y
_atom_site_fract_z
Si Si1 0.968122 0.384304 0.238011
Si Si2 0.546516 0.743966 0.360507
Si Si3 0.752299 0.050527 0.837338
Si Si4 0.523071 0.449460 0.716071
Si Si5 0.198525 0.306298 0.719345
Si Si6 0.807544 0.664758 0.561505
Si Si7 0.000000 0.879617 0.500000
Si Si8 0.673196 0.948309 0.116047
O O1 0.089837 0.368233 0.349880
O O2 0.057338 0.412095 0.145266
O O3 0.846461 0.419448 0.263388
O O4 0.866874 0.341845 0.190814
O O5 0.500000 0.733551 0.500000
O O6 0.635661 0.708010 0.289631
O O7 0.402234 0.763105 0.279958
O O8 0.655902 0.786002 0.384162
O O9 0.919539 0.055729 0.823595
O O10 0.712939 0.000000 0.809357
O O11 0.723967 0.059663 0.979884
O O12 0.503215 0.500000 0.666735
O O13 0.474869 0.412548 0.612837
O O14 0.688277 0.444406 0.777161
O O15 0.158648 0.329660 0.581689
O O16 0.642614 0.648603 0.549149
O O17 0.622757 0.000000 0.118225
#
# Coordination Sequence:
#
# PCOD9202491 Si02
#       8
#     8   8   8   8   8   8   4   8
#     4  11  20  36  51  86 115 138 187 238 290 335
#     4   9  18  34  52  77 110 153 194 228 274 329
#     4  10  21  38  61  85 109 145 196 247 287 324
#     4  10  21  37  55  81 118 156 194 229 279 346
#     4  10  21  34  54  80 118 152 187 232 280 342
#     4  10  21  32  52  77 117 152 187 229 276 337
#     4  12  21  34  54  82 120 158 186 218 285 352
#     4  10  20  38  62  83 110 147 193 247 288 320
#
# _framework density 20.144604000000001
#
# number of rings (size 3 to 8) (size 9 to 14) (size 15 to 20)
#    0.000    1.867    1.333    5.000    2.800    2.667 
#    0.000    0.000    0.000    4.800    0.000   14.933 
#    0.000    0.000    0.000    0.133    0.000    0.000 
#
# Total GULP energy -167131.573096 kJ/mol
# GULP energy per Si atom -5571.052437 kJ/mol
# Density = 2.009875 g / cm^3
# Si number density = 20.144604 Si / 1000 Ang^3
#
#
#
# Elastic Constant Matrix: (Units=GPa)
#
#
# Indices 1 2 3 4 5 6 
#
# 1 114.5339 38.2620 9.8799 0.0000 -22.4465 0.0000
# 2 38.2620 79.8785 23.8095 0.0000 -17.4093 0.0000
# 3 9.8799 23.8095 30.5691 0.0000 -9.3860 0.0000
# 4 0.0000 0.0000 0.0000 35.2931 0.0000 -19.8999
# 5 -22.4465 -17.4093 -9.3860 0.0000 28.1840 0.0000
# 6 0.0000 0.0000 0.0000 -19.8999 0.0000 48.3563
#
#
#
# Elastic Compliance Matrix: (Units=1/GPa)
#
#
# Indices 1 2 3 4 5 6 
#
# 1 0.011447 -0.004558 0.001989 0.000000 0.006963 0.000000
# 2 -0.004558 0.019266 -0.012246 0.000000 0.004192 0.000000
# 3 0.001989 -0.012246 0.044302 0.000000 0.008773 0.000000
# 4 0.000000 0.000000 0.000000 0.036895 0.000000 0.015183
# 5 0.006963 0.004192 0.008773 0.000000 0.046538 0.000000
# 6 0.000000 0.000000 0.000000 0.015183 0.000000 0.026928
#
#
# Mechanical properties :
#
#
# Convention : Reuss Voigt Hill
#
# Bulk Modulus (GPa) = 22.03390 40.98716 31.51053
# Shear Modulus (GPa) = 21.72640 32.56869 27.14755
#
# Velocity S-wave (km/s) = 3.28765 4.02524 3.67500
# Velocity P-wave (km/s) = 5.03717 6.48028 5.80376
#
# Compressibility (1/GPa) = 0.04538462
#
# Stress axis : x y z
#
# Youngs Moduli (GPa) = 87.35970 51.90439 22.57252
#
# Poissons Ratio (x) = 0.23659 -0.04489
# Poissons Ratio (y) = 0.39821 0.27641
# Poissons Ratio (z) = -0.17374 0.63560
#
# Static dielectric constant tensor:
#      x y z
#    x 1.782970 0.000000 -0.013120 
#    y 0.000000 1.774870 0.000000 
#    z -0.013120 0.000000 1.706080 
# 
# From -- ./inp_files/125286.got.cif
#   From: 2010.05.17/outbox.cif.g08.bks.cpg/sg12_63_cif.got.tgz:125286.got - 2010.06.03 13:09:07.
