data_PCOD9202317
_publ_section_title
;
Structure prediction by ZEFSAII (Michael W. Deem and Ramdas Pophale) SiO2 
 PCOD9202317
Probable space group: C 2/M
;
_chemical_formula_sum "Si O2"
_cell_formula_units_Z 56
_cell_length_a 28.157253
_cell_length_b 19.662636
_cell_length_c 5.201410
_cell_angle_alpha 90.000000
_cell_angle_beta 111.681952
_cell_angle_gamma 90.000000
_cell_volume 2675.994465
_symmetry_space_group_name_H-M "C 2/M"
_symmetry_group_IT_number 12
_symmetry_cell_setting 'monoclinic'
loop_
_space_group_symop_operation_xyz
x,y,z
-x,y,-z
-x,-y,-z
x,-y,z
1/2+x,1/2+y,z
1/2-x,1/2+y,-z
1/2-x,1/2-y,-z
1/2+x,1/2-y,z
loop_
_atom_site_type_symbol
_atom_site_label
_atom_site_fract_x
_atom_site_fract_y
_atom_site_fract_z
Si Si1 0.902012 0.919612 0.226584
Si Si2 0.633254 0.750000 0.266508
Si Si3 0.944271 0.852557 0.787557
Si Si4 0.944271 0.647443 0.989527
Si Si5 0.191315 0.826446 0.999864
Si Si6 0.808685 0.673554 0.234607
Si Si7 0.597989 0.919612 0.618538
O O1 0.941420 0.900147 0.532494
O O2 0.895663 0.000000 0.199045
O O3 0.920531 0.890295 0.989478
O O4 0.848208 0.881954 0.182339
O O5 0.591674 0.711588 0.360688
O O6 0.591674 0.788412 0.006009
O O7 0.670716 0.691466 0.242292
O O8 0.670716 0.808534 0.440571
O O9 0.000000 0.832602 0.000000
O O10 0.920531 0.609705 0.692646
O O11 0.941420 0.599853 0.233187
O O12 0.000000 0.667397 0.000000
O O13 0.250000 0.847521 0.104784
O O14 0.187135 0.750000 0.874269
O O15 0.848208 0.618046 0.210494
O O16 0.604337 0.000000 0.616392
#
# Coordination Sequence:
#
# PCOD9202317 Si02
#       7
#     8   8   8   8   8   8   8
#     4  11  24  41  60  90 126 159 202 253 302 363
#     4  10  20  38  60  94 124 156 202 262 300 362
#     4  11  23  39  63  89 122 163 205 251 304 360
#     4  11  23  39  63  89 122 163 205 251 304 360
#     4  10  20  38  64  89 118 159 201 248 303 363
#     4  10  20  38  64  89 118 159 201 248 303 363
#     4  11  24  41  60  90 126 159 202 253 302 363
#
# _framework density 20.926801000000001
#
# number of rings (size 3 to 8) (size 9 to 14) (size 15 to 20)
#    0.000    1.429    2.857    2.571    0.000    4.000 
#    0.000    2.857    0.000    3.429    0.000    0.000 
#    0.000    0.000    0.000    0.000    0.000    0.000 
#
# Total GULP energy -155967.317822 kJ/mol
# GULP energy per Si atom -5570.261351 kJ/mol
# Density = 2.087917 g / cm^3
# Si number density = 20.926801 Si / 1000 Ang^3
#
#
#
# Elastic Constant Matrix: (Units=GPa)
#
#
# Indices 1 2 3 4 5 6 
#
# 1 106.2910 22.6099 27.2747 0.0000 16.8418 0.0000
# 2 22.6099 68.1883 9.7788 0.0000 6.5742 0.0000
# 3 27.2747 9.7788 76.2646 0.0000 -1.4571 0.0000
# 4 0.0000 0.0000 0.0000 17.4973 0.0000 0.6002
# 5 16.8418 6.5742 -1.4571 0.0000 32.4486 0.0000
# 6 0.0000 0.0000 0.0000 0.6002 0.0000 18.6689
#
#
#
# Elastic Compliance Matrix: (Units=1/GPa)
#
#
# Indices 1 2 3 4 5 6 
#
# 1 0.011965 -0.002829 -0.004028 0.000000 -0.005818 0.000000
# 2 -0.002829 0.015930 -0.001065 0.000000 -0.001807 0.000000
# 3 -0.004028 -0.001065 0.014746 0.000000 0.002968 0.000000
# 4 0.000000 0.000000 0.000000 0.057215 0.000000 -0.001839
# 5 -0.005818 -0.001807 0.002968 0.000000 0.034337 0.000000
# 6 0.000000 0.000000 0.000000 -0.001839 0.000000 0.053624
#
#
# Mechanical properties :
#
#
# Convention : Reuss Voigt Hill
#
# Bulk Modulus (GPa) = 37.31671 41.11897 39.21784
# Shear Modulus (GPa) = 23.51901 26.46166 24.99034
#
# Velocity S-wave (km/s) = 3.35605 3.55982 3.45944
# Velocity P-wave (km/s) = 5.73482 6.04880 5.89390
#
# Compressibility (1/GPa) = 0.02679765
#
# Stress axis : x y z
#
# Youngs Moduli (GPa) = 83.57534 62.77345 67.81513
#
# Poissons Ratio (x) = 0.17758 0.27313
# Poissons Ratio (y) = 0.23643 0.07225
# Poissons Ratio (z) = 0.33661 0.06688
#
# Static dielectric constant tensor:
#      x y z
#    x 1.771450 0.000000 -0.068520 
#    y 0.000000 1.754320 0.000000 
#    z -0.068520 0.000000 1.905190 
# 
# From -- ./inp_files/28839.got.cif
#   From: 2010.05.17/outbox.cif.g08.bks.cpg/sg12_15_cif.got.tgz:28839.got - 2010.06.03 13:09:07.
