data_PCOD9202923
_publ_section_title
;
Structure prediction by ZEFSAII (Michael W. Deem and Ramdas Pophale) SiO2 
 PCOD9202923
Probable space group: C 2/M
;
_chemical_formula_sum "Si O2"
_cell_formula_units_Z 48
_cell_length_a 28.170327
_cell_length_b 10.961648
_cell_length_c 21.376552
_cell_angle_alpha 90.000000
_cell_angle_beta 20.211123
_cell_angle_gamma 90.000000
_cell_volume 2280.493247
_symmetry_space_group_name_H-M "C 2/M"
_symmetry_group_IT_number 12
_symmetry_cell_setting 'monoclinic'
loop_
_space_group_symop_operation_xyz
x,y,z
-x,y,-z
-x,-y,-z
x,-y,z
1/2+x,1/2+y,z
1/2-x,1/2+y,-z
1/2-x,1/2-y,-z
1/2+x,1/2-y,z
loop_
_atom_site_type_symbol
_atom_site_label
_atom_site_fract_x
_atom_site_fract_y
_atom_site_fract_z
Si Si1 0.792760 0.247150 0.519435
Si Si2 0.830467 0.225200 0.813244
Si Si3 0.295215 0.643613 0.721233
Si Si4 0.082754 0.131524 0.164039
Si Si5 0.481285 0.866066 0.097150
Si Si6 0.595273 0.864187 0.501677
O O1 0.750000 0.250000 0.500000
O O2 0.647937 0.216612 0.730073
O O3 0.856170 0.352073 0.486078
O O4 0.920155 0.153423 0.364197
O O5 0.858751 0.166144 0.711121
O O6 0.869566 0.139422 0.822814
O O7 0.932178 0.340398 0.697377
O O8 0.673772 0.267689 0.016343
O O9 0.312603 0.500000 0.680184
O O10 0.343644 0.747677 0.612420
O O11 0.132523 0.665357 0.933246
O O12 0.114277 0.000000 0.097732
O O13 0.445505 0.000000 0.167011
O O14 0.500000 0.873290 0.000000
O O15 0.630913 0.000000 0.434101
#
# Coordination Sequence:
#
# PCOD9202923 Si02
#       6
#     8   8   8   8   8   8
#     4  11  23  41  64  92 126 170 218 264 320 390
#     4  10  22  39  61  92 128 167 214 266 322 387
#     4  11  23  41  67  95 126 171 223 270 324 391
#     4  10  21  38  62  91 125 165 209 262 320 384
#     4  10  20  38  64  93 126 163 209 268 325 377
#     4  11  25  42  62  93 134 172 213 271 333 391
#
# _framework density 21.048078
#
# number of rings (size 3 to 8) (size 9 to 14) (size 15 to 20)
#    0.000    1.500    1.667    3.000    0.000    7.333 
#    0.000    5.833    0.000    0.000    0.000    0.000 
#    0.000    0.000    0.000    0.000    0.000    0.000 
#
# Total GULP energy -133738.906594 kJ/mol
# GULP energy per Si atom -5572.454441 kJ/mol
# Density = 2.100017 g / cm^3
# Si number density = 21.048078 Si / 1000 Ang^3
#
#
#
# Elastic Constant Matrix: (Units=GPa)
#
#
# Indices 1 2 3 4 5 6 
#
# 1 108.4286 29.9484 13.4168 0.0000 5.4025 0.0000
# 2 29.9484 103.5941 34.5814 0.0001 1.5250 0.0000
# 3 13.4168 34.5814 72.2593 0.0001 -0.1553 0.0000
# 4 0.0000 0.0001 0.0001 5.2231 0.0000 5.9565
# 5 5.4025 1.5250 -0.1553 0.0000 30.0305 0.0000
# 6 0.0000 0.0000 0.0000 5.9565 0.0000 5.3946
#
#
#
# Elastic Compliance Matrix: (Units=1/GPa)
#
#
# Indices 1 2 3 4 5 6 
#
# 1 0.010127 -0.002706 -0.000589 0.000000 -0.001687 0.000000
# 2 -0.002706 0.012223 -0.005347 0.000000 -0.000161 0.000000
# 3 -0.000589 -0.005347 0.016508 0.000000 0.000463 0.000000
# 4 0.000000 0.000000 0.000000 -0.738702 0.000001 0.815638
# 5 -0.001687 -0.000161 0.000463 0.000001 0.033614 -0.000001
# 6 0.000000 0.000000 0.000000 0.815638 -0.000001 -0.715217
#
#
# Mechanical properties :
#
#
# Convention : Reuss Voigt Hill
#
# Bulk Modulus (GPa) = 46.35331 48.90836 47.63083
# Shear Modulus (GPa) = -3.68468 21.88533 9.10032
#
# Velocity S-wave (km/s) = -1.32454 3.22806 2.08158
# Velocity P-wave (km/s) = 4.44198 6.09760 5.33441
#
# Compressibility (1/GPa) = 0.02157343
#
# Stress axis : x y z
#
# Youngs Moduli (GPa) = 98.74512 81.81395 60.57486
#
# Poissons Ratio (x) = 0.22141 0.03567
# Poissons Ratio (y) = 0.26723 0.32392
# Poissons Ratio (z) = 0.05814 0.43749
#
# Static dielectric constant tensor:
#      x y z
#    x 1.803420 0.000000 -0.014810 
#    y 0.000000 1.788640 0.000000 
#    z -0.014810 0.000000 1.766460 
# 
# From -- ./inp_files/327946.got.cif
#   From: 2010.05.17/outbox.cif.g08.bks.cpg/sg12_164_cif.got.tgz:327946.got - 2010.06.03 13:09:07.
