data_PCOD9202764
_publ_section_title
;
Structure prediction by ZEFSAII (Michael W. Deem and Ramdas Pophale) SiO2 
 PCOD9202764
Probable space group: C 2/M
;
_chemical_formula_sum "Si O2"
_cell_formula_units_Z 64
_cell_length_a 20.065798
_cell_length_b 8.144610
_cell_length_c 31.964559
_cell_angle_alpha 90.000000
_cell_angle_beta 143.458668
_cell_angle_gamma 90.000000
_cell_volume 3110.327449
_symmetry_space_group_name_H-M "C 2/M"
_symmetry_group_IT_number 12
_symmetry_cell_setting 'monoclinic'
loop_
_space_group_symop_operation_xyz
x,y,z
-x,y,-z
-x,-y,-z
x,-y,z
1/2+x,1/2+y,z
1/2-x,1/2+y,-z
1/2-x,1/2-y,-z
1/2+x,1/2-y,z
loop_
_atom_site_type_symbol
_atom_site_label
_atom_site_fract_x
_atom_site_fract_y
_atom_site_fract_z
Si Si1 0.681363 0.688893 0.323500
Si Si2 0.013725 0.696096 0.716134
Si Si3 0.745115 0.299322 0.130812
Si Si4 0.012174 0.198345 0.622936
Si Si5 0.066353 0.806570 0.105637
Si Si6 0.398886 0.301648 0.480889
Si Si7 0.685020 0.301737 0.008692
Si Si8 0.768298 0.690823 0.741022
O O1 0.683891 0.500000 0.311859
O O2 0.568755 0.727985 0.291546
O O3 0.785336 0.726024 0.406391
O O4 0.695005 0.793738 0.288442
O O5 0.010352 0.500000 0.718721
O O6 0.141231 0.752586 0.788739
O O7 0.977415 0.742843 0.651071
O O8 0.743258 0.500000 0.130991
O O9 0.635635 0.240518 0.100777
O O10 0.743104 0.249396 0.081422
O O11 0.140655 0.252702 0.680308
O O12 0.935411 0.253089 0.545593
O O13 0.012115 0.000000 0.622113
O O14 0.147749 0.784335 0.186170
O O15 0.050259 0.000000 0.089275
O O16 0.943269 0.739439 0.053410
O O17 0.500000 0.262811 0.500000
O O18 0.386362 0.500000 0.474569
O O19 0.682994 0.500000 0.007370
O O20 0.750000 0.250000 0.000000
O O21 0.769687 0.500000 0.754280
#
# Coordination Sequence:
#
# PCOD9202764 Si02
#       8
#     8   8   8   8   8   8   8   8
#     4  12  26  41  60  90 126 160 204 255 307 364
#     4  11  23  40  63  90 123 162 205 252 306 365
#     4   9  19  38  63  88 117 158 204 247 295 358
#     4  10  21  39  64  91 122 158 200 253 306 362
#     4  10  20  38  63  91 119 158 208 254 299 354
#     4  10  20  40  65  89 120 160 205 251 306 366
#     4  10  22  39  60  89 125 161 201 249 303 359
#     4  11  22  39  63  91 123 161 203 250 306 365
#
# _framework density 20.576612000000001
#
# number of rings (size 3 to 8) (size 9 to 14) (size 15 to 20)
#    0.000    1.625    2.500    2.250    1.750    3.750 
#    0.000    1.250    0.000    1.500    0.000    0.000 
#    0.000    0.000    0.000    0.000    0.000    0.000 
#
# Total GULP energy -178835.340035 kJ/mol
# GULP energy per Si atom -5588.604376 kJ/mol
# Density = 2.052978 g / cm^3
# Si number density = 20.576612 Si / 1000 Ang^3
#
#
#
# Elastic Constant Matrix: (Units=GPa)
#
#
# Indices 1 2 3 4 5 6 
#
# 1 108.5140 -4.7091 29.8774 0.0000 -5.7023 -0.0001
# 2 -4.7091 17.5459 -0.6632 0.0000 5.0055 0.0000
# 3 29.8774 -0.6632 66.2449 0.0000 -14.2491 0.0000
# 4 0.0000 0.0000 0.0000 17.7159 0.0000 -4.3083
# 5 -5.7023 5.0055 -14.2491 0.0000 35.2996 0.0001
# 6 -0.0001 0.0000 0.0000 -4.3083 0.0001 14.6327
#
#
#
# Elastic Compliance Matrix: (Units=1/GPa)
#
#
# Indices 1 2 3 4 5 6 
#
# 1 0.010660 0.002867 -0.004924 0.000000 -0.000672 0.000000
# 2 0.002867 0.060274 -0.002659 0.000000 -0.009157 0.000000
# 3 -0.004924 -0.002659 0.018835 0.000000 0.007185 0.000000
# 4 0.000000 0.000000 0.000000 0.060800 0.000000 0.017901
# 5 -0.000672 -0.009157 0.007185 0.000000 0.032419 0.000000
# 6 0.000000 0.000000 0.000000 0.017901 0.000000 0.073611
#
#
# Mechanical properties :
#
#
# Convention : Reuss Voigt Hill
#
# Bulk Modulus (GPa) = 12.44757 26.81280 19.63018
# Shear Modulus (GPa) = 17.07588 24.71629 20.89608
#
# Velocity S-wave (km/s) = 2.88387 3.46957 3.19019
# Velocity P-wave (km/s) = 4.14143 5.39533 4.80942
#
# Compressibility (1/GPa) = 0.08033698
#
# Stress axis : x y z
#
# Youngs Moduli (GPa) = 93.80732 16.59078 53.09277
#
# Poissons Ratio (x) = -0.04756 0.26141
# Poissons Ratio (y) = -0.26891 0.14118
# Poissons Ratio (z) = 0.46188 0.04412
#
# Static dielectric constant tensor:
#      x y z
#    x 1.707850 0.000000 0.006150 
#    y 0.000000 1.732540 0.000000 
#    z 0.006150 0.000000 1.716380 
# 
# From -- ./inp_files/378380.got.cif
#   From: 2010.05.17/outbox.cif.g08.bks.cpg/sg12_190_cif.got.tgz:378380.got - 2010.06.03 13:09:07.
