data_PCOD9202828
_publ_section_title
;
Structure prediction by ZEFSAII (Michael W. Deem and Ramdas Pophale) SiO2 
 PCOD9202828
Probable space group: C 2/M
;
_chemical_formula_sum "Si O2"
_cell_formula_units_Z 18
_cell_length_a 10.152914
_cell_length_b 10.090493
_cell_length_c 14.131973
_cell_angle_alpha 90.000000
_cell_angle_beta 154.784971
_cell_angle_gamma 90.000000
_cell_volume 616.783053
_symmetry_space_group_name_H-M "C 2/M"
_symmetry_group_IT_number 12
_symmetry_cell_setting 'monoclinic'
loop_
_space_group_symop_operation_xyz
x,y,z
-x,y,-z
-x,-y,-z
x,-y,z
1/2+x,1/2+y,z
1/2-x,1/2+y,-z
1/2-x,1/2-y,-z
1/2+x,1/2-y,z
loop_
_atom_site_type_symbol
_atom_site_label
_atom_site_fract_x
_atom_site_fract_y
_atom_site_fract_z
Si Si1 0.000000 0.500000 0.500000
Si Si2 0.565312 0.500000 0.701268
Si Si3 0.637531 0.788561 0.755288
Si Si4 0.394472 0.000000 0.102014
O O1 0.104442 0.385042 0.645415
O O2 0.450398 0.650991 0.618394
O O3 0.819498 0.500000 0.783739
O O4 0.608564 0.500000 0.843906
O O5 0.603229 0.873215 0.829299
O O6 0.000000 0.741855 0.000000
#
# Coordination Sequence:
#
# PCOD9202828 Si02
#       4
#     2   4   8   4
#     4  10  24  40  64  94 126 168 208 250 316 370
#     4  11  22  37  70  97 119 166 215 249 316 371
#     4  11  22  43  67  91 128 165 206 260 311 367
#     4  10  20  38  64 100 120 162 212 250 316 372
#
# _framework density 29.183679000000001
#
# number of rings (size 3 to 8) (size 9 to 14) (size 15 to 20)
#    0.000    1.333    4.444    4.000    0.000    0.889 
#    0.000    8.889    0.000    0.000    0.000    0.000 
#    0.000    0.000    0.000    0.000    0.000    0.000 
#
# Total GULP energy -50209.341438 kJ/mol
# GULP energy per Si atom -5578.815715 kJ/mol
# Density = 2.911726 g / cm^3
# Si number density = 29.183679 Si / 1000 Ang^3
#
#
#
# Elastic Constant Matrix: (Units=GPa)
#
#
# Indices 1 2 3 4 5 6 
#
# 1 179.0240 66.1558 6.2450 -0.0015 -40.5096 0.0245
# 2 66.1558 332.4840 48.4236 0.0087 -23.2120 0.0126
# 3 6.2450 48.4236 136.5202 0.0069 -46.0656 0.0374
# 4 -0.0015 0.0087 0.0069 -56.9562 0.0236 76.0180
# 5 -40.5096 -23.2120 -46.0656 0.0236 40.1779 0.0173
# 6 0.0245 0.0126 0.0374 76.0180 0.0173 -24.7877
#
#
#
# Elastic Compliance Matrix: (Units=1/GPa)
#
#
# Indices 1 2 3 4 5 6 
#
# 1 0.009105 -0.001546 0.004776 -0.000013 0.013762 -0.000014
# 2 -0.001546 0.003454 -0.001643 0.000001 -0.001447 0.000001
# 3 0.004776 -0.001643 0.014669 -0.000021 0.020684 -0.000023
# 4 -0.000013 0.000001 -0.000021 0.005676 -0.000046 0.017408
# 5 0.013762 -0.001447 0.020684 -0.000046 0.061644 -0.000055
# 6 -0.000014 0.000001 -0.000023 0.017408 -0.000055 0.013043
#
#
# Mechanical properties :
#
#
# Convention : Reuss Voigt Hill
#
# Bulk Modulus (GPa) = 32.89416 98.85298 65.87357
# Shear Modulus (GPa) = 43.64898 26.83372 35.24135
#
# Velocity S-wave (km/s) = 3.87158 3.03558 3.47878
# Velocity P-wave (km/s) = 5.59298 6.79945 6.22551
#
# Compressibility (1/GPa) = 0.03040053
#
# Stress axis : x y z
#
# Youngs Moduli (GPa) = 109.83207 289.55760 68.17313
#
# Poissons Ratio (x) = 0.44777 -0.32558
# Poissons Ratio (y) = 0.16984 0.11198
# Poissons Ratio (z) = -0.52453 0.47561
#
# Static dielectric constant tensor:
#      x y z
#    x 3.759380 0.000070 1.083250 
#    y 0.000070 2.350670 0.000040 
#    z 1.083250 0.000040 2.873250 
# 
# From -- ./inp_files/35311.got.cif
#   From: 2010.05.17/outbox.cif.g08.bks.cpg/sg12_18_cif.got.tgz:35311.got - 2010.06.03 13:09:07.
