data_PCOD9202540
_publ_section_title
;
Structure prediction by ZEFSAII (Michael W. Deem and Ramdas Pophale) SiO2 
 PCOD9202540
Probable space group: C 2/M
;
_chemical_formula_sum "Si O2"
_cell_formula_units_Z 46
_cell_length_a 14.564271
_cell_length_b 24.883221
_cell_length_c 10.460596
_cell_angle_alpha 90.000000
_cell_angle_beta 32.147641
_cell_angle_gamma 90.000000
_cell_volume 2017.192284
_symmetry_space_group_name_H-M "C 2/M"
_symmetry_group_IT_number 12
_symmetry_cell_setting 'monoclinic'
loop_
_space_group_symop_operation_xyz
x,y,z
-x,y,-z
-x,-y,-z
x,-y,z
1/2+x,1/2+y,z
1/2-x,1/2+y,-z
1/2-x,1/2-y,-z
1/2+x,1/2-y,z
loop_
_atom_site_type_symbol
_atom_site_label
_atom_site_fract_x
_atom_site_fract_y
_atom_site_fract_z
Si Si1 0.703186 0.904465 0.121284
Si Si2 0.994065 0.736961 0.233689
Si Si3 0.500000 0.184734 0.500000
Si Si4 0.322872 0.338257 0.466646
Si Si5 0.664730 0.149577 0.897393
Si Si6 0.430017 0.560642 0.226671
Si Si7 0.500000 0.000000 0.500000
O O1 0.655435 0.855265 0.273707
O O2 0.589667 0.953374 0.305304
O O3 0.661973 0.886703 0.025921
O O4 0.901399 0.923231 0.892125
O O5 0.977561 0.720731 0.400939
O O6 0.834623 0.703815 0.359820
O O7 0.980304 0.800690 0.237412
O O8 0.151612 0.709828 0.972609
O O9 0.323882 0.355001 0.613152
O O10 0.299556 0.390999 0.408443
O O11 0.500000 0.136672 0.000000
O O12 0.366306 0.500000 0.326970
O O13 0.500000 0.561173 0.000000
#
# Coordination Sequence:
#
# PCOD9202540 Si02
#       7
#     8   8   4   8   8   8   2
#     4  10  20  38  62  86 119 159 201 257 295 358
#     4   9  19  36  61  88 120 157 203 248 300 366
#     4   9  18  33  60  88 113 150 203 254 296 352
#     4  10  21  38  61  87 125 164 193 251 312 359
#     4   9  20  39  59  89 124 154 203 250 303 368
#     4  11  24  41  59  87 120 158 207 252 301 366
#     4  10  20  40  64  82 112 158 214 248 302 334
#
# _framework density 22.803974
#
# number of rings (size 3 to 8) (size 9 to 14) (size 15 to 20)
#    0.000    2.261    0.870    1.043    0.000    8.348 
#    1.565    4.783    0.000    0.000    0.000    0.000 
#    0.000    0.000    0.000    0.000    0.000    0.000 
#
# Total GULP energy -128136.183652 kJ/mol
# GULP energy per Si atom -5571.138420 kJ/mol
# Density = 2.275207 g / cm^3
# Si number density = 22.803974 Si / 1000 Ang^3
#
#
#
# Elastic Constant Matrix: (Units=GPa)
#
#
# Indices 1 2 3 4 5 6 
#
# 1 79.5491 0.6817 8.4164 -0.0002 15.2685 -0.0001
# 2 0.6817 142.3711 30.9914 0.0002 4.0514 -0.0002
# 3 8.4164 30.9914 59.7249 -0.0010 14.1841 0.0000
# 4 -0.0002 0.0002 -0.0010 -1.3311 0.0010 2.4389
# 5 15.2685 4.0514 14.1841 0.0010 16.9506 -0.0002
# 6 -0.0001 -0.0002 0.0000 2.4389 -0.0002 2.0842
#
#
#
# Elastic Compliance Matrix: (Units=1/GPa)
#
#
# Indices 1 2 3 4 5 6 
#
# 1 0.015291 0.000055 0.001361 -0.000005 -0.014926 0.000005
# 2 0.000055 0.007969 -0.004591 0.000002 0.001888 -0.000002
# 3 0.001361 -0.004591 0.023668 -0.000012 -0.019934 0.000011
# 4 -0.000005 0.000002 -0.000012 -0.238944 0.000031 0.279607
# 5 -0.014926 0.001888 -0.019934 0.000031 0.088669 -0.000028
# 6 0.000005 -0.000002 0.000011 0.279607 -0.000028 0.152601
#
#
# Mechanical properties :
#
#
# Convention : Reuss Voigt Hill
#
# Bulk Modulus (GPa) = 24.64317 40.20269 32.42293
# Shear Modulus (GPa) = 72.32590 19.64446 45.98518
#
# Velocity S-wave (km/s) = 5.63784 2.93823 4.49546
# Velocity P-wave (km/s) = 7.29454 5.40175 6.41830
#
# Compressibility (1/GPa) = 0.04057919
#
# Stress axis : x y z
#
# Youngs Moduli (GPa) = 65.39696 125.48037 42.25065
#
# Poissons Ratio (x) = -0.00692 -0.05752
# Poissons Ratio (y) = -0.00361 0.19399
# Poissons Ratio (z) = -0.08903 0.57613
#
# Static dielectric constant tensor:
#      x y z
#    x 1.941770 0.000000 -0.108690 
#    y 0.000000 1.846750 0.000000 
#    z -0.108690 0.000000 2.038060 
# 
# From -- ./inp_files/160448.got.cif
#   From: 2010.05.17/outbox.cif.g08.bks.cpg/sg12_81_cif.got.tgz:160448.got - 2010.06.03 13:09:07.
