data_PCOD9202449
_publ_section_title
;
Structure prediction by ZEFSAII (Michael W. Deem and Ramdas Pophale) SiO2 
 PCOD9202449
Probable space group: C 2/M
;
_chemical_formula_sum "Si O2"
_cell_formula_units_Z 64
_cell_length_a 27.202726
_cell_length_b 22.847124
_cell_length_c 11.233218
_cell_angle_alpha 90.000000
_cell_angle_beta 150.869784
_cell_angle_gamma 90.000000
_cell_volume 3398.562451
_symmetry_space_group_name_H-M "C 2/M"
_symmetry_group_IT_number 12
_symmetry_cell_setting 'monoclinic'
loop_
_space_group_symop_operation_xyz
x,y,z
-x,y,-z
-x,-y,-z
x,-y,z
1/2+x,1/2+y,z
1/2-x,1/2+y,-z
1/2-x,1/2-y,-z
1/2+x,1/2-y,z
loop_
_atom_site_type_symbol
_atom_site_label
_atom_site_fract_x
_atom_site_fract_y
_atom_site_fract_z
Si Si1 0.321121 0.833208 0.419572
Si Si2 0.013383 0.268571 0.769353
Si Si3 0.867663 0.157568 0.483114
Si Si4 0.392289 0.843758 0.825821
Si Si5 0.183991 0.933271 0.158490
Si Si6 0.982059 0.934305 0.600781
Si Si7 0.297247 0.241234 0.968530
Si Si8 0.715731 0.430534 0.503435
O O1 0.423129 0.815707 0.568699
O O2 0.335669 0.817790 0.589834
O O3 0.284907 0.899245 0.337849
O O4 0.232090 0.797327 0.171569
O O5 0.953327 0.208428 0.673860
O O6 0.081990 0.294069 0.022567
O O7 0.083585 0.265529 0.801361
O O8 0.764945 0.189514 0.227448
O O9 0.851678 0.113662 0.560087
O O10 0.897287 0.113210 0.442162
O O11 0.325016 0.897596 0.731283
O O12 0.500000 0.864469 0.000000
O O13 0.175356 0.929517 0.282694
O O14 0.194035 0.000000 0.143089
O O15 0.081861 0.912261 0.880164
O O16 0.000000 0.938545 0.500000
O O17 0.958049 0.000000 0.595600
O O18 0.250000 0.250000 0.000000
O O19 0.719689 0.500000 0.547106
#
# Coordination Sequence:
#
# PCOD9202449 Si02
#       8
#     8   8   8   8   8   8   8   8
#     4   9  20  36  58  86 115 152 189 240 290 343
#     4  10  21  39  56  85 121 152 195 240 293 354
#     4  11  23  37  59  86 120 153 194 245 301 352
#     4   9  18  38  57  86 123 151 197 236 291 355
#     4   9  19  38  62  87 118 155 195 236 289 355
#     4  10  22  39  59  84 114 151 198 244 291 353
#     4  11  24  39  58  81 114 158 201 245 295 350
#     4  10  20  38  61  89 122 155 194 242 299 356
#
# _framework density 18.831491
#
# number of rings (size 3 to 8) (size 9 to 14) (size 15 to 20)
#    0.000    2.125    1.250    1.125    3.500    2.750 
#   22.500    3.750    0.000    0.000    0.000    0.875 
#    0.000    0.000    0.000    0.000    0.000    0.000 
#
# Total GULP energy -178227.501112 kJ/mol
# GULP energy per Si atom -5569.609410 kJ/mol
# Density = 1.878863 g / cm^3
# Si number density = 18.831491 Si / 1000 Ang^3
#
#
#
# Elastic Constant Matrix: (Units=GPa)
#
#
# Indices 1 2 3 4 5 6 
#
# 1 76.3413 48.1136 16.3021 0.0000 27.0828 0.0000
# 2 48.1136 88.1677 27.6094 0.0000 13.9007 0.0000
# 3 16.3021 27.6094 28.9378 0.0000 6.5891 0.0000
# 4 0.0000 0.0000 0.0000 11.8674 0.0000 4.8377
# 5 27.0828 13.9007 6.5891 0.0000 24.0253 0.0000
# 6 0.0000 0.0000 0.0000 4.8377 0.0000 27.8272
#
#
#
# Elastic Compliance Matrix: (Units=1/GPa)
#
#
# Indices 1 2 3 4 5 6 
#
# 1 0.030632 -0.012749 0.001162 0.000000 -0.027473 0.000000
# 2 -0.012749 0.022183 -0.015287 0.000000 0.005729 0.000000
# 3 0.001162 -0.015287 0.049887 0.000000 -0.006147 0.000000
# 4 0.000000 0.000000 0.000000 0.090692 0.000000 -0.015767
# 5 -0.027473 0.005729 -0.006147 0.000000 0.070963 0.000000
# 6 0.000000 0.000000 0.000000 -0.015767 0.000000 0.038677
#
#
# Mechanical properties :
#
#
# Convention : Reuss Voigt Hill
#
# Bulk Modulus (GPa) = 20.42686 41.94410 31.18548
# Shear Modulus (GPa) = 13.40130 19.50542 16.45336
#
# Velocity S-wave (km/s) = 2.67056 3.22186 2.95907
# Velocity P-wave (km/s) = 4.51441 6.01350 5.31705
#
# Compressibility (1/GPa) = 0.04895516
#
# Stress axis : x y z
#
# Youngs Moduli (GPa) = 32.64588 45.07994 20.04531
#
# Poissons Ratio (x) = 0.57470 -0.02330
# Poissons Ratio (y) = 0.41619 0.30643
# Poissons Ratio (z) = -0.03795 0.68914
#
# Static dielectric constant tensor:
#      x y z
#    x 1.696380 0.000000 0.011180 
#    y 0.000000 1.652830 0.000000 
#    z 0.011180 0.000000 1.682600 
# 
# From -- ./inp_files/184714.got.cif
#   From: 2010.05.17/outbox.cif.g08.bks.cpg/sg12_93_cif.got.tgz:184714.got - 2010.06.03 13:09:07.
