data_PCOD9202573
_publ_section_title
;
Structure prediction by ZEFSAII (Michael W. Deem and Ramdas Pophale) SiO2 
 PCOD9202573
Probable space group: C 2/M
;
_chemical_formula_sum "Si O2"
_cell_formula_units_Z 56
_cell_length_a 19.643576
_cell_length_b 21.978004
_cell_length_c 17.899356
_cell_angle_alpha 90.000000
_cell_angle_beta 157.786822
_cell_angle_gamma 90.000000
_cell_volume 2921.458549
_symmetry_space_group_name_H-M "C 2/M"
_symmetry_group_IT_number 12
_symmetry_cell_setting 'monoclinic'
loop_
_space_group_symop_operation_xyz
x,y,z
-x,y,-z
-x,-y,-z
x,-y,z
1/2+x,1/2+y,z
1/2-x,1/2+y,-z
1/2-x,1/2-y,-z
1/2+x,1/2-y,z
loop_
_atom_site_type_symbol
_atom_site_label
_atom_site_fract_x
_atom_site_fract_y
_atom_site_fract_z
Si Si1 0.713614 0.239703 0.050219
Si Si2 0.139811 0.570763 0.468687
Si Si3 0.527403 0.336548 0.439955
Si Si4 0.258541 0.621752 0.926557
Si Si5 0.457760 0.427133 0.672905
Si Si6 0.073247 0.873495 0.154298
Si Si7 0.316270 0.247296 0.653748
O O1 0.737490 0.309325 0.100832
O O2 0.848093 0.195372 0.226996
O O3 0.750000 0.250000 0.000000
O O4 0.511365 0.216614 0.852439
O O5 0.100081 0.500000 0.421441
O O6 0.280612 0.586019 0.544232
O O7 0.252659 0.584144 0.658836
O O8 0.947636 0.603741 0.273877
O O9 0.500000 0.345004 0.500000
O O10 0.564473 0.398112 0.431277
O O11 0.681207 0.289015 0.569557
O O12 0.371385 0.608376 0.116872
O O13 0.401254 0.590985 0.014928
O O14 0.486373 0.500000 0.702147
O O15 0.142024 0.814404 0.271162
O O16 0.000000 0.854227 0.000000
O O17 0.250000 0.250000 0.500000
#
# Coordination Sequence:
#
# PCOD9202573 Si02
#       7
#     8   8   8   8   8   8   8
#     4  11  21  37  63  92 119 157 202 247 307 370
#     4  10  21  38  63  88 113 159 215 254 293 357
#     4  12  26  38  60  96 128 162 204 253 311 369
#     4  10  20  38  62  88 117 156 209 252 301 362
#     4  10  22  41  62  87 120 161 210 259 300 354
#     4  10  23  38  56  87 127 160 191 250 319 368
#     4  11  22  40  63  86 122 163 203 252 303 371
#
# _framework density 19.168507999999999
#
# number of rings (size 3 to 8) (size 9 to 14) (size 15 to 20)
#    0.000    1.429    2.857    3.000    6.000    1.714 
#    0.000    0.714    0.000    0.000    0.000    5.000 
#    0.000    0.000    0.000    0.000    0.000    0.000 
#
# Total GULP energy -155977.639593 kJ/mol
# GULP energy per Si atom -5570.629985 kJ/mol
# Density = 1.912488 g / cm^3
# Si number density = 19.168508 Si / 1000 Ang^3
#
#
#
# Elastic Constant Matrix: (Units=GPa)
#
#
# Indices 1 2 3 4 5 6 
#
# 1 97.9941 36.2128 69.8628 0.0000 -11.6086 0.0000
# 2 36.2128 65.8572 31.4721 0.0000 -3.6728 0.0000
# 3 69.8628 31.4721 142.7297 -0.0002 20.6351 0.0000
# 4 0.0000 0.0000 -0.0002 20.1019 -0.0001 2.3798
# 5 -11.6086 -3.6728 20.6351 -0.0001 40.4197 0.0000
# 6 0.0000 0.0000 0.0000 2.3798 0.0000 19.0793
#
#
#
# Elastic Compliance Matrix: (Units=1/GPa)
#
#
# Indices 1 2 3 4 5 6 
#
# 1 0.021411 -0.006013 -0.010758 0.000000 0.011095 0.000000
# 2 -0.006013 0.019198 -0.001395 0.000000 0.000730 0.000000
# 3 -0.010758 -0.001395 0.014085 0.000000 -0.010407 0.000000
# 4 0.000000 0.000000 0.000000 0.050492 0.000000 -0.006298
# 5 0.011095 0.000730 -0.010407 0.000000 0.033306 0.000000
# 6 0.000000 0.000000 0.000000 -0.006298 0.000000 0.053198
#
#
# Mechanical properties :
#
#
# Convention : Reuss Voigt Hill
#
# Bulk Modulus (GPa) = 54.46666 64.63074 59.54870
# Shear Modulus (GPa) = 21.35424 27.18907 24.27166
#
# Velocity S-wave (km/s) = 3.34133 3.77028 3.56227
# Velocity P-wave (km/s) = 6.58501 7.26249 6.93203
#
# Compressibility (1/GPa) = 0.01835985
#
# Stress axis : x y z
#
# Youngs Moduli (GPa) = 46.70437 52.08757 70.99971
#
# Poissons Ratio (x) = 0.31322 0.76385
# Poissons Ratio (y) = 0.28085 0.09908
# Poissons Ratio (z) = 0.50247 0.07268
#
# Static dielectric constant tensor:
#      x y z
#    x 1.702160 -0.000020 0.018070 
#    y -0.000020 1.669530 -0.000020 
#    z 0.018070 -0.000020 1.744760 
# 
# From -- ./inp_files/286082.got.cif
#   From: 2010.05.17/outbox.cif.g08.bks.cpg/sg12_144_cif.got.tgz:286082.got - 2010.06.03 13:09:07.
