data_PCOD9202543
_publ_section_title
;
Structure prediction by ZEFSAII (Michael W. Deem and Ramdas Pophale) SiO2 
 PCOD9202543
Probable space group: C 2/M
;
_chemical_formula_sum "Si O2"
_cell_formula_units_Z 44
_cell_length_a 15.053448
_cell_length_b 14.473356
_cell_length_c 21.891639
_cell_angle_alpha 90.000000
_cell_angle_beta 23.591659
_cell_angle_gamma 90.000000
_cell_volume 1908.875265
_symmetry_space_group_name_H-M "C 2/M"
_symmetry_group_IT_number 12
_symmetry_cell_setting 'monoclinic'
loop_
_space_group_symop_operation_xyz
x,y,z
-x,y,-z
-x,-y,-z
x,-y,z
1/2+x,1/2+y,z
1/2-x,1/2+y,-z
1/2-x,1/2-y,-z
1/2+x,1/2-y,z
loop_
_atom_site_type_symbol
_atom_site_label
_atom_site_fract_x
_atom_site_fract_y
_atom_site_fract_z
Si Si1 0.368564 0.174925 0.641548
Si Si2 0.792743 0.607013 0.469108
Si Si3 0.440328 0.371251 0.861729
Si Si4 0.727910 0.500000 0.143456
Si Si5 0.193861 0.186513 0.220495
Si Si6 0.614623 0.181577 0.166387
O O1 0.500000 0.209047 0.500000
O O2 0.540457 0.128114 0.580491
O O3 0.181491 0.105081 0.735577
O O4 0.260049 0.260146 0.746212
O O5 0.715599 0.500000 0.521851
O O6 0.574675 0.669985 0.611303
O O7 0.926645 0.627363 0.322438
O O8 0.353831 0.421760 0.855981
O O9 0.470974 0.264587 0.822053
O O10 0.266705 0.378893 0.026375
O O11 0.786033 0.583781 0.155571
O O12 0.250222 0.260924 0.132490
#
# Coordination Sequence:
#
# PCOD9202543 Si02
#       6
#     8   8   8   4   8   8
#     4  11  22  36  61  90 122 156 202 252 294 355
#     4  11  22  35  59  90 121 157 198 247 300 359
#     4  10  21  37  64  89 117 155 201 249 294 352
#     4  10  20  38  62  86 120 155 198 243 300 353
#     4  10  20  39  59  83 122 166 195 236 305 362
#     4   9  20  39  59  83 121 165 195 231 309 377
#
# _framework density 23.050222000000002
#
# number of rings (size 3 to 8) (size 9 to 14) (size 15 to 20)
#    0.000    1.818    0.909    5.455    2.545    3.273 
#    0.000    1.364    2.000    9.818    0.000    0.000 
#    0.000    0.000    0.000    0.000    0.000    0.000 
#
# Total GULP energy -122487.835197 kJ/mol
# GULP energy per Si atom -5567.628873 kJ/mol
# Density = 2.299776 g / cm^3
# Si number density = 23.050222 Si / 1000 Ang^3
#
#
#
# Elastic Constant Matrix: (Units=GPa)
#
#
# Indices 1 2 3 4 5 6 
#
# 1 87.8038 18.5554 33.1342 -0.0235 24.4295 0.0055
# 2 18.5554 102.2966 -2.9855 -0.0425 9.5906 -0.0321
# 3 33.1342 -2.9855 87.1974 -0.0625 16.1359 -0.0035
# 4 -0.0235 -0.0425 -0.0625 4.9927 0.0126 5.3005
# 5 24.4295 9.5906 16.1359 0.0126 34.8142 -0.0058
# 6 0.0055 -0.0321 -0.0035 5.3005 -0.0058 17.7379
#
#
#
# Elastic Compliance Matrix: (Units=1/GPa)
#
#
# Indices 1 2 3 4 5 6 
#
# 1 0.015936 -0.002232 -0.004568 0.000049 -0.008450 -0.000027
# 2 -0.002232 0.010417 0.001582 0.000121 -0.002037 -0.000017
# 3 -0.004568 0.001582 0.013942 0.000249 -0.003692 -0.000068
# 4 0.000049 0.000121 0.000249 0.293366 -0.000304 -0.087665
# 5 -0.008450 -0.002037 -0.003692 -0.000304 0.036926 0.000101
# 6 -0.000027 -0.000017 -0.000068 -0.087665 0.000101 0.082573
#
#
# Mechanical properties :
#
#
# Convention : Reuss Voigt Hill
#
# Bulk Modulus (GPa) = 33.49100 41.63400 37.56250
# Shear Modulus (GPa) = 10.55858 26.74855 18.65357
#
# Velocity S-wave (km/s) = 2.14258 3.41023 2.84783
# Velocity P-wave (km/s) = 4.54774 5.79722 5.21007
#
# Compressibility (1/GPa) = 0.02985877
#
# Stress axis : x y z
#
# Youngs Moduli (GPa) = 62.75290 95.99266 71.72779
#
# Poissons Ratio (x) = 0.21422 0.32765
# Poissons Ratio (y) = 0.14004 -0.11345
# Poissons Ratio (z) = 0.28666 -0.15183
#
# Static dielectric constant tensor:
#      x y z
#    x 1.853830 0.000030 -0.099740 
#    y 0.000030 1.910960 -0.000020 
#    z -0.099740 -0.000020 2.090540 
# 
# From -- ./inp_files/343921.got.cif
#   From: 2010.05.17/outbox.cif.g08.bks.cpg/sg12_172_cif.got.tgz:343921.got - 2010.06.03 13:09:07.
