data_PCOD9202282
_publ_section_title
;
Structure prediction by ZEFSAII (Michael W. Deem and Ramdas Pophale) SiO2 
 PCOD9202282
Probable space group: C 2/M
;
_chemical_formula_sum "Si O2"
_cell_formula_units_Z 64
_cell_length_a 31.591015
_cell_length_b 14.644189
_cell_length_c 22.681904
_cell_angle_alpha 90.000000
_cell_angle_beta 17.229940
_cell_angle_gamma 90.000000
_cell_volume 3108.164615
_symmetry_space_group_name_H-M "C 2/M"
_symmetry_group_IT_number 12
_symmetry_cell_setting 'monoclinic'
loop_
_space_group_symop_operation_xyz
x,y,z
-x,y,-z
-x,-y,-z
x,-y,z
1/2+x,1/2+y,z
1/2-x,1/2+y,-z
1/2-x,1/2-y,-z
1/2+x,1/2-y,z
loop_
_atom_site_type_symbol
_atom_site_label
_atom_site_fract_x
_atom_site_fract_y
_atom_site_fract_z
Si Si1 0.484457 0.898296 0.619048
Si Si2 0.403400 0.768424 0.824025
Si Si3 0.833010 0.397708 0.205983
Si Si4 0.502342 0.894896 0.789525
Si Si5 0.913816 0.899073 0.371038
Si Si6 0.738672 0.897878 0.185881
Si Si7 0.575189 0.241340 0.006102
Si Si8 0.310655 0.337195 0.384402
O O1 0.494976 0.817231 0.651115
O O2 0.614428 0.897540 0.400403
O O3 0.341320 0.887629 0.770069
O O4 0.480151 0.000000 0.652660
O O5 0.400816 0.843398 0.878930
O O6 0.479950 0.679676 0.748900
O O7 0.250000 0.750000 0.000000
O O8 0.798856 0.500000 0.226266
O O9 0.732185 0.387461 0.397096
O O10 0.826597 0.309299 0.172408
O O11 0.000000 0.399895 0.000000
O O12 0.482432 0.841682 0.877244
O O13 0.668458 0.883633 0.548415
O O14 0.468748 0.000000 0.840852
O O15 0.879104 0.892837 0.347771
O O16 0.970634 0.000000 0.309106
O O17 0.804799 0.000000 0.099775
O O18 0.837909 0.813464 0.070057
O O19 0.433445 0.300069 0.177168
O O20 0.250000 0.250000 0.500000
#
# Coordination Sequence:
#
# PCOD9202282 Si02
#       8
#     8   8   8   8   8   8   8   8
#     4   9  19  37  59  80 111 153 201 245 291 353
#     4  12  24  39  58  88 118 160 204 252 305 356
#     4  10  21  36  61  91 122 160 200 246 302 371
#     4  11  23  39  59  85 121 157 198 246 302 364
#     4  11  23  40  61  91 129 163 202 254 307 365
#     4   9  19  36  58  84 110 149 198 246 295 352
#     4  11  20  36  59  91 119 153 198 247 302 356
#     4  10  20  38  60  87 119 157 198 241 301 354
#
# _framework density 20.59093
#
# number of rings (size 3 to 8) (size 9 to 14) (size 15 to 20)
#    0.000    1.625    2.500    4.875    0.000    3.000 
#    0.000    0.000    0.000    0.375    0.000    7.875 
#    0.000    0.000    0.000    0.000    0.000    0.000 
#
# Total GULP energy -178590.386072 kJ/mol
# GULP energy per Si atom -5580.949565 kJ/mol
# Density = 2.054406 g / cm^3
# Si number density = 20.590930 Si / 1000 Ang^3
#
#
#
# Elastic Constant Matrix: (Units=GPa)
#
#
# Indices 1 2 3 4 5 6 
#
# 1 54.4684 34.4785 11.3300 0.0000 -7.1679 0.0000
# 2 34.4785 150.5021 28.1701 0.0004 -11.7809 -0.0003
# 3 11.3300 28.1701 75.2874 0.0004 -0.8146 -0.0004
# 4 0.0000 0.0004 0.0004 16.3626 -0.0004 7.6031
# 5 -7.1679 -11.7809 -0.8146 -0.0004 34.3100 0.0002
# 6 0.0000 -0.0003 -0.0004 7.6031 0.0002 27.5519
#
#
#
# Elastic Compliance Matrix: (Units=1/GPa)
#
#
# Indices 1 2 3 4 5 6 
#
# 1 0.021927 -0.004491 -0.001587 0.000000 0.003001 0.000000
# 2 -0.004491 0.008266 -0.002397 0.000000 0.001843 0.000000
# 3 -0.001587 -0.002397 0.014409 -0.000001 -0.000812 0.000000
# 4 0.000000 0.000000 -0.000001 0.070104 0.000001 -0.019346
# 5 0.003001 0.001843 -0.000812 0.000001 0.030387 -0.000001
# 6 0.000000 0.000000 0.000000 -0.019346 -0.000001 0.041634
#
#
# Mechanical properties :
#
#
# Convention : Reuss Voigt Hill
#
# Bulk Modulus (GPa) = 36.16336 47.57945 41.87141
# Shear Modulus (GPa) = 23.48566 29.39685 26.44125
#
# Velocity S-wave (km/s) = 3.38092 3.78254 3.58735
# Velocity P-wave (km/s) = 5.73077 6.49877 6.12681
#
# Compressibility (1/GPa) = 0.02765230
#
# Stress axis : x y z
#
# Youngs Moduli (GPa) = 45.60513 120.97294 69.39924
#
# Poissons Ratio (x) = 0.54334 0.11013
# Poissons Ratio (y) = 0.20483 0.16636
# Poissons Ratio (z) = 0.07237 0.28999
#
# Static dielectric constant tensor:
#      x y z
#    x 1.749290 0.000000 0.005860 
#    y 0.000000 0.972510 0.000000 
#    z 0.005860 0.000000 1.787920 
# 
# From -- ./inp_files/330349.got.cif
#   From: 2010.05.17/outbox.cif.g08.bks.cpg/sg12_166_cif.got.tgz:330349.got - 2010.06.03 13:09:07.
