data_PCOD9202548
_publ_section_title
;
Structure prediction by ZEFSAII (Michael W. Deem and Ramdas Pophale) SiO2 
 PCOD9202548
Probable space group: C 2/M
;
_chemical_formula_sum "Si O2"
_cell_formula_units_Z 56
_cell_length_a 20.070509
_cell_length_b 16.083014
_cell_length_c 14.572123
_cell_angle_alpha 90.000000
_cell_angle_beta 148.217517
_cell_angle_gamma 90.000000
_cell_volume 2477.471233
_symmetry_space_group_name_H-M "C 2/M"
_symmetry_group_IT_number 12
_symmetry_cell_setting 'monoclinic'
loop_
_space_group_symop_operation_xyz
x,y,z
-x,y,-z
-x,-y,-z
x,-y,z
1/2+x,1/2+y,z
1/2-x,1/2+y,-z
1/2-x,1/2-y,-z
1/2+x,1/2-y,z
loop_
_atom_site_type_symbol
_atom_site_label
_atom_site_fract_x
_atom_site_fract_y
_atom_site_fract_z
Si Si1 0.393823 0.846851 0.304753
Si Si2 0.315684 0.900561 0.609120
Si Si3 0.354257 0.405462 0.759543
Si Si4 0.842817 0.845651 0.250964
Si Si5 0.406292 0.404220 0.523955
Si Si6 0.380089 0.645479 0.986538
Si Si7 0.572534 0.823028 0.867895
O O1 0.500000 0.878958 0.500000
O O2 0.359425 0.751912 0.294067
O O3 0.255993 0.890682 0.142167
O O4 0.443636 0.838089 0.259475
O O5 0.259791 0.887750 0.442076
O O6 0.206516 0.866587 0.548276
O O7 0.450483 0.858175 0.776112
O O8 0.329031 0.000000 0.639167
O O9 0.341663 0.500000 0.780668
O O10 0.359465 0.344321 0.852037
O O11 0.486032 0.402225 0.857327
O O12 0.865467 0.896023 0.370250
O O13 0.954844 0.865315 0.311052
O O14 0.705577 0.864240 0.051174
O O15 0.418174 0.500000 0.564563
O O16 0.406206 0.728534 0.074757
#
# Coordination Sequence:
#
# PCOD9202548 Si02
#       7
#     8   8   8   8   8   8   8
#     4  11  22  39  61  89 129 166 201 265 324 377
#     4  10  24  43  63  91 131 173 213 264 322 379
#     4  10  22  42  65  91 128 171 218 264 312 385
#     4  10  20  38  62  86 127 160 208 260 313 378
#     4  10  21  38  64  91 119 167 215 257 315 382
#     4  10  21  37  63  92 125 161 213 265 315 370
#     4  11  25  39  62  97 129 164 214 263 324 381
#
# _framework density 22.603693
#
# number of rings (size 3 to 8) (size 9 to 14) (size 15 to 20)
#    0.000    1.714    1.429    4.286    4.000    6.857 
#    0.000    2.857    0.000    3.857    0.000    0.000 
#    0.000    0.000    0.000    0.000    0.000    0.000 
#
# Total GULP energy -156375.282407 kJ/mol
# GULP energy per Si atom -5584.831515 kJ/mol
# Density = 2.255225 g / cm^3
# Si number density = 22.603693 Si / 1000 Ang^3
#
#
#
# Elastic Constant Matrix: (Units=GPa)
#
#
# Indices 1 2 3 4 5 6 
#
# 1 131.7093 22.0517 59.3049 0.0000 22.9304 0.0000
# 2 22.0517 22.1645 26.0627 0.0000 4.0085 0.0000
# 3 59.3049 26.0627 156.3076 0.0000 28.8563 0.0000
# 4 0.0000 0.0000 0.0000 108.8130 0.0000 47.6237
# 5 22.9304 4.0085 28.8563 0.0000 42.2870 0.0000
# 6 0.0000 0.0000 0.0000 47.6237 0.0000 40.4565
#
#
#
# Elastic Compliance Matrix: (Units=1/GPa)
#
#
# Indices 1 2 3 4 5 6 
#
# 1 0.010346 -0.007221 -0.002073 0.000000 -0.003511 0.000000
# 2 -0.007221 0.061215 -0.008145 0.000000 0.003671 0.000000
# 3 -0.002073 -0.008145 0.009373 0.000000 -0.004500 0.000000
# 4 0.000000 0.000000 0.000000 0.018956 0.000000 -0.022315
# 5 -0.003511 0.003671 -0.004500 0.000000 0.028274 0.000000
# 6 0.000000 0.000000 0.000000 -0.022315 0.000000 0.050986
#
#
# Mechanical properties :
#
#
# Convention : Reuss Voigt Hill
#
# Bulk Modulus (GPa) = 21.71263 58.33554 40.02408
# Shear Modulus (GPa) = 21.79781 51.82879 36.81330
#
# Velocity S-wave (km/s) = 3.10876 4.79365 4.04002
# Velocity P-wave (km/s) = 4.74474 7.51684 6.28551
#
# Compressibility (1/GPa) = 0.04605615
#
# Stress axis : x y z
#
# Youngs Moduli (GPa) = 96.65353 16.33593 106.68830
#
# Poissons Ratio (x) = 0.11796 0.22120
# Poissons Ratio (y) = 0.69790 0.86898
# Poissons Ratio (z) = 0.20040 0.13306
#
# Static dielectric constant tensor:
#      x y z
#    x 1.871320 0.000000 0.019480 
#    y 0.000000 1.820710 0.000000 
#    z 0.019480 0.000000 1.843500 
# 
# From -- ./inp_files/234737.got.cif
#   From: 2010.05.17/outbox.cif.g08.bks.cpg/sg12_118_cif.got.tgz:234737.got - 2010.06.03 13:09:07.
