data_PCOD9202968
_publ_section_title
;
Structure prediction by ZEFSAII (Michael W. Deem and Ramdas Pophale) SiO2 
 PCOD9202968
Probable space group: C 2/M
;
_chemical_formula_sum "Si O2"
_cell_formula_units_Z 52
_cell_length_a 22.036749
_cell_length_b 16.985493
_cell_length_c 7.846868
_cell_angle_alpha 90.000000
_cell_angle_beta 48.105129
_cell_angle_gamma 90.000000
_cell_volume 2186.309612
_symmetry_space_group_name_H-M "C 2/M"
_symmetry_group_IT_number 12
_symmetry_cell_setting 'monoclinic'
loop_
_space_group_symop_operation_xyz
x,y,z
-x,y,-z
-x,-y,-z
x,-y,z
1/2+x,1/2+y,z
1/2-x,1/2+y,-z
1/2-x,1/2-y,-z
1/2+x,1/2-y,z
loop_
_atom_site_type_symbol
_atom_site_label
_atom_site_fract_x
_atom_site_fract_y
_atom_site_fract_z
Si Si1 0.232841 0.844031 0.038907
Si Si2 0.466084 0.801035 0.259031
Si Si3 0.397995 0.912180 0.877317
Si Si4 0.062630 0.871132 0.536178
Si Si5 0.000000 0.115019 0.000000
Si Si6 0.664610 0.406471 0.811718
Si Si7 0.833293 0.412378 0.382747
O O1 0.317749 0.883250 0.932270
O O2 0.156503 0.870327 0.301326
O O3 0.250000 0.750000 0.000000
O O4 0.203608 0.876640 0.912434
O O5 0.453905 0.717750 0.369062
O O6 0.381827 0.848426 0.399282
O O7 0.500000 0.792986 0.000000
O O8 0.528117 0.851497 0.256005
O O9 0.373219 0.915618 0.123274
O O10 0.421206 0.000000 0.779276
O O11 0.039339 0.918779 0.750666
O O12 0.000000 0.890703 0.500000
O O13 0.914379 0.144804 0.082126
O O14 0.643114 0.500000 0.860589
O O15 0.737845 0.395473 0.542059
O O16 0.840204 0.500000 0.448419
#
# Coordination Sequence:
#
# PCOD9202968 Si02
#       7
#     8   8   8   8   4   8   8
#     4  12  25  42  67 100 140 180 227 284 349 414
#     4  10  20  38  64  98 136 180 225 277 343 415
#     4  10  21  39  65  98 136 177 226 282 348 416
#     4  12  24  43  65  99 137 177 231 282 339 413
#     4  12  25  46  70  96 133 186 230 292 347 392
#     4  11  24  44  67  96 134 180 235 285 342 412
#     4   9  19  37  63  95 131 175 223 277 340 410
#
# _framework density 23.784369999999999
#
# number of rings (size 3 to 8) (size 9 to 14) (size 15 to 20)
#    0.000    1.231    2.308    3.923    0.000    1.846 
#    0.000    6.923    0.000    4.615    0.000    0.000 
#    0.000    0.000    0.000    0.000    0.000    0.000 
#
# Total GULP energy -145273.862289 kJ/mol
# GULP energy per Si atom -5587.456242 kJ/mol
# Density = 2.373024 g / cm^3
# Si number density = 23.784370 Si / 1000 Ang^3
#
#
#
# Elastic Constant Matrix: (Units=GPa)
#
#
# Indices 1 2 3 4 5 6 
#
# 1 163.4349 47.8975 12.3231 0.0000 -12.8232 0.0000
# 2 47.8975 111.7461 6.6171 0.0000 -12.4123 0.0000
# 3 12.3231 6.6171 85.4988 0.0000 -3.5291 0.0000
# 4 0.0000 0.0000 0.0000 15.8928 0.0000 -6.5836
# 5 -12.8232 -12.4123 -3.5291 0.0000 49.9636 0.0000
# 6 0.0000 0.0000 0.0000 -6.5836 0.0000 30.3390
#
#
#
# Elastic Compliance Matrix: (Units=1/GPa)
#
#
# Indices 1 2 3 4 5 6 
#
# 1 0.007103 -0.002883 -0.000757 0.000000 0.001053 0.000000
# 2 -0.002883 0.010406 -0.000315 0.000000 0.001823 0.000000
# 3 -0.000757 -0.000315 0.011853 0.000000 0.000565 0.000000
# 4 0.000000 0.000000 0.000000 0.069136 0.000000 0.015003
# 5 0.001053 0.001823 0.000565 0.000000 0.020778 0.000000
# 6 0.000000 0.000000 0.000000 0.015003 0.000000 0.036216
#
#
# Mechanical properties :
#
#
# Convention : Reuss Voigt Hill
#
# Bulk Modulus (GPa) = 46.61454 54.92836 50.77145
# Shear Modulus (GPa) = 29.31651 38.82856 34.07253
#
# Velocity S-wave (km/s) = 3.51464 4.04483 3.78902
# Velocity P-wave (km/s) = 6.00930 6.70512 6.36672
#
# Compressibility (1/GPa) = 0.02145254
#
# Stress axis : x y z
#
# Youngs Moduli (GPa) = 140.78066 96.10192 84.36777
#
# Poissons Ratio (x) = 0.27704 0.06388
# Poissons Ratio (y) = 0.40584 0.02654
# Poissons Ratio (z) = 0.10660 0.03023
#
# Static dielectric constant tensor:
#      x y z
#    x 1.846910 0.000000 0.032730 
#    y 0.000000 2.017890 0.000000 
#    z 0.032730 0.000000 1.964640 
# 
# From -- ./inp_files/88361.got.cif
#   From: 2010.05.17/outbox.cif.g08.bks.cpg/sg12_45_cif.got.tgz:88361.got - 2010.06.03 13:09:07.
