data_PCOD9202562
_publ_section_title
;
Structure prediction by ZEFSAII (Michael W. Deem and Ramdas Pophale) SiO2 
 PCOD9202562
Probable space group: C 2/M
;
_chemical_formula_sum "Si O2"
_cell_formula_units_Z 64
_cell_length_a 28.903451
_cell_length_b 8.980320
_cell_length_c 18.279540
_cell_angle_alpha 90.000000
_cell_angle_beta 43.558652
_cell_angle_gamma 90.000000
_cell_volume 3269.542462
_symmetry_space_group_name_H-M "C 2/M"
_symmetry_group_IT_number 12
_symmetry_cell_setting 'monoclinic'
loop_
_space_group_symop_operation_xyz
x,y,z
-x,y,-z
-x,-y,-z
x,-y,z
1/2+x,1/2+y,z
1/2-x,1/2+y,-z
1/2-x,1/2-y,-z
1/2+x,1/2-y,z
loop_
_atom_site_type_symbol
_atom_site_label
_atom_site_fract_x
_atom_site_fract_y
_atom_site_fract_z
Si Si1 0.190380 0.179051 0.346098
Si Si2 0.933118 0.177326 0.257177
Si Si3 0.300981 0.677148 0.497199
Si Si4 0.577167 0.175838 0.887689
Si Si5 0.952785 0.672538 0.483321
Si Si6 0.184530 0.178405 0.873782
Si Si7 0.036690 0.179709 0.256953
Si Si8 0.682346 0.678886 0.046775
O O1 0.209580 0.223636 0.407309
O O2 0.115005 0.237273 0.422630
O O3 0.244116 0.253131 0.231398
O O4 0.192378 0.000000 0.337790
O O5 0.875735 0.209564 0.382897
O O6 0.917441 0.262215 0.200713
O O7 0.003022 0.214960 0.216794
O O8 0.932452 0.000000 0.242897
O O9 0.292482 0.500000 0.504472
O O10 0.250000 0.750000 0.500000
O O11 0.627667 0.256394 0.885402
O O12 0.591868 0.000000 0.871716
O O13 0.500000 0.199269 0.000000
O O14 0.936181 0.500000 0.486334
O O15 0.000000 0.677663 0.500000
O O16 0.993690 0.743398 0.369276
O O17 0.185797 0.000000 0.865049
O O18 0.172355 0.215772 0.972667
O O19 0.114640 0.223956 0.167047
O O20 0.031831 0.000000 0.271080
O O21 0.687764 0.500000 0.045903
O O22 0.750000 0.750000 0.000000
#
# Coordination Sequence:
#
# PCOD9202562 Si02
#       8
#     8   8   8   8   8   8   8   8
#     4  11  23  42  65  92 128 168 211 258 311 375
#     4  10  20  38  62  87 119 159 206 254 306 368
#     4  10  21  36  56  85 120 158 199 246 296 358
#     4  11  24  40  60  91 127 164 212 262 312 372
#     4  11  25  42  63  94 129 166 209 260 316 374
#     4  11  24  43  65  93 129 168 212 260 314 376
#     4  10  21  42  67  93 122 161 213 259 310 376
#     4  10  24  43  66  93 124 162 207 260 315 373
#
# _framework density 19.574604999999998
#
# number of rings (size 3 to 8) (size 9 to 14) (size 15 to 20)
#    0.000    1.500    1.250    3.000    1.750    8.500 
#    0.000    0.000    0.000    0.000    0.000    0.000 
#    0.000    0.000    0.000    0.000    0.000    0.000 
#
# Total GULP energy -178893.002746 kJ/mol
# GULP energy per Si atom -5590.406336 kJ/mol
# Density = 1.953005 g / cm^3
# Si number density = 19.574605 Si / 1000 Ang^3
#
#
#
# Elastic Constant Matrix: (Units=GPa)
#
#
# Indices 1 2 3 4 5 6 
#
# 1 94.6491 38.4657 30.1167 -0.0001 -13.2967 -0.0008
# 2 38.4657 53.8374 48.7955 -0.0039 -3.3351 0.0001
# 3 30.1167 48.7955 93.1275 -0.0034 -8.5215 0.0013
# 4 -0.0001 -0.0039 -0.0034 31.5255 -0.0008 -2.2101
# 5 -13.2967 -3.3351 -8.5215 -0.0008 33.3743 0.0009
# 6 -0.0008 0.0001 0.0013 -2.2101 0.0009 37.3056
#
#
#
# Elastic Compliance Matrix: (Units=1/GPa)
#
#
# Indices 1 2 3 4 5 6 
#
# 1 0.015954 -0.013027 0.002180 -0.000001 0.005611 0.000000
# 2 -0.013027 0.046058 -0.020452 0.000003 -0.005809 0.000001
# 3 0.002180 -0.020452 0.021135 0.000000 0.004221 -0.000001
# 4 -0.000001 0.000003 0.000000 0.031853 0.000001 0.001887
# 5 0.005611 -0.005809 0.004221 0.000001 0.032696 -0.000001
# 6 0.000000 0.000001 -0.000001 0.001887 -0.000001 0.026917
#
#
# Mechanical properties :
#
#
# Convention : Reuss Voigt Hill
#
# Bulk Modulus (GPa) = 48.66199 52.92998 50.79598
# Shear Modulus (GPa) = 20.48660 28.72349 24.60504
#
# Velocity S-wave (km/s) = 3.23861 3.83480 3.54925
# Velocity P-wave (km/s) = 6.23687 6.83421 6.54236
#
# Compressibility (1/GPa) = 0.02054992
#
# Stress axis : x y z
#
# Youngs Moduli (GPa) = 62.67926 21.71158 47.31409
#
# Poissons Ratio (x) = 0.28283 -0.10312
# Poissons Ratio (y) = 0.81651 0.96766
# Poissons Ratio (z) = -0.13661 0.44404
#
# Static dielectric constant tensor:
#      x y z
#    x 1.643630 0.000000 -0.017450 
#    y 0.000000 1.660960 0.000000 
#    z -0.017450 0.000000 1.675600 
# 
# From -- ./inp_files/295537.got.cif
#   From: 2010.05.17/outbox.cif.g08.bks.cpg/sg12_148_cif.got.tgz:295537.got - 2010.06.03 13:09:07.
