data_PCOD9202409
_publ_section_title
;
Structure prediction by ZEFSAII (Michael W. Deem and Ramdas Pophale) SiO2 
 PCOD9202409
Probable space group: C 2/M
;
_chemical_formula_sum "Si O2"
_cell_formula_units_Z 40
_cell_length_a 16.995245
_cell_length_b 13.745735
_cell_length_c 22.634118
_cell_angle_alpha 90.000000
_cell_angle_beta 159.270787
_cell_angle_gamma 90.000000
_cell_volume 1871.556884
_symmetry_space_group_name_H-M "C 2/M"
_symmetry_group_IT_number 12
_symmetry_cell_setting 'monoclinic'
loop_
_space_group_symop_operation_xyz
x,y,z
-x,y,-z
-x,-y,-z
x,-y,z
1/2+x,1/2+y,z
1/2-x,1/2+y,-z
1/2-x,1/2-y,-z
1/2+x,1/2-y,z
loop_
_atom_site_type_symbol
_atom_site_label
_atom_site_fract_x
_atom_site_fract_y
_atom_site_fract_z
Si Si1 0.246510 0.112318 0.057361
Si Si2 0.124711 0.611839 0.239666
Si Si3 0.928931 0.609839 0.518457
Si Si4 0.146308 0.735401 0.363167
Si Si5 0.360609 0.279839 0.842311
O O1 0.360737 0.116351 0.072637
O O2 0.399459 0.193711 0.196129
O O3 0.278755 0.000000 0.099754
O O4 0.999789 0.145402 0.898372
O O5 0.185884 0.500000 0.273885
O O6 0.238159 0.656839 0.378918
O O7 0.165541 0.681135 0.213298
O O8 0.924274 0.500000 0.537015
O O9 0.695733 0.662889 0.365849
O O10 0.000000 0.610455 0.500000
O O11 0.121963 0.671979 0.684899
O O12 0.250000 0.750000 0.500000
O O13 0.500000 0.267078 0.000000
#
# Coordination Sequence:
#
# PCOD9202409 Si02
#       5
#     8   8   8   8   8
#     4   9  20  40  65  88 119 163 208 254 308 367
#     4   9  21  41  62  86 121 164 210 251 302 363
#     4  11  23  40  62  93 129 160 200 261 321 368
#     4  10  20  38  61  86 121 163 205 247 303 372
#     4  12  23  38  64  95 128 163 205 258 313 371
#
# _framework density 21.372581
#
# number of rings (size 3 to 8) (size 9 to 14) (size 15 to 20)
#    1.200    0.600    2.000    2.400    0.000    5.200 
#    0.000    4.000    0.000    7.200    0.000    0.000 
#    0.000    0.000    0.000    0.000    0.000    0.000 
#
# Total GULP energy -111389.253477 kJ/mol
# GULP energy per Si atom -5569.462674 kJ/mol
# Density = 2.132394 g / cm^3
# Si number density = 21.372581 Si / 1000 Ang^3
#
#
#
# Elastic Constant Matrix: (Units=GPa)
#
#
# Indices 1 2 3 4 5 6 
#
# 1 77.4614 60.3393 30.9701 0.0232 -13.2037 0.0020
# 2 60.3393 167.6682 41.0080 0.0099 1.0799 0.0034
# 3 30.9701 41.0080 74.3188 0.0155 -3.2794 0.0331
# 4 0.0232 0.0099 0.0155 20.1367 0.0070 8.0637
# 5 -13.2037 1.0799 -3.2794 0.0070 38.9818 0.0065
# 6 0.0020 0.0034 0.0331 8.0637 0.0065 -5.7356
#
#
#
# Elastic Compliance Matrix: (Units=1/GPa)
#
#
# Indices 1 2 3 4 5 6 
#
# 1 0.021053 -0.006415 -0.004929 -0.000008 0.006894 -0.000029
# 2 -0.006415 0.008860 -0.002331 0.000007 -0.002614 -0.000003
# 3 -0.004929 -0.002331 0.016787 -0.000028 -0.000193 0.000054
# 4 -0.000008 0.000007 -0.000028 0.031773 -0.000018 0.044669
# 5 0.006894 -0.002614 -0.000193 -0.000018 0.028044 0.000005
# 6 -0.000029 -0.000003 0.000054 0.044669 0.000005 -0.111548
#
#
# Mechanical properties :
#
#
# Convention : Reuss Voigt Hill
#
# Bulk Modulus (GPa) = 51.68059 64.89813 58.28936
# Shear Modulus (GPa) = 173.80634 23.15197 98.47915
#
# Velocity S-wave (km/s) = 9.02766 3.29486 6.79539
# Velocity P-wave (km/s) = 11.52815 6.70118 9.42879
#
# Compressibility (1/GPa) = 0.01934962
#
# Stress axis : x y z
#
# Youngs Moduli (GPa) = 47.50018 112.87109 59.56958
#
# Poissons Ratio (x) = 0.72408 0.29362
# Poissons Ratio (y) = 0.30472 0.13884
# Poissons Ratio (z) = 0.23413 0.26307
#
# Static dielectric constant tensor:
#      x y z
#    x 1.806380 0.000000 -0.009800 
#    y 0.000000 1.743650 -0.000010 
#    z -0.009800 -0.000010 1.820870 
# 
# From -- ./inp_files/343868.got.cif
#   From: 2010.05.17/outbox.cif.g08.bks.cpg/sg12_172_cif.got.tgz:343868.got - 2010.06.03 13:09:07.
