data_PCOD9202895
_publ_section_title
;
Structure prediction by ZEFSAII (Michael W. Deem and Ramdas Pophale) SiO2 
 PCOD9202895
Probable space group: C 2/M
;
_chemical_formula_sum "Si O2"
_cell_formula_units_Z 48
_cell_length_a 15.860113
_cell_length_b 32.426995
_cell_length_c 5.046045
_cell_angle_alpha 90.000000
_cell_angle_beta 61.694812
_cell_angle_gamma 90.000000
_cell_volume 2284.867997
_symmetry_space_group_name_H-M "C 2/M"
_symmetry_group_IT_number 12
_symmetry_cell_setting 'monoclinic'
loop_
_space_group_symop_operation_xyz
x,y,z
-x,y,-z
-x,-y,-z
x,-y,z
1/2+x,1/2+y,z
1/2-x,1/2+y,-z
1/2-x,1/2-y,-z
1/2+x,1/2-y,z
loop_
_atom_site_type_symbol
_atom_site_label
_atom_site_fract_x
_atom_site_fract_y
_atom_site_fract_z
Si Si1 0.724876 0.378862 0.609079
Si Si2 0.892852 0.590916 0.725370
Si Si3 0.276997 0.454780 0.771132
Si Si4 0.201084 0.706330 0.538714
Si Si5 0.066730 0.916140 0.150384
Si Si6 0.906134 0.683050 0.816170
O O1 0.826868 0.392855 0.581364
O O2 0.700699 0.415935 0.447721
O O3 0.735344 0.333537 0.474947
O O4 0.640421 0.380214 0.951960
O O5 0.903994 0.633661 0.871223
O O6 0.000000 0.577030 0.500000
O O7 0.827425 0.556305 0.957039
O O8 0.277537 0.500000 0.646692
O O9 0.359372 0.451818 0.871168
O O10 0.250000 0.750000 0.500000
O O11 0.175224 0.697350 0.271188
O O12 0.112035 0.704073 0.875550
O O13 0.000000 0.906060 0.500000
O O14 0.000000 0.926621 0.000000
O O15 0.000000 0.691078 0.500000
#
# Coordination Sequence:
#
# PCOD9202895 Si02
#       6
#     8   8   8   8   8   8
#     4  10  22  41  64  92 130 162 217 263 322 383
#     4   9  20  38  62  91 127 172 206 258 318 382
#     4  11  23  40  64  94 129 166 215 271 320 383
#     4  11  22  39  64  91 124 168 204 257 319 381
#     4  11  23  44  67  92 123 170 217 266 325 379
#     4  10  20  38  64  91 124 159 210 254 304 378
#
# _framework density 21.007777000000001
#
# number of rings (size 3 to 8) (size 9 to 14) (size 15 to 20)
#    0.000    1.667    3.333    1.000    0.000    4.333 
#    0.000    3.333    0.000    0.000    0.000    0.000 
#    0.000    0.000    0.000    0.000    0.000    0.000 
#
# Total GULP energy -133825.365500 kJ/mol
# GULP energy per Si atom -5576.056896 kJ/mol
# Density = 2.095996 g / cm^3
# Si number density = 21.007777 Si / 1000 Ang^3
#
#
#
# Elastic Constant Matrix: (Units=GPa)
#
#
# Indices 1 2 3 4 5 6 
#
# 1 89.4561 21.5285 42.9893 0.0000 -21.2908 0.0000
# 2 21.5285 132.2984 44.2191 0.0000 -12.1927 0.0000
# 3 42.9893 44.2191 134.1515 0.0000 -20.3855 0.0000
# 4 0.0000 0.0000 0.0000 15.2432 0.0000 7.7959
# 5 -21.2908 -12.1927 -20.3855 0.0000 39.7027 0.0000
# 6 0.0000 0.0000 0.0000 7.7959 0.0000 6.3430
#
#
#
# Elastic Compliance Matrix: (Units=1/GPa)
#
#
# Indices 1 2 3 4 5 6 
#
# 1 0.014388 -0.000634 -0.003535 0.000000 0.005706 0.000000
# 2 -0.000634 0.008582 -0.002469 0.000000 0.001028 0.000000
# 3 -0.003535 -0.002469 0.009759 0.000000 0.002357 0.000000
# 4 0.000000 0.000000 0.000000 0.176634 0.000000 -0.217095
# 5 0.005706 0.001028 0.002357 0.000000 0.029773 0.000000
# 6 0.000000 0.000000 0.000000 -0.217095 0.000000 0.424479
#
#
# Mechanical properties :
#
#
# Convention : Reuss Voigt Hill
#
# Bulk Modulus (GPa) = 51.40656 63.70887 57.55772
# Shear Modulus (GPa) = 7.31663 28.73571 18.02617
#
# Velocity S-wave (km/s) = 1.86826 3.70247 2.93246
# Velocity P-wave (km/s) = 5.40159 6.97638 6.23887
#
# Compressibility (1/GPa) = 0.01945277
#
# Stress axis : x y z
#
# Youngs Moduli (GPa) = 69.50290 116.52389 102.46874
#
# Poissons Ratio (x) = 0.07388 0.36218
# Poissons Ratio (y) = 0.04407 0.25304
# Poissons Ratio (z) = 0.24566 0.28775
#
# Static dielectric constant tensor:
#      x y z
#    x 1.828940 0.000000 0.010290 
#    y 0.000000 1.736010 0.000000 
#    z 0.010290 0.000000 1.847960 
# 
# From -- ./inp_files/13055.got.cif
#   From: 2010.05.17/outbox.cif.g08.bks.cpg/sg12_7_cif.got.tgz:13055.got - 2010.06.03 13:09:07.
