data_PCOD9202919
_publ_section_title
;
Structure prediction by ZEFSAII (Michael W. Deem and Ramdas Pophale) SiO2 
 PCOD9202919
Probable space group: C 2/M
;
_chemical_formula_sum "Si O2"
_cell_formula_units_Z 56
_cell_length_a 31.888692
_cell_length_b 8.463906
_cell_length_c 12.128058
_cell_angle_alpha 90.000000
_cell_angle_beta 120.204608
_cell_angle_gamma 90.000000
_cell_volume 2828.982906
_symmetry_space_group_name_H-M "C 2/M"
_symmetry_group_IT_number 12
_symmetry_cell_setting 'monoclinic'
loop_
_space_group_symop_operation_xyz
x,y,z
-x,y,-z
-x,-y,-z
x,-y,z
1/2+x,1/2+y,z
1/2-x,1/2+y,-z
1/2-x,1/2-y,-z
1/2+x,1/2-y,z
loop_
_atom_site_type_symbol
_atom_site_label
_atom_site_fract_x
_atom_site_fract_y
_atom_site_fract_z
Si Si1 0.537223 0.307192 0.455633
Si Si2 0.001511 0.813124 0.168870
Si Si3 0.805213 0.311348 0.076311
Si Si4 0.647934 0.308655 0.634861
Si Si5 0.075431 0.685186 0.093356
Si Si6 0.263252 0.689642 0.395603
Si Si7 0.674250 0.311485 0.134356
O O1 0.500000 0.253888 0.500000
O O2 0.538385 0.500000 0.459603
O O3 0.515857 0.261899 0.309458
O O4 0.592642 0.254265 0.544914
O O5 0.956531 0.719869 0.057778
O O6 0.990152 0.000000 0.152636
O O7 0.047459 0.780520 0.151121
O O8 0.805091 0.500000 0.075368
O O9 0.830964 0.250955 0.221111
O O10 0.750000 0.250000 0.000000
O O11 0.829293 0.248436 0.995828
O O12 0.648056 0.500000 0.638082
O O13 0.684253 0.260838 0.583657
O O14 0.074299 0.500000 0.117189
O O15 0.129353 0.744533 0.144219
O O16 0.261940 0.500000 0.395997
O O17 0.250000 0.750000 0.500000
O O18 0.223508 0.750797 0.255916
O O19 0.673648 0.500000 0.134613
#
# Coordination Sequence:
#
# PCOD9202919 Si02
#       7
#     8   8   8   8   8   8   8
#     4   9  20  38  62  93 125 162 210 259 308 369
#     4  10  20  38  64  93 124 164 214 258 311 381
#     4  12  24  41  64  93 126 163 207 256 313 377
#     4  10  22  41  65  92 126 169 213 262 314 371
#     4  11  23  40  62  91 127 163 206 264 323 377
#     4  11  24  41  63  94 132 170 214 260 314 383
#     4  12  25  42  66  93 124 164 212 264 319 379
#
# _framework density 19.795100000000001
#
# number of rings (size 3 to 8) (size 9 to 14) (size 15 to 20)
#    0.000    1.286    1.429    5.571    4.000    0.571 
#    0.000    1.429    0.000    2.143    0.000    0.000 
#    0.000    0.000    0.000    0.000    0.000    0.000 
#
# Total GULP energy -156563.677718 kJ/mol
# GULP energy per Si atom -5591.559918 kJ/mol
# Density = 1.975005 g / cm^3
# Si number density = 19.795100 Si / 1000 Ang^3
#
#
#
# Elastic Constant Matrix: (Units=GPa)
#
#
# Indices 1 2 3 4 5 6 
#
# 1 103.8182 -1.9035 45.0850 0.0000 11.3660 0.0000
# 2 -1.9035 40.3161 -1.8506 0.0000 -4.7546 0.0000
# 3 45.0850 -1.8506 101.1329 0.0000 -22.3506 0.0000
# 4 0.0000 0.0000 0.0000 29.1185 0.0000 4.1510
# 5 11.3660 -4.7546 -22.3506 0.0000 23.8918 0.0000
# 6 0.0000 0.0000 0.0000 4.1510 0.0000 20.5105
#
#
#
# Elastic Compliance Matrix: (Units=1/GPa)
#
#
# Indices 1 2 3 4 5 6 
#
# 1 0.016910 -0.002059 -0.011906 0.000000 -0.019592 0.000000
# 2 -0.002059 0.025974 0.003469 0.000000 0.009394 0.000000
# 3 -0.011906 0.003469 0.021006 0.000000 0.026006 0.000000
# 4 0.000000 0.000000 0.000000 0.035363 0.000000 -0.007157
# 5 -0.019592 0.009394 0.026006 0.000000 0.077373 0.000000
# 6 0.000000 0.000000 0.000000 -0.007157 0.000000 0.050204
#
#
# Mechanical properties :
#
#
# Convention : Reuss Voigt Hill
#
# Bulk Modulus (GPa) = 23.31058 36.43653 29.87356
# Shear Modulus (GPa) = 19.07517 28.29992 23.68754
#
# Velocity S-wave (km/s) = 3.10761 3.78516 3.46300
# Velocity P-wave (km/s) = 4.96768 6.12781 5.57799
#
# Compressibility (1/GPa) = 0.04289898
#
# Stress axis : x y z
#
# Youngs Moduli (GPa) = 59.13733 38.50026 47.60437
#
# Poissons Ratio (x) = 0.07926 0.56678
# Poissons Ratio (y) = 0.12174 -0.16514
# Poissons Ratio (z) = 0.70409 -0.13356
#
# Static dielectric constant tensor:
#      x y z
#    x 1.652060 0.000000 0.007610 
#    y 0.000000 1.682810 0.000000 
#    z 0.007610 0.000000 1.664650 
# 
# From -- ./inp_files/187734.got.cif
#   From: 2010.05.17/outbox.cif.g08.bks.cpg/sg12_94_cif.got.tgz:187734.got - 2010.06.03 13:09:07.
