data_PCOD9202455
_publ_section_title
;
Structure prediction by ZEFSAII (Michael W. Deem and Ramdas Pophale) SiO2 
 PCOD9202455
Probable space group: C 2/M
;
_chemical_formula_sum "Si O2"
_cell_formula_units_Z 50
_cell_length_a 17.864882
_cell_length_b 7.891708
_cell_length_c 19.545176
_cell_angle_alpha 90.000000
_cell_angle_beta 59.959667
_cell_angle_gamma 90.000000
_cell_volume 2385.419287
_symmetry_space_group_name_H-M "C 2/M"
_symmetry_group_IT_number 12
_symmetry_cell_setting 'monoclinic'
loop_
_space_group_symop_operation_xyz
x,y,z
-x,y,-z
-x,-y,-z
x,-y,z
1/2+x,1/2+y,z
1/2-x,1/2+y,-z
1/2-x,1/2-y,-z
1/2+x,1/2-y,z
loop_
_atom_site_type_symbol
_atom_site_label
_atom_site_fract_x
_atom_site_fract_y
_atom_site_fract_z
Si Si1 0.161749 0.205367 0.579403
Si Si2 0.105837 0.190457 0.751221
Si Si3 0.256698 0.702994 0.075690
Si Si4 0.477623 0.807783 0.603365
Si Si5 0.422528 0.806794 0.081003
Si Si6 0.500000 0.500000 0.500000
Si Si7 0.075159 0.698892 0.219746
O O1 0.250000 0.250000 0.500000
O O2 0.155781 0.267085 0.661700
O O3 0.079013 0.281739 0.577520
O O4 0.150314 0.000000 0.583259
O O5 0.103160 0.248507 0.830926
O O6 0.006026 0.201751 0.773168
O O7 0.138801 0.000000 0.738902
O O8 0.265960 0.500000 0.079877
O O9 0.337818 0.790091 0.073742
O O10 0.166695 0.756710 0.150586
O O11 0.250000 0.750000 0.000000
O O12 0.453719 0.652728 0.565887
O O13 0.427945 0.790305 0.697466
O O14 0.463114 0.000000 0.585027
O O15 0.449871 0.000000 0.079512
O O16 0.500000 0.723993 0.000000
O O17 0.062653 0.500000 0.206502
#
# Coordination Sequence:
#
# PCOD9202455 Si02
#       7
#     8   8   8   8   8   2   8
#     4  10  20  38  61  90 122 159 209 256 305 371
#     4  10  21  37  62  90 118 155 201 250 301 358
#     4  11  23  40  61  90 121 156 200 244 298 364
#     4  10  21  40  62  87 123 166 203 257 312 362
#     4  11  24  41  59  86 122 157 198 247 297 356
#     4  12  22  40  60  94 124 156 218 250 304 390
#     4   9  20  39  62  85 118 159 200 244 301 366
#
# _framework density 20.960674999999998
#
# number of rings (size 3 to 8) (size 9 to 14) (size 15 to 20)
#    0.000    1.760    0.800    3.120    1.120    8.320 
#    2.880    0.000    0.000    0.000    0.000    0.000 
#    0.000    0.000    0.000    0.000    0.000    0.000 
#
# Total GULP energy -139203.962076 kJ/mol
# GULP energy per Si atom -5568.158483 kJ/mol
# Density = 2.091297 g / cm^3
# Si number density = 20.960675 Si / 1000 Ang^3
#
#
#
# Elastic Constant Matrix: (Units=GPa)
#
#
# Indices 1 2 3 4 5 6 
#
# 1 28.0410 -8.7861 58.7786 0.0000 -4.9016 0.0006
# 2 -8.7861 83.0922 14.1475 -0.0001 8.7386 0.0012
# 3 58.7786 14.1475 175.6448 0.0000 -10.6193 0.0000
# 4 0.0000 -0.0001 0.0000 18.6021 0.0000 5.0886
# 5 -4.9016 8.7386 -10.6193 0.0000 42.4510 0.0000
# 6 0.0006 0.0012 0.0000 5.0886 0.0000 13.8579
#
#
#
# Elastic Compliance Matrix: (Units=1/GPa)
#
#
# Indices 1 2 3 4 5 6 
#
# 1 0.162890 0.026984 -0.056741 0.000003 -0.000941 -0.000010
# 2 0.026984 0.017009 -0.010583 0.000001 -0.003033 -0.000003
# 3 -0.056741 -0.010583 0.025657 -0.000001 0.002045 0.000004
# 4 0.000003 0.000001 -0.000001 0.059760 0.000000 -0.021944
# 5 -0.000941 -0.003033 0.002045 0.000000 0.024584 0.000000
# 6 -0.000010 -0.000003 0.000004 -0.021944 0.000000 0.080219
#
#
# Mechanical properties :
#
#
# Convention : Reuss Voigt Hill
#
# Bulk Modulus (GPa) = 8.00795 46.11755 27.06275
# Shear Modulus (GPa) = 10.15383 29.82474 19.98928
#
# Velocity S-wave (km/s) = 2.20335 3.77621 3.09148
# Velocity P-wave (km/s) = 3.20963 6.40802 5.06777
#
# Compressibility (1/GPa) = 0.12487585
#
# Stress axis : x y z
#
# Youngs Moduli (GPa) = 6.13911 58.79239 38.97514
#
# Poissons Ratio (x) = -1.58643 2.21147
# Poissons Ratio (y) = -0.16566 0.41249
# Poissons Ratio (z) = 0.34834 0.62222
#
# Static dielectric constant tensor:
#      x y z
#    x 1.709200 0.000000 0.032110 
#    y 0.000000 1.789190 0.000000 
#    z 0.032110 0.000000 1.754140 
# 
# From -- ./inp_files/274948.got.cif
#   From: 2010.05.17/outbox.cif.g08.bks.cpg/sg12_138_cif.got.tgz:274948.got - 2010.06.03 13:09:07.
