data_PCOD9202153
_publ_section_title
;
Structure prediction by ZEFSAII (Michael W. Deem and Ramdas Pophale) SiO2 
 PCOD9202153
Probable space group: C 2/M
;
_chemical_formula_sum "Si O2"
_cell_formula_units_Z 56
_cell_length_a 12.609246
_cell_length_b 25.712445
_cell_length_c 9.104288
_cell_angle_alpha 90.000000
_cell_angle_beta 122.459246
_cell_angle_gamma 90.000000
_cell_volume 2490.601903
_symmetry_space_group_name_H-M "C 2/M"
_symmetry_group_IT_number 12
_symmetry_cell_setting 'monoclinic'
loop_
_space_group_symop_operation_xyz
x,y,z
-x,y,-z
-x,-y,-z
x,-y,z
1/2+x,1/2+y,z
1/2-x,1/2+y,-z
1/2-x,1/2-y,-z
1/2+x,1/2-y,z
loop_
_atom_site_type_symbol
_atom_site_label
_atom_site_fract_x
_atom_site_fract_y
_atom_site_fract_z
Si Si1 0.560271 0.439756 0.208039
Si Si2 0.861408 0.253829 0.442925
Si Si3 0.873707 0.397955 0.707918
Si Si4 0.804285 0.625166 0.345296
Si Si5 0.607837 0.780280 0.196627
Si Si6 0.880563 0.444155 0.140048
Si Si7 0.663258 0.441362 0.735711
O O1 0.605422 0.500000 0.267656
O O2 0.663488 0.394898 0.268664
O O3 0.461574 0.426795 0.265658
O O4 0.500000 0.441692 0.000000
O O5 0.830474 0.313878 0.380686
O O6 0.756468 0.223086 0.269876
O O7 0.876064 0.250980 0.633033
O O8 0.000000 0.238801 0.500000
O O9 0.875231 0.400463 0.533882
O O10 0.916609 0.340683 0.788751
O O11 0.733197 0.408609 0.661980
O O12 0.983010 0.437579 0.829756
O O13 0.850349 0.602635 0.226742
O O14 0.500000 0.762568 0.000000
O O15 0.872033 0.500000 0.211856
O O16 0.772447 0.442889 0.939032
O O17 0.643871 0.500000 0.665201
#
# Coordination Sequence:
#
# PCOD9202153 Si02
#       7
#     8   8   8   8   8   8   8
#     4  10  20  38  59  83 122 166 211 257 304 371
#     4  10  23  44  66  95 129 161 212 274 318 383
#     4  11  23  38  58  91 127 156 204 258 313 379
#     4  11  22  38  61  87 121 161 203 257 316 368
#     4  10  22  44  67  92 128 168 208 262 330 388
#     4  11  21  36  61  88 121 164 205 250 309 370
#     4  10  21  37  57  85 122 162 203 252 302 365
#
# _framework density 22.484525000000001
#
# number of rings (size 3 to 8) (size 9 to 14) (size 15 to 20)
#    0.000    1.571    1.429    4.286    0.000    5.714 
#    7.714    1.429    0.000    0.000    0.000    0.000 
#    0.000    0.000    0.000    0.000    0.000    0.000 
#
# Total GULP energy -156073.911526 kJ/mol
# GULP energy per Si atom -5574.068269 kJ/mol
# Density = 2.243335 g / cm^3
# Si number density = 22.484525 Si / 1000 Ang^3
#
#
#
# Elastic Constant Matrix: (Units=GPa)
#
#
# Indices 1 2 3 4 5 6 
#
# 1 82.3304 -0.2214 13.7523 0.0000 22.3121 0.0000
# 2 -0.2214 21.9004 20.1196 0.0000 4.2712 0.0000
# 3 13.7523 20.1196 119.3457 0.0000 17.4439 0.0000
# 4 0.0000 0.0000 0.0000 -5.9033 0.0000 17.2097
# 5 22.3121 4.2712 17.4439 0.0000 45.0050 0.0000
# 6 0.0000 0.0000 0.0000 17.2097 0.0000 38.9201
#
#
#
# Elastic Compliance Matrix: (Units=1/GPa)
#
#
# Indices 1 2 3 4 5 6 
#
# 1 0.014186 0.002440 -0.001043 0.000000 -0.006860 0.000000
# 2 0.002440 0.054570 -0.009060 0.000000 -0.002877 0.000000
# 3 -0.001043 -0.009060 0.010415 0.000000 -0.002660 0.000000
# 4 0.000000 0.000000 0.000000 -0.074002 0.000000 0.032722
# 5 -0.006860 -0.002877 -0.002660 0.000000 0.026925 0.000000
# 6 0.000000 0.000000 0.000000 0.032722 0.000000 0.011224
#
#
# Mechanical properties :
#
#
# Convention : Reuss Voigt Hill
#
# Bulk Modulus (GPa) = 15.66306 32.31974 23.99140
# Shear Modulus (GPa) = 62.55625 28.26610 45.41117
#
# Velocity S-wave (km/s) = 5.28037 3.54946 4.49894
# Velocity P-wave (km/s) = 6.64513 5.58602 6.13846
#
# Compressibility (1/GPa) = 0.06384449
#
# Stress axis : x y z
#
# Youngs Moduli (GPa) = 70.49107 18.32496 96.01152
#
# Poissons Ratio (x) = -0.04471 0.10017
# Poissons Ratio (y) = -0.17198 0.86989
# Poissons Ratio (z) = 0.07354 0.16603
#
# Static dielectric constant tensor:
#      x y z
#    x 1.998290 0.000000 0.023360 
#    y 0.000000 1.802740 0.000000 
#    z 0.023360 0.000000 1.868080 
# 
# From -- ./inp_files/54812.got.cif
#   From: 2010.05.17/outbox.cif.g08.bks.cpg/sg12_28_cif.got.tgz:54812.got - 2010.06.03 13:09:07.
