data_PCOD9202814
_publ_section_title
;
Structure prediction by ZEFSAII (Michael W. Deem and Ramdas Pophale) SiO2 
 PCOD9202814
Probable space group: C 2/M
;
_chemical_formula_sum "Si O2"
_cell_formula_units_Z 48
_cell_length_a 9.530890
_cell_length_b 29.523177
_cell_length_c 17.391732
_cell_angle_alpha 90.000000
_cell_angle_beta 31.459602
_cell_angle_gamma 90.000000
_cell_volume 2554.020602
_symmetry_space_group_name_H-M "C 2/M"
_symmetry_group_IT_number 12
_symmetry_cell_setting 'monoclinic'
loop_
_space_group_symop_operation_xyz
x,y,z
-x,y,-z
-x,-y,-z
x,-y,z
1/2+x,1/2+y,z
1/2-x,1/2+y,-z
1/2-x,1/2-y,-z
1/2+x,1/2-y,z
loop_
_atom_site_type_symbol
_atom_site_label
_atom_site_fract_x
_atom_site_fract_y
_atom_site_fract_z
Si Si1 0.482955 0.723979 0.599999
Si Si2 0.490221 0.721496 0.096777
Si Si3 0.176896 0.051700 0.340069
Si Si4 0.248957 0.631655 0.275978
Si Si5 0.623507 0.631871 0.604652
Si Si6 0.714680 0.051397 0.175130
O O1 0.500000 0.719942 0.500000
O O2 0.244453 0.753399 0.746451
O O3 0.463290 0.675001 0.648284
O O4 0.750000 0.750000 0.500000
O O5 0.430099 0.669301 0.148426
O O6 0.500000 0.723547 0.000000
O O7 0.750000 0.750000 0.000000
O O8 0.475310 0.066080 0.228914
O O9 0.000000 0.050664 0.500000
O O10 0.023283 0.086923 0.357476
O O11 0.191561 0.000000 0.302492
O O12 0.351718 0.629615 0.315244
O O13 0.251098 0.584669 0.229284
O O14 0.927172 0.640892 0.431407
O O15 0.641832 0.000000 0.233287
O O16 0.000000 0.050283 0.000000
#
# Coordination Sequence:
#
# PCOD9202814 Si02
#       6
#     8   8   8   8   8   8
#     4  12  24  42  66  89 123 168 214 259 318 384
#     4  12  26  43  63  92 127 164 210 267 318 374
#     4  10  20  38  63  94 126 160 212 264 310 373
#     4  11  23  40  62  92 130 165 210 265 320 379
#     4  11  23  38  64  95 124 165 215 264 316 378
#     4  10  22  41  65  92 128 170 208 256 323 387
#
# _framework density 18.793897999999999
#
# number of rings (size 3 to 8) (size 9 to 14) (size 15 to 20)
#    0.000    1.000    3.333    4.000    0.000    2.000 
#    0.000    4.167    0.000    3.000    0.000    0.000 
#    0.000    0.000    0.000    0.000    0.000    0.000 
#
# Total GULP energy -133896.671125 kJ/mol
# GULP energy per Si atom -5579.027964 kJ/mol
# Density = 1.875112 g / cm^3
# Si number density = 18.793898 Si / 1000 Ang^3
#
#
#
# Elastic Constant Matrix: (Units=GPa)
#
#
# Indices 1 2 3 4 5 6 
#
# 1 118.8772 62.5975 32.6782 0.0000 -0.4185 0.0000
# 2 62.5975 110.5765 16.8824 0.0000 2.3337 0.0000
# 3 32.6782 16.8824 90.2173 0.0000 -14.6435 0.0000
# 4 0.0000 0.0000 0.0000 16.3166 0.0000 -7.0763
# 5 -0.4185 2.3337 -14.6435 0.0000 31.7954 0.0000
# 6 0.0000 0.0000 0.0000 -7.0763 0.0000 37.5165
#
#
#
# Elastic Compliance Matrix: (Units=1/GPa)
#
#
# Indices 1 2 3 4 5 6 
#
# 1 0.012958 -0.006767 -0.003587 0.000000 -0.000985 0.000000
# 2 -0.006767 0.012920 -0.000146 0.000000 -0.001105 0.000000
# 3 -0.003587 -0.000146 0.013407 0.000000 0.006138 0.000000
# 4 0.000000 0.000000 0.000000 0.066747 0.000000 0.012590
# 5 -0.000985 -0.001105 0.006138 0.000000 0.034346 0.000000
# 6 0.000000 0.000000 0.000000 0.012590 0.000000 0.029030
#
#
# Mechanical properties :
#
#
# Convention : Reuss Voigt Hill
#
# Bulk Modulus (GPa) = 54.68931 60.44304 57.56617
# Shear Modulus (GPa) = 25.44486 30.95991 28.20239
#
# Velocity S-wave (km/s) = 3.68352 4.06315 3.87798
# Velocity P-wave (km/s) = 6.87413 7.36499 7.12379
#
# Compressibility (1/GPa) = 0.01828511
#
# Stress axis : x y z
#
# Youngs Moduli (GPa) = 77.17233 77.39960 74.58640
#
# Poissons Ratio (x) = 0.52377 0.26755
# Poissons Ratio (y) = 0.52223 0.01088
# Poissons Ratio (z) = 0.27683 0.01129
#
# Static dielectric constant tensor:
#      x y z
#    x 1.621650 0.000000 -0.032060 
#    y 0.000000 1.695640 0.000000 
#    z -0.032060 0.000000 1.614240 
# 
# From -- ./inp_files/170798.got.cif
#   From: 2010.05.17/outbox.cif.g08.bks.cpg/sg12_86_cif.got.tgz:170798.got - 2010.06.03 13:09:07.
