data_PCOD9202348
_publ_section_title
;
Structure prediction by ZEFSAII (Michael W. Deem and Ramdas Pophale) SiO2 
 PCOD9202348
Probable space group: C 2/M
;
_chemical_formula_sum "Si O2"
_cell_formula_units_Z 48
_cell_length_a 19.568104
_cell_length_b 7.872548
_cell_length_c 12.015008
_cell_angle_alpha 90.000000
_cell_angle_beta 94.217697
_cell_angle_gamma 90.000000
_cell_volume 1845.909400
_symmetry_space_group_name_H-M "C 2/M"
_symmetry_group_IT_number 12
_symmetry_cell_setting 'monoclinic'
loop_
_space_group_symop_operation_xyz
x,y,z
-x,y,-z
-x,-y,-z
x,-y,z
1/2+x,1/2+y,z
1/2-x,1/2+y,-z
1/2-x,1/2-y,-z
1/2+x,1/2-y,z
loop_
_atom_site_type_symbol
_atom_site_label
_atom_site_fract_x
_atom_site_fract_y
_atom_site_fract_z
Si Si1 0.223188 0.207818 0.828349
Si Si2 0.927101 0.197403 0.104291
Si Si3 0.868356 0.303544 0.887720
Si Si4 0.972244 0.695448 0.335567
Si Si5 0.378325 0.700248 0.637565
Si Si6 0.325974 0.698457 0.406724
O O1 0.151225 0.252632 0.875035
O O2 0.291759 0.271649 0.895114
O O3 0.219342 0.270440 0.699382
O O4 0.226624 0.000000 0.826695
O O5 0.971788 0.295653 0.200064
O O6 0.936114 0.000000 0.132320
O O7 0.925715 0.216998 0.970895
O O8 0.870405 0.500000 0.919976
O O9 0.874247 0.289536 0.755772
O O10 0.968101 0.500000 0.369068
O O11 0.903443 0.787221 0.367533
O O12 0.042220 0.775680 0.386992
O O13 0.365625 0.500000 0.650675
O O14 0.331103 0.770847 0.531863
O O15 0.309485 0.500000 0.415838
#
# Coordination Sequence:
#
# PCOD9202348 Si02
#       6
#     8   8   8   8   8   8
#     4   8  17  35  59  84 111 144 182 227 274 323
#     4  10  20  38  61  83 110 146 187 226 273 333
#     4  11  22  36  55  83 117 148 183 229 278 323
#     4  11  22  37  59  86 112 140 182 234 283 326
#     4  11  23  38  56  80 113 153 190 223 270 332
#     4   9  19  38  61  83 110 147 188 226 269 327
#
# _framework density 26.003444999999999
#
# number of rings (size 3 to 8) (size 9 to 14) (size 15 to 20)
#    0.000    2.000    0.000    5.000    0.000    4.667 
#    0.000   10.833    0.000    0.000    0.000    0.000 
#    0.000    0.000    0.000    0.000    0.000    0.000 
#
# Total GULP energy -134286.953859 kJ/mol
# GULP energy per Si atom -5595.289744 kJ/mol
# Density = 2.594426 g / cm^3
# Si number density = 26.003445 Si / 1000 Ang^3
#
#
#
# Elastic Constant Matrix: (Units=GPa)
#
#
# Indices 1 2 3 4 5 6 
#
# 1 57.4359 -4.9657 9.2043 0.0000 17.0428 0.0000
# 2 -4.9657 83.7236 2.5006 0.0000 11.6996 0.0000
# 3 9.2043 2.5006 179.9786 0.0000 31.9683 0.0000
# 4 0.0000 0.0000 0.0000 25.1725 0.0000 -4.9150
# 5 17.0428 11.6996 31.9683 0.0000 54.0554 0.0000
# 6 0.0000 0.0000 0.0000 -4.9150 0.0000 16.1572
#
#
#
# Elastic Compliance Matrix: (Units=1/GPa)
#
#
# Indices 1 2 3 4 5 6 
#
# 1 0.019558 0.002094 0.000164 0.000000 -0.006716 0.000000
# 2 0.002094 0.012559 0.000356 0.000000 -0.003589 0.000000
# 3 0.000164 0.000356 0.006219 0.000000 -0.003807 0.000000
# 4 0.000000 0.000000 0.000000 0.042234 0.000000 0.012848
# 5 -0.006716 -0.003589 -0.003807 0.000000 0.023645 0.000000
# 6 0.000000 0.000000 0.000000 0.012848 0.000000 0.065800
#
#
# Mechanical properties :
#
#
# Convention : Reuss Voigt Hill
#
# Bulk Modulus (GPa) = 22.95521 37.17962 30.06742
# Shear Modulus (GPa) = 27.88457 40.03694 33.96076
#
# Velocity S-wave (km/s) = 3.27822 3.92813 3.61780
# Velocity P-wave (km/s) = 4.81413 5.90784 5.38881
#
# Compressibility (1/GPa) = 0.04356309
#
# Stress axis : x y z
#
# Youngs Moduli (GPa) = 51.12880 79.62343 160.79664
#
# Poissons Ratio (x) = -0.16671 -0.02632
# Poissons Ratio (y) = -0.10705 -0.05723
# Poissons Ratio (z) = -0.00837 -0.02834
#
# Static dielectric constant tensor:
#      x y z
#    x 2.102180 0.000000 -0.100160 
#    y 0.000000 1.873390 0.000000 
#    z -0.100160 0.000000 2.125240 
# 
# From -- ./inp_files/172908.got.cif
#   From: 2010.05.17/outbox.cif.g08.bks.cpg/sg12_87_cif.got.tgz:172908.got - 2010.06.03 13:09:07.
