data_PCOD9202954
_publ_section_title
;
Structure prediction by ZEFSAII (Michael W. Deem and Ramdas Pophale) SiO2 
 PCOD9202954
Probable space group: C 2/M
;
_chemical_formula_sum "Si O2"
_cell_formula_units_Z 34
_cell_length_a 17.194604
_cell_length_b 7.583799
_cell_length_c 17.455308
_cell_angle_alpha 90.000000
_cell_angle_beta 138.911069
_cell_angle_gamma 90.000000
_cell_volume 1495.972665
_symmetry_space_group_name_H-M "C 2/M"
_symmetry_group_IT_number 12
_symmetry_cell_setting 'monoclinic'
loop_
_space_group_symop_operation_xyz
x,y,z
-x,y,-z
-x,-y,-z
x,-y,z
1/2+x,1/2+y,z
1/2-x,1/2+y,-z
1/2-x,1/2-y,-z
1/2+x,1/2-y,z
loop_
_atom_site_type_symbol
_atom_site_label
_atom_site_fract_x
_atom_site_fract_y
_atom_site_fract_z
Si Si1 0.657297 0.204103 0.160057
Si Si2 0.000000 0.000000 0.000000
Si Si3 0.436775 0.710272 0.651670
Si Si4 0.276908 0.210443 0.398990
Si Si5 0.698503 0.711148 0.878763
O O1 0.755776 0.215033 0.299303
O O2 0.715184 0.275128 0.124288
O O3 0.620755 0.000000 0.126698
O O4 0.552727 0.342490 0.096458
O O5 0.439616 0.500000 0.664138
O O6 0.394407 0.744789 0.533617
O O7 0.333151 0.778288 0.630615
O O8 0.565872 0.780542 0.768116
O O9 0.270838 0.000000 0.389307
O O10 0.694576 0.500000 0.866117
O O11 0.750000 0.750000 0.000000
#
# Coordination Sequence:
#
# PCOD9202954 Si02
#       5
#     8   2   8   8   8
#     4  11  25  43  66  97 128 169 218 267 323 381
#     4  12  26  44  68  92 132 172 214 272 312 400
#     4   9  20  39  63  89 127 170 212 268 320 376
#     4  10  20  38  64  96 126 167 218 262 317 380
#     4  10  24  41  62  92 128 169 215 267 325 384
#
# _framework density 22.727687
#
# number of rings (size 3 to 8) (size 9 to 14) (size 15 to 20)
#    0.000    1.882    1.176    1.059    4.941    2.824 
#    0.000    4.706    0.000    0.000    0.000    0.000 
#    0.000    0.000    0.000    0.000    0.000    0.000 
#
# Total GULP energy -94769.320386 kJ/mol
# GULP energy per Si atom -5574.665905 kJ/mol
# Density = 2.267596 g / cm^3
# Si number density = 22.727687 Si / 1000 Ang^3
#
#
#
# Elastic Constant Matrix: (Units=GPa)
#
#
# Indices 1 2 3 4 5 6 
#
# 1 58.8804 1.6323 56.5734 0.0000 -13.9909 0.0000
# 2 1.6323 101.9666 4.2514 0.0000 11.1836 0.0000
# 3 56.5734 4.2514 198.6533 0.0000 -4.2880 0.0000
# 4 0.0000 0.0000 0.0000 33.4208 0.0000 -12.0949
# 5 -13.9909 11.1836 -4.2880 0.0000 39.8350 0.0000
# 6 0.0000 0.0000 0.0000 -12.0949 0.0000 -0.7482
#
#
#
# Elastic Compliance Matrix: (Units=1/GPa)
#
#
# Indices 1 2 3 4 5 6 
#
# 1 0.025974 -0.001065 -0.007187 0.000000 0.008648 0.000000
# 2 -0.001065 0.010178 0.000016 0.000000 -0.003230 0.000000
# 3 -0.007187 0.000016 0.007042 0.000000 -0.001771 0.000000
# 4 0.000000 0.000000 0.000000 0.004368 0.000000 -0.070609
# 5 0.008648 -0.003230 -0.001771 0.000000 0.028857 0.000000
# 6 0.000000 0.000000 0.000000 -0.070609 0.000000 -0.195108
#
#
# Mechanical properties :
#
#
# Convention : Reuss Voigt Hill
#
# Bulk Modulus (GPa) = 37.42387 53.82383 45.62385
# Shear Modulus (GPa) = -53.58493 34.30440 -9.64027
#
# Velocity S-wave (km/s) = -4.86088 3.88927 -2.06176
# Velocity P-wave (km/s) = 3.87327 6.62586 3.80130
#
# Compressibility (1/GPa) = 0.02672092
#
# Stress axis : x y z
#
# Youngs Moduli (GPa) = 38.50036 98.25367 142.00060
#
# Poissons Ratio (x) = 0.10460 1.02063
# Poissons Ratio (y) = 0.04099 -0.00222
# Poissons Ratio (z) = 0.27672 -0.00154
#
# Static dielectric constant tensor:
#      x y z
#    x 1.964930 0.000000 0.046420 
#    y 0.000000 1.828580 0.000000 
#    z 0.046420 0.000000 1.878550 
# 
# From -- ./inp_files/274705.got.cif
#   From: 2010.05.17/outbox.cif.g08.bks.cpg/sg12_138_cif.got.tgz:274705.got - 2010.06.03 13:09:07.
