data_PCOD9202833
_publ_section_title
;
Structure prediction by ZEFSAII (Michael W. Deem and Ramdas Pophale) SiO2 
 PCOD9202833
Probable space group: C 2/M
;
_chemical_formula_sum "Si O2"
_cell_formula_units_Z 44
_cell_length_a 13.971918
_cell_length_b 9.570888
_cell_length_c 16.423648
_cell_angle_alpha 90.000000
_cell_angle_beta 113.035002
_cell_angle_gamma 90.000000
_cell_volume 2021.116093
_symmetry_space_group_name_H-M "C 2/M"
_symmetry_group_IT_number 12
_symmetry_cell_setting 'monoclinic'
loop_
_space_group_symop_operation_xyz
x,y,z
-x,y,-z
-x,-y,-z
x,-y,z
1/2+x,1/2+y,z
1/2-x,1/2+y,-z
1/2-x,1/2-y,-z
1/2+x,1/2-y,z
loop_
_atom_site_type_symbol
_atom_site_label
_atom_site_fract_x
_atom_site_fract_y
_atom_site_fract_z
Si Si1 0.572083 0.344325 0.102640
Si Si2 0.626476 0.721293 0.874477
Si Si3 0.272705 0.000000 0.022250
Si Si4 0.759879 0.336168 0.777392
Si Si5 0.808482 0.839871 0.633070
Si Si6 0.088192 0.660272 0.464547
O O1 0.622301 0.500000 0.118824
O O2 0.492707 0.320323 0.149396
O O3 0.654539 0.221382 0.130288
O O4 0.500000 0.337226 0.000000
O O5 0.696908 0.618395 0.952768
O O6 0.654354 0.698153 0.789281
O O7 0.654648 0.876326 0.912621
O O8 0.769611 0.500000 0.766033
O O9 0.782789 0.247076 0.705289
O O10 0.893230 0.761788 0.605412
O O11 0.699408 0.842602 0.547336
O O12 0.837151 0.000000 0.660647
O O13 0.064044 0.500000 0.431033
O O14 0.000000 0.704377 0.500000
#
# Coordination Sequence:
#
# PCOD9202833 Si02
#       6
#     8   8   4   8   8   8
#     4  11  24  40  62  88 117 158 213 270 323 379
#     4  11  23  40  61  86 118 159 207 265 322 379
#     4  10  20  38  64  82 112 156 208 260 320 372
#     4  12  26  41  60  89 127 169 211 265 318 372
#     4  10  22  40  63  94 131 165 204 251 309 372
#     4   9  19  40  70 100 127 163 201 245 302 374
#
# _framework density 21.770150000000001
#
# number of rings (size 3 to 8) (size 9 to 14) (size 15 to 20)
#    0.000    1.455    1.818    3.273    6.364    2.909 
#    0.000    3.636    0.000    0.000    0.000    0.000 
#    0.000    0.000    0.000    0.000    0.000    0.000 
#
# Total GULP energy -122496.150782 kJ/mol
# GULP energy per Si atom -5568.006854 kJ/mol
# Density = 2.172060 g / cm^3
# Si number density = 21.770150 Si / 1000 Ang^3
#
#
#
# Elastic Constant Matrix: (Units=GPa)
#
#
# Indices 1 2 3 4 5 6 
#
# 1 91.1865 22.8949 13.4188 0.0000 -38.5080 0.0000
# 2 22.8949 192.0971 37.0108 0.0000 -22.4213 0.0000
# 3 13.4188 37.0108 51.9845 0.0000 -25.8265 0.0000
# 4 0.0000 0.0000 0.0000 28.9003 0.0000 5.0740
# 5 -38.5080 -22.4213 -25.8265 0.0000 36.6984 0.0000
# 6 0.0000 0.0000 0.0000 5.0740 0.0000 14.2113
#
#
#
# Elastic Compliance Matrix: (Units=1/GPa)
#
#
# Indices 1 2 3 4 5 6 
#
# 1 0.022292 -0.001075 0.009696 0.000000 0.029558 0.000000
# 2 -0.001075 0.006110 -0.004272 0.000000 -0.000401 0.000000
# 3 0.009696 -0.004272 0.036184 0.000000 0.033028 0.000000
# 4 0.000000 0.000000 0.000000 0.036916 0.000000 -0.013180
# 5 0.029558 -0.000401 0.033028 0.000000 0.081263 0.000000
# 6 0.000000 0.000000 0.000000 -0.013180 0.000000 0.075072
#
#
# Mechanical properties :
#
#
# Convention : Reuss Voigt Hill
#
# Bulk Modulus (GPa) = 13.64563 53.54634 33.59599
# Shear Modulus (GPa) = 18.27703 33.42492 25.85098
#
# Velocity S-wave (km/s) = 2.90063 3.92261 3.44968
# Velocity P-wave (km/s) = 4.18329 6.72053 5.59756
#
# Compressibility (1/GPa) = 0.07328353
#
# Stress axis : x y z
#
# Youngs Moduli (GPa) = 44.85951 163.66487 27.63638
#
# Poissons Ratio (x) = 0.17593 -0.26795
# Poissons Ratio (y) = 0.04822 0.11806
# Poissons Ratio (z) = -0.43495 0.69918
#
# Static dielectric constant tensor:
#      x y z
#    x 1.844120 0.000000 -0.032520 
#    y 0.000000 1.737940 0.000000 
#    z -0.032520 0.000000 1.873230 
# 
# From -- ./inp_files/267133.got.cif
#   From: 2010.05.17/outbox.cif.g08.bks.cpg/sg12_134_cif.got.tgz:267133.got - 2010.06.03 13:09:07.
