data_PCOD9202771
_publ_section_title
;
Structure prediction by ZEFSAII (Michael W. Deem and Ramdas Pophale) SiO2 
 PCOD9202771
Probable space group: C 2/M
;
_chemical_formula_sum "Si O2"
_cell_formula_units_Z 40
_cell_length_a 28.263928
_cell_length_b 15.550241
_cell_length_c 9.393955
_cell_angle_alpha 90.000000
_cell_angle_beta 148.670770
_cell_angle_gamma 90.000000
_cell_volume 2146.761701
_symmetry_space_group_name_H-M "C 2/M"
_symmetry_group_IT_number 12
_symmetry_cell_setting 'monoclinic'
loop_
_space_group_symop_operation_xyz
x,y,z
-x,y,-z
-x,-y,-z
x,-y,z
1/2+x,1/2+y,z
1/2-x,1/2+y,-z
1/2-x,1/2-y,-z
1/2+x,1/2-y,z
loop_
_atom_site_type_symbol
_atom_site_label
_atom_site_fract_x
_atom_site_fract_y
_atom_site_fract_z
Si Si1 0.214915 0.403535 0.767759
Si Si2 0.417737 0.624614 0.390652
Si Si3 0.244939 0.236503 0.656407
Si Si4 0.590866 0.403531 0.307972
Si Si5 0.898636 0.679753 0.271537
O O1 0.188931 0.500000 0.652141
O O2 0.211000 0.324992 0.644846
O O3 0.158250 0.377818 0.763862
O O4 0.320812 0.404775 0.083389
O O5 0.500000 0.600248 0.500000
O O6 0.430338 0.591820 0.580483
O O7 0.414356 0.728275 0.387322
O O8 0.250000 0.250000 0.500000
O O9 0.173156 0.160941 0.498349
O O10 0.337525 0.204922 0.975616
O O11 0.611071 0.500000 0.305646
O O12 0.500000 0.370602 0.000000
O O13 0.000000 0.644893 0.500000
#
# Coordination Sequence:
#
# PCOD9202771 Si02
#       5
#     8   8   8   8   8
#     4  11  22  40  64  91 125 162 210 260 304 370
#     4  10  20  38  63  91 123 159 201 257 313 368
#     4  11  24  41  62  91 130 167 206 259 316 370
#     4  11  24  39  61  93 127 160 199 254 323 379
#     4  10  21  40  65  91 119 168 218 253 307 364
#
# _framework density 18.632715999999999
#
# number of rings (size 3 to 8) (size 9 to 14) (size 15 to 20)
#    0.000    1.400    4.000    1.800    8.400    2.800 
#    0.000    0.000    0.000    4.200    0.000    0.000 
#    0.000    0.000    0.000    0.000    0.000    0.000 
#
# Total GULP energy -111590.319530 kJ/mol
# GULP energy per Si atom -5579.515976 kJ/mol
# Density = 1.859031 g / cm^3
# Si number density = 18.632716 Si / 1000 Ang^3
#
#
#
# Elastic Constant Matrix: (Units=GPa)
#
#
# Indices 1 2 3 4 5 6 
#
# 1 141.6186 44.6505 58.8221 0.0000 8.1833 0.0000
# 2 44.6505 78.1559 37.2245 0.0000 15.1442 0.0000
# 3 58.8221 37.2245 106.3085 0.0000 5.5441 0.0000
# 4 0.0000 0.0000 0.0000 13.7552 0.0000 -7.8976
# 5 8.1833 15.1442 5.5441 0.0000 38.9977 0.0000
# 6 0.0000 0.0000 0.0000 -7.8976 0.0000 2.9030
#
#
#
# Elastic Compliance Matrix: (Units=1/GPa)
#
#
# Indices 1 2 3 4 5 6 
#
# 1 0.009982 -0.003673 -0.004233 0.000000 -0.000066 0.000000
# 2 -0.003673 0.017849 -0.003925 0.000000 -0.005602 0.000000
# 3 -0.004233 -0.003925 0.013095 0.000000 0.000551 0.000000
# 4 0.000000 0.000000 0.000000 -0.129365 0.000000 -0.351937
# 5 -0.000066 -0.005602 0.000551 0.000000 0.027754 0.000000
# 6 0.000000 0.000000 0.000000 -0.351937 0.000000 -0.612972
#
#
# Mechanical properties :
#
#
# Convention : Reuss Voigt Hill
#
# Bulk Modulus (GPa) = 57.93313 67.49747 62.71530
# Shear Modulus (GPa) = -7.76107 23.49025 7.86459
#
# Velocity S-wave (km/s) = -2.04312 3.55448 2.05670
# Velocity P-wave (km/s) = 5.05904 7.29038 6.27469
#
# Compressibility (1/GPa) = 0.01726128
#
# Stress axis : x y z
#
# Youngs Moduli (GPa) = 100.18524 56.02693 76.36777
#
# Poissons Ratio (x) = 0.20581 0.32328
# Poissons Ratio (y) = 0.36802 0.29975
# Poissons Ratio (z) = 0.42411 0.21991
#
# Static dielectric constant tensor:
#      x y z
#    x 1.546300 0.000000 -0.078710 
#    y 0.000000 1.675540 0.000000 
#    z -0.078710 0.000000 1.547660 
# 
# From -- ./inp_files/58915.got.cif
#   From: 2010.05.17/outbox.cif.g08.bks.cpg/sg12_30_cif.got.tgz:58915.got - 2010.06.03 13:09:07.
