data_PCOD9202859
_publ_section_title
;
Structure prediction by ZEFSAII (Michael W. Deem and Ramdas Pophale) SiO2 
 PCOD9202859
Probable space group: C 2/M
;
_chemical_formula_sum "Si O2"
_cell_formula_units_Z 36
_cell_length_a 28.772626
_cell_length_b 9.748781
_cell_length_c 7.813215
_cell_angle_alpha 90.000000
_cell_angle_beta 42.320823
_cell_angle_gamma 90.000000
_cell_volume 1475.557457
_symmetry_space_group_name_H-M "C 2/M"
_symmetry_group_IT_number 12
_symmetry_cell_setting 'monoclinic'
loop_
_space_group_symop_operation_xyz
x,y,z
-x,y,-z
-x,-y,-z
x,-y,z
1/2+x,1/2+y,z
1/2-x,1/2+y,-z
1/2-x,1/2-y,-z
1/2+x,1/2-y,z
loop_
_atom_site_type_symbol
_atom_site_label
_atom_site_fract_x
_atom_site_fract_y
_atom_site_fract_z
Si Si1 0.946474 0.000000 0.902500
Si Si2 0.751234 0.500000 0.899886
Si Si3 0.602339 0.000000 0.641634
Si Si4 0.322684 0.000000 0.198652
Si Si5 0.353071 0.288785 0.942454
Si Si6 0.071738 0.793255 0.631476
Si Si7 0.679966 0.500000 0.463453
O O1 0.003335 0.118246 0.803241
O O2 0.896745 0.118382 0.951524
O O3 0.832593 0.500000 0.665779
O O4 0.719568 0.364664 0.897569
O O5 0.721807 0.500000 0.171933
O O6 0.637820 0.000000 0.730038
O O7 0.562047 0.861066 0.716709
O O8 0.238946 0.000000 0.444474
O O9 0.342140 0.862231 0.044338
O O10 0.393931 0.291881 0.651004
O O11 0.127100 0.872580 0.602283
#
# Coordination Sequence:
#
# PCOD9202859 Si02
#       7
#     4   4   4   4   8   8   4
#     4  10  21  42  69  90 105 140 199 248 289 340
#     4   9  19  37  62  89 115 147 189 238 290 337
#     4  12  25  37  53  85 124 158 192 228 277 342
#     4  12  25  37  53  85 124 158 192 228 277 342
#     4  10  20  38  64  89 114 145 188 242 291 336
#     4  10  20  38  64  89 114 145 188 242 291 336
#     4   9  19  37  62  89 115 147 189 238 290 337
#
# _framework density 24.397556999999999
#
# number of rings (size 3 to 8) (size 9 to 14) (size 15 to 20)
#    0.000    1.778    0.000    6.667    0.000    8.000 
#    0.000    8.889    0.000    0.000    0.000    0.000 
#    0.000    0.000    0.000    0.000    0.000    0.000 
#
# Total GULP energy -100487.215010 kJ/mol
# GULP energy per Si atom -5582.623056 kJ/mol
# Density = 2.434203 g / cm^3
# Si number density = 24.397557 Si / 1000 Ang^3
#
#
#
# Elastic Constant Matrix: (Units=GPa)
#
#
# Indices 1 2 3 4 5 6 
#
# 1 121.4473 76.4883 37.8796 0.0000 -16.3310 0.0000
# 2 76.4883 256.0576 37.8872 0.0000 -14.8270 0.0000
# 3 37.8796 37.8872 107.1802 0.0000 -2.4580 0.0000
# 4 0.0000 0.0000 0.0000 631.2379 0.0000 280.8870
# 5 -16.3310 -14.8270 -2.4580 0.0000 40.4698 0.0000
# 6 0.0000 0.0000 0.0000 280.8870 0.0000 153.5167
#
#
#
# Elastic Compliance Matrix: (Units=1/GPa)
#
#
# Indices 1 2 3 4 5 6 
#
# 1 0.011348 -0.002756 -0.002959 0.000000 0.003390 0.000000
# 2 -0.002756 0.004874 -0.000734 0.000000 0.000629 0.000000
# 3 -0.002959 -0.000734 0.010617 0.000000 -0.000818 0.000000
# 4 0.000000 0.000000 0.000000 0.008525 0.000000 -0.015598
# 5 0.003390 0.000629 -0.000818 0.000000 0.026259 0.000000
# 6 0.000000 0.000000 0.000000 -0.015598 0.000000 0.035053
#
#
# Mechanical properties :
#
#
# Convention : Reuss Voigt Hill
#
# Bulk Modulus (GPa) = 71.73327 87.68839 79.71083
# Shear Modulus (GPa) = 43.77506 187.20686 115.49096
#
# Velocity S-wave (km/s) = 4.24044 8.76917 6.88766
# Velocity P-wave (km/s) = 7.31032 11.77075 9.79774
#
# Compressibility (1/GPa) = 0.01394053
#
# Stress axis : x y z
#
# Youngs Moduli (GPa) = 88.11810 205.18443 94.19176
#
# Poissons Ratio (x) = 0.56545 0.27870
# Poissons Ratio (y) = 0.24284 0.06918
# Poissons Ratio (z) = 0.26073 0.15069
#
# Static dielectric constant tensor:
#      x y z
#    x 1.891510 0.000000 0.071820 
#    y 0.000000 1.890850 0.000000 
#    z 0.071820 0.000000 2.033920 
# 
# From -- ./inp_files/107773.got.cif
#   From: 2010.05.17/outbox.cif.g08.bks.cpg/sg12_54_cif.got.tgz:107773.got - 2010.06.03 13:09:07.
