data_PCOD9202578
_publ_section_title
;
Structure prediction by ZEFSAII (Michael W. Deem and Ramdas Pophale) SiO2 
 PCOD9202578
Probable space group: C 2/M
;
_chemical_formula_sum "Si O2"
_cell_formula_units_Z 60
_cell_length_a 20.825194
_cell_length_b 13.466960
_cell_length_c 14.260931
_cell_angle_alpha 90.000000
_cell_angle_beta 43.831581
_cell_angle_gamma 90.000000
_cell_volume 2769.822444
_symmetry_space_group_name_H-M "C 2/M"
_symmetry_group_IT_number 12
_symmetry_cell_setting 'monoclinic'
loop_
_space_group_symop_operation_xyz
x,y,z
-x,y,-z
-x,-y,-z
x,-y,z
1/2+x,1/2+y,z
1/2-x,1/2+y,-z
1/2-x,1/2-y,-z
1/2+x,1/2-y,z
loop_
_atom_site_type_symbol
_atom_site_label
_atom_site_fract_x
_atom_site_fract_y
_atom_site_fract_z
Si Si1 0.000000 0.245530 0.500000
Si Si2 0.788738 0.751609 0.234757
Si Si3 0.437407 0.113048 0.283702
Si Si4 0.198690 0.883573 0.951641
Si Si5 0.725799 0.385457 0.573384
Si Si6 0.369141 0.383884 0.526371
Si Si7 0.957932 0.763306 0.951858
Si Si8 0.104335 0.615113 0.256591
O O1 0.040238 0.176232 0.539496
O O2 0.076914 0.315523 0.372147
O O3 0.773251 0.845848 0.182114
O O4 0.800382 0.805761 0.321504
O O5 0.711088 0.669269 0.328958
O O6 0.876172 0.702481 0.090164
O O7 0.334026 0.129403 0.432178
O O8 0.470064 0.192780 0.173934
O O9 0.516004 0.118867 0.281079
O O10 0.437598 0.000000 0.245964
O O11 0.099013 0.829192 0.063860
O O12 0.297223 0.857969 0.897649
O O13 0.183067 0.000000 0.977731
O O14 0.716103 0.500000 0.616067
O O15 0.662495 0.374164 0.547973
O O16 0.377844 0.500000 0.538430
O O17 0.000000 0.819387 0.000000
O O18 0.114647 0.500000 0.275923
#
# Coordination Sequence:
#
# PCOD9202578 Si02
#       8
#     4   8   8   8   8   8   8   8
#     4  12  20  38  58  88 122 164 200 248 306 370
#     4  10  20  38  62  88 118 164 202 250 300 357
#     4  10  22  38  61  93 124 156 202 258 308 358
#     4   9  20  38  59  87 116 152 202 249 300 356
#     4  10  21  39  64  93 123 158 205 260 307 352
#     4  11  23  36  55  86 125 165 201 243 302 370
#     4  10  22  37  58  88 121 163 202 244 303 366
#     4  10  21  37  61  89 117 153 205 261 307 355
#
# _framework density 21.662039
#
# number of rings (size 3 to 8) (size 9 to 14) (size 15 to 20)
#    0.800    1.067    1.333    2.800    0.000    2.667 
#    0.000    0.000    0.000    4.000    0.000    0.000 
#    0.000    0.000    0.000    0.000    0.000    0.000 
#
# Total GULP energy -167136.845136 kJ/mol
# GULP energy per Si atom -5571.228171 kJ/mol
# Density = 2.161273 g / cm^3
# Si number density = 21.662039 Si / 1000 Ang^3
#
#
#
# Elastic Constant Matrix: (Units=GPa)
#
#
# Indices 1 2 3 4 5 6 
#
# 1 80.2328 21.7615 10.6037 0.0000 -16.9009 0.0000
# 2 21.7615 100.4893 35.6615 0.0000 -8.8235 0.0000
# 3 10.6037 35.6615 64.7117 0.0000 -15.9986 0.0000
# 4 0.0000 0.0000 0.0000 21.1732 0.0000 -0.8960
# 5 -16.9009 -8.8235 -15.9986 0.0000 18.1357 0.0000
# 6 0.0000 0.0000 0.0000 -0.8960 0.0000 23.7477
#
#
#
# Elastic Compliance Matrix: (Units=1/GPa)
#
#
# Indices 1 2 3 4 5 6 
#
# 1 0.016398 -0.003227 0.003174 0.000000 0.016510 0.000000
# 2 -0.003227 0.013006 -0.007440 0.000000 -0.003244 0.000000
# 3 0.003174 -0.007440 0.024133 0.000000 0.020627 0.000000
# 4 0.000000 0.000000 0.000000 0.047305 0.000000 0.001785
# 5 0.016510 -0.003244 0.020627 0.000000 0.087144 0.000000
# 6 0.000000 0.000000 0.000000 0.001785 0.000000 0.042177
#
#
# Mechanical properties :
#
#
# Convention : Reuss Voigt Hill
#
# Bulk Modulus (GPa) = 25.94191 42.38747 34.16469
# Shear Modulus (GPa) = 19.37986 24.43846 21.90916
#
# Velocity S-wave (km/s) = 2.99431 3.36247 3.18371
# Velocity P-wave (km/s) = 4.89451 5.88940 5.41485
#
# Compressibility (1/GPa) = 0.03854766
#
# Stress axis : x y z
#
# Youngs Moduli (GPa) = 60.98457 76.88845 41.43734
#
# Poissons Ratio (x) = 0.24816 -0.13150
# Poissons Ratio (y) = 0.19683 0.30831
# Poissons Ratio (z) = -0.19354 0.57208
#
# Static dielectric constant tensor:
#      x y z
#    x 1.924800 0.000000 -0.037430 
#    y 0.000000 1.775830 0.000000 
#    z -0.037430 0.000000 1.779470 
# 
# From -- ./inp_files/233424.got.cif
#   From: 2010.05.17/outbox.cif.g08.bks.cpg/sg12_117_cif.got.tgz:233424.got - 2010.06.03 13:09:07.
