data_PCOD9202490
_publ_section_title
;
Structure prediction by ZEFSAII (Michael W. Deem and Ramdas Pophale) SiO2 
 PCOD9202490
Probable space group: C 2/M
;
_chemical_formula_sum "Si O2"
_cell_formula_units_Z 48
_cell_length_a 25.325966
_cell_length_b 12.033801
_cell_length_c 12.100260
_cell_angle_alpha 90.000000
_cell_angle_beta 133.784367
_cell_angle_gamma 90.000000
_cell_volume 2662.380334
_symmetry_space_group_name_H-M "C 2/M"
_symmetry_group_IT_number 12
_symmetry_cell_setting 'monoclinic'
loop_
_space_group_symop_operation_xyz
x,y,z
-x,y,-z
-x,-y,-z
x,-y,z
1/2+x,1/2+y,z
1/2-x,1/2+y,-z
1/2-x,1/2-y,-z
1/2+x,1/2-y,z
loop_
_atom_site_type_symbol
_atom_site_label
_atom_site_fract_x
_atom_site_fract_y
_atom_site_fract_z
Si Si1 0.447584 0.744840 0.627658
Si Si2 0.475991 0.500000 0.646227
Si Si3 0.571734 0.132988 0.172101
Si Si4 0.324911 0.267842 0.261375
Si Si5 0.094081 0.627735 0.792017
Si Si6 0.816371 0.629172 0.854720
Si Si7 0.882023 0.000000 0.282241
O O1 0.458655 0.616369 0.677520
O O2 0.427334 0.813712 0.706426
O O3 0.385237 0.747867 0.444387
O O4 0.522460 0.794532 0.684313
O O5 0.428707 0.500000 0.464049
O O6 0.560126 0.500000 0.732132
O O7 0.642362 0.156103 0.199017
O O8 0.566212 0.000000 0.176412
O O9 0.500000 0.170005 0.000000
O O10 0.342862 0.173899 0.197560
O O11 0.246573 0.284225 0.204445
O O12 0.337588 0.386342 0.219319
O O13 0.075537 0.500000 0.738025
O O14 0.124618 0.630481 0.960946
O O15 0.788687 0.500000 0.807847
#
# Coordination Sequence:
#
# PCOD9202490 Si02
#       7
#     8   4   8   8   8   8   4
#     4  11  21  35  60  86 114 150 193 238 279 333
#     4   9  18  32  53  84 108 148 190 226 276 329
#     4  10  20  38  62  83 109 151 198 236 275 337
#     4  11  21  35  58  86 119 146 183 241 288 337
#     4  11  22  36  58  89 119 152 187 231 289 342
#     4  10  21  38  61  83 111 153 197 234 276 339
#     4   9  16  32  54  80 111 144 188 224 272 336
#
# _framework density 18.028980000000001
#
# number of rings (size 3 to 8) (size 9 to 14) (size 15 to 20)
#    0.000    1.667    4.167    1.500    0.000    2.667 
#    0.000    0.417    1.833    0.000    0.000    0.000 
#    0.000    0.000    0.000    0.000    0.000    0.000 
#
# Total GULP energy -133929.591710 kJ/mol
# GULP energy per Si atom -5580.399655 kJ/mol
# Density = 1.798795 g / cm^3
# Si number density = 18.028980 Si / 1000 Ang^3
#
#
#
# Elastic Constant Matrix: (Units=GPa)
#
#
# Indices 1 2 3 4 5 6 
#
# 1 83.0338 19.4537 12.7305 0.0000 -6.7269 0.0000
# 2 19.4537 66.6856 10.7192 0.0000 -0.4488 0.0000
# 3 12.7305 10.7192 27.9238 0.0000 -2.4271 0.0000
# 4 0.0000 0.0000 0.0000 15.3601 0.0000 -4.9172
# 5 -6.7269 -0.4488 -2.4271 0.0000 28.0525 0.0000
# 6 0.0000 0.0000 0.0000 -4.9172 0.0000 30.7321
#
#
#
# Elastic Compliance Matrix: (Units=1/GPa)
#
#
# Indices 1 2 3 4 5 6 
#
# 1 0.013763 -0.003226 -0.004790 0.000000 0.002834 0.000000
# 2 -0.003226 0.016740 -0.005037 0.000000 -0.000942 0.000000
# 3 -0.004790 -0.005037 0.040124 0.000000 0.002242 0.000000
# 4 0.000000 0.000000 0.000000 0.068618 0.000000 0.010979
# 5 0.002834 -0.000942 0.002242 0.000000 0.036506 0.000000
# 6 0.000000 0.000000 0.000000 0.010979 0.000000 0.034296
#
#
# Mechanical properties :
#
#
# Convention : Reuss Voigt Hill
#
# Bulk Modulus (GPa) = 22.46127 29.27221 25.86674
# Shear Modulus (GPa) = 19.92079 23.81161 21.86620
#
# Velocity S-wave (km/s) = 3.32766 3.63814 3.48636
# Velocity P-wave (km/s) = 5.22014 5.82405 5.53035
#
# Compressibility (1/GPa) = 0.04452107
#
# Stress axis : x y z
#
# Youngs Moduli (GPa) = 72.65818 59.73645 24.92280
#
# Poissons Ratio (x) = 0.19271 0.11938
# Poissons Ratio (y) = 0.23439 0.12554
# Poissons Ratio (z) = 0.34802 0.30090
#
# Static dielectric constant tensor:
#      x y z
#    x 1.622360 0.000000 0.024920 
#    y 0.000000 1.618870 0.000000 
#    z 0.024920 0.000000 1.603470 
# 
# From -- ./inp_files/165220.got.cif
#   From: 2010.05.17/outbox.cif.g08.bks.cpg/sg12_83_cif.got.tgz:165220.got - 2010.06.03 13:09:07.
