data_PCOD9202184
_publ_section_title
;
Structure prediction by ZEFSAII (Michael W. Deem and Ramdas Pophale) SiO2 
 PCOD9202184
Probable space group: C 2/M
;
_chemical_formula_sum "Si O2"
_cell_formula_units_Z 64
_cell_length_a 23.425209
_cell_length_b 14.901579
_cell_length_c 20.173686
_cell_angle_alpha 90.000000
_cell_angle_beta 23.282368
_cell_angle_gamma 90.000000
_cell_volume 2783.472996
_symmetry_space_group_name_H-M "C 2/M"
_symmetry_group_IT_number 12
_symmetry_cell_setting 'monoclinic'
loop_
_space_group_symop_operation_xyz
x,y,z
-x,y,-z
-x,-y,-z
x,-y,z
1/2+x,1/2+y,z
1/2-x,1/2+y,-z
1/2-x,1/2-y,-z
1/2+x,1/2-y,z
loop_
_atom_site_type_symbol
_atom_site_label
_atom_site_fract_x
_atom_site_fract_y
_atom_site_fract_z
Si Si1 0.888791 0.364283 0.471405
Si Si2 0.225897 0.856064 0.515136
Si Si3 0.873244 0.149805 0.515073
Si Si4 0.017933 0.894356 0.136591
Si Si5 0.785874 0.893648 0.859818
Si Si6 0.790423 0.394337 0.911961
Si Si7 0.840413 0.334176 0.143311
Si Si8 0.860369 0.140311 0.180848
O O1 0.823078 0.394965 0.470462
O O2 0.878963 0.257348 0.495379
O O3 0.791029 0.402407 0.635821
O O4 0.054640 0.385846 0.285940
O O5 0.250000 0.750000 0.500000
O O6 0.231709 0.883321 0.432754
O O7 0.063604 0.883403 0.707266
O O8 0.789978 0.128452 0.671710
O O9 0.040667 0.120415 0.333665
O O10 0.925671 0.836605 0.183646
O O11 0.012740 0.000000 0.122849
O O12 0.176051 0.858708 0.980792
O O13 0.696866 0.854213 0.892810
O O14 0.759228 0.000000 0.887270
O O15 0.731308 0.857971 0.990185
O O16 0.753955 0.500000 0.956145
O O17 0.835167 0.227427 0.163785
O O18 0.000000 0.362783 0.000000
O O19 0.000000 0.093116 0.000000
#
# Coordination Sequence:
#
# PCOD9202184 Si02
#       8
#     8   8   8   8   8   8   8   8
#     4   9  20  35  60  93 123 162 207 261 310 365
#     4   9  18  35  57  89 123 159 208 256 303 368
#     4  10  20  38  59  88 121 164 212 254 305 373
#     4  10  20  38  63  90 125 164 204 253 314 377
#     4  11  24  42  61  88 128 173 211 248 308 381
#     4  10  22  40  61  95 134 165 204 257 315 374
#     4  10  23  40  62  87 123 165 210 263 307 363
#     4   9  20  41  64  91 123 163 210 258 311 377
#
# _framework density 22.992857999999998
#
# number of rings (size 3 to 8) (size 9 to 14) (size 15 to 20)
#    0.000    2.250    1.250    1.125    1.750    6.000 
#    4.500    1.875    0.000    1.500    0.000    0.000 
#    0.000    0.000    0.000    0.000    0.000    0.000 
#
# Total GULP energy -178352.117986 kJ/mol
# GULP energy per Si atom -5573.503687 kJ/mol
# Density = 2.294052 g / cm^3
# Si number density = 22.992858 Si / 1000 Ang^3
#
#
#
# Elastic Constant Matrix: (Units=GPa)
#
#
# Indices 1 2 3 4 5 6 
#
# 1 94.9430 35.0994 34.7330 0.0000 -3.9428 0.0002
# 2 35.0994 73.2985 11.1366 0.0022 0.4192 -0.0008
# 3 34.7330 11.1366 145.0830 0.0013 -7.0667 -0.0002
# 4 0.0000 0.0022 0.0013 27.4125 -0.0012 2.1910
# 5 -3.9428 0.4192 -7.0667 -0.0012 41.3257 0.0003
# 6 0.0002 -0.0008 -0.0002 2.1910 0.0003 14.5813
#
#
#
# Elastic Compliance Matrix: (Units=1/GPa)
#
#
# Indices 1 2 3 4 5 6 
#
# 1 0.013902 -0.006236 -0.002805 0.000001 0.000910 -0.000001
# 2 -0.006236 0.016605 0.000183 -0.000001 -0.000732 0.000001
# 3 -0.002805 0.000183 0.007600 0.000000 0.001030 0.000000
# 4 0.000001 -0.000001 0.000000 0.036923 0.000001 -0.005548
# 5 0.000910 -0.000732 0.001030 0.000001 0.024468 -0.000001
# 6 -0.000001 0.000001 0.000000 -0.005548 -0.000001 0.069415
#
#
# Mechanical properties :
#
#
# Convention : Reuss Voigt Hill
#
# Bulk Modulus (GPa) = 49.04220 52.80695 50.92457
# Shear Modulus (GPa) = 25.84941 32.15427 29.00184
#
# Velocity S-wave (km/s) = 3.35660 3.74364 3.55539
# Velocity P-wave (km/s) = 6.03307 6.45778 6.24904
#
# Compressibility (1/GPa) = 0.02039060
#
# Stress axis : x y z
#
# Youngs Moduli (GPa) = 71.93195 60.22119 131.57345
#
# Poissons Ratio (x) = 0.37554 0.36908
# Poissons Ratio (y) = 0.44857 -0.02403
# Poissons Ratio (z) = 0.20178 -0.01100
#
# Static dielectric constant tensor:
#      x y z
#    x 1.888310 0.000000 0.046090 
#    y 0.000000 1.843390 0.000000 
#    z 0.046090 0.000000 1.939430 
# 
# From -- ./inp_files/326076.got.cif
#   From: 2010.05.17/outbox.cif.g08.bks.cpg/sg12_164_cif.got.tgz:326076.got - 2010.06.03 13:09:07.
