data_PCOD9202047
_publ_section_title
;
Structure prediction by ZEFSAII (Michael W. Deem and Ramdas Pophale) SiO2 
 PCOD9202047
Probable space group: C 2/M
;
_chemical_formula_sum "Si O2"
_cell_formula_units_Z 60
_cell_length_a 5.118374
_cell_length_b 28.212179
_cell_length_c 21.572036
_cell_angle_alpha 90.000000
_cell_angle_beta 81.831081
_cell_angle_gamma 90.000000
_cell_volume 3083.405819
_symmetry_space_group_name_H-M "C 2/M"
_symmetry_group_IT_number 12
_symmetry_cell_setting 'monoclinic'
loop_
_space_group_symop_operation_xyz
x,y,z
-x,y,-z
-x,-y,-z
x,-y,z
1/2+x,1/2+y,z
1/2-x,1/2+y,-z
1/2-x,1/2-y,-z
1/2+x,1/2-y,z
loop_
_atom_site_type_symbol
_atom_site_label
_atom_site_fract_x
_atom_site_fract_y
_atom_site_fract_z
Si Si1 0.460967 0.442570 0.817561
Si Si2 0.503341 0.887652 0.226778
Si Si3 0.461712 0.126126 0.628548
Si Si4 0.509010 0.594617 0.426249
Si Si5 0.885528 0.720157 0.219518
Si Si6 0.775484 0.000000 0.455323
Si Si7 0.271806 0.557478 0.962198
Si Si8 0.275965 0.223112 0.371947
O O1 0.482322 0.500000 0.809179
O O2 0.746933 0.417434 0.806810
O O3 0.329115 0.432042 0.888872
O O4 0.262426 0.418321 0.775024
O O5 0.565165 0.879350 0.297137
O O6 0.455086 0.834472 0.201347
O O7 0.175218 0.129515 0.607163
O O8 0.625372 0.173355 0.606072
O O9 0.685193 0.088282 0.600636
O O10 0.500000 0.604377 0.500000
O O11 0.342301 0.547151 0.416679
O O12 0.125315 0.756364 0.199424
O O13 0.828057 0.720332 0.295826
O O14 0.500000 0.000000 0.500000
O O15 0.000000 0.000000 0.500000
O O16 0.267425 0.500000 0.965495
O O17 0.500000 0.574365 0.000000
O O18 0.000000 0.575131 0.000000
O O19 0.476592 0.262218 0.391288
#
# Coordination Sequence:
#
# PCOD9202047 Si02
#       8
#     8   8   8   8   8   4   8   8
#     4  11  22  37  53  79 123 164 184 215 272 327
#     4  11  22  37  54  81 120 149 183 222 277 351
#     4  11  22  37  56  82 105 136 179 215 266 338
#     4  11  22  39  59  77  99 131 176 233 277 306
#     4   9  17  31  53  78 102 136 182 236 281 314
#     4  10  20  38  58  76  94 118 166 226 270 292
#     4   9  17  31  53  77 103 145 200 239 258 292
#     4   9  17  31  53  76 101 133 166 208 262 318
#
# _framework density 19.459002999999999
#
# number of rings (size 3 to 8) (size 9 to 14) (size 15 to 20)
#    0.000    1.867    0.000    5.600    0.000    6.400 
#    7.200    0.000    0.000    8.000    0.000    0.000 
#    0.000   37.333    0.000    0.000    0.000    0.000 
#
# Total GULP energy -167209.326814 kJ/mol
# GULP energy per Si atom -5573.644227 kJ/mol
# Density = 1.941471 g / cm^3
# Si number density = 19.459003 Si / 1000 Ang^3
#
#
#
# Elastic Constant Matrix: (Units=GPa)
#
#
# Indices 1 2 3 4 5 6 
#
# 1 105.8661 19.2061 -4.1056 0.0000 -5.6119 0.0000
# 2 19.2061 78.8597 0.4293 0.0000 -5.6820 0.0000
# 3 -4.1056 0.4293 31.7187 0.0000 0.6030 0.0000
# 4 0.0000 0.0000 0.0000 -6.3794 0.0000 -5.3419
# 5 -5.6119 -5.6820 0.6030 0.0000 29.9131 0.0000
# 6 0.0000 0.0000 0.0000 -5.3419 0.0000 26.4404
#
#
#
# Elastic Compliance Matrix: (Units=1/GPa)
#
#
# Indices 1 2 3 4 5 6 
#
# 1 0.009995 -0.002340 0.001299 0.000000 0.001404 0.000000
# 2 -0.002340 0.013406 -0.000525 0.000000 0.002118 0.000000
# 3 0.001299 -0.000525 0.031712 0.000000 -0.000495 0.000000
# 4 0.000000 0.000000 0.000000 -0.134073 0.000000 -0.027087
# 5 0.001404 0.002118 -0.000495 0.000000 0.034106 0.000000
# 6 0.000000 0.000000 0.000000 -0.027087 0.000000 0.032348
#
#
# Mechanical properties :
#
#
# Convention : Reuss Voigt Hill
#
# Bulk Modulus (GPa) = 19.23777 27.50045 23.36911
# Shear Modulus (GPa) = 628.65053 23.38914 326.01983
#
# Velocity S-wave (km/s) = 17.99348 3.47070 12.95784
# Velocity P-wave (km/s) = 21.01416 5.49766 15.35935
#
# Compressibility (1/GPa) = 0.05198108
#
# Stress axis : x y z
#
# Youngs Moduli (GPa) = 100.04734 74.59259 31.53400
#
# Poissons Ratio (x) = 0.17456 -0.04095
# Poissons Ratio (y) = 0.23413 0.01654
# Poissons Ratio (z) = -0.12994 0.03913
#
# Static dielectric constant tensor:
#      x y z
#    x 1.672170 0.000000 -0.012050 
#    y 0.000000 1.860680 0.000000 
#    z -0.012050 0.000000 1.675100 
# 
# From -- ./inp_files/298292.got.cif
#   From: 2010.05.17/outbox.cif.g08.bks.cpg/sg12_150_cif.got.tgz:298292.got - 2010.06.03 13:09:07.
