data_PCOD9202196
_publ_section_title
;
Structure prediction by ZEFSAII (Michael W. Deem and Ramdas Pophale) SiO2 
 PCOD9202196
Probable space group: C 2/M
;
_chemical_formula_sum "Si O2"
_cell_formula_units_Z 48
_cell_length_a 5.484684
_cell_length_b 22.075104
_cell_length_c 18.783351
_cell_angle_alpha 90.000000
_cell_angle_beta 116.048720
_cell_angle_gamma 90.000000
_cell_volume 2043.183254
_symmetry_space_group_name_H-M "C 2/M"
_symmetry_group_IT_number 12
_symmetry_cell_setting 'monoclinic'
loop_
_space_group_symop_operation_xyz
x,y,z
-x,y,-z
-x,-y,-z
x,-y,z
1/2+x,1/2+y,z
1/2-x,1/2+y,-z
1/2-x,1/2-y,-z
1/2+x,1/2-y,z
loop_
_atom_site_type_symbol
_atom_site_label
_atom_site_fract_x
_atom_site_fract_y
_atom_site_fract_z
Si Si1 0.855146 0.612142 0.294518
Si Si2 0.435573 0.246873 0.363714
Si Si3 0.269525 0.358273 0.238316
Si Si4 0.215162 0.867608 0.918878
Si Si5 0.500000 0.711572 0.000000
Si Si6 0.826073 0.000000 0.051160
Si Si7 0.699977 0.070772 0.466960
O O1 0.871836 0.682906 0.318687
O O2 0.538756 0.599321 0.268344
O O3 0.005585 0.609478 0.237788
O O4 0.046131 0.576164 0.372994
O O5 0.755229 0.250031 0.409990
O O6 0.338796 0.300790 0.297857
O O7 0.231469 0.339431 0.151392
O O8 0.124193 0.937218 0.902550
O O9 0.973716 0.833413 0.929648
O O10 0.500000 0.865993 0.000000
O O11 0.750000 0.750000 0.000000
O O12 0.500000 0.000000 0.000000
O O13 0.000000 0.000000 0.000000
O O14 0.500000 0.098936 0.500000
O O15 0.000000 0.098383 0.500000
O O16 0.737323 0.000000 0.491556
#
# Coordination Sequence:
#
# PCOD9202196 Si02
#       7
#     8   8   8   8   4   4   8
#     4  10  20  38  59  91 122 166 204 251 312 391
#     4   8  16  32  53  77 111 156 195 234 298 366
#     4  10  22  36  63  87 124 164 210 265 324 379
#     4  11  25  45  66  94 130 179 234 290 348 406
#     4  12  26  41  62  95 128 166 224 294 348 414
#     4  10  22  42  68  84 118 168 218 278 346 408
#     4  10  21  39  65  93 126 165 204 257 317 374
#
# _framework density 23.492754999999999
#
# number of rings (size 3 to 8) (size 9 to 14) (size 15 to 20)
#    0.000    2.000    1.667    1.000    2.333    4.000 
#    3.000    0.000    0.000   27.000    0.000    0.000 
#    0.000    0.000    0.000    0.000    0.000    0.000 
#
# Total GULP energy -133758.222721 kJ/mol
# GULP energy per Si atom -5573.259280 kJ/mol
# Density = 2.343928 g / cm^3
# Si number density = 23.492755 Si / 1000 Ang^3
#
#
#
# Elastic Constant Matrix: (Units=GPa)
#
#
# Indices 1 2 3 4 5 6 
#
# 1 211.3286 24.6635 18.2688 0.0000 -23.5723 0.0000
# 2 24.6635 70.6559 -7.7222 0.0000 -3.0903 0.0000
# 3 18.2688 -7.7222 50.4841 0.0000 -6.0687 0.0000
# 4 0.0000 0.0000 0.0000 76.9740 0.0000 -42.9117
# 5 -23.5723 -3.0903 -6.0687 0.0000 40.1966 0.0000
# 6 0.0000 0.0000 0.0000 -42.9117 0.0000 21.6779
#
#
#
# Elastic Compliance Matrix: (Units=1/GPa)
#
#
# Indices 1 2 3 4 5 6 
#
# 1 0.005438 -0.001991 -0.001943 0.000000 0.002743 0.000000
# 2 -0.001991 0.015208 0.003103 0.000000 0.000470 0.000000
# 3 -0.001943 0.003103 0.021264 0.000000 0.002310 0.000000
# 4 0.000000 0.000000 0.000000 -0.125466 0.000000 -0.248361
# 5 0.002743 0.000470 0.002310 0.000000 0.026871 0.000000
# 6 0.000000 0.000000 0.000000 -0.248361 0.000000 -0.445504
#
#
# Mechanical properties :
#
#
# Convention : Reuss Voigt Hill
#
# Bulk Modulus (GPa) = 24.84544 44.76544 34.80544
# Shear Modulus (GPa) = -10.26456 47.58692 18.66118
#
# Velocity S-wave (km/s) = -2.09254 4.50555 2.82146
# Velocity P-wave (km/s) = 2.18184 6.79434 5.04596
#
# Compressibility (1/GPa) = 0.04024884
#
# Stress axis : x y z
#
# Youngs Moduli (GPa) = 183.88554 65.75624 47.02894
#
# Poissons Ratio (x) = 0.13090 0.09136
# Poissons Ratio (y) = 0.36605 -0.14594
# Poissons Ratio (z) = 0.35724 -0.20405
#
# Static dielectric constant tensor:
#      x y z
#    x 1.959590 0.000000 -0.003130 
#    y 0.000000 1.933790 0.000000 
#    z -0.003130 0.000000 1.878810 
# 
# From -- ./inp_files/253250.got.cif
#   From: 2010.05.17/outbox.cif.g08.bks.cpg/sg12_127_cif.got.tgz:253250.got - 2010.06.03 13:09:07.
