data_PCOD9202692
_publ_section_title
;
Structure prediction by ZEFSAII (Michael W. Deem and Ramdas Pophale) SiO2 
 PCOD9202692
Probable space group: C 2/M
;
_chemical_formula_sum "Si O2"
_cell_formula_units_Z 56
_cell_length_a 16.467361
_cell_length_b 8.268550
_cell_length_c 23.289778
_cell_angle_alpha 90.000000
_cell_angle_beta 121.968299
_cell_angle_gamma 90.000000
_cell_volume 2690.229016
_symmetry_space_group_name_H-M "C 2/M"
_symmetry_group_IT_number 12
_symmetry_cell_setting 'monoclinic'
loop_
_space_group_symop_operation_xyz
x,y,z
-x,y,-z
-x,-y,-z
x,-y,z
1/2+x,1/2+y,z
1/2-x,1/2+y,-z
1/2-x,1/2-y,-z
1/2+x,1/2-y,z
loop_
_atom_site_type_symbol
_atom_site_label
_atom_site_fract_x
_atom_site_fract_y
_atom_site_fract_z
Si Si1 0.806250 0.811903 0.284693
Si Si2 0.449071 0.805860 0.923269
Si Si3 0.767357 0.688105 0.150502
Si Si4 0.627619 0.806517 0.297220
Si Si5 0.527864 0.188918 0.573699
Si Si6 0.344569 0.311041 0.567172
Si Si7 0.450666 0.197975 0.156662
O O1 0.816973 0.708541 0.231330
O O2 0.704032 0.778076 0.275454
O O3 0.885934 0.777787 0.362311
O O4 0.809305 0.000000 0.269240
O O5 0.336396 0.768585 0.883668
O O6 0.503321 0.746372 0.886203
O O7 0.458403 0.000000 0.925543
O O8 0.500000 0.744307 0.000000
O O9 0.751386 0.500000 0.132600
O O10 0.843583 0.752668 0.132365
O O11 0.660101 0.717415 0.366625
O O12 0.524271 0.755853 0.234863
O O13 0.626826 0.000000 0.308171
O O14 0.500000 0.250997 0.500000
O O15 0.434438 0.211332 0.577447
O O16 0.553571 0.000000 0.577819
O O17 0.359165 0.500000 0.560299
O O18 0.250000 0.250000 0.500000
O O19 0.449468 0.000000 0.155560
#
# Coordination Sequence:
#
# PCOD9202692 Si02
#       7
#     8   8   8   8   8   8   8
#     4  11  22  38  63  91 120 159 207 255 309 373
#     4  10  21  41  66  90 123 167 212 258 314 382
#     4  11  22  37  62  92 127 165 207 258 315 377
#     4  10  20  38  63  86 119 161 202 252 312 375
#     4  11  24  41  60  85 119 158 203 256 314 372
#     4  12  25  40  59  85 118 156 205 255 311 376
#     4   9  19  38  61  89 123 164 204 248 313 376
#
# _framework density 20.816071999999998
#
# number of rings (size 3 to 8) (size 9 to 14) (size 15 to 20)
#    0.000    1.429    1.429    4.286    0.000    6.571 
#    0.000    2.143    0.000    0.000    0.000    0.000 
#    0.000    0.000    0.000    0.000    0.000    0.000 
#
# Total GULP energy -156506.537994 kJ/mol
# GULP energy per Si atom -5589.519214 kJ/mol
# Density = 2.076869 g / cm^3
# Si number density = 20.816072 Si / 1000 Ang^3
#
#
#
# Elastic Constant Matrix: (Units=GPa)
#
#
# Indices 1 2 3 4 5 6 
#
# 1 108.5898 11.0013 37.7485 0.0000 2.6776 0.0000
# 2 11.0013 7.2601 4.6573 0.0000 -7.3647 0.0000
# 3 37.7485 4.6573 106.9956 0.0000 -5.6602 0.0000
# 4 0.0000 0.0000 0.0000 6.0728 0.0000 -5.8301
# 5 2.6776 -7.3647 -5.6602 0.0000 21.6809 0.0000
# 6 0.0000 0.0000 0.0000 -5.8301 0.0000 15.5057
#
#
#
# Elastic Compliance Matrix: (Units=1/GPa)
#
#
# Indices 1 2 3 4 5 6 
#
# 1 0.014527 -0.033824 -0.004417 0.000000 -0.014437 0.000000
# 2 -0.033824 0.292085 0.004755 0.000000 0.104636 0.000000
# 3 -0.004417 0.004755 0.010963 0.000000 0.005023 0.000000
# 4 0.000000 0.000000 0.000000 0.257682 0.000000 0.096887
# 5 -0.014437 0.104636 0.005023 0.000000 0.084761 0.000000
# 6 0.000000 0.000000 0.000000 0.096887 0.000000 0.100922
#
#
# Mechanical properties :
#
#
# Convention : Reuss Voigt Hill
#
# Bulk Modulus (GPa) = 3.99037 36.62888 20.30963
# Shear Modulus (GPa) = 5.48579 19.94778 12.71678
#
# Velocity S-wave (km/s) = 1.62514 3.09898 2.47434
# Velocity P-wave (km/s) = 2.33293 5.51720 4.23569
#
# Compressibility (1/GPa) = 0.25060311
#
# Stress axis : x y z
#
# Youngs Moduli (GPa) = 68.83722 3.42366 91.21499
#
# Poissons Ratio (x) = 0.11580 0.40286
# Poissons Ratio (y) = 2.32837 -0.43370
# Poissons Ratio (z) = 0.30403 -0.01628
#
# Static dielectric constant tensor:
#      x y z
#    x 1.745320 0.000000 -0.019540 
#    y 0.000000 1.771940 0.000000 
#    z -0.019540 0.000000 1.764830 
# 
# From -- ./inp_files/338993.got.cif
#   From: 2010.05.17/outbox.cif.g08.bks.cpg/sg12_170_cif.got.tgz:338993.got - 2010.06.03 13:09:07.
