data_PCOD9202487
_publ_section_title
;
Structure prediction by ZEFSAII (Michael W. Deem and Ramdas Pophale) SiO2 
 PCOD9202487
Probable space group: C 2/M
;
_chemical_formula_sum "Si O2"
_cell_formula_units_Z 56
_cell_length_a 5.471850
_cell_length_b 22.486071
_cell_length_c 21.747761
_cell_angle_alpha 90.000000
_cell_angle_beta 116.743775
_cell_angle_gamma 90.000000
_cell_volume 2389.611562
_symmetry_space_group_name_H-M "C 2/M"
_symmetry_group_IT_number 12
_symmetry_cell_setting 'monoclinic'
loop_
_space_group_symop_operation_xyz
x,y,z
-x,y,-z
-x,-y,-z
x,-y,z
1/2+x,1/2+y,z
1/2-x,1/2+y,-z
1/2-x,1/2-y,-z
1/2+x,1/2-y,z
loop_
_atom_site_type_symbol
_atom_site_label
_atom_site_fract_x
_atom_site_fract_y
_atom_site_fract_z
Si Si1 0.811125 0.071575 0.655099
Si Si2 0.830309 0.072325 0.421288
Si Si3 0.518709 0.234915 0.286949
Si Si4 0.500000 0.814134 0.000000
Si Si5 0.785147 0.814378 0.147717
Si Si6 0.000000 0.108772 0.000000
Si Si7 0.219174 0.381682 0.772719
Si Si8 0.542096 0.936663 0.864296
O O1 0.490217 0.087746 0.609376
O O2 0.875229 0.098288 0.729227
O O3 0.009197 0.091003 0.622410
O O4 0.827190 0.000000 0.660680
O O5 0.000000 0.092309 0.500000
O O6 0.836779 0.000000 0.421404
O O7 0.825494 0.256871 0.323361
O O8 0.361155 0.273454 0.215066
O O9 0.509298 0.165912 0.270253
O O10 0.622304 0.782115 0.074311
O O11 0.238937 0.852806 0.993576
O O12 0.613255 0.874598 0.141117
O O13 0.075839 0.842712 0.162500
O O14 0.827209 0.069297 0.932863
O O15 0.101406 0.434702 0.798460
O O16 0.408145 0.000000 0.866086
#
# Coordination Sequence:
#
# PCOD9202487 Si02
#       8
#     8   8   8   4   8   4   8   8
#     4  10  21  33  54  86 122 157 196 235 284 349
#     4   9  18  35  57  83 120 163 197 230 275 336
#     4  10  21  38  60  78 109 148 193 247 294 349
#     4  10  20  38  62  77 110 141 202 252 306 358
#     4  10  22  40  57  83 111 153 200 253 308 357
#     4  10  21  40  53  81 104 153 197 238 287 370
#     4  11  22  38  55  84 119 155 197 242 301 353
#     4  11  22  37  57  81 114 154 193 245 303 361
#
# _framework density 23.43477
#
# number of rings (size 3 to 8) (size 9 to 14) (size 15 to 20)
#    0.000    1.857    2.857    1.071    2.000    2.857 
#    0.000    5.357    0.000    0.000    0.000    0.000 
#    0.000   45.714    0.000    0.000    0.000    0.000 
#
# Total GULP energy -156281.445457 kJ/mol
# GULP energy per Si atom -5581.480195 kJ/mol
# Density = 2.338143 g / cm^3
# Si number density = 23.434770 Si / 1000 Ang^3
#
#
#
# Elastic Constant Matrix: (Units=GPa)
#
#
# Indices 1 2 3 4 5 6 
#
# 1 138.3169 30.2974 23.1202 0.0000 -3.6377 0.0000
# 2 30.2974 86.0188 14.2122 0.0000 -2.2076 0.0000
# 3 23.1202 14.2122 73.8691 0.0000 2.8088 0.0000
# 4 0.0000 0.0000 0.0000 17.3101 0.0000 -0.9384
# 5 -3.6377 -2.2076 2.8088 0.0000 32.0836 0.0000
# 6 0.0000 0.0000 0.0000 -0.9384 0.0000 30.1897
#
#
#
# Elastic Compliance Matrix: (Units=1/GPa)
#
#
# Indices 1 2 3 4 5 6 
#
# 1 0.008154 -0.002500 -0.002107 0.000000 0.000937 0.000000
# 2 -0.002500 0.012808 -0.001710 0.000000 0.000748 0.000000
# 3 -0.002107 -0.001710 0.014588 0.000000 -0.001634 0.000000
# 4 0.000000 0.000000 0.000000 0.057867 0.000000 0.001799
# 5 0.000937 0.000748 -0.001634 0.000000 0.031469 0.000000
# 6 0.000000 0.000000 0.000000 0.001799 0.000000 0.033180
#
#
# Mechanical properties :
#
#
# Convention : Reuss Voigt Hill
#
# Bulk Modulus (GPa) = 43.63746 48.16271 45.90008
# Shear Modulus (GPa) = 28.03657 31.28834 29.66246
#
# Velocity S-wave (km/s) = 3.46261 3.65790 3.56159
# Velocity P-wave (km/s) = 5.88621 6.19974 6.04500
#
# Compressibility (1/GPa) = 0.02291609
#
# Stress axis : x y z
#
# Youngs Moduli (GPa) = 122.63672 78.07860 68.54938
#
# Poissons Ratio (x) = 0.19519 0.14442
# Poissons Ratio (y) = 0.30658 0.11723
# Poissons Ratio (z) = 0.25837 0.13352
#
# Static dielectric constant tensor:
#      x y z
#    x 1.954440 0.000000 -0.012960 
#    y 0.000000 1.882750 0.000000 
#    z -0.012960 0.000000 1.937980 
# 
# From -- ./inp_files/298114.got.cif
#   From: 2010.05.17/outbox.cif.g08.bks.cpg/sg12_150_cif.got.tgz:298114.got - 2010.06.03 13:09:07.
