data_PCOD9202959
_publ_section_title
;
Structure prediction by ZEFSAII (Michael W. Deem and Ramdas Pophale) SiO2 
 PCOD9202959
Probable space group: C 2/M
;
_chemical_formula_sum "Si O2"
_cell_formula_units_Z 44
_cell_length_a 11.757238
_cell_length_b 17.369177
_cell_length_c 9.460779
_cell_angle_alpha 90.000000
_cell_angle_beta 116.352939
_cell_angle_gamma 90.000000
_cell_volume 1731.237367
_symmetry_space_group_name_H-M "C 2/M"
_symmetry_group_IT_number 12
_symmetry_cell_setting 'monoclinic'
loop_
_space_group_symop_operation_xyz
x,y,z
-x,y,-z
-x,-y,-z
x,-y,z
1/2+x,1/2+y,z
1/2-x,1/2+y,-z
1/2-x,1/2-y,-z
1/2+x,1/2-y,z
loop_
_atom_site_type_symbol
_atom_site_label
_atom_site_fract_x
_atom_site_fract_y
_atom_site_fract_z
Si Si1 0.661083 0.085125 0.711107
Si Si2 0.156250 0.914668 0.921060
Si Si3 0.500000 0.283954 0.500000
Si Si4 0.757500 0.288807 0.767965
Si Si5 0.051862 0.592088 0.190817
Si Si6 0.890975 0.851875 0.727141
O O1 0.543479 0.118010 0.737013
O O2 0.751305 0.112482 0.635121
O O3 0.618549 0.000000 0.649356
O O4 0.769808 0.081786 0.892127
O O5 0.211264 0.836241 0.879731
O O6 0.005754 0.904055 0.846217
O O7 0.182497 0.000000 0.867112
O O8 0.630562 0.249887 0.634302
O O9 0.443700 0.328745 0.602908
O O10 0.864155 0.222756 0.813092
O O11 0.820731 0.359859 0.720718
O O12 0.064473 0.500000 0.204017
O O13 0.000000 0.608512 0.000000
#
# Coordination Sequence:
#
# PCOD9202959 Si02
#       6
#     8   8   4   8   8   8
#     4  10  21  39  64  95 136 172 203 255 331 398
#     4  10  21  41  66  96 137 174 202 254 333 400
#     4  10  26  48  61  84 123 184 216 266 332 368
#     4  11  23  41  67  93 123 170 221 267 311 385
#     4  10  20  38  64  96 135 170 198 252 334 401
#     4  11  24  40  65  95 121 167 227 275 311 369
#
# _framework density 25.415348999999999
#
# number of rings (size 3 to 8) (size 9 to 14) (size 15 to 20)
#    0.000    1.636    1.818    2.182    5.091    3.636 
#    0.000   16.364    0.000    2.182    0.000    0.000 
#    0.000    0.000    0.000    0.000    0.000    0.000 
#
# Total GULP energy -122539.060429 kJ/mol
# GULP energy per Si atom -5569.957292 kJ/mol
# Density = 2.535750 g / cm^3
# Si number density = 25.415349 Si / 1000 Ang^3
#
#
#
# Elastic Constant Matrix: (Units=GPa)
#
#
# Indices 1 2 3 4 5 6 
#
# 1 187.9169 29.8783 24.9177 0.0000 -13.3647 0.0000
# 2 29.8783 86.4095 27.3045 0.0000 -4.0747 0.0000
# 3 24.9177 27.3045 53.0802 0.0000 4.2655 0.0000
# 4 0.0000 0.0000 0.0000 -9.2554 0.0000 -3.3957
# 5 -13.3647 -4.0747 4.2655 0.0000 38.5275 0.0000
# 6 0.0000 0.0000 0.0000 -3.3957 0.0000 22.8372
#
#
#
# Elastic Compliance Matrix: (Units=1/GPa)
#
#
# Indices 1 2 3 4 5 6 
#
# 1 0.005985 -0.001220 -0.002360 0.000000 0.002209 0.000000
# 2 -0.001220 0.014267 -0.006915 0.000000 0.001851 0.000000
# 3 -0.002360 -0.006915 0.023841 0.000000 -0.004189 0.000000
# 4 0.000000 0.000000 0.000000 -0.102456 0.000000 -0.015234
# 5 0.002209 0.001851 -0.004189 0.000000 0.027381 0.000000
# 6 0.000000 0.000000 0.000000 -0.015234 0.000000 0.041523
#
#
# Mechanical properties :
#
#
# Convention : Reuss Voigt Hill
#
# Bulk Modulus (GPa) = 43.28252 54.62305 48.95279
# Shear Modulus (GPa) = 127.44666 26.77561 77.11113
#
# Velocity S-wave (km/s) = 7.08903 3.24932 5.51419
# Velocity P-wave (km/s) = 9.16913 5.96794 7.73593
#
# Compressibility (1/GPa) = 0.02310402
#
# Stress axis : x y z
#
# Youngs Moduli (GPa) = 167.07258 70.09194 41.94464
#
# Poissons Ratio (x) = 0.08550 0.09898
# Poissons Ratio (y) = 0.20380 0.29005
# Poissons Ratio (z) = 0.39425 0.48469
#
# Static dielectric constant tensor:
#      x y z
#    x 2.063450 0.000000 -0.024680 
#    y 0.000000 2.106640 0.000000 
#    z -0.024680 0.000000 2.054150 
# 
# From -- ./inp_files/131302.got.cif
#   From: 2010.05.17/outbox.cif.g08.bks.cpg/sg12_66_cif.got.tgz:131302.got - 2010.06.03 13:09:07.
