data_PCOD9202045
_publ_section_title
;
Structure prediction by ZEFSAII (Michael W. Deem and Ramdas Pophale) SiO2 
 PCOD9202045
Probable space group: C 2/M
;
_chemical_formula_sum "Si O2"
_cell_formula_units_Z 32
_cell_length_a 12.596818
_cell_length_b 21.531123
_cell_length_c 6.433708
_cell_angle_alpha 90.000000
_cell_angle_beta 117.798777
_cell_angle_gamma 90.000000
_cell_volume 1543.587898
_symmetry_space_group_name_H-M "C 2/M"
_symmetry_group_IT_number 12
_symmetry_cell_setting 'monoclinic'
loop_
_space_group_symop_operation_xyz
x,y,z
-x,y,-z
-x,-y,-z
x,-y,z
1/2+x,1/2+y,z
1/2-x,1/2+y,-z
1/2-x,1/2-y,-z
1/2+x,1/2-y,z
loop_
_atom_site_type_symbol
_atom_site_label
_atom_site_fract_x
_atom_site_fract_y
_atom_site_fract_z
Si Si1 0.373268 0.730300 0.708505
Si Si2 0.000000 0.140113 0.500000
Si Si3 0.611171 0.073170 0.759038
Si Si4 0.375662 0.383632 0.994243
Si Si5 0.500000 0.155104 0.000000
O O1 0.250000 0.750000 0.500000
O O2 0.432741 0.683460 0.601664
O O3 0.365549 0.689431 0.914036
O O4 0.438655 0.795592 0.792101
O O5 0.902917 0.106450 0.263935
O O6 0.500000 0.087743 0.500000
O O7 0.588029 0.112727 0.945887
O O8 0.603441 0.000000 0.794487
O O9 0.747739 0.087910 0.810903
O O10 0.500000 0.406997 0.000000
#
# Coordination Sequence:
#
# PCOD9202045 Si02
#       5
#     8   4   8   8   4
#     4  11  22  34  60  95 127 164 197 258 320 383
#     4  10  20  38  57  96 133 158 202 252 328 382
#     4  11  26  45  66  90 127 174 219 266 312 375
#     4  10  22  42  63  97 129 165 215 261 321 383
#     4  12  23  38  62  96 127 160 206 262 314 380
#
# _framework density 20.730924000000002
#
# number of rings (size 3 to 8) (size 9 to 14) (size 15 to 20)
#    0.000    1.250    3.750    3.375    5.250    4.500 
#    0.000    0.625    0.000    0.000    0.000    0.000 
#    0.000    0.000    0.000    0.000    0.000    0.000 
#
# Total GULP energy -89137.356531 kJ/mol
# GULP energy per Si atom -5571.084783 kJ/mol
# Density = 2.068374 g / cm^3
# Si number density = 20.730924 Si / 1000 Ang^3
#
#
#
# Elastic Constant Matrix: (Units=GPa)
#
#
# Indices 1 2 3 4 5 6 
#
# 1 94.7549 9.2399 26.3210 0.0000 30.8884 0.0000
# 2 9.2399 54.7168 0.1085 0.0000 0.0315 0.0000
# 3 26.3210 0.1085 95.0110 0.0000 18.7250 0.0000
# 4 0.0000 0.0000 0.0000 -0.8284 0.0000 6.2917
# 5 30.8884 0.0315 18.7250 0.0000 39.9672 0.0000
# 6 0.0000 0.0000 0.0000 6.2917 0.0000 17.3783
#
#
#
# Elastic Compliance Matrix: (Units=1/GPa)
#
#
# Indices 1 2 3 4 5 6 
#
# 1 0.014770 -0.002484 -0.002027 0.000000 -0.010463 0.000000
# 2 -0.002484 0.018694 0.000321 0.000000 0.001755 0.000000
# 3 -0.002027 0.000321 0.011874 0.000000 -0.003997 0.000000
# 4 0.000000 0.000000 0.000000 -0.321926 0.000000 0.116552
# 5 -0.010463 0.001755 -0.003997 0.000000 0.034978 0.000000
# 6 0.000000 0.000000 0.000000 0.116552 0.000000 0.015346
#
#
# Mechanical properties :
#
#
# Convention : Reuss Voigt Hill
#
# Bulk Modulus (GPa) = 27.05798 35.09129 31.07463
# Shear Modulus (GPa) = -24.32310 25.22432 0.45061
#
# Velocity S-wave (km/s) = -3.42903 3.49198 0.46672
# Velocity P-wave (km/s) = 1.61162 5.76388 3.91312
#
# Compressibility (1/GPa) = 0.03695767
#
# Stress axis : x y z
#
# Youngs Moduli (GPa) = 67.70706 53.49385 84.21818
#
# Poissons Ratio (x) = 0.13288 0.17068
# Poissons Ratio (y) = 0.16819 -0.02703
# Poissons Ratio (z) = 0.13722 -0.01717
#
# Static dielectric constant tensor:
#      x y z
#    x 1.353860 0.000000 -0.175430 
#    y 0.000000 1.738350 0.000000 
#    z -0.175430 0.000000 1.746190 
# 
# From -- ./inp_files/6566.got.cif
#   From: 2010.05.17/outbox.cif.g08.bks.cpg/sg12_4_cif.got.tgz:6566.got - 2010.06.03 13:09:07.
