data_PCOD9202062
_publ_section_title
;
Structure prediction by ZEFSAII (Michael W. Deem and Ramdas Pophale) SiO2 
 PCOD9202062
Probable space group: C 2/M
;
_chemical_formula_sum "Si O2"
_cell_formula_units_Z 40
_cell_length_a 14.831936
_cell_length_b 9.231985
_cell_length_c 17.142159
_cell_angle_alpha 90.000000
_cell_angle_beta 102.098777
_cell_angle_gamma 90.000000
_cell_volume 2295.107471
_symmetry_space_group_name_H-M "C 2/M"
_symmetry_group_IT_number 12
_symmetry_cell_setting 'monoclinic'
loop_
_space_group_symop_operation_xyz
x,y,z
-x,y,-z
-x,-y,-z
x,-y,z
1/2+x,1/2+y,z
1/2-x,1/2+y,-z
1/2-x,1/2-y,-z
1/2+x,1/2-y,z
loop_
_atom_site_type_symbol
_atom_site_label
_atom_site_fract_x
_atom_site_fract_y
_atom_site_fract_z
Si Si1 0.982056 0.830957 0.088588
Si Si2 0.725314 0.172552 0.376908
Si Si3 0.607402 0.173563 0.509072
Si Si4 0.823833 0.171003 0.790852
Si Si5 0.202106 0.672416 0.918112
O O1 0.902098 0.726781 0.102800
O O2 0.074954 0.809828 0.154120
O O3 0.953615 0.000000 0.090626
O O4 0.000000 0.805272 0.000000
O O5 0.648820 0.202955 0.430266
O O6 0.821538 0.245449 0.420898
O O7 0.693149 0.237574 0.289316
O O8 0.736669 0.000000 0.374532
O O9 0.500000 0.215406 0.500000
O O10 0.613396 0.000000 0.523420
O O11 0.753549 0.210396 0.847326
O O12 0.811983 0.000000 0.771017
O O13 0.208942 0.500000 0.929561
O O14 0.250000 0.750000 0.000000
#
# Coordination Sequence:
#
# PCOD9202062 Si02
#       5
#     8   8   8   8   8
#     4  10  20  38  58  79 110 148 190 235 287 339
#     4  10  21  36  57  87 116 144 186 233 274 330
#     4   9  19  38  62  84 113 150 182 221 279 340
#     4  10  22  39  57  78 115 156 186 230 288 338
#     4  11  22  37  57  81 108 146 193 238 286 337
#
# _framework density 17.428377000000001
#
# number of rings (size 3 to 8) (size 9 to 14) (size 15 to 20)
#    0.000    2.000    2.000    1.200    0.000    5.600 
#    0.000    6.000    0.000    0.000    0.000    0.000 
#    0.000    0.000    0.000    0.000    0.000    0.000 
#
# Total GULP energy -111655.311303 kJ/mol
# GULP energy per Si atom -5582.765565 kJ/mol
# Density = 1.738871 g / cm^3
# Si number density = 17.428377 Si / 1000 Ang^3
#
#
#
# Elastic Constant Matrix: (Units=GPa)
#
#
# Indices 1 2 3 4 5 6 
#
# 1 111.1773 49.4537 56.3994 0.0000 -4.0693 0.0000
# 2 49.4537 51.5427 67.1270 0.0000 -0.6902 0.0000
# 3 56.3994 67.1270 134.1628 0.0000 10.0216 0.0000
# 4 0.0000 0.0000 0.0000 35.3165 0.0000 2.5640
# 5 -4.0693 -0.6902 10.0216 0.0000 16.2917 0.0000
# 6 0.0000 0.0000 0.0000 2.5640 0.0000 31.3620
#
#
#
# Elastic Compliance Matrix: (Units=1/GPa)
#
#
# Indices 1 2 3 4 5 6 
#
# 1 0.016081 -0.018446 0.002335 0.000000 0.001799 0.000000
# 2 -0.018446 0.084199 -0.035948 0.000000 0.021072 0.000000
# 3 0.002335 -0.035948 0.025710 0.000000 -0.016755 0.000000
# 4 0.000000 0.000000 0.000000 0.028484 0.000000 -0.002329
# 5 0.001799 0.021072 -0.016755 0.000000 0.073029 0.000000
# 6 0.000000 0.000000 0.000000 -0.002329 0.000000 0.032076
#
#
# Mechanical properties :
#
#
# Convention : Reuss Voigt Hill
#
# Bulk Modulus (GPa) = 45.72111 71.42700 58.57405
# Shear Modulus (GPa) = 13.47750 24.85422 19.16586
#
# Velocity S-wave (km/s) = 2.78386 3.78044 3.31976
# Velocity P-wave (km/s) = 6.05176 7.75421 6.95527
#
# Compressibility (1/GPa) = 0.02187173
#
# Stress axis : x y z
#
# Youngs Moduli (GPa) = 62.18420 11.87666 38.89554
#
# Poissons Ratio (x) = 0.21908 -0.09080
# Poissons Ratio (y) = 1.14704 1.39821
# Poissons Ratio (z) = -0.14517 0.42694
#
# Static dielectric constant tensor:
#      x y z
#    x 1.584080 0.000000 -0.004090 
#    y 0.000000 1.580420 0.000000 
#    z -0.004090 0.000000 1.564800 
# 
# From -- ./inp_files/211219.got.cif
#   From: 2010.05.17/outbox.cif.g08.bks.cpg/sg12_106_cif.got.tgz:211219.got - 2010.06.03 13:09:07.
