data_PCOD9202071
_publ_section_title
;
Structure prediction by ZEFSAII (Michael W. Deem and Ramdas Pophale) SiO2 
 PCOD9202071
Probable space group: C 2/M
;
_chemical_formula_sum "Si O2"
_cell_formula_units_Z 56
_cell_length_a 15.224452
_cell_length_b 8.895532
_cell_length_c 29.314969
_cell_angle_alpha 90.000000
_cell_angle_beta 130.276213
_cell_angle_gamma 90.000000
_cell_volume 3028.946416
_symmetry_space_group_name_H-M "C 2/M"
_symmetry_group_IT_number 12
_symmetry_cell_setting 'monoclinic'
loop_
_space_group_symop_operation_xyz
x,y,z
-x,y,-z
-x,-y,-z
x,-y,z
1/2+x,1/2+y,z
1/2-x,1/2+y,-z
1/2-x,1/2-y,-z
1/2+x,1/2-y,z
loop_
_atom_site_type_symbol
_atom_site_label
_atom_site_fract_x
_atom_site_fract_y
_atom_site_fract_z
Si Si1 0.854581 0.177927 0.097206
Si Si2 0.682422 0.319707 0.345213
Si Si3 0.564727 0.175801 0.124803
Si Si4 0.047255 0.320121 0.566176
Si Si5 0.356543 0.320390 0.563314
Si Si6 0.037222 0.676009 0.216231
Si Si7 0.869094 0.821336 0.942230
O O1 0.935393 0.255844 0.086138
O O2 0.923394 0.227384 0.166392
O O3 0.727293 0.241694 0.059752
O O4 0.855293 0.000000 0.091297
O O5 0.667436 0.500000 0.335346
O O6 0.817831 0.286604 0.385166
O O7 0.648666 0.276635 0.385368
O O8 0.607371 0.236490 0.282220
O O9 0.606937 0.189959 0.191500
O O10 0.637427 0.264737 0.112155
O O11 0.559918 0.000000 0.111308
O O12 0.031326 0.500000 0.565994
O O13 0.000000 0.280298 0.500000
O O14 0.972206 0.235441 0.578254
O O15 0.346414 0.500000 0.557674
O O16 0.250000 0.250000 0.500000
O O17 0.507286 0.000000 0.210933
O O18 0.853833 0.000000 0.940199
O O19 0.000000 0.783456 0.000000
#
# Coordination Sequence:
#
# PCOD9202071 Si02
#       7
#     8   8   8   8   8   8   8
#     4  10  20  38  62  85 116 155 192 237 291 339
#     4  10  21  38  59  81 112 151 193 237 287 348
#     4   9  20  39  60  85 116 152 194 238 287 341
#     4  10  20  38  58  81 114 150 186 232 289 343
#     4  11  22  37  57  84 114 149 190 234 288 345
#     4   9  20  39  61  85 114 149 194 242 287 341
#     4  11  23  38  60  91 122 155 196 238 287 348
#
# _framework density 18.488275999999999
#
# number of rings (size 3 to 8) (size 9 to 14) (size 15 to 20)
#    0.857    1.143    1.429    2.571    0.000    3.714 
#    2.571    0.000    0.000    0.000    0.000    0.000 
#    0.000    0.000    0.000    0.000    0.000    0.000 
#
# Total GULP energy -156167.208912 kJ/mol
# GULP energy per Si atom -5577.400318 kJ/mol
# Density = 1.844620 g / cm^3
# Si number density = 18.488276 Si / 1000 Ang^3
#
#
#
# Elastic Constant Matrix: (Units=GPa)
#
#
# Indices 1 2 3 4 5 6 
#
# 1 59.6328 2.3405 0.6578 0.0000 -9.7949 0.0000
# 2 2.3405 29.0046 11.1864 0.0000 2.3526 0.0000
# 3 0.6578 11.1864 70.2083 0.0000 -2.5716 0.0000
# 4 0.0000 0.0000 0.0000 26.1784 0.0000 3.2223
# 5 -9.7949 2.3526 -2.5716 0.0000 22.9003 0.0000
# 6 0.0000 0.0000 0.0000 3.2223 0.0000 27.4976
#
#
#
# Elastic Compliance Matrix: (Units=1/GPa)
#
#
# Indices 1 2 3 4 5 6 
#
# 1 0.018180 -0.002312 0.000494 0.000000 0.008069 0.000000
# 2 -0.002312 0.037486 -0.006154 0.000000 -0.005531 0.000000
# 3 0.000494 -0.006154 0.015313 0.000000 0.002563 0.000000
# 4 0.000000 0.000000 0.000000 0.038758 0.000000 -0.004542
# 5 0.008069 -0.005531 0.002563 0.000000 0.047975 0.000000
# 6 0.000000 0.000000 0.000000 -0.004542 0.000000 0.036899
#
#
# Mechanical properties :
#
#
# Convention : Reuss Voigt Hill
#
# Bulk Modulus (GPa) = 18.17025 20.80167 19.48596
# Shear Modulus (GPa) = 21.84363 24.95935 23.40149
#
# Velocity S-wave (km/s) = 3.44100 3.67823 3.56159
# Velocity P-wave (km/s) = 5.06327 5.41432 5.24173
#
# Compressibility (1/GPa) = 0.05503503
#
# Stress axis : x y z
#
# Youngs Moduli (GPa) = 55.00578 26.67676 65.30387
#
# Poissons Ratio (x) = 0.06167 -0.03223
# Poissons Ratio (y) = 0.12716 0.40185
# Poissons Ratio (z) = -0.02715 0.16416
#
# Static dielectric constant tensor:
#      x y z
#    x 1.623780 0.000000 -0.007390 
#    y 0.000000 1.616400 0.000000 
#    z -0.007390 0.000000 1.646910 
# 
# From -- ./inp_files/339079.got.cif
#   From: 2010.05.17/outbox.cif.g08.bks.cpg/sg12_170_cif.got.tgz:339079.got - 2010.06.03 13:09:07.
