data_PCOD9202539
_publ_section_title
;
Structure prediction by ZEFSAII (Michael W. Deem and Ramdas Pophale) SiO2 
 PCOD9202539
Probable space group: C 2/M
;
_chemical_formula_sum "Si O2"
_cell_formula_units_Z 34
_cell_length_a 7.874791
_cell_length_b 32.161679
_cell_length_c 10.726719
_cell_angle_alpha 90.000000
_cell_angle_beta 137.233609
_cell_angle_gamma 90.000000
_cell_volume 1844.681231
_symmetry_space_group_name_H-M "C 2/M"
_symmetry_group_IT_number 12
_symmetry_cell_setting 'monoclinic'
loop_
_space_group_symop_operation_xyz
x,y,z
-x,y,-z
-x,-y,-z
x,-y,z
1/2+x,1/2+y,z
1/2-x,1/2+y,-z
1/2-x,1/2-y,-z
1/2+x,1/2-y,z
loop_
_atom_site_type_symbol
_atom_site_label
_atom_site_fract_x
_atom_site_fract_y
_atom_site_fract_z
Si Si1 0.809135 0.432332 1.000000
Si Si2 0.008946 0.365229 0.710319
Si Si3 0.500000 0.500000 0.000000
Si Si4 0.298477 0.798070 1.000000
Si Si5 0.911691 0.134771 0.710318
O O1 0.652283 0.464044 1.000000
O O2 0.613763 0.401929 0.824282
O O3 0.000000 0.450190 0.000000
O O4 0.965199 0.401930 0.175719
O O5 0.741196 0.362542 0.500000
O O6 0.091971 0.322829 0.822617
O O7 0.211936 0.373810 0.711936
O O8 0.500000 0.802123 0.000000
O O9 0.250000 0.750000 0.000000
O O10 0.053261 0.822828 0.822615
#
# Coordination Sequence:
#
# PCOD9202539 Si02
#       5
#     8   8   2   8   8
#     4  11  22  39  64  89 119 159 198 247 303 358
#     4  10  20  38  62  86 119 158 195 243 301 358
#     4  12  22  44  62  90 128 150 206 256 302 362
#     4  11  22  36  56  84 119 155 200 251 295 353
#     4  10  20  38  62  86 119 158 195 243 301 358
#
# _framework density 18.431367999999999
#
# number of rings (size 3 to 8) (size 9 to 14) (size 15 to 20)
#    0.000    1.412    2.353    6.706    0.000    4.706 
#    0.000    2.353    0.000    2.824    0.000    0.000 
#    0.000    0.000    0.000    0.000    0.000    0.000 
#
# Total GULP energy -94653.288449 kJ/mol
# GULP energy per Si atom -5567.840497 kJ/mol
# Density = 1.838942 g / cm^3
# Si number density = 18.431368 Si / 1000 Ang^3
#
#
#
# Elastic Constant Matrix: (Units=GPa)
#
#
# Indices 1 2 3 4 5 6 
#
# 1 138.8383 40.6673 35.1643 0.0000 0.8613 0.0000
# 2 40.6673 143.9969 66.2403 0.0000 -0.3071 0.0000
# 3 35.1643 66.2403 171.4260 0.0000 -1.2527 0.0000
# 4 0.0000 0.0000 0.0000 2.6598 0.0000 0.3590
# 5 0.8613 -0.3071 -1.2527 0.0000 15.9879 0.0000
# 6 0.0000 0.0000 0.0000 0.3590 0.0000 32.5404
#
#
#
# Elastic Compliance Matrix: (Units=1/GPa)
#
#
# Indices 1 2 3 4 5 6 
#
# 1 0.007977 -0.001824 -0.000936 0.000000 -0.000538 0.000000
# 2 -0.001824 0.008863 -0.003050 0.000000 0.000029 0.000000
# 3 -0.000936 -0.003050 0.007208 0.000000 0.000557 0.000000
# 4 0.000000 0.000000 0.000000 0.376522 0.000000 -0.004154
# 5 -0.000538 0.000029 0.000557 0.000000 0.062621 0.000000
# 6 0.000000 0.000000 0.000000 -0.004154 0.000000 0.030777
#
#
# Mechanical properties :
#
#
# Convention : Reuss Voigt Hill
#
# Bulk Modulus (GPa) = 80.45803 82.04500 81.25152
# Shear Modulus (GPa) = 9.80912 31.05024 20.42968
#
# Velocity S-wave (km/s) = 2.30944 4.10889 3.33290
# Velocity P-wave (km/s) = 7.13154 8.19275 7.68049
#
# Compressibility (1/GPa) = 0.01242884
#
# Stress axis : x y z
#
# Youngs Moduli (GPa) = 125.35904 112.82986 138.73282
#
# Poissons Ratio (x) = 0.20576 0.12980
# Poissons Ratio (y) = 0.22861 0.42319
# Poissons Ratio (z) = 0.11728 0.34418
#
# Static dielectric constant tensor:
#      x y z
#    x 1.658030 0.000000 0.000260 
#    y 0.000000 1.635590 0.000000 
#    z 0.000260 0.000000 1.636500 
# 
# From -- ./inp_files/124937.got.cif
#   From: 2010.05.17/outbox.cif.g08.bks.cpg/sg12_63_cif.got.tgz:124937.got - 2010.06.03 13:09:07.
