data_PCOD9202059
_publ_section_title
;
Structure prediction by ZEFSAII (Michael W. Deem and Ramdas Pophale) SiO2 
 PCOD9202059
Probable space group: C 2/M
;
_chemical_formula_sum "Si O2"
_cell_formula_units_Z 56
_cell_length_a 14.692334
_cell_length_b 9.220799
_cell_length_c 24.348142
_cell_angle_alpha 90.000000
_cell_angle_beta 80.286922
_cell_angle_gamma 90.000000
_cell_volume 3251.280973
_symmetry_space_group_name_H-M "C 2/M"
_symmetry_group_IT_number 12
_symmetry_cell_setting 'monoclinic'
loop_
_space_group_symop_operation_xyz
x,y,z
-x,y,-z
-x,-y,-z
x,-y,z
1/2+x,1/2+y,z
1/2-x,1/2+y,-z
1/2-x,1/2-y,-z
1/2+x,1/2-y,z
loop_
_atom_site_type_symbol
_atom_site_label
_atom_site_fract_x
_atom_site_fract_y
_atom_site_fract_z
Si Si1 0.059463 0.673065 0.263856
Si Si2 0.884280 0.673877 0.357124
Si Si3 0.677244 0.673983 0.343440
Si Si4 0.584584 0.670697 0.146808
Si Si5 0.057678 0.167714 0.938130
Si Si6 0.998429 0.826320 0.563578
Si Si7 0.761001 0.672322 0.057381
O O1 0.070466 0.500000 0.262390
O O2 0.138121 0.745432 0.293889
O O3 0.064498 0.737336 0.202634
O O4 0.960505 0.706739 0.302404
O O5 0.883858 0.500000 0.365299
O O6 0.780705 0.717396 0.350428
O O7 0.923597 0.749932 0.407593
O O8 0.677550 0.500000 0.333804
O O9 0.601152 0.704186 0.398484
O O10 0.590357 0.500000 0.161032
O O11 0.507056 0.685570 0.107880
O O12 0.679579 0.713755 0.107292
O O13 0.142049 0.276941 0.928448
O O14 0.090612 0.000000 0.936482
O O15 0.000000 0.190583 0.000000
O O16 0.000000 0.780814 0.500000
O O17 0.012424 0.000000 0.564445
O O18 0.755981 0.500000 0.049747
O O19 0.750000 0.750000 0.000000
#
# Coordination Sequence:
#
# PCOD9202059 Si02
#       7
#     8   8   8   8   8   8   8
#     4  10  21  36  54  78 105 132 177 230 265 310
#     4   9  19  35  54  76 104 141 180 221 267 313
#     4   9  18  35  56  75 105 146 179 215 270 321
#     4  10  22  39  57  77 108 144 173 212 271 328
#     4  10  20  38  58  79 109 141 173 212 263 321
#     4   9  18  32  51  79 112 144 180 219 260 313
#     4  11  22  37  57  81 107 138 175 214 261 319
#
# _framework density 17.223980999999998
#
# number of rings (size 3 to 8) (size 9 to 14) (size 15 to 20)
#    0.000    2.286    1.429    0.857    0.000    5.143 
#    0.000    4.286    0.000    0.000    0.000    0.000 
#    0.000    0.000    0.000    0.000    0.000    0.000 
#
# Total GULP energy -156235.512114 kJ/mol
# GULP energy per Si atom -5579.839718 kJ/mol
# Density = 1.718478 g / cm^3
# Si number density = 17.223981 Si / 1000 Ang^3
#
#
#
# Elastic Constant Matrix: (Units=GPa)
#
#
# Indices 1 2 3 4 5 6 
#
# 1 111.5599 38.8319 52.0600 0.0000 12.5287 0.0000
# 2 38.8319 34.3860 53.0733 0.0000 1.4573 0.0000
# 3 52.0600 53.0733 140.8893 0.0000 7.3696 0.0000
# 4 0.0000 0.0000 0.0000 30.8986 0.0000 4.6167
# 5 12.5287 1.4573 7.3696 0.0000 13.1729 0.0000
# 6 0.0000 0.0000 0.0000 4.6167 0.0000 29.3088
#
#
#
# Elastic Compliance Matrix: (Units=1/GPa)
#
#
# Indices 1 2 3 4 5 6 
#
# 1 0.017828 -0.025299 0.003794 0.000000 -0.016280 0.000000
# 2 -0.025299 0.106041 -0.032185 0.000000 0.030336 0.000000
# 3 0.003794 -0.032185 0.018360 0.000000 -0.010319 0.000000
# 4 0.000000 0.000000 0.000000 0.033144 0.000000 -0.005221
# 5 -0.016280 0.030336 -0.010319 0.000000 0.093814 0.000000
# 6 0.000000 0.000000 0.000000 -0.005221 0.000000 0.034942
#
#
# Mechanical properties :
#
#
# Convention : Reuss Voigt Hill
#
# Bulk Modulus (GPa) = 28.69440 63.86285 46.27862
# Shear Modulus (GPa) = 11.81688 24.20072 18.00880
#
# Velocity S-wave (km/s) = 2.62214 3.75248 3.23703
# Velocity P-wave (km/s) = 5.08559 7.47885 6.39517
#
# Compressibility (1/GPa) = 0.03485001
#
# Stress axis : x y z
#
# Youngs Moduli (GPa) = 56.09309 9.43027 54.46736
#
# Poissons Ratio (x) = 0.23857 -0.20666
# Poissons Ratio (y) = 1.41909 1.75302
# Poissons Ratio (z) = -0.21283 0.30351
#
# Static dielectric constant tensor:
#      x y z
#    x 1.576050 0.000000 -0.005170 
#    y 0.000000 1.575000 0.000000 
#    z -0.005170 0.000000 1.559320 
# 
# From -- ./inp_files/308891.got.cif
#   From: 2010.05.17/outbox.cif.g08.bks.cpg/sg12_155_cif.got.tgz:308891.got - 2010.06.03 13:09:07.
