data_PCOD9202824
_publ_section_title
;
Structure prediction by ZEFSAII (Michael W. Deem and Ramdas Pophale) SiO2 
 PCOD9202824
Probable space group: C 2/M
;
_chemical_formula_sum "Si O2"
_cell_formula_units_Z 48
_cell_length_a 11.480941
_cell_length_b 18.037533
_cell_length_c 12.273443
_cell_angle_alpha 90.000000
_cell_angle_beta 113.714255
_cell_angle_gamma 90.000000
_cell_volume 2327.067921
_symmetry_space_group_name_H-M "C 2/M"
_symmetry_group_IT_number 12
_symmetry_cell_setting 'monoclinic'
loop_
_space_group_symop_operation_xyz
x,y,z
-x,y,-z
-x,-y,-z
x,-y,z
1/2+x,1/2+y,z
1/2-x,1/2+y,-z
1/2-x,1/2-y,-z
1/2+x,1/2-y,z
loop_
_atom_site_type_symbol
_atom_site_label
_atom_site_fract_x
_atom_site_fract_y
_atom_site_fract_z
Si Si1 0.939152 0.581941 0.166831
Si Si2 0.878930 0.641090 0.380503
Si Si3 0.141857 0.086640 0.432087
Si Si4 0.900462 0.731608 0.056244
Si Si5 0.258093 0.918515 0.718291
Si Si6 0.580642 0.298654 0.706087
O O1 0.899220 0.500000 0.119489
O O2 0.091242 0.584419 0.236365
O O3 0.884405 0.603090 0.264466
O O4 0.903012 0.643043 0.066278
O O5 0.753619 0.614889 0.395361
O O6 0.889283 0.729549 0.361861
O O7 0.000000 0.619530 0.500000
O O8 0.196364 0.088467 0.575074
O O9 0.027376 0.144715 0.375157
O O10 0.107582 0.000000 0.397065
O O11 0.954127 0.763597 0.190764
O O12 0.750000 0.750000 0.000000
O O13 0.000000 0.755726 0.000000
O O14 0.204924 0.849724 0.765044
O O15 0.223142 0.000000 0.749181
#
# Coordination Sequence:
#
# PCOD9202824 Si02
#       6
#     8   8   8   8   8   8
#     4  10  22  39  65  94 122 161 209 257 312 382
#     4  11  22  35  60  94 134 171 205 248 302 380
#     4  11  23  38  61  94 138 175 205 246 310 386
#     4  11  26  47  68  90 120 161 217 281 333 372
#     4  10  20  38  63  95 132 168 203 244 304 384
#     4  11  25  38  64  90 126 167 213 262 317 379
#
# _framework density 20.626816999999999
#
# number of rings (size 3 to 8) (size 9 to 14) (size 15 to 20)
#    0.000    1.333    1.667    3.500    9.333    3.667 
#    0.000    1.667    0.000    2.500    0.000    0.000 
#    0.000    0.000    0.000    0.000    0.000    0.000 
#
# Total GULP energy -134137.640904 kJ/mol
# GULP energy per Si atom -5589.068371 kJ/mol
# Density = 2.057987 g / cm^3
# Si number density = 20.626817 Si / 1000 Ang^3
#
#
#
# Elastic Constant Matrix: (Units=GPa)
#
#
# Indices 1 2 3 4 5 6 
#
# 1 101.5435 41.6275 13.0107 0.0000 -9.3207 0.0000
# 2 41.6275 144.2519 19.6088 0.0000 1.0292 0.0000
# 3 13.0107 19.6088 41.8703 0.0000 -4.5519 0.0000
# 4 0.0000 0.0000 0.0000 15.3880 0.0000 4.3250
# 5 -9.3207 1.0292 -4.5519 0.0000 36.8195 0.0000
# 6 0.0000 0.0000 0.0000 4.3250 0.0000 33.7049
#
#
#
# Elastic Compliance Matrix: (Units=1/GPa)
#
#
# Indices 1 2 3 4 5 6 
#
# 1 0.011622 -0.003123 -0.001844 0.000000 0.002801 0.000000
# 2 -0.003123 0.008258 -0.003049 0.000000 -0.001398 0.000000
# 3 -0.001844 -0.003049 0.026195 0.000000 0.002857 0.000000
# 4 0.000000 0.000000 0.000000 0.067417 0.000000 -0.008651
# 5 0.002801 -0.001398 0.002857 0.000000 0.028261 0.000000
# 6 0.000000 0.000000 0.000000 -0.008651 0.000000 0.030779
#
#
# Mechanical properties :
#
#
# Convention : Reuss Voigt Hill
#
# Bulk Modulus (GPa) = 33.28660 48.46220 40.87440
# Shear Modulus (GPa) = 25.17896 31.41040 28.29468
#
# Velocity S-wave (km/s) = 3.49763 3.90653 3.70772
# Velocity P-wave (km/s) = 5.69945 6.62524 6.17971
#
# Compressibility (1/GPa) = 0.03004212
#
# Stress axis : x y z
#
# Youngs Moduli (GPa) = 86.04590 121.09494 38.17549
#
# Poissons Ratio (x) = 0.37818 0.07040
# Poissons Ratio (y) = 0.26872 0.11640
# Poissons Ratio (z) = 0.15868 0.36921
#
# Static dielectric constant tensor:
#      x y z
#    x 1.745930 0.000000 -0.003410 
#    y 0.000000 1.753580 0.000000 
#    z -0.003410 0.000000 1.739850 
# 
# From -- ./inp_files/131238.got.cif
#   From: 2010.05.17/outbox.cif.g08.bks.cpg/sg12_66_cif.got.tgz:131238.got - 2010.06.03 13:09:07.
