data_PCOD9202570
_publ_section_title
;
Structure prediction by ZEFSAII (Michael W. Deem and Ramdas Pophale) SiO2 
 PCOD9202570
Probable space group: C 2/M
;
_chemical_formula_sum "Si O2"
_cell_formula_units_Z 56
_cell_length_a 11.628688
_cell_length_b 15.970194
_cell_length_c 15.126028
_cell_angle_alpha 90.000000
_cell_angle_beta 92.711488
_cell_angle_gamma 90.000000
_cell_volume 2805.945982
_symmetry_space_group_name_H-M "C 2/M"
_symmetry_group_IT_number 12
_symmetry_cell_setting 'monoclinic'
loop_
_space_group_symop_operation_xyz
x,y,z
-x,y,-z
-x,-y,-z
x,-y,z
1/2+x,1/2+y,z
1/2-x,1/2+y,-z
1/2-x,1/2-y,-z
1/2+x,1/2-y,z
loop_
_atom_site_type_symbol
_atom_site_label
_atom_site_fract_x
_atom_site_fract_y
_atom_site_fract_z
Si Si1 0.877289 0.347439 0.299418
Si Si2 0.048431 0.786685 0.837329
Si Si3 0.117861 0.406042 0.324225
Si Si4 0.128072 0.295979 0.501311
Si Si5 0.175784 0.097199 0.168634
Si Si6 0.832396 0.327825 0.025825
Si Si7 0.767686 0.599685 0.849670
O O1 0.917984 0.260877 0.252824
O O2 0.865185 0.340655 0.403781
O O3 0.760615 0.380126 0.252240
O O4 0.985910 0.407058 0.287913
O O5 0.067309 0.715252 0.912731
O O6 0.144755 0.857137 0.858690
O O7 0.927408 0.834886 0.835329
O O8 0.159038 0.500000 0.342923
O O9 0.124547 0.353655 0.414065
O O10 0.186099 0.369079 0.243392
O O11 0.250000 0.250000 0.500000
O O12 0.000000 0.252275 0.500000
O O13 0.256984 0.112445 0.086535
O O14 0.137465 0.000000 0.170788
O O15 0.750000 0.250000 0.000000
O O16 0.849153 0.374835 0.934132
O O17 0.758887 0.500000 0.845768
#
# Coordination Sequence:
#
# PCOD9202570 Si02
#       7
#     8   8   8   8   8   8   8
#     4  10  23  38  64  90 125 162 207 258 307 380
#     4  10  22  37  62  90 123 160 208 259 316 375
#     4  10  22  40  64  90 123 163 207 257 314 378
#     4  10  22  39  66  95 125 162 210 260 319 382
#     4  11  23  40  61  91 128 165 211 262 315 376
#     4   9  21  38  57  88 119 160 206 258 307 373
#     4  10  20  38  62  87 121 162 206 255 313 375
#
# _framework density 19.957619000000001
#
# number of rings (size 3 to 8) (size 9 to 14) (size 15 to 20)
#    0.000    2.000    0.000    2.143   10.000    5.429 
#    2.571    3.571    0.000    4.714    0.000    0.000 
#    0.000    0.000    0.000    0.000    0.000    0.000 
#
# Total GULP energy -156136.619867 kJ/mol
# GULP energy per Si atom -5576.307852 kJ/mol
# Density = 1.991219 g / cm^3
# Si number density = 19.957619 Si / 1000 Ang^3
#
#
#
# Elastic Constant Matrix: (Units=GPa)
#
#
# Indices 1 2 3 4 5 6 
#
# 1 121.3429 41.2204 44.4128 0.0000 10.0335 0.0000
# 2 41.2204 89.5135 40.4302 0.0000 -1.7331 0.0000
# 3 44.4128 40.4302 142.2719 0.0000 5.1597 0.0000
# 4 0.0000 0.0000 0.0000 17.8384 0.0000 1.7601
# 5 10.0335 -1.7331 5.1597 0.0000 24.8055 0.0000
# 6 0.0000 0.0000 0.0000 1.7601 0.0000 29.9582
#
#
#
# Elastic Compliance Matrix: (Units=1/GPa)
#
#
# Indices 1 2 3 4 5 6 
#
# 1 0.010726 -0.004104 -0.002030 0.000000 -0.004203 0.000000
# 2 -0.004104 0.014455 -0.002946 0.000000 0.003283 0.000000
# 3 -0.002030 -0.002946 0.008542 0.000000 -0.001162 0.000000
# 4 0.000000 0.000000 0.000000 0.056386 0.000000 -0.003313
# 5 -0.004203 0.003283 -0.001162 0.000000 0.042485 0.000000
# 6 0.000000 0.000000 0.000000 -0.003313 0.000000 0.033574
#
#
# Mechanical properties :
#
#
# Convention : Reuss Voigt Hill
#
# Bulk Modulus (GPa) = 64.25003 67.25059 65.75031
# Shear Modulus (GPa) = 26.38333 29.65808 28.02071
#
# Velocity S-wave (km/s) = 3.63983 3.85912 3.75108
# Velocity P-wave (km/s) = 7.06595 7.32304 7.19564
#
# Compressibility (1/GPa) = 0.01556420
#
# Stress axis : x y z
#
# Youngs Moduli (GPa) = 93.23561 69.17859 117.07368
#
# Poissons Ratio (x) = 0.28389 0.23761
# Poissons Ratio (y) = 0.38261 0.34488
# Poissons Ratio (z) = 0.18923 0.20379
#
# Static dielectric constant tensor:
#      x y z
#    x 1.823540 0.000000 -0.074990 
#    y 0.000000 1.712220 0.000000 
#    z -0.074990 0.000000 1.776270 
# 
# From -- ./inp_files/205010.got.cif
#   From: 2010.05.17/outbox.cif.g08.bks.cpg/sg12_103_cif.got.tgz:205010.got - 2010.06.03 13:09:07.
