data_PCOD9202732
_publ_section_title
;
Structure prediction by ZEFSAII (Michael W. Deem and Ramdas Pophale) SiO2 
 PCOD9202732
Probable space group: C 2/M
;
_chemical_formula_sum "Si O2"
_cell_formula_units_Z 48
_cell_length_a 16.496678
_cell_length_b 17.583921
_cell_length_c 9.649127
_cell_angle_alpha 90.000000
_cell_angle_beta 118.066954
_cell_angle_gamma 90.000000
_cell_volume 2469.817971
_symmetry_space_group_name_H-M "C 2/M"
_symmetry_group_IT_number 12
_symmetry_cell_setting 'monoclinic'
loop_
_space_group_symop_operation_xyz
x,y,z
-x,y,-z
-x,-y,-z
x,-y,z
1/2+x,1/2+y,z
1/2-x,1/2+y,-z
1/2-x,1/2-y,-z
1/2+x,1/2-y,z
loop_
_atom_site_type_symbol
_atom_site_label
_atom_site_fract_x
_atom_site_fract_y
_atom_site_fract_z
Si Si1 0.758853 0.830610 0.695086
Si Si2 0.958535 0.410348 0.815032
Si Si3 0.083202 0.909036 0.664147
Si Si4 0.404882 0.589246 0.006828
Si Si5 0.747476 0.151923 0.369184
Si Si6 0.083294 0.413445 0.674181
O O1 0.833932 0.859766 0.864036
O O2 0.777714 0.859277 0.553543
O O3 0.751910 0.740220 0.672967
O O4 0.663279 0.864310 0.672832
O O5 0.948812 0.500000 0.772652
O O6 0.857723 0.375401 0.724519
O O7 0.035392 0.379448 0.771812
O O8 0.000000 0.403038 0.000000
O O9 0.180408 0.890024 0.671735
O O10 0.000000 0.878604 0.500000
O O11 0.072375 0.000000 0.660541
O O12 0.081897 0.883872 0.823697
O O13 0.374430 0.500000 0.984928
O O14 0.500000 0.591648 0.000000
O O15 0.117143 0.500000 0.729006
O O16 0.000000 0.418296 0.500000
#
# Coordination Sequence:
#
# PCOD9202732 Si02
#       6
#     8   8   8   8   8   8
#     4  11  24  40  60  90 126 163 204 248 306 370
#     4  10  22  40  63  89 121 159 204 254 302 360
#     4  10  22  41  65  91 120 159 206 255 307 359
#     4  10  22  41  65  91 119 158 208 257 301 356
#     4  11  24  41  59  90 127 165 199 247 314 368
#     4  10  20  38  63  89 118 160 206 252 301 354
#
# _framework density 19.434629999999999
#
# number of rings (size 3 to 8) (size 9 to 14) (size 15 to 20)
#    0.000    1.667    1.667    2.000    2.333    5.333 
#    3.000    0.000    0.000    0.000    0.000    0.000 
#    0.000    0.000    0.000    0.000    0.000    0.000 
#
# Total GULP energy -134008.438077 kJ/mol
# GULP energy per Si atom -5583.684920 kJ/mol
# Density = 1.939040 g / cm^3
# Si number density = 19.434630 Si / 1000 Ang^3
#
#
#
# Elastic Constant Matrix: (Units=GPa)
#
#
# Indices 1 2 3 4 5 6 
#
# 1 113.1503 29.8602 76.5397 0.0000 -23.9989 0.0000
# 2 29.8602 29.4432 47.2191 0.0000 -1.2180 0.0000
# 3 76.5397 47.2191 137.5727 0.0000 -9.7285 0.0000
# 4 0.0000 0.0000 0.0000 19.4810 0.0000 -34.0019
# 5 -23.9989 -1.2180 -9.7285 0.0000 35.8309 0.0000
# 6 0.0000 0.0000 0.0000 -34.0019 0.0000 -148.2348
#
#
#
# Elastic Compliance Matrix: (Units=1/GPa)
#
#
# Indices 1 2 3 4 5 6 
#
# 1 0.016937 -0.006087 -0.006674 0.000000 0.009325 0.000000
# 2 -0.006087 0.078476 -0.024111 0.000000 -0.007956 0.000000
# 3 -0.006674 -0.024111 0.019253 0.000000 -0.000062 0.000000
# 4 0.000000 0.000000 0.000000 0.036656 0.000000 -0.008408
# 5 0.009325 -0.007956 -0.000062 0.000000 0.033867 0.000000
# 6 0.000000 0.000000 0.000000 -0.008408 0.000000 -0.004817
#
#
# Mechanical properties :
#
#
# Convention : Reuss Voigt Hill
#
# Bulk Modulus (GPa) = 24.43739 65.26714 44.85226
# Shear Modulus (GPa) = 18.67357 -10.14808 4.26274
#
# Velocity S-wave (km/s) = 3.10310 -2.28757 1.48261
# Velocity P-wave (km/s) = 5.04385 5.16512 5.10485
#
# Compressibility (1/GPa) = 0.04092090
#
# Stress axis : x y z
#
# Youngs Moduli (GPa) = 59.04362 12.74271 51.93889
#
# Poissons Ratio (x) = 0.07757 0.34664
# Poissons Ratio (y) = 0.35942 1.25232
# Poissons Ratio (z) = 0.39406 0.30724
#
# Static dielectric constant tensor:
#      x y z
#    x 1.858900 0.000000 -0.156830 
#    y 0.000000 1.678440 0.000000 
#    z -0.156830 0.000000 1.797760 
# 
# From -- ./inp_files/63610.got.cif
#   From: 2010.05.17/outbox.cif.g08.bks.cpg/sg12_32_cif.got.tgz:63610.got - 2010.06.03 13:09:07.
