data_PCOD9202458
_publ_section_title
;
Structure prediction by ZEFSAII (Michael W. Deem and Ramdas Pophale) SiO2 
 PCOD9202458
Probable space group: C 2/M
;
_chemical_formula_sum "Si O2"
_cell_formula_units_Z 48
_cell_length_a 9.251513
_cell_length_b 22.895446
_cell_length_c 10.681173
_cell_angle_alpha 90.000000
_cell_angle_beta 60.612842
_cell_angle_gamma 90.000000
_cell_volume 1971.334881
_symmetry_space_group_name_H-M "C 2/M"
_symmetry_group_IT_number 12
_symmetry_cell_setting 'monoclinic'
loop_
_space_group_symop_operation_xyz
x,y,z
-x,y,-z
-x,-y,-z
x,-y,z
1/2+x,1/2+y,z
1/2-x,1/2+y,-z
1/2-x,1/2-y,-z
1/2+x,1/2-y,z
loop_
_atom_site_type_symbol
_atom_site_label
_atom_site_fract_x
_atom_site_fract_y
_atom_site_fract_z
Si Si1 0.365401 0.195117 0.659996
Si Si2 0.349391 0.804653 0.274356
Si Si3 0.824654 0.500000 0.013224
Si Si4 0.500000 0.390987 0.000000
Si Si5 0.671652 0.000000 0.505328
Si Si6 0.694098 0.381846 0.547332
Si Si7 0.701610 0.500000 0.813221
Si Si8 0.342992 0.618995 0.826903
O O1 0.500000 0.216932 0.500000
O O2 0.466529 0.190726 0.746218
O O3 0.213098 0.239656 0.727908
O O4 0.299012 0.135055 0.627764
O O5 0.233073 0.829609 0.435987
O O6 0.301380 0.844375 0.176991
O O7 0.723703 0.556072 0.102988
O O8 0.849893 0.500000 0.851221
O O9 0.000000 0.500000 0.000000
O O10 0.383853 0.438865 0.116583
O O11 0.590032 0.355114 0.069974
O O12 0.500000 0.000000 0.500000
O O13 0.720335 0.060531 0.549172
O O14 0.795044 0.000000 0.335204
O O15 0.501770 0.385676 0.666358
#
# Coordination Sequence:
#
# PCOD9202458 Si02
#       8
#     8   8   4   4   4   8   4   8
#     4  10  20  38  61  90 128 176 217 249 311 401
#     4  11  22  38  63  96 129 165 214 268 321 378
#     4  10  24  40  63  90 125 169 224 260 307 384
#     4   9  18  38  64  82 110 168 224 249 290 380
#     4  12  22  34  56  97 137 161 193 258 331 381
#     4  11  22  37  60  95 131 171 206 255 322 391
#     4   9  18  38  59  80 116 171 211 242 297 388
#     4  11  21  39  64  92 119 163 219 264 311 367
#
# _framework density 24.348984000000002
#
# number of rings (size 3 to 8) (size 9 to 14) (size 15 to 20)
#    0.000    1.500    1.667    7.000    0.000    3.333 
#    0.000    1.667    0.000    4.000    2.167    0.000 
#    0.000    0.000    0.000    0.000    0.000    0.000 
#
# Total GULP energy -134096.291861 kJ/mol
# GULP energy per Si atom -5587.345494 kJ/mol
# Density = 2.429356 g / cm^3
# Si number density = 24.348984 Si / 1000 Ang^3
#
#
#
# Elastic Constant Matrix: (Units=GPa)
#
#
# Indices 1 2 3 4 5 6 
#
# 1 152.9275 31.6141 5.8469 0.0000 32.2893 0.0000
# 2 31.6141 90.3133 -0.9165 0.0000 4.9899 0.0000
# 3 5.8469 -0.9165 30.9406 0.0000 13.7664 0.0000
# 4 0.0000 0.0000 0.0000 -74.4518 0.0000 17.9677
# 5 32.2893 4.9899 13.7664 0.0000 41.9638 0.0000
# 6 0.0000 0.0000 0.0000 17.9677 0.0000 37.6331
#
#
#
# Elastic Compliance Matrix: (Units=1/GPa)
#
#
# Indices 1 2 3 4 5 6 
#
# 1 0.008411 -0.002568 0.001262 0.000000 -0.006581 0.000000
# 2 -0.002568 0.011961 0.000695 0.000000 0.000326 0.000000
# 3 0.001262 0.000695 0.038138 0.000000 -0.013565 0.000000
# 4 0.000000 0.000000 0.000000 -0.012044 0.000000 0.005750
# 5 -0.006581 0.000326 -0.013565 0.000000 0.033305 0.000000
# 6 0.000000 0.000000 0.000000 0.005750 0.000000 0.023827
#
#
# Mechanical properties :
#
#
# Convention : Reuss Voigt Hill
#
# Bulk Modulus (GPa) = 17.45584 38.58562 28.02073
# Shear Modulus (GPa) = 40.35026 16.87147 28.61087
#
# Velocity S-wave (km/s) = 4.07524 2.63516 3.43159
# Velocity P-wave (km/s) = 5.41554 5.01399 5.21863
#
# Compressibility (1/GPa) = 0.05728742
#
# Stress axis : x y z
#
# Youngs Moduli (GPa) = 118.89043 83.60853 26.22087
#
# Poissons Ratio (x) = 0.21470 -0.03310
# Poissons Ratio (y) = 0.30530 -0.01821
# Poissons Ratio (z) = -0.15010 -0.05807
#
# Static dielectric constant tensor:
#      x y z
#    x 2.002990 0.000000 -0.017140 
#    y 0.000000 1.991190 0.000000 
#    z -0.017140 0.000000 2.086060 
# 
# From -- ./inp_files/122519.got.cif
#   From: 2010.05.17/outbox.cif.g08.bks.cpg/sg12_62_cif.got.tgz:122519.got - 2010.06.03 13:09:07.
