data_PCOD9202031
_publ_section_title
;
Structure prediction by ZEFSAII (Michael W. Deem and Ramdas Pophale) SiO2 
 PCOD9202031
Probable space group: C 2/M
;
_chemical_formula_sum "Si O2"
_cell_formula_units_Z 56
_cell_length_a 9.714527
_cell_length_b 24.040532
_cell_length_c 20.213671
_cell_angle_alpha 90.000000
_cell_angle_beta 41.177369
_cell_angle_gamma 90.000000
_cell_volume 3108.104514
_symmetry_space_group_name_H-M "C 2/M"
_symmetry_group_IT_number 12
_symmetry_cell_setting 'monoclinic'
loop_
_space_group_symop_operation_xyz
x,y,z
-x,y,-z
-x,-y,-z
x,-y,z
1/2+x,1/2+y,z
1/2-x,1/2+y,-z
1/2-x,1/2-y,-z
1/2+x,1/2-y,z
loop_
_atom_site_type_symbol
_atom_site_label
_atom_site_fract_x
_atom_site_fract_y
_atom_site_fract_z
Si Si1 0.017904 0.306698 0.071073
Si Si2 0.530735 0.320514 0.068051
Si Si3 0.413667 0.645085 0.723184
Si Si4 0.230787 0.346755 0.293888
Si Si5 0.511954 0.734479 0.574709
Si Si6 0.361404 0.932545 0.399164
Si Si7 0.093284 0.065150 0.376427
O O1 0.031855 0.243770 0.093224
O O2 0.805014 0.333455 0.171182
O O3 0.230615 0.339712 0.008123
O O4 0.000000 0.299801 0.000000
O O5 0.354138 0.347105 0.178794
O O6 0.500000 0.323450 0.000000
O O7 0.595902 0.646264 0.711325
O O8 0.461131 0.682790 0.641010
O O9 0.382076 0.583730 0.706844
O O10 0.123825 0.287408 0.350902
O O11 0.052156 0.394589 0.355456
O O12 0.500000 0.723565 0.500000
O O13 0.750000 0.750000 0.500000
O O14 0.282732 0.913808 0.354371
O O15 0.145133 0.920842 0.516620
O O16 0.404240 0.000000 0.386612
O O17 0.104016 0.000000 0.382518
#
# Coordination Sequence:
#
# PCOD9202031 Si02
#       7
#     8   8   8   8   8   8   8
#     4  10  20  38  57  82 119 156 198 247 294 349
#     4  10  22  36  60  86 117 156 203 247 291 353
#     4  12  24  37  62  88 122 163 198 245 298 356
#     4  12  24  39  59  90 122 159 202 245 300 354
#     4  12  26  38  53  87 131 161 192 237 298 360
#     4   9  21  41  64  87 118 156 203 252 296 355
#     4   9  21  41  63  88 115 156 205 248 299 358
#
# _framework density 18.017413000000001
#
# number of rings (size 3 to 8) (size 9 to 14) (size 15 to 20)
#    0.000    1.429    4.286    1.714    6.000    0.571 
#    0.000    1.429    0.000    1.714    0.000    0.000 
#    0.000    0.000    0.000    0.000    0.000    0.000 
#
# Total GULP energy -155966.755082 kJ/mol
# GULP energy per Si atom -5570.241253 kJ/mol
# Density = 1.797640 g / cm^3
# Si number density = 18.017413 Si / 1000 Ang^3
#
#
#
# Elastic Constant Matrix: (Units=GPa)
#
#
# Indices 1 2 3 4 5 6 
#
# 1 117.4882 27.3395 58.5185 -0.0001 -15.5068 0.0000
# 2 27.3395 38.2484 31.5413 0.0001 -5.6919 0.0000
# 3 58.5185 31.5413 91.5360 0.0003 -4.3773 0.0000
# 4 -0.0001 0.0001 0.0003 155.6602 0.0000 44.4368
# 5 -15.5068 -5.6919 -4.3773 0.0000 33.5152 0.0000
# 6 0.0000 0.0000 0.0000 44.4368 0.0000 44.2199
#
#
#
# Elastic Compliance Matrix: (Units=1/GPa)
#
#
# Indices 1 2 3 4 5 6 
#
# 1 0.013501 -0.002805 -0.007435 0.000000 0.004799 0.000000
# 2 -0.002805 0.037820 -0.011063 0.000000 0.003681 0.000000
# 3 -0.007435 -0.011063 0.019356 0.000000 -0.002791 0.000000
# 4 0.000000 0.000000 0.000000 0.009009 0.000000 -0.009053
# 5 0.004799 0.003681 -0.002791 0.000000 0.032318 0.000000
# 6 0.000000 0.000000 0.000000 -0.009053 0.000000 0.031711
#
#
# Mechanical properties :
#
#
# Convention : Reuss Voigt Hill
#
# Bulk Modulus (GPa) = 35.62258 53.56346 44.59302
# Shear Modulus (GPa) = 25.55206 55.33731 40.44469
#
# Velocity S-wave (km/s) = 3.76997 5.54796 4.74303
# Velocity P-wave (km/s) = 6.22610 8.41624 7.40262
#
# Compressibility (1/GPa) = 0.02807208
#
# Stress axis : x y z
#
# Youngs Moduli (GPa) = 74.06958 26.44070 51.66238
#
# Poissons Ratio (x) = 0.07416 0.38411
# Poissons Ratio (y) = 0.20775 0.57154
# Poissons Ratio (z) = 0.55071 0.29251
#
# Static dielectric constant tensor:
#      x y z
#    x 1.605710 0.000000 -0.025130 
#    y 0.000000 1.687110 0.000000 
#    z -0.025130 0.000000 1.582780 
# 
# From -- ./inp_files/198363.got.cif
#   From: 2010.05.17/outbox.cif.g08.bks.cpg/sg12_100_cif.got.tgz:198363.got - 2010.06.03 13:09:07.
