data_PCOD9202323
_publ_section_title
;
Structure prediction by ZEFSAII (Michael W. Deem and Ramdas Pophale) SiO2 
 PCOD9202323
Probable space group: C 2/M
;
_chemical_formula_sum "Si O2"
_cell_formula_units_Z 36
_cell_length_a 9.500698
_cell_length_b 10.242694
_cell_length_c 19.047569
_cell_angle_alpha 90.000000
_cell_angle_beta 71.914291
_cell_angle_gamma 90.000000
_cell_volume 1761.992141
_symmetry_space_group_name_H-M "C 2/M"
_symmetry_group_IT_number 12
_symmetry_cell_setting 'monoclinic'
loop_
_space_group_symop_operation_xyz
x,y,z
-x,y,-z
-x,-y,-z
x,-y,z
1/2+x,1/2+y,z
1/2-x,1/2+y,-z
1/2-x,1/2-y,-z
1/2+x,1/2-y,z
loop_
_atom_site_type_symbol
_atom_site_label
_atom_site_fract_x
_atom_site_fract_y
_atom_site_fract_z
Si Si1 0.500000 0.284548 0.500000
Si Si2 0.985509 0.151578 0.241970
Si Si3 0.862328 0.500000 0.073053
Si Si4 0.824708 0.000000 0.031443
Si Si5 0.201530 0.852488 0.599100
Si Si6 0.715268 0.274919 0.853550
O O1 0.639700 0.208970 0.443876
O O2 0.588781 0.352493 0.550175
O O3 0.887976 0.206393 0.321572
O O4 0.886573 0.155036 0.187697
O O5 0.127923 0.239015 0.204811
O O6 0.028808 0.000000 0.250156
O O7 0.856395 0.634909 0.116017
O O8 0.725178 0.500000 0.041080
O O9 0.000000 0.500000 0.000000
O O10 0.771656 0.870915 0.081618
O O11 0.000000 0.000000 0.000000
O O12 0.233881 0.000000 0.614855
#
# Coordination Sequence:
#
# PCOD9202323 Si02
#       6
#     4   8   4   4   8   8
#     4  10  20  38  60  96 118 166 206 250 300 364
#     4  11  23  42  62  94 126 170 206 261 313 372
#     4  12  24  40  62  96 122 159 212 261 310 380
#     4  12  24  42  66  94 124 165 206 263 322 376
#     4  10  21  37  63  88 129 160 205 252 308 362
#     4  12  23  43  66  90 130 163 212 260 316 374
#
# _framework density 20.431419000000002
#
# number of rings (size 3 to 8) (size 9 to 14) (size 15 to 20)
#    0.000    0.889    2.222    6.000    0.000    0.000 
#    0.000    0.000    9.778    0.000    0.000    0.000 
#    0.000    0.000    0.000    0.000    0.000    0.000 
#
# Total GULP energy -100500.830106 kJ/mol
# GULP energy per Si atom -5583.379450 kJ/mol
# Density = 2.038492 g / cm^3
# Si number density = 20.431419 Si / 1000 Ang^3
#
#
#
# Elastic Constant Matrix: (Units=GPa)
#
#
# Indices 1 2 3 4 5 6 
#
# 1 93.0047 5.6318 13.1223 0.0000 -29.4215 0.0000
# 2 5.6318 92.3629 32.2606 0.0000 -26.9451 0.0000
# 3 13.1223 32.2606 99.9253 0.0000 -34.3220 0.0000
# 4 0.0000 0.0000 0.0000 37.3933 0.0000 -6.8183
# 5 -29.4215 -26.9451 -34.3220 0.0000 49.7003 0.0000
# 6 0.0000 0.0000 0.0000 -6.8183 0.0000 23.9454
#
#
#
# Elastic Compliance Matrix: (Units=1/GPa)
#
#
# Indices 1 2 3 4 5 6 
#
# 1 0.013545 0.001624 0.000988 0.000000 0.009581 0.000000
# 2 0.001624 0.013473 -0.002260 0.000000 0.006705 0.000000
# 3 0.000988 -0.002260 0.013617 0.000000 0.008763 0.000000
# 4 0.000000 0.000000 0.000000 0.028207 0.000000 0.008032
# 5 0.009581 0.006705 0.008763 0.000000 0.035480 0.000000
# 6 0.000000 0.000000 0.000000 0.008032 0.000000 0.044049
#
#
# Mechanical properties :
#
#
# Convention : Reuss Voigt Hill
#
# Bulk Modulus (GPa) = 24.18948 43.03580 33.61264
# Shear Modulus (GPa) = 30.96972 37.82634 34.39803
#
# Velocity S-wave (km/s) = 3.89754 4.30744 4.10760
# Velocity P-wave (km/s) = 5.66740 6.77111 6.24369
#
# Compressibility (1/GPa) = 0.04134028
#
# Stress axis : x y z
#
# Youngs Moduli (GPa) = 73.82568 74.22055 73.43536
#
# Poissons Ratio (x) = -0.12055 -0.07254
# Poissons Ratio (y) = -0.11991 0.16596
# Poissons Ratio (z) = -0.07292 0.16774
#
# Static dielectric constant tensor:
#      x y z
#    x 1.677620 0.000000 -0.005700 
#    y 0.000000 1.704850 0.000000 
#    z -0.005700 0.000000 1.749200 
# 
# From -- ./inp_files/254581.got.cif
#   From: 2010.05.17/outbox.cif.g08.bks.cpg/sg12_128_cif.got.tgz:254581.got - 2010.06.03 13:09:07.
