data_PCOD9202936
_publ_section_title
;
Structure prediction by ZEFSAII (Michael W. Deem and Ramdas Pophale) SiO2 
 PCOD9202936
Probable space group: C 2/M
;
_chemical_formula_sum "Si O2"
_cell_formula_units_Z 52
_cell_length_a 9.788763
_cell_length_b 7.534811
_cell_length_c 27.497656
_cell_angle_alpha 90.000000
_cell_angle_beta 93.903328
_cell_angle_gamma 90.000000
_cell_volume 2023.425691
_symmetry_space_group_name_H-M "C 2/M"
_symmetry_group_IT_number 12
_symmetry_cell_setting 'monoclinic'
loop_
_space_group_symop_operation_xyz
x,y,z
-x,y,-z
-x,-y,-z
x,-y,z
1/2+x,1/2+y,z
1/2-x,1/2+y,-z
1/2-x,1/2-y,-z
1/2+x,1/2-y,z
loop_
_atom_site_type_symbol
_atom_site_label
_atom_site_fract_x
_atom_site_fract_y
_atom_site_fract_z
Si Si1 0.664212 0.293860 0.890169
Si Si2 0.629820 0.000000 0.326847
Si Si3 0.808298 0.287024 0.797660
Si Si4 0.573845 0.715433 0.051279
Si Si5 0.922824 0.705037 0.545202
Si Si6 0.324035 0.301389 0.402678
Si Si7 0.463391 0.699210 0.265784
O O1 0.640359 0.500000 0.877991
O O2 0.741428 0.215323 0.845497
O O3 0.521699 0.219897 0.906311
O O4 0.773492 0.282196 0.936641
O O5 0.734427 0.154326 0.353435
O O6 0.532067 0.154274 0.300501
O O7 0.831231 0.500000 0.802259
O O8 0.692278 0.263971 0.753609
O O9 0.947705 0.203048 0.782124
O O10 0.576543 0.500000 0.051794
O O11 0.500000 0.771483 0.000000
O O12 0.890124 0.500000 0.533804
O O13 0.033438 0.700701 0.591859
O O14 0.000000 0.777600 0.500000
O O15 0.782161 0.783978 0.561394
O O16 0.365576 0.500000 0.420273
O O17 0.469574 0.500000 0.286624
#
# Coordination Sequence:
#
# PCOD9202936 Si02
#       7
#     8   4   8   8   8   8   8
#     4  10  21  37  59  87 121 154 201 260 296 365
#     4  10  24  46  60  96 134 160 221 264 306 398
#     4  10  22  41  62  93 122 155 214 265 318 379
#     4  10  21  37  56  85 125 163 200 245 303 370
#     4  10  20  38  64  94 126 165 213 259 311 367
#     4   9  22  40  57  91 127 162 205 260 307 369
#     4  11  24  43  67  91 123 168 204 265 329 374
#
# _framework density 25.698992000000001
#
# number of rings (size 3 to 8) (size 9 to 14) (size 15 to 20)
#    0.462    1.538    0.769    1.846    1.077    5.538 
#    0.000    0.000    0.000    0.000    0.000    0.000 
#    0.000    0.000    0.000    0.000    0.000    0.000 
#
# Total GULP energy -144891.329092 kJ/mol
# GULP energy per Si atom -5572.743427 kJ/mol
# Density = 2.564050 g / cm^3
# Si number density = 25.698992 Si / 1000 Ang^3
#
#
#
# Elastic Constant Matrix: (Units=GPa)
#
#
# Indices 1 2 3 4 5 6 
#
# 1 110.7014 3.1434 0.1883 0.0000 -3.7547 0.0000
# 2 3.1434 76.6992 20.7013 0.0000 14.6500 0.0000
# 3 0.1883 20.7013 79.7562 0.0000 -0.3835 0.0000
# 4 0.0000 0.0000 0.0000 23.3069 0.0000 12.1146
# 5 -3.7547 14.6500 -0.3835 0.0000 49.5873 0.0000
# 6 0.0000 0.0000 0.0000 12.1146 0.0000 15.9601
#
#
#
# Elastic Compliance Matrix: (Units=1/GPa)
#
#
# Indices 1 2 3 4 5 6 
#
# 1 0.009078 -0.000571 0.000131 0.000000 0.000857 0.000000
# 2 -0.000571 0.014975 -0.003907 0.000000 -0.004498 0.000000
# 3 0.000131 -0.003907 0.013558 0.000000 0.001269 0.000000
# 4 0.000000 0.000000 0.000000 0.070865 0.000000 -0.053791
# 5 0.000857 -0.004498 0.001269 0.000000 0.021570 0.000000
# 6 0.000000 0.000000 0.000000 -0.053791 0.000000 0.103486
#
#
# Mechanical properties :
#
#
# Convention : Reuss Voigt Hill
#
# Bulk Modulus (GPa) = 34.58195 35.02475 34.80335
# Shear Modulus (GPa) = 19.85179 33.97912 26.91546
#
# Velocity S-wave (km/s) = 2.78236 3.64015 3.23977
# Velocity P-wave (km/s) = 4.87932 5.59696 5.25042
#
# Compressibility (1/GPa) = 0.02891682
#
# Stress axis : x y z
#
# Youngs Moduli (GPa) = 110.15184 66.77809 73.75648
#
# Poissons Ratio (x) = 0.03814 -0.00966
# Poissons Ratio (y) = 0.06291 0.28818
# Poissons Ratio (z) = -0.01442 0.26091
#
# Static dielectric constant tensor:
#      x y z
#    x 1.973800 0.000000 -0.085050 
#    y 0.000000 1.935340 0.000000 
#    z -0.085050 0.000000 2.164080 
# 
# From -- ./inp_files/373412.got.cif
#   From: 2010.05.17/outbox.cif.g08.bks.cpg/sg12_187_cif.got.tgz:373412.got - 2010.06.03 13:09:07.
