data_PCOD9202254
_publ_section_title
;
Structure prediction by ZEFSAII (Michael W. Deem and Ramdas Pophale) SiO2 
 PCOD9202254
Probable space group: C 2/M
;
_chemical_formula_sum "Si O2"
_cell_formula_units_Z 30
_cell_length_a 14.283465
_cell_length_b 14.309383
_cell_length_c 14.576041
_cell_angle_alpha 90.000000
_cell_angle_beta 30.342711
_cell_angle_gamma 90.000000
_cell_volume 1504.986351
_symmetry_space_group_name_H-M "C 2/M"
_symmetry_group_IT_number 12
_symmetry_cell_setting 'monoclinic'
loop_
_space_group_symop_operation_xyz
x,y,z
-x,y,-z
-x,-y,-z
x,-y,z
1/2+x,1/2+y,z
1/2-x,1/2+y,-z
1/2-x,1/2-y,-z
1/2+x,1/2-y,z
loop_
_atom_site_type_symbol
_atom_site_label
_atom_site_fract_x
_atom_site_fract_y
_atom_site_fract_z
Si Si1 0.277269 0.646640 0.195639
Si Si2 0.870518 0.000000 0.838356
Si Si3 0.000000 0.500000 0.000000
Si Si4 0.832580 0.138061 0.710559
Si Si5 0.241316 0.000000 0.631663
Si Si6 0.092581 0.500000 0.219384
O O1 0.208948 0.752303 0.251947
O O2 0.224028 0.589793 0.332979
O O3 0.186158 0.589209 0.189420
O O4 0.500000 0.642756 0.000000
O O5 0.887754 0.908369 0.761220
O O6 0.661889 0.000000 0.056158
O O7 0.028846 0.000000 0.780019
O O8 0.148406 0.581326 0.841471
O O9 0.000000 0.120308 0.500000
O O10 0.378279 0.000000 0.428971
#
# Coordination Sequence:
#
# PCOD9202254 Si02
#       6
#     8   4   2   8   4   4
#     4  11  20  43  70  91 126 168 216 256 311 382
#     4  11  24  40  60  96 133 160 207 272 307 370
#     4  10  20  38  60  84 120 172 200 250 300 376
#     4  11  24  42  65  93 128 169 216 253 315 379
#     4  11  22  43  68  94 125 169 208 262 319 369
#     4  11  22  40  68  94 127 166 208 262 320 372
#
# _framework density 19.933736
#
# number of rings (size 3 to 8) (size 9 to 14) (size 15 to 20)
#    0.000    1.067    4.000    5.600    0.000    5.333 
#    0.000    2.667    0.000    0.000    0.000    0.000 
#    0.000    0.000    0.000    0.000    0.000    0.000 
#
# Total GULP energy -83563.011199 kJ/mol
# GULP energy per Si atom -5570.867413 kJ/mol
# Density = 1.988837 g / cm^3
# Si number density = 19.933736 Si / 1000 Ang^3
#
#
#
# Elastic Constant Matrix: (Units=GPa)
#
#
# Indices 1 2 3 4 5 6 
#
# 1 31.6504 28.5650 2.0031 -0.0008 1.6470 0.0002
# 2 28.5650 197.1038 49.4932 -0.0008 6.3922 0.0004
# 3 2.0031 49.4932 171.7501 0.0003 1.2572 -0.0001
# 4 -0.0008 -0.0008 0.0003 20.8623 0.0000 -4.2047
# 5 1.6470 6.3922 1.2572 0.0000 34.1781 0.0001
# 6 0.0002 0.0004 -0.0001 -4.2047 0.0001 9.1845
#
#
#
# Elastic Compliance Matrix: (Units=1/GPa)
#
#
# Indices 1 2 3 4 5 6 
#
# 1 0.036592 -0.005576 0.001186 0.000001 -0.000764 0.000000
# 2 -0.005576 0.006351 -0.001759 0.000000 -0.000854 0.000000
# 3 0.001186 -0.001759 0.006315 0.000000 0.000040 0.000000
# 4 0.000001 0.000000 0.000000 0.052806 0.000000 0.024175
# 5 -0.000764 -0.000854 0.000040 0.000000 0.029454 0.000000
# 6 0.000000 0.000000 0.000000 0.024175 0.000000 0.119947
#
#
# Mechanical properties :
#
#
# Convention : Reuss Voigt Hill
#
# Bulk Modulus (GPa) = 27.05629 62.29187 44.67408
# Shear Modulus (GPa) = 18.11051 34.20784 26.15917
#
# Velocity S-wave (km/s) = 3.01746 4.14705 3.62651
# Velocity P-wave (km/s) = 5.07373 7.36533 6.32419
#
# Compressibility (1/GPa) = 0.03695998
#
# Stress axis : x y z
#
# Youngs Moduli (GPa) = 27.32810 157.45722 158.34950
#
# Poissons Ratio (x) = 0.87799 -0.18775
# Poissons Ratio (y) = 0.15238 0.27851
# Poissons Ratio (z) = -0.03240 0.27695
#
# Static dielectric constant tensor:
#      x y z
#    x 1.737530 0.000000 0.012510 
#    y 0.000000 1.657530 0.000000 
#    z 0.012510 0.000000 1.709640 
# 
# From -- ./inp_files/214563.got.cif
#   From: 2010.05.17/outbox.cif.g08.bks.cpg/sg12_108_cif.got.tgz:214563.got - 2010.06.03 13:09:07.
