data_PCOD9202762
_publ_section_title
;
Structure prediction by ZEFSAII (Michael W. Deem and Ramdas Pophale) SiO2 
 PCOD9202762
Probable space group: C 2/M
;
_chemical_formula_sum "Si O2"
_cell_formula_units_Z 64
_cell_length_a 12.331203
_cell_length_b 15.692685
_cell_length_c 17.172620
_cell_angle_alpha 90.000000
_cell_angle_beta 98.607677
_cell_angle_gamma 90.000000
_cell_volume 3285.638351
_symmetry_space_group_name_H-M "C 2/M"
_symmetry_group_IT_number 12
_symmetry_cell_setting 'monoclinic'
loop_
_space_group_symop_operation_xyz
x,y,z
-x,y,-z
-x,-y,-z
x,-y,z
1/2+x,1/2+y,z
1/2-x,1/2+y,-z
1/2-x,1/2-y,-z
1/2+x,1/2-y,z
loop_
_atom_site_type_symbol
_atom_site_label
_atom_site_fract_x
_atom_site_fract_y
_atom_site_fract_z
Si Si1 0.255645 0.602308 0.897494
Si Si2 0.550423 0.179563 0.789546
Si Si3 0.813708 0.398453 0.775617
Si Si4 0.276371 0.599908 0.071676
Si Si5 0.993421 0.179322 0.910662
Si Si6 0.835217 0.097701 0.389354
Si Si7 0.052721 0.725723 0.613334
Si Si8 0.327670 0.169460 0.514647
O O1 0.264711 0.500000 0.900003
O O2 0.155718 0.629840 0.832744
O O3 0.373125 0.640312 0.885737
O O4 0.233987 0.634000 0.984207
O O5 0.438859 0.125203 0.773189
O O6 0.522040 0.252350 0.848719
O O7 0.573386 0.215043 0.706361
O O8 0.806144 0.500000 0.780448
O O9 0.773278 0.361256 0.854549
O O10 0.733968 0.376909 0.695439
O O11 0.249479 0.500000 0.069200
O O12 0.407622 0.611176 0.084211
O O13 0.000000 0.213801 0.000000
O O14 0.921430 0.175688 0.407547
O O15 0.747229 0.100485 0.450568
O O16 0.877397 0.000000 0.386345
O O17 0.125544 0.661865 0.567640
O O18 0.929903 0.697520 0.578901
O O19 0.250000 0.250000 0.500000
#
# Coordination Sequence:
#
# PCOD9202762 Si02
#       8
#     8   8   8   8   8   8   8   8
#     4  10  23  41  59  82 117 160 203 248 303 359
#     4  12  24  35  59  87 123 157 198 244 301 353
#     4  10  21  36  57  86 121 159 201 244 295 354
#     4   9  19  38  60  80 113 159 203 250 304 352
#     4  10  23  36  58  85 117 152 204 257 299 349
#     4  10  20  38  63  91 119 153 198 241 286 348
#     4  10  21  38  61  88 119 157 190 238 294 349
#     4   9  19  39  62  86 117 154 189 230 291 356
#
# _framework density 19.478711000000001
#
# number of rings (size 3 to 8) (size 9 to 14) (size 15 to 20)
#    0.000    2.000    1.250    1.500    5.250    2.500 
#    0.000   10.000    0.000    0.000    0.000    0.000 
#    0.000    0.000    0.000    0.000    0.000    0.000 
#
# Total GULP energy -178416.857530 kJ/mol
# GULP energy per Si atom -5575.526798 kJ/mol
# Density = 1.943438 g / cm^3
# Si number density = 19.478711 Si / 1000 Ang^3
#
#
#
# Elastic Constant Matrix: (Units=GPa)
#
#
# Indices 1 2 3 4 5 6 
#
# 1 52.6511 7.2155 21.2745 0.0000 -12.7590 0.0000
# 2 7.2155 31.4846 22.7780 0.0000 -5.1692 0.0000
# 3 21.2745 22.7780 110.5553 0.0000 -17.6983 0.0000
# 4 0.0000 0.0000 0.0000 21.4230 0.0000 -1.1725
# 5 -12.7590 -5.1692 -17.6983 0.0000 17.9434 0.0000
# 6 0.0000 0.0000 0.0000 -1.1725 0.0000 27.1556
#
#
#
# Elastic Compliance Matrix: (Units=1/GPa)
#
#
# Indices 1 2 3 4 5 6 
#
# 1 0.023456 -0.001664 -0.001873 0.000000 0.014351 0.000000
# 2 -0.001664 0.037658 -0.006996 0.000000 0.002765 0.000000
# 3 -0.001873 -0.006996 0.012245 0.000000 0.008730 0.000000
# 4 0.000000 0.000000 0.000000 0.046789 0.000000 0.002020
# 5 0.014351 0.002765 0.008730 0.000000 0.075343 0.000000
# 6 0.000000 0.000000 0.000000 0.002020 0.000000 0.036912
#
#
# Mechanical properties :
#
#
# Convention : Reuss Voigt Hill
#
# Bulk Modulus (GPa) = 19.12336 33.02523 26.07429
# Shear Modulus (GPa) = 18.45698 22.86593 20.66145
#
# Velocity S-wave (km/s) = 3.08156 3.42993 3.26040
# Velocity P-wave (km/s) = 4.74344 5.71640 5.25250
#
# Compressibility (1/GPa) = 0.05229208
#
# Stress axis : x y z
#
# Youngs Moduli (GPa) = 42.63342 26.55464 81.66815
#
# Poissons Ratio (x) = 0.04419 0.15300
# Poissons Ratio (y) = 0.07094 0.57135
# Poissons Ratio (z) = 0.07987 0.18578
#
# Static dielectric constant tensor:
#      x y z
#    x 1.695300 0.000000 -0.013030 
#    y 0.000000 1.675780 0.000000 
#    z -0.013030 0.000000 1.738050 
# 
# From -- ./inp_files/206698.got.cif
#   From: 2010.05.17/outbox.cif.g08.bks.cpg/sg12_104_cif.got.tgz:206698.got - 2010.06.03 13:09:07.
