data_PCOD9202251
_publ_section_title
;
Structure prediction by ZEFSAII (Michael W. Deem and Ramdas Pophale) SiO2 
 PCOD9202251
Probable space group: C 2/M
;
_chemical_formula_sum "Si O2"
_cell_formula_units_Z 64
_cell_length_a 13.519135
_cell_length_b 23.278917
_cell_length_c 11.068869
_cell_angle_alpha 90.000000
_cell_angle_beta 75.907572
_cell_angle_gamma 90.000000
_cell_volume 3378.654360
_symmetry_space_group_name_H-M "C 2/M"
_symmetry_group_IT_number 12
_symmetry_cell_setting 'monoclinic'
loop_
_space_group_symop_operation_xyz
x,y,z
-x,y,-z
-x,-y,-z
x,-y,z
1/2+x,1/2+y,z
1/2-x,1/2+y,-z
1/2-x,1/2-y,-z
1/2+x,1/2-y,z
loop_
_atom_site_type_symbol
_atom_site_label
_atom_site_fract_x
_atom_site_fract_y
_atom_site_fract_z
Si Si1 0.165743 0.794861 0.158971
Si Si2 0.025876 0.228877 0.629647
Si Si3 0.618542 0.566861 0.489700
Si Si4 0.420182 0.145258 0.434011
Si Si5 0.383372 0.934199 0.994508
Si Si6 0.787489 0.843021 0.360988
Si Si7 0.735403 0.835990 0.103481
Si Si8 0.283035 0.111663 0.259786
O O1 0.186717 0.727520 0.131467
O O2 0.249964 0.825107 0.220905
O O3 0.056612 0.798200 0.255807
O O4 0.180343 0.827455 0.027246
O O5 0.022894 0.297859 0.630399
O O6 0.139081 0.210055 0.631041
O O7 0.000000 0.211128 0.500000
O O8 0.500000 0.576291 0.500000
O O9 0.635808 0.500000 0.506992
O O10 0.658296 0.603815 0.589675
O O11 0.684825 0.586372 0.355443
O O12 0.500000 0.114302 0.500000
O O13 0.322851 0.163753 0.544166
O O14 0.372520 0.113811 0.332866
O O15 0.317237 0.925129 0.135403
O O16 0.373566 0.000000 0.953032
O O17 0.500000 0.924428 0.000000
O O18 0.343453 0.884966 0.916044
O O19 0.777964 0.851067 0.221626
#
# Coordination Sequence:
#
# PCOD9202251 Si02
#       8
#     8   8   8   8   8   8   8   8
#     4  10  21  37  57  87 116 158 193 230 303 350
#     4  11  20  33  56  83 117 153 191 232 283 357
#     4  10  21  38  62  87 113 152 195 242 297 348
#     4  10  21  32  54  84 114 152 183 230 296 347
#     4  10  23  40  62  81 105 158 208 245 290 341
#     4  11  21  35  55  82 117 147 189 238 291 342
#     4  10  22  39  56  83 123 150 193 245 286 356
#     4  10  20  38  60  84 119 147 197 245 291 355
#
# _framework density 18.942453
#
# number of rings (size 3 to 8) (size 9 to 14) (size 15 to 20)
#    0.000    1.750    0.000    5.625    3.500    1.000 
#    0.000    0.000    0.000    1.875    0.000    7.000 
#    0.000    0.000    0.000    0.000    0.000    0.000 
#
# Total GULP energy -178653.598183 kJ/mol
# GULP energy per Si atom -5582.924943 kJ/mol
# Density = 1.889934 g / cm^3
# Si number density = 18.942453 Si / 1000 Ang^3
#
#
#
# Elastic Constant Matrix: (Units=GPa)
#
#
# Indices 1 2 3 4 5 6 
#
# 1 68.3247 20.5866 29.9689 0.0000 10.9575 0.0000
# 2 20.5866 86.1007 4.8069 0.0000 7.8233 0.0000
# 3 29.9689 4.8069 78.6202 0.0000 3.5633 0.0000
# 4 0.0000 0.0000 0.0000 1.5171 0.0000 -33.5376
# 5 10.9575 7.8233 3.5633 0.0000 27.6900 0.0000
# 6 0.0000 0.0000 0.0000 -33.5376 0.0000 -62.2178
#
#
#
# Elastic Compliance Matrix: (Units=1/GPa)
#
#
# Indices 1 2 3 4 5 6 
#
# 1 0.019819 -0.003813 -0.007056 0.000000 -0.005858 0.000000
# 2 -0.003813 0.012680 0.000777 0.000000 -0.002174 0.000000
# 3 -0.007056 0.000777 0.015334 0.000000 0.000600 0.000000
# 4 0.000000 0.000000 0.000000 0.051033 0.000000 -0.027509
# 5 -0.005858 -0.002174 0.000600 0.000000 0.038969 0.000000
# 6 0.000000 0.000000 0.000000 -0.027509 0.000000 -0.001244
#
#
# Mechanical properties :
#
#
# Convention : Reuss Voigt Hill
#
# Bulk Modulus (GPa) = 36.16735 38.19670 37.18203
# Shear Modulus (GPa) = 30.12181 5.24340 17.68260
#
# Velocity S-wave (km/s) = 3.99203 1.66556 3.05862
# Velocity P-wave (km/s) = 6.35477 4.88949 5.66967
#
# Compressibility (1/GPa) = 0.02764924
#
# Stress axis : x y z
#
# Youngs Moduli (GPa) = 50.45613 78.86407 65.21263
#
# Poissons Ratio (x) = 0.30067 0.46015
# Poissons Ratio (y) = 0.19237 -0.05064
# Poissons Ratio (z) = 0.35603 -0.06124
#
# Static dielectric constant tensor:
#      x y z
#    x 1.653020 0.000000 -0.004330 
#    y 0.000000 1.663380 0.000000 
#    z -0.004330 0.000000 1.663180 
# 
# From -- ./inp_files/135341.got.cif
#   From: 2010.05.17/outbox.cif.g08.bks.cpg/sg12_68_cif.got.tgz:135341.got - 2010.06.03 13:09:07.
