data_PCOD9202311
_publ_section_title
;
Structure prediction by ZEFSAII (Michael W. Deem and Ramdas Pophale) SiO2 
 PCOD9202311
Probable space group: C 2/M
;
_chemical_formula_sum "Si O2"
_cell_formula_units_Z 52
_cell_length_a 18.267924
_cell_length_b 27.387309
_cell_length_c 5.700697
_cell_angle_alpha 90.000000
_cell_angle_beta 123.247367
_cell_angle_gamma 90.000000
_cell_volume 2385.253314
_symmetry_space_group_name_H-M "C 2/M"
_symmetry_group_IT_number 12
_symmetry_cell_setting 'monoclinic'
loop_
_space_group_symop_operation_xyz
x,y,z
-x,y,-z
-x,-y,-z
x,-y,z
1/2+x,1/2+y,z
1/2-x,1/2+y,-z
1/2-x,1/2-y,-z
1/2+x,1/2-y,z
loop_
_atom_site_type_symbol
_atom_site_label
_atom_site_fract_x
_atom_site_fract_y
_atom_site_fract_z
Si Si1 0.102359 0.409324 0.138228
Si Si2 0.414898 0.445138 0.687420
Si Si3 0.299492 0.185029 0.681296
Si Si4 0.446267 0.000000 0.163169
Si Si5 0.249282 0.443101 0.751100
Si Si6 0.302175 0.717132 0.904987
Si Si7 0.657437 0.366701 0.751742
O O1 0.133052 0.355823 0.128873
O O2 0.160614 0.427193 0.461073
O O3 0.110712 0.451220 0.956910
O O4 0.000000 0.405047 0.000000
O O5 0.414487 0.500000 0.579455
O O6 0.327526 0.440703 0.693379
O O7 0.411458 0.401074 0.497939
O O8 0.500000 0.441707 0.000000
O O9 0.334038 0.239472 0.793389
O O10 0.271199 0.186295 0.361814
O O11 0.212642 0.165458 0.661885
O O12 0.500000 0.000000 0.500000
O O13 0.500000 0.000000 0.000000
O O14 0.243306 0.500000 0.812757
O O15 0.280256 0.405875 0.006440
O O16 0.250000 0.750000 0.000000
O O17 0.369034 0.676725 0.116752
#
# Coordination Sequence:
#
# PCOD9202311 Si02
#       7
#     8   8   8   4   8   8   8
#     4  11  22  40  61  93 133 174 220 270 322 396
#     4  10  22  39  59  90 129 167 209 265 327 392
#     4  10  20  38  60  91 123 163 213 267 327 384
#     4  10  24  44  60  96 139 187 229 279 326 392
#     4  11  22  39  61  94 131 165 219 261 322 396
#     4   9  19  35  64  89 116 157 216 269 329 386
#     4  11  19  36  65  93 116 169 210 267 328 395
#
# _framework density 21.800621
#
# number of rings (size 3 to 8) (size 9 to 14) (size 15 to 20)
#    0.000    1.692    3.846    0.462    0.000    3.077 
#    1.385    2.308    0.000   22.154    0.000    0.000 
#    0.000    0.000    0.000    0.000    0.000    0.000 
#
# Total GULP energy -144952.184675 kJ/mol
# GULP energy per Si atom -5575.084026 kJ/mol
# Density = 2.175100 g / cm^3
# Si number density = 21.800621 Si / 1000 Ang^3
#
#
#
# Elastic Constant Matrix: (Units=GPa)
#
#
# Indices 1 2 3 4 5 6 
#
# 1 41.8884 7.7310 9.2465 0.0000 9.7425 0.0000
# 2 7.7310 184.5339 63.4601 0.0000 6.9906 0.0000
# 3 9.2465 63.4601 109.1538 0.0000 3.5410 0.0000
# 4 0.0000 0.0000 0.0000 74.9291 0.0000 -39.2861
# 5 9.7425 6.9906 3.5410 0.0000 24.7365 0.0000
# 6 0.0000 0.0000 0.0000 -39.2861 0.0000 53.1784
#
#
#
# Elastic Compliance Matrix: (Units=1/GPa)
#
#
# Indices 1 2 3 4 5 6 
#
# 1 0.026679 -0.000084 -0.001880 0.000000 -0.010215 0.000000
# 2 -0.000084 0.006819 -0.003914 0.000000 -0.001334 0.000000
# 3 -0.001880 -0.003914 0.011590 0.000000 0.000187 0.000000
# 4 0.000000 0.000000 0.000000 0.021784 0.000000 0.016093
# 5 -0.010215 -0.001334 0.000187 0.000000 0.044799 0.000000
# 6 0.000000 0.000000 0.000000 0.016093 0.000000 0.030693
#
#
# Mechanical properties :
#
#
# Convention : Reuss Voigt Hill
#
# Bulk Modulus (GPa) = 30.00095 55.16125 42.58110
# Shear Modulus (GPa) = 30.26053 47.57803 38.91928
#
# Velocity S-wave (km/s) = 3.72971 4.67670 4.22979
# Velocity P-wave (km/s) = 5.68674 7.38374 6.59009
#
# Compressibility (1/GPa) = 0.03333228
#
# Stress axis : x y z
#
# Youngs Moduli (GPa) = 37.48243 146.64561 86.28023
#
# Poissons Ratio (x) = 0.01237 0.16217
# Poissons Ratio (y) = 0.00316 0.33771
# Poissons Ratio (z) = 0.07045 0.57399
#
# Static dielectric constant tensor:
#      x y z
#    x 1.823660 0.000000 -0.042530 
#    y 0.000000 1.870690 0.000000 
#    z -0.042530 0.000000 1.809810 
# 
# From -- ./inp_files/22823.got.cif
#   From: 2010.05.17/outbox.cif.g08.bks.cpg/sg12_12_cif.got.tgz:22823.got - 2010.06.03 13:09:07.
