data_PCOD9202190
_publ_section_title
;
Structure prediction by ZEFSAII (Michael W. Deem and Ramdas Pophale) SiO2 
 PCOD9202190
Probable space group: C 2/M
;
_chemical_formula_sum "Si O2"
_cell_formula_units_Z 56
_cell_length_a 9.453086
_cell_length_b 17.516506
_cell_length_c 15.631794
_cell_angle_alpha 90.000000
_cell_angle_beta 76.348393
_cell_angle_gamma 90.000000
_cell_volume 2515.266069
_symmetry_space_group_name_H-M "C 2/M"
_symmetry_group_IT_number 12
_symmetry_cell_setting 'monoclinic'
loop_
_space_group_symop_operation_xyz
x,y,z
-x,y,-z
-x,-y,-z
x,-y,z
1/2+x,1/2+y,z
1/2-x,1/2+y,-z
1/2-x,1/2-y,-z
1/2+x,1/2-y,z
loop_
_atom_site_type_symbol
_atom_site_label
_atom_site_fract_x
_atom_site_fract_y
_atom_site_fract_z
Si Si1 0.551697 0.773594 0.364359
Si Si2 0.832189 0.148343 0.407061
Si Si3 0.120030 0.846345 0.054775
Si Si4 0.660648 0.789831 0.169829
Si Si5 0.884546 0.417379 0.437818
Si Si6 0.097569 0.415378 0.069407
Si Si7 0.390958 0.411882 0.212113
O O1 0.694410 0.799564 0.395399
O O2 0.460186 0.704675 0.414469
O O3 0.594893 0.751143 0.262440
O O4 0.445508 0.847345 0.374710
O O5 0.767990 0.099993 0.494349
O O6 0.881390 0.101337 0.315845
O O7 0.189476 0.774115 0.094602
O O8 0.040289 0.895851 0.139799
O O9 0.241476 0.893914 0.987116
O O10 0.000000 0.823389 0.000000
O O11 0.551342 0.849703 0.141239
O O12 0.786065 0.846011 0.187628
O O13 0.884723 0.500000 0.394513
O O14 0.000000 0.421098 0.500000
O O15 0.092702 0.500000 0.107357
O O16 0.000000 0.413482 0.000000
O O17 0.347690 0.500000 0.202166
#
# Coordination Sequence:
#
# PCOD9202190 Si02
#       7
#     8   8   8   8   8   8   8
#     4  10  21  35  60  87 118 154 198 247 299 354
#     4  10  20  38  59  90 122 155 196 247 295 361
#     4  12  24  40  64  86 120 158 207 254 303 364
#     4  11  23  38  59  88 120 153 200 255 301 359
#     4   9  18  34  59  89 119 154 198 245 297 351
#     4  11  25  40  58  84 120 160 202 253 311 359
#     4  11  23  39  64  92 120 159 205 252 300 357
#
# _framework density 22.264044999999999
#
# number of rings (size 3 to 8) (size 9 to 14) (size 15 to 20)
#    0.000    1.429    2.857    2.571    2.000    4.571 
#    0.000    0.000    0.000    2.571    0.000    0.000 
#    0.000    0.000    0.000    0.000    0.000    0.000 
#
# Total GULP energy -156386.367434 kJ/mol
# GULP energy per Si atom -5585.227408 kJ/mol
# Density = 2.221337 g / cm^3
# Si number density = 22.264045 Si / 1000 Ang^3
#
#
#
# Elastic Constant Matrix: (Units=GPa)
#
#
# Indices 1 2 3 4 5 6 
#
# 1 44.5587 14.9567 16.4176 0.0000 -5.2321 0.0000
# 2 14.9567 58.5530 -10.4488 0.0000 -1.7827 0.0000
# 3 16.4176 -10.4488 67.3399 0.0000 -7.4194 0.0000
# 4 0.0000 0.0000 0.0000 343.5355 0.0000 67.3212
# 5 -5.2321 -1.7827 -7.4194 0.0000 22.8369 0.0000
# 6 0.0000 0.0000 0.0000 67.3212 0.0000 26.4348
#
#
#
# Elastic Compliance Matrix: (Units=1/GPa)
#
#
# Indices 1 2 3 4 5 6 
#
# 1 0.028667 -0.008643 -0.007966 0.000000 0.003305 0.000000
# 2 -0.008643 0.020292 0.005406 0.000000 0.001360 0.000000
# 3 -0.007966 0.005406 0.018125 0.000000 0.004486 0.000000
# 4 0.000000 0.000000 0.000000 0.005811 0.000000 -0.014799
# 5 0.003305 0.001360 0.004486 0.000000 0.046109 0.000000
# 6 0.000000 0.000000 0.000000 -0.014799 0.000000 0.075517
#
#
# Mechanical properties :
#
#
# Convention : Reuss Voigt Hill
#
# Bulk Modulus (GPa) = 22.38288 23.58917 22.98603
# Shear Modulus (GPa) = 21.56836 88.52984 55.04910
#
# Velocity S-wave (km/s) = 3.11586 6.31268 4.97787
# Velocity P-wave (km/s) = 4.79791 7.98445 6.58678
#
# Compressibility (1/GPa) = 0.04467700
#
# Stress axis : x y z
#
# Youngs Moduli (GPa) = 34.88366 49.27931 55.17193
#
# Poissons Ratio (x) = 0.42595 0.43950
# Poissons Ratio (y) = 0.30152 -0.29825
# Poissons Ratio (z) = 0.27788 -0.26639
#
# Static dielectric constant tensor:
#      x y z
#    x 1.846410 0.000000 -0.002460 
#    y 0.000000 1.823830 0.000000 
#    z -0.002460 0.000000 1.808500 
# 
# From -- ./inp_files/257064.got.cif
#   From: 2010.05.17/outbox.cif.g08.bks.cpg/sg12_129_cif.got.tgz:257064.got - 2010.06.03 13:09:07.
