data_PCOD9202450
_publ_section_title
;
Structure prediction by ZEFSAII (Michael W. Deem and Ramdas Pophale) SiO2 
 PCOD9202450
Probable space group: C 2/M
;
_chemical_formula_sum "Si O2"
_cell_formula_units_Z 64
_cell_length_a 30.326483
_cell_length_b 7.719650
_cell_length_c 16.272033
_cell_angle_alpha 90.000000
_cell_angle_beta 48.021349
_cell_angle_gamma 90.000000
_cell_volume 2831.917411
_symmetry_space_group_name_H-M "C 2/M"
_symmetry_group_IT_number 12
_symmetry_cell_setting 'monoclinic'
loop_
_space_group_symop_operation_xyz
x,y,z
-x,y,-z
-x,-y,-z
x,-y,z
1/2+x,1/2+y,z
1/2-x,1/2+y,-z
1/2-x,1/2-y,-z
1/2+x,1/2-y,z
loop_
_atom_site_type_symbol
_atom_site_label
_atom_site_fract_x
_atom_site_fract_y
_atom_site_fract_z
Si Si1 0.501356 0.198958 0.270652
Si Si2 0.675530 0.710260 0.296626
Si Si3 0.280262 0.206801 0.048517
Si Si4 0.718092 0.203692 0.417219
Si Si5 0.599241 0.299441 0.026929
Si Si6 0.847070 0.794600 0.209363
Si Si7 0.381349 0.789399 0.342077
Si Si8 0.052445 0.203110 0.378624
O O1 0.437380 0.272216 0.325394
O O2 0.533906 0.283680 0.307241
O O3 0.492569 0.000000 0.305504
O O4 0.544150 0.208835 0.138645
O O5 0.676878 0.500000 0.295520
O O6 0.735031 0.767822 0.175678
O O7 0.677558 0.774854 0.387048
O O8 0.617246 0.772894 0.320953
O O9 0.344317 0.288411 0.982706
O O10 0.287223 0.000000 0.045759
O O11 0.250000 0.250000 0.000000
O O12 0.782074 0.280197 0.313221
O O13 0.680352 0.274267 0.540621
O O14 0.727172 0.000000 0.422020
O O15 0.582500 0.500000 0.036259
O O16 0.622636 0.225045 0.911013
O O17 0.885410 0.768073 0.243086
O O18 0.839084 0.000000 0.203936
O O19 0.381527 0.000000 0.343500
O O20 0.000000 0.279568 0.500000
O O21 0.056327 0.000000 0.394817
#
# Coordination Sequence:
#
# PCOD9202450 Si02
#       8
#     8   8   8   8   8   8   8   8
#     4  11  24  41  60  88 121 160 206 249 303 364
#     4  10  21  35  55  86 118 152 194 238 291 352
#     4  11  22  36  57  86 119 157 200 244 295 355
#     4  10  20  38  61  89 122 155 195 245 300 360
#     4  11  23  41  62  86 119 158 202 254 303 357
#     4  10  22  39  62  90 118 153 201 250 304 362
#     4  10  23  40  61  88 120 156 198 249 303 363
#     4  10  21  38  60  88 123 162 203 247 295 352
#
# _framework density 22.599529
#
# number of rings (size 3 to 8) (size 9 to 14) (size 15 to 20)
#    0.000    1.625    1.250    3.000    0.000    5.750 
#    0.000    2.500    0.000    0.000    0.000    0.000 
#    0.000    0.000    0.000    0.000    0.000    0.000 
#
# Total GULP energy -178910.345620 kJ/mol
# GULP energy per Si atom -5590.948301 kJ/mol
# Density = 2.254809 g / cm^3
# Si number density = 22.599529 Si / 1000 Ang^3
#
#
#
# Elastic Constant Matrix: (Units=GPa)
#
#
# Indices 1 2 3 4 5 6 
#
# 1 63.1486 -14.0922 1.3079 0.0000 1.2226 -0.0003
# 2 -14.0922 38.7431 -5.1438 -0.0001 -8.5680 -0.0005
# 3 1.3079 -5.1438 97.2355 -0.0001 3.2465 0.0000
# 4 0.0000 -0.0001 -0.0001 6.1159 0.0000 5.3604
# 5 1.2226 -8.5680 3.2465 0.0000 40.6839 0.0000
# 6 -0.0003 -0.0005 0.0000 5.3604 0.0000 20.7471
#
#
#
# Elastic Compliance Matrix: (Units=1/GPa)
#
#
# Indices 1 2 3 4 5 6 
#
# 1 0.017263 0.006475 0.000082 0.000000 0.000838 0.000000
# 2 0.006475 0.029652 0.001283 0.000000 0.005948 0.000001
# 3 0.000082 0.001283 0.010370 0.000000 -0.000560 0.000000
# 4 0.000000 0.000000 0.000000 0.211372 0.000000 -0.054611
# 5 0.000838 0.005948 -0.000560 0.000000 0.025852 0.000000
# 6 0.000000 0.000001 0.000000 -0.054611 0.000000 0.062309
#
#
# Mechanical properties :
#
#
# Convention : Reuss Voigt Hill
#
# Bulk Modulus (GPa) = 13.70504 18.14123 15.92313
# Shear Modulus (GPa) = 13.68145 27.97975 20.83060
#
# Velocity S-wave (km/s) = 2.46313 3.52244 3.03929
# Velocity P-wave (km/s) = 3.76388 4.95864 4.40198
#
# Compressibility (1/GPa) = 0.07296586
#
# Stress axis : x y z
#
# Youngs Moduli (GPa) = 57.92820 33.72452 96.43422
#
# Poissons Ratio (x) = -0.21838 -0.00794
# Poissons Ratio (y) = -0.37511 -0.12372
# Poissons Ratio (z) = -0.00477 -0.04327
#
# Static dielectric constant tensor:
#      x y z
#    x 1.822740 0.000000 -0.018140 
#    y 0.000000 1.848280 0.000000 
#    z -0.018140 0.000000 1.847290 
# 
# From -- ./inp_files/249880.got.cif
#   From: 2010.05.17/outbox.cif.g08.bks.cpg/sg12_125_cif.got.tgz:249880.got - 2010.06.03 13:09:07.
