data_PCOD9202046
_publ_section_title
;
Structure prediction by ZEFSAII (Michael W. Deem and Ramdas Pophale) SiO2 
 PCOD9202046
Probable space group: C 2/M
;
_chemical_formula_sum "Si O2"
_cell_formula_units_Z 34
_cell_length_a 5.404006
_cell_length_b 24.874870
_cell_length_c 10.817929
_cell_angle_alpha 90.000000
_cell_angle_beta 77.685444
_cell_angle_gamma 90.000000
_cell_volume 1420.729898
_symmetry_space_group_name_H-M "C 2/M"
_symmetry_group_IT_number 12
_symmetry_cell_setting 'monoclinic'
loop_
_space_group_symop_operation_xyz
x,y,z
-x,y,-z
-x,-y,-z
x,-y,z
1/2+x,1/2+y,z
1/2-x,1/2+y,-z
1/2-x,1/2-y,-z
1/2+x,1/2-y,z
loop_
_atom_site_type_symbol
_atom_site_label
_atom_site_fract_x
_atom_site_fract_y
_atom_site_fract_z
Si Si1 0.532927 0.612656 0.642431
Si Si2 0.255235 0.095987 0.104421
Si Si3 0.000000 0.000000 0.000000
Si Si4 0.220115 0.000000 0.580856
Si Si5 0.000000 0.194616 0.000000
Si Si6 0.258770 0.722171 0.274177
O O1 0.500000 0.621201 0.500000
O O2 0.267974 0.605444 0.746266
O O3 0.682244 0.557331 0.647942
O O4 0.683450 0.662358 0.685198
O O5 0.065729 0.047851 0.092803
O O6 0.178477 0.153211 0.055589
O O7 0.500000 0.078774 0.000000
O O8 0.500000 0.000000 0.500000
O O9 0.000000 0.000000 0.500000
O O10 0.833102 0.224508 0.120284
O O11 0.470047 0.759252 0.318396
#
# Coordination Sequence:
#
# PCOD9202046 Si02
#       6
#     8   8   2   4   4   8
#     4  10  24  47  70 107 142 190 248 299 365 439
#     4  10  21  40  68  98 140 189 238 303 366 426
#     4  10  20  38  58 104 140 174 242 292 370 420
#     4  10  23  47  71 101 135 188 233 287 350 425
#     4   9  22  39  64 100 138 181 250 285 370 422
#     4  11  25  42  71 104 144 192 241 300 364 430
#
# _framework density 23.931359
#
# number of rings (size 3 to 8) (size 9 to 14) (size 15 to 20)
#    0.000    1.882    0.000    1.765    6.588    4.706 
#   25.412    0.000    0.000    0.000    0.000    0.000 
#    0.000    0.000    0.000    0.000    0.000    0.000 
#
# Total GULP energy -94693.609609 kJ/mol
# GULP energy per Si atom -5570.212330 kJ/mol
# Density = 2.387689 g / cm^3
# Si number density = 23.931359 Si / 1000 Ang^3
#
#
#
# Elastic Constant Matrix: (Units=GPa)
#
#
# Indices 1 2 3 4 5 6 
#
# 1 70.9800 20.0383 53.9104 0.0000 -5.9714 0.0000
# 2 20.0383 144.1090 25.5358 0.0000 4.4471 0.0000
# 3 53.9104 25.5358 159.2064 0.0000 -16.7840 0.0000
# 4 0.0000 0.0000 0.0000 49.0578 0.0000 10.1850
# 5 -5.9714 4.4471 -16.7840 0.0000 18.0042 0.0000
# 6 0.0000 0.0000 0.0000 10.1850 0.0000 23.5176
#
#
#
# Elastic Compliance Matrix: (Units=1/GPa)
#
#
# Indices 1 2 3 4 5 6 
#
# 1 0.019323 -0.001626 -0.006171 0.000000 0.001058 0.000000
# 2 -0.001626 0.007443 -0.000991 0.000000 -0.003302 0.000000
# 3 -0.006171 -0.000991 0.009249 0.000000 0.006820 0.000000
# 4 0.000000 0.000000 0.000000 0.022398 0.000000 -0.009700
# 5 0.001058 -0.003302 0.006820 0.000000 0.063067 0.000000
# 6 0.000000 0.000000 0.000000 -0.009700 0.000000 0.046722
#
#
# Mechanical properties :
#
#
# Convention : Reuss Voigt Hill
#
# Bulk Modulus (GPa) = 54.23446 63.69603 58.96525
# Shear Modulus (GPa) = 26.05182 36.43663 31.24423
#
# Velocity S-wave (km/s) = 3.30298 3.90622 3.61720
# Velocity P-wave (km/s) = 6.10393 6.85701 6.49140
#
# Compressibility (1/GPa) = 0.01843846
#
# Stress axis : x y z
#
# Youngs Moduli (GPa) = 51.75048 134.35740 108.12260
#
# Poissons Ratio (x) = 0.21848 0.66722
# Poissons Ratio (y) = 0.08415 0.10718
# Poissons Ratio (z) = 0.31935 0.13318
#
# Static dielectric constant tensor:
#      x y z
#    x 1.976260 0.000000 -0.014540 
#    y 0.000000 1.892510 0.000000 
#    z -0.014540 0.000000 2.056220 
# 
# From -- ./inp_files/115028.got.cif
#   From: 2010.05.17/outbox.cif.g08.bks.cpg/sg12_58_cif.got.tgz:115028.got - 2010.06.03 13:09:07.
