data_PCOD9202396
_publ_section_title
;
Structure prediction by ZEFSAII (Michael W. Deem and Ramdas Pophale) SiO2 
 PCOD9202396
Probable space group: C 2/M
;
_chemical_formula_sum "Si O2"
_cell_formula_units_Z 64
_cell_length_a 30.796374
_cell_length_b 7.766534
_cell_length_c 13.538289
_cell_angle_alpha 90.000000
_cell_angle_beta 60.551843
_cell_angle_gamma 90.000000
_cell_volume 2819.742712
_symmetry_space_group_name_H-M "C 2/M"
_symmetry_group_IT_number 12
_symmetry_cell_setting 'monoclinic'
loop_
_space_group_symop_operation_xyz
x,y,z
-x,y,-z
-x,-y,-z
x,-y,z
1/2+x,1/2+y,z
1/2-x,1/2+y,-z
1/2-x,1/2-y,-z
1/2+x,1/2-y,z
loop_
_atom_site_type_symbol
_atom_site_label
_atom_site_fract_x
_atom_site_fract_y
_atom_site_fract_z
Si Si1 0.423835 0.196524 0.432296
Si Si2 0.345387 0.210617 0.080521
Si Si3 0.193033 0.704825 0.085487
Si Si4 0.044054 0.709478 0.022423
Si Si5 0.617046 0.308190 0.322364
Si Si6 0.532547 0.208928 0.265417
Si Si7 0.732579 0.207917 0.672814
Si Si8 0.674239 0.794064 0.543974
O O1 0.400760 0.192826 0.567285
O O2 0.479240 0.269225 0.367345
O O3 0.380744 0.277328 0.413066
O O4 0.430685 0.000000 0.389073
O O5 0.297938 0.267379 0.197802
O O6 0.345202 0.000000 0.080950
O O7 0.338098 0.265576 0.975586
O O8 0.399002 0.264657 0.063446
O O9 0.187701 0.500000 0.097038
O O10 0.170139 0.776863 0.211719
O O11 0.250000 0.750000 0.000000
O O12 0.043801 0.500000 0.016426
O O13 0.034524 0.753083 0.147558
O O14 0.000000 0.771904 0.000000
O O15 0.615468 0.500000 0.364592
O O16 0.577040 0.285085 0.279725
O O17 0.537661 0.000000 0.267929
O O18 0.701592 0.271071 0.611435
O O19 0.789139 0.261876 0.589420
O O20 0.732293 0.000000 0.673623
O O21 0.670050 0.000000 0.559497
#
# Coordination Sequence:
#
# PCOD9202396 Si02
#       8
#     8   8   8   8   8   8   8   8
#     4  10  22  37  58  85 113 148 192 244 295 345
#     4   9  18  33  56  86 117 147 184 234 285 338
#     4  11  23  41  62  89 122 157 197 241 292 347
#     4   9  17  30  56  91 119 147 187 234 286 347
#     4  12  25  41  60  83 113 153 197 242 294 349
#     4  10  20  38  61  86 116 150 189 239 294 349
#     4   9  18  33  55  80 113 150 184 225 278 340
#     4   9  19  35  53  81 115 147 185 231 282 338
#
# _framework density 22.697105000000001
#
# number of rings (size 3 to 8) (size 9 to 14) (size 15 to 20)
#    0.000    2.125    1.250    1.875    3.500    2.500 
#    0.000    0.625    0.000    0.375    0.000    0.000 
#    0.000    0.000    0.000    0.000    0.000    0.000 
#
# Total GULP energy -178761.591609 kJ/mol
# GULP energy per Si atom -5586.299738 kJ/mol
# Density = 2.264545 g / cm^3
# Si number density = 22.697105 Si / 1000 Ang^3
#
#
#
# Elastic Constant Matrix: (Units=GPa)
#
#
# Indices 1 2 3 4 5 6 
#
# 1 59.1396 -6.6524 -15.4753 0.0000 -17.2141 0.0000
# 2 -6.6524 40.5807 -6.6782 0.0000 -1.1192 0.0000
# 3 -15.4753 -6.6782 68.3208 0.0000 -20.1776 0.0000
# 4 0.0000 0.0000 0.0000 10.5629 0.0000 -9.7177
# 5 -17.2141 -1.1192 -20.1776 0.0000 36.7413 0.0000
# 6 0.0000 0.0000 0.0000 -9.7177 0.0000 8.4319
#
#
#
# Elastic Compliance Matrix: (Units=1/GPa)
#
#
# Indices 1 2 3 4 5 6 
#
# 1 0.026658 0.006966 0.012498 0.000000 0.019566 0.000000
# 2 0.006966 0.027062 0.006482 0.000000 0.007648 0.000000
# 3 0.012498 0.006482 0.023739 0.000000 0.019090 0.000000
# 4 0.000000 0.000000 0.000000 -1.570361 0.000000 -1.809835
# 5 0.019566 0.007648 0.019090 0.000000 0.047101 0.000000
# 6 0.000000 0.000000 0.000000 -1.809835 0.000000 -1.967232
#
#
# Mechanical properties :
#
#
# Convention : Reuss Voigt Hill
#
# Bulk Modulus (GPa) = 7.73086 12.26991 10.00039
# Shear Modulus (GPa) = -1.46122 24.27036 11.40457
#
# Velocity S-wave (km/s) = -0.80324 3.27359 2.24401
# Velocity P-wave (km/s) = 1.59789 4.43916 3.33612
#
# Compressibility (1/GPa) = 0.12935169
#
# Stress axis : x y z
#
# Youngs Moduli (GPa) = 37.51187 36.95233 42.12427
#
# Poissons Ratio (x) = -0.25743 -0.52646
# Poissons Ratio (y) = -0.26132 -0.27305
# Poissons Ratio (z) = -0.46881 -0.23952
#
# Static dielectric constant tensor:
#      x y z
#    x 1.849250 0.000000 -0.007770 
#    y 0.000000 1.847390 0.000000 
#    z -0.007770 0.000000 1.810950 
# 
# From -- ./inp_files/249711.got.cif
#   From: 2010.05.17/outbox.cif.g08.bks.cpg/sg12_125_cif.got.tgz:249711.got - 2010.06.03 13:09:07.
