data_PCOD9202623
_publ_section_title
;
Structure prediction by ZEFSAII (Michael W. Deem and Ramdas Pophale) SiO2 
 PCOD9202623
Probable space group: C 2/M
;
_chemical_formula_sum "Si O2"
_cell_formula_units_Z 52
_cell_length_a 11.144800
_cell_length_b 15.643480
_cell_length_c 18.141112
_cell_angle_alpha 90.000000
_cell_angle_beta 128.157630
_cell_angle_gamma 90.000000
_cell_volume 2486.941429
_symmetry_space_group_name_H-M "C 2/M"
_symmetry_group_IT_number 12
_symmetry_cell_setting 'monoclinic'
loop_
_space_group_symop_operation_xyz
x,y,z
-x,y,-z
-x,-y,-z
x,-y,z
1/2+x,1/2+y,z
1/2-x,1/2+y,-z
1/2-x,1/2-y,-z
1/2+x,1/2-y,z
loop_
_atom_site_type_symbol
_atom_site_label
_atom_site_fract_x
_atom_site_fract_y
_atom_site_fract_z
Si Si1 0.934178 0.500000 0.839104
Si Si2 0.284287 0.398717 0.862518
Si Si3 0.229147 0.233524 0.622014
Si Si4 0.284785 0.500000 0.119830
Si Si5 0.094677 0.000000 0.678618
Si Si6 0.523498 0.820217 0.819227
Si Si7 0.930066 0.825473 0.577140
Si Si8 0.597316 0.349943 0.929870
O O1 0.873295 0.500000 0.898187
O O2 0.776714 0.500000 0.731335
O O3 0.018992 0.412159 0.856542
O O4 0.254272 0.500000 0.853069
O O5 0.422644 0.382423 0.860241
O O6 0.137369 0.339744 0.794503
O O7 0.346242 0.365563 0.965526
O O8 0.355707 0.201580 0.727314
O O9 0.178489 0.171217 0.535773
O O10 0.325128 0.302908 0.608712
O O11 0.067643 0.241438 0.605932
O O12 0.406632 0.500000 0.232736
O O13 0.305747 0.414138 0.082434
O O14 0.015079 0.914604 0.621116
O O15 0.589171 0.745767 0.896010
#
# Coordination Sequence:
#
# PCOD9202623 Si02
#       8
#     4   8   8   4   4   8   8   8
#     4  10  24  39  56  95 126 150 206 260 293 358
#     4  11  23  44  62  86 125 160 203 263 304 371
#     4  10  22  38  63  93 124 163 209 251 309 363
#     4  10  20  39  65  87 120 156 206 255 296 373
#     4  10  20  38  62  90 123 163 205 241 313 373
#     4  12  24  40  63  91 124 161 207 256 306 367
#     4  10  21  40  63  90 128 163 202 260 302 369
#     4  11  23  41  65  87 119 163 209 247 318 371
#
# _framework density 20.909217999999999
#
# number of rings (size 3 to 8) (size 9 to 14) (size 15 to 20)
#    0.462    0.923    3.846    1.846    4.308    1.846 
#    0.000    0.769    0.000    8.308    0.000    0.000 
#    0.000    0.000    0.000    0.000    0.000    0.000 
#
# Total GULP energy -144861.722400 kJ/mol
# GULP energy per Si atom -5571.604708 kJ/mol
# Density = 2.086163 g / cm^3
# Si number density = 20.909218 Si / 1000 Ang^3
#
#
#
# Elastic Constant Matrix: (Units=GPa)
#
#
# Indices 1 2 3 4 5 6 
#
# 1 61.3807 11.1228 2.2201 0.0000 -3.9262 0.0000
# 2 11.1228 117.1211 24.0392 0.0000 -9.8240 0.0000
# 3 2.2201 24.0392 69.0086 0.0000 12.9413 0.0000
# 4 0.0000 0.0000 0.0000 -95.2056 0.0000 -148.9656
# 5 -3.9262 -9.8240 12.9413 0.0000 28.7737 0.0000
# 6 0.0000 0.0000 0.0000 -148.9656 0.0000 -220.5283
#
#
#
# Elastic Compliance Matrix: (Units=1/GPa)
#
#
# Indices 1 2 3 4 5 6 
#
# 1 0.016677 -0.001320 -0.000458 0.000000 0.002031 0.000000
# 2 -0.001320 0.010010 -0.004425 0.000000 0.005228 0.000000
# 3 -0.000458 -0.004425 0.017848 0.000000 -0.009600 0.000000
# 4 0.000000 0.000000 0.000000 0.184508 0.000000 -0.124634
# 5 0.002031 0.005228 -0.009600 0.000000 0.041134 0.000000
# 6 0.000000 0.000000 0.000000 -0.124634 0.000000 0.079655
#
#
# Mechanical properties :
#
#
# Convention : Reuss Voigt Hill
#
# Bulk Modulus (GPa) = 31.12306 35.80829 33.46568
# Shear Modulus (GPa) = 13.40674 -43.38349 -14.98838
#
# Velocity S-wave (km/s) = 2.53492 -4.55999 -2.68027
# Velocity P-wave (km/s) = 4.84612 3.24991 2.54194
#
# Compressibility (1/GPa) = 0.03213051
#
# Stress axis : x y z
#
# Youngs Moduli (GPa) = 59.96160 99.89778 56.03022
#
# Poissons Ratio (x) = 0.13182 0.02565
# Poissons Ratio (y) = 0.07912 0.24793
# Poissons Ratio (z) = 0.02745 0.44205
#
# Static dielectric constant tensor:
#      x y z
#    x 1.825390 0.000000 0.019660 
#    y 0.000000 1.688720 0.000000 
#    z 0.019660 0.000000 1.766290 
# 
# From -- ./inp_files/305543.got.cif
#   From: 2010.05.17/outbox.cif.g08.bks.cpg/sg12_153_cif.got.tgz:305543.got - 2010.06.03 13:09:07.
