data_PCOD9202825
_publ_section_title
;
Structure prediction by ZEFSAII (Michael W. Deem and Ramdas Pophale) SiO2 
 PCOD9202825
Probable space group: C 2/M
;
_chemical_formula_sum "Si O2"
_cell_formula_units_Z 52
_cell_length_a 18.474549
_cell_length_b 16.738376
_cell_length_c 12.757801
_cell_angle_alpha 90.000000
_cell_angle_beta 148.399705
_cell_angle_gamma 90.000000
_cell_volume 2067.217765
_symmetry_space_group_name_H-M "C 2/M"
_symmetry_group_IT_number 12
_symmetry_cell_setting 'monoclinic'
loop_
_space_group_symop_operation_xyz
x,y,z
-x,y,-z
-x,-y,-z
x,-y,z
1/2+x,1/2+y,z
1/2-x,1/2+y,-z
1/2-x,1/2-y,-z
1/2+x,1/2-y,z
loop_
_atom_site_type_symbol
_atom_site_label
_atom_site_fract_x
_atom_site_fract_y
_atom_site_fract_z
Si Si1 0.174870 0.000000 0.099474
Si Si2 0.320300 0.674185 0.198082
Si Si3 0.411545 0.609914 0.752889
Si Si4 0.895290 0.406998 0.573240
Si Si5 0.346477 0.854928 0.217141
Si Si6 0.867177 0.145746 0.477617
Si Si7 0.406431 0.792805 0.785717
O O1 0.285467 0.929572 0.202558
O O2 0.049938 0.932900 0.954376
O O3 0.300493 0.767615 0.201665
O O4 0.315425 0.622063 0.297991
O O5 0.476456 0.672402 0.347495
O O6 0.220819 0.645253 0.983812
O O7 0.271876 0.591150 0.645013
O O8 0.376040 0.588055 0.588183
O O9 0.441336 0.704057 0.793031
O O10 0.937633 0.500000 0.632547
O O11 0.919481 0.357011 0.709620
O O12 0.989923 0.364624 0.602961
O O13 0.753546 0.208912 0.376263
O O14 0.500000 0.814823 0.000000
#
# Coordination Sequence:
#
# PCOD9202825 Si02
#       7
#     4   8   8   8   8   8   8
#     4  12  24  38  66  91 128 167 205 264 308 365
#     4  10  21  37  66  90 128 158 211 255 307 369
#     4  11  23  44  64  89 125 168 210 253 313 368
#     4  11  22  40  65  95 128 162 202 257 319 370
#     4  11  22  39  62  94 125 166 205 253 309 367
#     4  10  20  38  63  96 114 162 209 258 305 368
#     4  11  24  40  67  91 123 165 215 254 307 377
#
# _framework density 25.154582999999999
#
# number of rings (size 3 to 8) (size 9 to 14) (size 15 to 20)
#    0.000    1.231    3.077    4.615    4.308    0.308 
#    0.000    1.923    0.000    1.846    0.000    0.000 
#    0.000    0.000    0.000    0.000    0.000    0.000 
#
# Total GULP energy -145100.236913 kJ/mol
# GULP energy per Si atom -5580.778343 kJ/mol
# Density = 2.509733 g / cm^3
# Si number density = 25.154583 Si / 1000 Ang^3
#
#
#
# Elastic Constant Matrix: (Units=GPa)
#
#
# Indices 1 2 3 4 5 6 
#
# 1 147.0453 18.0415 46.9182 0.0000 1.6249 0.0000
# 2 18.0415 93.3627 12.6524 0.0000 -7.0344 0.0000
# 3 46.9182 12.6524 140.4765 0.0000 4.6885 0.0000
# 4 0.0000 0.0000 0.0000 369.6291 0.0000 -190.4968
# 5 1.6249 -7.0344 4.6885 0.0000 51.2424 0.0000
# 6 0.0000 0.0000 0.0000 -190.4968 0.0000 145.2935
#
#
#
# Elastic Compliance Matrix: (Units=1/GPa)
#
#
# Indices 1 2 3 4 5 6 
#
# 1 0.007735 -0.001173 -0.002472 0.000000 -0.000180 0.000000
# 2 -0.001173 0.011151 -0.000667 0.000000 0.001629 0.000000
# 3 -0.002472 -0.000667 0.008029 0.000000 -0.000748 0.000000
# 4 0.000000 0.000000 0.000000 0.008343 0.000000 0.010938
# 5 -0.000180 0.001629 -0.000748 0.000000 0.019813 0.000000
# 6 0.000000 0.000000 0.000000 0.010938 0.000000 0.021224
#
#
# Mechanical properties :
#
#
# Convention : Reuss Voigt Hill
#
# Bulk Modulus (GPa) = 54.67096 59.56766 57.11931
# Shear Modulus (GPa) = 54.93552 133.45116 94.19334
#
# Velocity S-wave (km/s) = 4.67831 7.29161 6.12594
# Velocity P-wave (km/s) = 7.13886 9.72739 8.53187
#
# Compressibility (1/GPa) = 0.01829125
#
# Stress axis : x y z
#
# Youngs Moduli (GPa) = 129.27779 89.68006 124.54505
#
# Poissons Ratio (x) = 0.10523 0.30785
# Poissons Ratio (y) = 0.15169 0.08305
# Poissons Ratio (z) = 0.31955 0.05980
#
# Static dielectric constant tensor:
#      x y z
#    x 2.041020 0.000000 -0.089660 
#    y 0.000000 1.960520 0.000000 
#    z -0.089660 0.000000 2.024410 
# 
# From -- ./inp_files/234498.got.cif
#   From: 2010.05.17/outbox.cif.g08.bks.cpg/sg12_118_cif.got.tgz:234498.got - 2010.06.03 13:09:07.
