data_PCOD9202296
_publ_section_title
;
Structure prediction by ZEFSAII (Michael W. Deem and Ramdas Pophale) SiO2 
 PCOD9202296
Probable space group: C 2/M
;
_chemical_formula_sum "Si O2"
_cell_formula_units_Z 44
_cell_length_a 28.442072
_cell_length_b 17.611180
_cell_length_c 8.549763
_cell_angle_alpha 90.000000
_cell_angle_beta 29.108883
_cell_angle_gamma 90.000000
_cell_volume 2083.342044
_symmetry_space_group_name_H-M "C 2/M"
_symmetry_group_IT_number 12
_symmetry_cell_setting 'monoclinic'
loop_
_space_group_symop_operation_xyz
x,y,z
-x,y,-z
-x,-y,-z
x,-y,z
1/2+x,1/2+y,z
1/2-x,1/2+y,-z
1/2-x,1/2-y,-z
1/2+x,1/2-y,z
loop_
_atom_site_type_symbol
_atom_site_label
_atom_site_fract_x
_atom_site_fract_y
_atom_site_fract_z
Si Si1 0.808635 0.000000 0.627286
Si Si2 0.484585 0.911152 0.858719
Si Si3 0.901011 0.715884 0.884161
Si Si4 0.193443 0.635091 0.116327
Si Si5 0.331219 0.630369 0.990913
Si Si6 0.452627 0.500000 0.455955
Si Si7 0.314621 0.500000 0.245385
O O1 0.915962 0.000000 0.384769
O O2 0.796142 0.000000 0.480370
O O3 0.755933 0.930433 0.859503
O O4 0.416588 0.845209 0.978556
O O5 0.590116 0.896362 0.475154
O O6 0.455585 0.000000 0.911761
O O7 0.500000 0.902016 0.000000
O O8 0.824348 0.688488 0.979386
O O9 0.877286 0.805299 0.968878
O O10 0.000000 0.714800 0.500000
O O11 0.256071 0.662364 0.081979
O O12 0.406639 0.575437 0.674704
O O13 0.276131 0.572557 0.265057
O O14 0.568050 0.500000 0.116336
#
# Coordination Sequence:
#
# PCOD9202296 Si02
#       7
#     4   8   8   8   8   4   4
#     4  10  21  36  56  87 114 153 200 244 296 348
#     4  10  22  40  63  90 119 158 201 247 298 356
#     4  10  21  37  62  89 119 158 196 242 298 358
#     4  10  21  38  60  85 120 154 198 245 296 356
#     4  10  20  38  60  89 119 157 194 246 301 350
#     4   9  19  37  61  81 115 157 200 239 289 356
#     4  11  21  35  59  86 116 158 197 245 296 352
#
# _framework density 21.119911999999999
#
# number of rings (size 3 to 8) (size 9 to 14) (size 15 to 20)
#    0.000    2.000    0.909    3.545    1.273    2.545 
#    0.000   12.727    0.000    0.000    0.000    0.000 
#    0.000    0.000    0.000    0.000    0.000    0.000 
#
# Total GULP energy -122559.274586 kJ/mol
# GULP energy per Si atom -5570.876118 kJ/mol
# Density = 2.107184 g / cm^3
# Si number density = 21.119912 Si / 1000 Ang^3
#
#
#
# Elastic Constant Matrix: (Units=GPa)
#
#
# Indices 1 2 3 4 5 6 
#
# 1 134.8576 60.6124 22.2594 0.0000 10.2932 0.0000
# 2 60.6124 145.0418 10.2403 0.0000 3.1805 0.0000
# 3 22.2594 10.2403 31.3068 0.0000 6.5322 0.0000
# 4 0.0000 0.0000 0.0000 2.5447 0.0000 -1.5601
# 5 10.2932 3.1805 6.5322 0.0000 35.6547 0.0000
# 6 0.0000 0.0000 0.0000 -1.5601 0.0000 32.9914
#
#
#
# Elastic Compliance Matrix: (Units=1/GPa)
#
#
# Indices 1 2 3 4 5 6 
#
# 1 0.010188 -0.003823 -0.005667 0.000000 -0.001562 0.000000
# 2 -0.003823 0.008494 -0.000137 0.000000 0.000371 0.000000
# 3 -0.005667 -0.000137 0.037090 0.000000 -0.005147 0.000000
# 4 0.000000 0.000000 0.000000 0.404712 0.000000 0.019139
# 5 -0.001562 0.000371 -0.005147 0.000000 0.029407 0.000000
# 6 0.000000 0.000000 0.000000 0.019139 0.000000 0.031216
#
#
# Mechanical properties :
#
#
# Convention : Reuss Voigt Hill
#
# Bulk Modulus (GPa) = 27.38505 55.27006 41.32756
# Shear Modulus (GPa) = 9.04918 28.77775 18.91347
#
# Velocity S-wave (km/s) = 2.07219 3.69533 2.99578
# Velocity P-wave (km/s) = 4.32665 6.66586 5.61933
#
# Compressibility (1/GPa) = 0.03651627
#
# Stress axis : x y z
#
# Youngs Moduli (GPa) = 98.15188 117.73221 26.96113
#
# Poissons Ratio (x) = 0.45012 0.15280
# Poissons Ratio (y) = 0.37526 0.00370
# Poissons Ratio (z) = 0.55627 0.01618
#
# Static dielectric constant tensor:
#      x y z
#    x 1.826230 0.000000 -0.049950 
#    y 0.000000 1.506640 0.000000 
#    z -0.049950 0.000000 1.758260 
# 
# From -- ./inp_files/112566.got.cif
#   From: 2010.05.17/outbox.cif.g08.bks.cpg/sg12_57_cif.got.tgz:112566.got - 2010.06.03 13:09:07.
