data_PCOD9202006
_publ_section_title
;
Structure prediction by ZEFSAII (Michael W. Deem and Ramdas Pophale) SiO2 
 PCOD9202006
Probable space group: C 2/M
;
_chemical_formula_sum "Si O2"
_cell_formula_units_Z 48
_cell_length_a 16.858350
_cell_length_b 26.619442
_cell_length_c 6.981937
_cell_angle_alpha 90.000000
_cell_angle_beta 130.680242
_cell_angle_gamma 90.000000
_cell_volume 2376.100892
_symmetry_space_group_name_H-M "C 2/M"
_symmetry_group_IT_number 12
_symmetry_cell_setting 'monoclinic'
loop_
_space_group_symop_operation_xyz
x,y,z
-x,y,-z
-x,-y,-z
x,-y,z
1/2+x,1/2+y,z
1/2-x,1/2+y,-z
1/2-x,1/2-y,-z
1/2+x,1/2-y,z
loop_
_atom_site_type_symbol
_atom_site_label
_atom_site_fract_x
_atom_site_fract_y
_atom_site_fract_z
Si Si1 0.243311 0.093276 0.488266
Si Si2 0.423648 0.555808 0.036606
Si Si3 0.206775 0.264383 0.725753
Si Si4 0.384340 0.123832 0.398853
Si Si5 0.616785 0.301658 0.270718
Si Si6 0.275911 0.439619 0.107351
O O1 0.183800 0.055637 0.251779
O O2 0.355658 0.103967 0.567781
O O3 0.176594 0.144987 0.375420
O O4 0.236388 0.072749 0.690043
O O5 0.466780 0.500000 0.141399
O O6 0.500000 0.580078 0.000000
O O7 0.386711 0.576887 0.182623
O O8 0.150524 0.318153 0.653595
O O9 0.310580 0.269577 0.758673
O O10 0.129730 0.225265 0.497517
O O11 0.250000 0.250000 0.000000
O O12 0.500000 0.118860 0.500000
O O13 0.310902 0.092128 0.140725
O O14 0.500000 0.304155 0.000000
O O15 0.268254 0.500000 0.068262
#
# Coordination Sequence:
#
# PCOD9202006 Si02
#       6
#     8   8   8   8   8   8
#     4  10  20  38  56  84 122 157 200 254 302 366
#     4   9  18  33  55  84 118 155 194 242 298 360
#     4  10  22  40  61  89 122 157 207 255 310 375
#     4  10  23  40  59  86 116 159 204 261 313 364
#     4  10  22  38  59  91 122 160 204 253 308 372
#     4  10  21  38  61  87 119 161 205 253 309 368
#
# _framework density 20.201160999999999
#
# number of rings (size 3 to 8) (size 9 to 14) (size 15 to 20)
#    0.000    2.167    0.000    2.000    2.333    2.333 
#    0.000    5.000    0.000    0.000    0.000    0.000 
#    0.000    0.000    0.000    0.000    0.000    0.000 
#
# Total GULP energy -133695.510386 kJ/mol
# GULP energy per Si atom -5570.646266 kJ/mol
# Density = 2.015518 g / cm^3
# Si number density = 20.201161 Si / 1000 Ang^3
#
#
#
# Elastic Constant Matrix: (Units=GPa)
#
#
# Indices 1 2 3 4 5 6 
#
# 1 168.7373 22.9253 47.3364 0.0000 -8.3584 0.0000
# 2 22.9253 74.0240 30.8034 0.0000 -1.7731 0.0000
# 3 47.3364 30.8034 87.6043 0.0000 -19.7527 0.0000
# 4 0.0000 0.0000 0.0000 21.4528 0.0000 -23.3849
# 5 -8.3584 -1.7731 -19.7527 0.0000 41.8592 0.0000
# 6 0.0000 0.0000 0.0000 -23.3849 0.0000 -7.9647
#
#
#
# Elastic Compliance Matrix: (Units=1/GPa)
#
#
# Indices 1 2 3 4 5 6 
#
# 1 0.007020 -0.000670 -0.003635 0.000000 -0.000342 0.000000
# 2 -0.000670 0.016070 -0.005780 0.000000 -0.002181 0.000000
# 3 -0.003635 -0.005780 0.017002 0.000000 0.007052 0.000000
# 4 0.000000 0.000000 0.000000 0.011097 0.000000 -0.032582
# 5 -0.000342 -0.002181 0.007052 0.000000 0.027057 0.000000
# 6 0.000000 0.000000 0.000000 -0.032582 0.000000 -0.029890
#
#
# Mechanical properties :
#
#
# Convention : Reuss Voigt Hill
#
# Bulk Modulus (GPa) = 50.19650 59.16621 54.68135
# Shear Modulus (GPa) = 66.52015 26.35615 46.43815
#
# Velocity S-wave (km/s) = 5.74459 3.61596 4.79977
# Velocity P-wave (km/s) = 8.30077 6.84000 7.60554
#
# Compressibility (1/GPa) = 0.01992171
#
# Stress axis : x y z
#
# Youngs Moduli (GPa) = 142.44742 62.22921 58.81816
#
# Poissons Ratio (x) = 0.04168 0.21380
# Poissons Ratio (y) = 0.09541 0.33998
# Poissons Ratio (z) = 0.51778 0.35970
#
# Static dielectric constant tensor:
#      x y z
#    x 1.794450 0.000000 -0.013750 
#    y 0.000000 1.738570 0.000000 
#    z -0.013750 0.000000 1.705400 
# 
# From -- ./inp_files/13239.got.cif
#   From: 2010.05.17/outbox.cif.g08.bks.cpg/sg12_7_cif.got.tgz:13239.got - 2010.06.03 13:09:07.
