data_PCOD9202744
_publ_section_title
;
Structure prediction by ZEFSAII (Michael W. Deem and Ramdas Pophale) SiO2 
 PCOD9202744
Probable space group: C 2/M
;
_chemical_formula_sum "Si O2"
_cell_formula_units_Z 60
_cell_length_a 20.453697
_cell_length_b 9.507706
_cell_length_c 22.625283
_cell_angle_alpha 90.000000
_cell_angle_beta 45.305923
_cell_angle_gamma 90.000000
_cell_volume 3127.757708
_symmetry_space_group_name_H-M "C 2/M"
_symmetry_group_IT_number 12
_symmetry_cell_setting 'monoclinic'
loop_
_space_group_symop_operation_xyz
x,y,z
-x,y,-z
-x,-y,-z
x,-y,z
1/2+x,1/2+y,z
1/2-x,1/2+y,-z
1/2-x,1/2-y,-z
1/2+x,1/2-y,z
loop_
_atom_site_type_symbol
_atom_site_label
_atom_site_fract_x
_atom_site_fract_y
_atom_site_fract_z
Si Si1 0.233932 0.831740 0.726320
Si Si2 0.034568 0.168141 0.809551
Si Si3 0.761363 0.667843 0.155556
Si Si4 0.445098 0.833699 0.974249
Si Si5 0.749587 0.500000 0.524434
Si Si6 0.551477 0.669172 0.261129
Si Si7 0.379925 0.730782 0.436560
Si Si8 0.107001 0.160723 0.437285
O O1 0.143608 0.801826 0.744208
O O2 0.217907 0.758636 0.799571
O O3 0.324078 0.762847 0.640411
O O4 0.243689 0.000000 0.724922
O O5 0.988841 0.210383 0.776875
O O6 0.023971 0.000000 0.822717
O O7 0.985000 0.244918 0.895281
O O8 0.766147 0.500000 0.166609
O O9 0.838528 0.694379 0.057087
O O10 0.658579 0.702674 0.200086
O O11 0.456668 0.000000 0.954592
O O12 0.500000 0.803318 0.000000
O O13 0.669447 0.623339 0.576611
O O14 0.828481 0.377439 0.468913
O O15 0.543783 0.500000 0.272398
O O16 0.486785 0.737600 0.351709
O O17 0.368709 0.665523 0.508927
O O18 0.000000 0.200889 0.500000
O O19 0.116817 0.000000 0.408750
#
# Coordination Sequence:
#
# PCOD9202744 Si02
#       8
#     8   8   8   8   4   8   8   8
#     4  11  24  38  60  90 122 154 201 254 306 353
#     4  10  23  38  60  92 121 155 193 248 302 360
#     4  10  21  41  65  86 116 165 202 241 300 370
#     4  10  20  38  63  90 120 154 199 247 296 352
#     4  10  24  36  62  86 114 156 204 244 302 350
#     4  10  21  40  63  86 122 160 201 243 299 363
#     4  11  22  41  61  88 118 162 202 251 297 358
#     4  11  24  41  62  86 118 164 209 248 298 363
#
# _framework density 19.183073
#
# number of rings (size 3 to 8) (size 9 to 14) (size 15 to 20)
#    0.000    1.600    2.667    1.200    4.667    4.267 
#    4.800    0.000    0.000    0.000    0.000    0.000 
#    0.000    0.000    0.000    0.000    0.000    0.000 
#
# Total GULP energy -167089.536213 kJ/mol
# GULP energy per Si atom -5569.651207 kJ/mol
# Density = 1.913941 g / cm^3
# Si number density = 19.183073 Si / 1000 Ang^3
#
#
#
# Elastic Constant Matrix: (Units=GPa)
#
#
# Indices 1 2 3 4 5 6 
#
# 1 57.8679 21.1389 7.7889 0.0000 -16.1458 -0.0001
# 2 21.1389 61.5865 27.6068 0.0000 -12.0291 -0.0002
# 3 7.7889 27.6068 77.1794 0.0000 -18.1323 0.0001
# 4 0.0000 0.0000 0.0000 2.6904 0.0000 89.4519
# 5 -16.1458 -12.0291 -18.1323 0.0000 38.6651 0.0000
# 6 -0.0001 -0.0002 0.0001 89.4519 0.0000 -342.5822
#
#
#
# Elastic Compliance Matrix: (Units=1/GPa)
#
#
# Indices 1 2 3 4 5 6 
#
# 1 0.021712 -0.006856 0.002124 0.000000 0.007930 0.000000
# 2 -0.006856 0.021843 -0.006965 0.000000 0.000667 0.000000
# 3 0.002124 -0.006965 0.016782 0.000000 0.006590 0.000000
# 4 0.000000 0.000000 0.000000 0.038392 0.000000 0.010025
# 5 0.007930 0.000667 0.006590 0.000000 0.032472 0.000000
# 6 0.000000 0.000000 0.000000 0.010025 0.000000 -0.000301
#
#
# Mechanical properties :
#
#
# Convention : Reuss Voigt Hill
#
# Bulk Modulus (GPa) = 27.06800 34.41145 30.73973
# Shear Modulus (GPa) = 30.01100 -50.90541 -10.44720
#
# Velocity S-wave (km/s) = 3.95961 -5.15696 -2.33621
# Velocity P-wave (km/s) = 5.91994 4.18110 2.96345
#
# Compressibility (1/GPa) = 0.03694399
#
# Stress axis : x y z
#
# Youngs Moduli (GPa) = 46.05829 45.78214 59.58785
#
# Poissons Ratio (x) = 0.31386 -0.12657
# Poissons Ratio (y) = 0.31576 0.41500
# Poissons Ratio (z) = -0.09783 0.31885
#
# Static dielectric constant tensor:
#      x y z
#    x 1.700120 0.000000 -0.005960 
#    y 0.000000 1.631420 0.000000 
#    z -0.005960 0.000000 1.661210 
# 
# From -- ./inp_files/346446.got.cif
#   From: 2010.05.17/outbox.cif.g08.bks.cpg/sg12_174_cif.got.tgz:346446.got - 2010.06.03 13:09:07.
