data_PCOD9202462
_publ_section_title
;
Structure prediction by ZEFSAII (Michael W. Deem and Ramdas Pophale) SiO2 
 PCOD9202462
Probable space group: C 2/M
;
_chemical_formula_sum "Si O2"
_cell_formula_units_Z 64
_cell_length_a 21.394599
_cell_length_b 18.818238
_cell_length_c 22.084065
_cell_angle_alpha 90.000000
_cell_angle_beta 21.248991
_cell_angle_gamma 90.000000
_cell_volume 3222.376102
_symmetry_space_group_name_H-M "C 2/M"
_symmetry_group_IT_number 12
_symmetry_cell_setting 'monoclinic'
loop_
_space_group_symop_operation_xyz
x,y,z
-x,y,-z
-x,-y,-z
x,-y,z
1/2+x,1/2+y,z
1/2-x,1/2+y,-z
1/2-x,1/2-y,-z
1/2+x,1/2-y,z
loop_
_atom_site_type_symbol
_atom_site_label
_atom_site_fract_x
_atom_site_fract_y
_atom_site_fract_z
Si Si1 0.716053 0.420369 0.251891
Si Si2 0.270591 0.655182 0.294968
Si Si3 0.402651 0.846474 0.680185
Si Si4 0.107302 0.190267 0.139777
Si Si5 0.359994 0.786103 0.293564
Si Si6 0.620690 0.583309 0.017995
Si Si7 0.528968 0.313382 0.343164
Si Si8 0.475290 0.080505 0.125174
O O1 0.642502 0.500000 0.315843
O O2 0.584911 0.360947 0.349124
O O3 0.806052 0.410369 0.235393
O O4 0.867918 0.416565 0.064201
O O5 0.196581 0.656163 0.294260
O O6 0.329426 0.733663 0.263758
O O7 0.440259 0.607138 0.149282
O O8 0.103335 0.633049 0.486671
O O9 0.410391 0.767099 0.699992
O O10 0.286559 0.894606 0.828411
O O11 0.128221 0.127337 0.073284
O O12 0.105163 0.163502 0.210074
O O13 0.935946 0.234468 0.276167
O O14 0.250000 0.250000 0.000000
O O15 0.475769 0.853617 0.170615
O O16 0.175257 0.814907 0.478682
O O17 0.618993 0.500000 0.029674
O O18 0.472806 0.000000 0.153248
#
# Coordination Sequence:
#
# PCOD9202462 Si02
#       8
#     8   8   8   8   8   8   8   8
#     4   9  19  33  54  83 118 154 188 234 285 342
#     4   9  21  37  60  92 124 151 189 241 294 355
#     4  10  20  38  61  91 122 154 192 237 294 355
#     4  11  22  41  61  81 109 151 196 240 282 334
#     4  10  21  36  57  85 115 149 192 242 290 345
#     4  11  24  41  62  88 118 155 197 241 293 351
#     4  11  21  36  60  84 114 150 196 239 291 343
#     4   9  18  34  53  82 119 153 189 231 288 344
#
# _framework density 19.86112
#
# number of rings (size 3 to 8) (size 9 to 14) (size 15 to 20)
#    0.000    2.000    1.250    3.000    1.750    4.000 
#    0.000    3.125    0.000    0.000    0.000    0.000 
#    0.000    0.000    0.000    0.000    0.000    0.000 
#
# Total GULP energy -178681.205306 kJ/mol
# GULP energy per Si atom -5583.787666 kJ/mol
# Density = 1.981592 g / cm^3
# Si number density = 19.861120 Si / 1000 Ang^3
#
#
#
# Elastic Constant Matrix: (Units=GPa)
#
#
# Indices 1 2 3 4 5 6 
#
# 1 40.7034 10.6471 15.2043 0.0245 5.5528 0.0020
# 2 10.6471 76.6988 36.2047 0.0031 -0.7242 0.0073
# 3 15.2043 36.2047 84.5198 -0.0626 -3.3276 0.0179
# 4 0.0245 0.0031 -0.0626 -8.5304 0.0161 2.0329
# 5 5.5528 -0.7242 -3.3276 0.0161 24.5207 -0.0024
# 6 0.0020 0.0073 0.0179 2.0329 -0.0024 14.5577
#
#
#
# Elastic Compliance Matrix: (Units=1/GPa)
#
#
# Indices 1 2 3 4 5 6 
#
# 1 0.027654 -0.001789 -0.004481 0.000096 -0.006923 -0.000012
# 2 -0.001789 0.016464 -0.006731 0.000049 -0.000022 -0.000007
# 3 -0.004481 -0.006731 0.015637 -0.000124 0.002938 0.000003
# 4 0.000096 0.000049 -0.000124 -0.113451 0.000039 0.015843
# 5 -0.006923 -0.000022 0.002938 0.000039 0.042748 -0.000001
# 6 -0.000012 -0.000007 0.000003 0.015843 -0.000001 0.066480
#
#
# Mechanical properties :
#
#
# Convention : Reuss Voigt Hill
#
# Bulk Modulus (GPa) = 29.62803 36.22604 32.92703
# Shear Modulus (GPa) = 53.88867 15.43399 34.66133
#
# Velocity S-wave (km/s) = 5.21456 2.79067 4.18207
# Velocity P-wave (km/s) = 7.15580 5.35379 6.31936
#
# Compressibility (1/GPa) = 0.03375182
#
# Stress axis : x y z
#
# Youngs Moduli (GPa) = 36.16096 60.74013 63.95258
#
# Poissons Ratio (x) = 0.10867 0.28656
# Poissons Ratio (y) = 0.06470 0.43048
# Poissons Ratio (z) = 0.16203 0.40886
#
# Static dielectric constant tensor:
#      x y z
#    x 1.700880 -0.000010 -0.020120 
#    y -0.000010 1.667880 0.000010 
#    z -0.020120 0.000010 1.745840 
# 
# From -- ./inp_files/350010.got.cif
#   From: 2010.05.17/outbox.cif.g08.bks.cpg/sg12_176_cif.got.tgz:350010.got - 2010.06.03 13:09:07.
