data_PCOD9202430
_publ_section_title
;
Structure prediction by ZEFSAII (Michael W. Deem and Ramdas Pophale) SiO2 
 PCOD9202430
Probable space group: C 2/M
;
_chemical_formula_sum "Si O2"
_cell_formula_units_Z 48
_cell_length_a 12.394340
_cell_length_b 26.401934
_cell_length_c 15.364263
_cell_angle_alpha 90.000000
_cell_angle_beta 28.685306
_cell_angle_gamma 90.000000
_cell_volume 2413.297075
_symmetry_space_group_name_H-M "C 2/M"
_symmetry_group_IT_number 12
_symmetry_cell_setting 'monoclinic'
loop_
_space_group_symop_operation_xyz
x,y,z
-x,y,-z
-x,-y,-z
x,-y,z
1/2+x,1/2+y,z
1/2-x,1/2+y,-z
1/2-x,1/2-y,-z
1/2+x,1/2-y,z
loop_
_atom_site_type_symbol
_atom_site_label
_atom_site_fract_x
_atom_site_fract_y
_atom_site_fract_z
Si Si1 0.673257 0.701320 0.809279
Si Si2 0.696016 0.206157 0.472000
Si Si3 0.472416 0.940820 0.246921
Si Si4 0.367724 0.592482 0.374759
Si Si5 0.237974 0.441711 0.782385
Si Si6 0.969365 0.089371 0.925666
O O1 0.710081 0.724511 0.688096
O O2 0.571600 0.645470 0.864585
O O3 0.927567 0.697229 0.663108
O O4 0.500000 0.726287 0.000000
O O5 0.750000 0.250000 0.500000
O O6 0.806989 0.151777 0.411646
O O7 0.334844 0.934969 0.432674
O O8 0.316167 0.923129 0.276890
O O9 0.526200 0.000000 0.191636
O O10 0.705451 0.911213 0.090437
O O11 0.584323 0.586412 0.283152
O O12 0.413054 0.570237 0.246196
O O13 0.318571 0.500000 0.718361
O O14 0.000000 0.441581 0.000000
O O15 0.000000 0.064584 0.000000
#
# Coordination Sequence:
#
# PCOD9202430 Si02
#       6
#     8   8   8   8   8   8
#     4   9  19  40  65  85 115 158 196 239 307 358
#     4  10  22  40  62  91 122 153 200 256 300 356
#     4  11  23  38  60  91 122 158 204 251 302 364
#     4  11  21  38  63  87 118 164 201 243 311 367
#     4  10  20  38  61  87 123 160 199 250 307 361
#     4  10  21  38  61  85 115 158 203 245 291 355
#
# _framework density 19.889802
#
# number of rings (size 3 to 8) (size 9 to 14) (size 15 to 20)
#    0.000    1.833    1.667    3.000    0.000    5.000 
#    6.000    1.667    0.000    0.000    0.000    0.000 
#    0.000    0.000    0.000    0.000    0.000    0.000 
#
# Total GULP energy -133850.060507 kJ/mol
# GULP energy per Si atom -5577.085854 kJ/mol
# Density = 1.984453 g / cm^3
# Si number density = 19.889802 Si / 1000 Ang^3
#
#
#
# Elastic Constant Matrix: (Units=GPa)
#
#
# Indices 1 2 3 4 5 6 
#
# 1 154.1759 47.0849 73.4736 0.0220 9.7908 -0.0252
# 2 47.0849 47.8054 25.1786 0.0409 -8.7237 -0.0428
# 3 73.4736 25.1786 149.2106 0.1536 19.5500 -0.1241
# 4 0.0220 0.0409 0.1536 -1.5992 -0.0784 15.2890
# 5 9.7908 -8.7237 19.5500 -0.0784 39.2561 0.0721
# 6 -0.0252 -0.0428 -0.1241 15.2890 0.0721 17.7217
#
#
#
# Elastic Compliance Matrix: (Units=1/GPa)
#
#
# Indices 1 2 3 4 5 6 
#
# 1 0.011424 -0.010018 -0.003498 -0.000049 -0.003334 0.000023
# 2 -0.010018 0.034026 -0.002275 0.000003 0.011193 0.000004
# 3 -0.003498 -0.002275 0.009372 0.000184 -0.004300 -0.000086
# 4 -0.000049 0.000003 0.000184 -0.067609 -0.000321 0.058331
# 5 -0.003334 0.011193 -0.004300 -0.000321 0.030933 0.000143
# 6 0.000023 0.000004 -0.000086 0.058331 0.000143 0.006103
#
#
# Mechanical properties :
#
#
# Convention : Reuss Voigt Hill
#
# Bulk Modulus (GPa) = 43.03106 71.40735 57.21921
# Shear Modulus (GPa) = 78.64415 24.77271 51.70843
#
# Velocity S-wave (km/s) = 6.29490 3.53299 5.10430
# Velocity P-wave (km/s) = 8.63227 7.25411 7.97302
#
# Compressibility (1/GPa) = 0.02323903
#
# Stress axis : x y z
#
# Youngs Moduli (GPa) = 87.53228 29.38926 106.70591
#
# Poissons Ratio (x) = 0.29442 0.37328
# Poissons Ratio (y) = 0.87690 0.24279
# Poissons Ratio (z) = 0.30621 0.06687
#
# Static dielectric constant tensor:
#      x y z
#    x 1.736510 -0.000060 0.043430 
#    y -0.000060 1.549390 0.000000 
#    z 0.043430 0.000000 1.726660 
# 
# From -- ./inp_files/209286.got.cif
#   From: 2010.05.17/outbox.cif.g08.bks.cpg/sg12_105_cif.got.tgz:209286.got - 2010.06.03 13:09:07.
