data_PCOD9202712
_publ_section_title
;
Structure prediction by ZEFSAII (Michael W. Deem and Ramdas Pophale) SiO2 
 PCOD9202712
Probable space group: C 2/M
;
_chemical_formula_sum "Si O2"
_cell_formula_units_Z 48
_cell_length_a 24.622327
_cell_length_b 7.680632
_cell_length_c 15.299473
_cell_angle_alpha 90.000000
_cell_angle_beta 133.411801
_cell_angle_gamma 90.000000
_cell_volume 2101.832830
_symmetry_space_group_name_H-M "C 2/M"
_symmetry_group_IT_number 12
_symmetry_cell_setting 'monoclinic'
loop_
_space_group_symop_operation_xyz
x,y,z
-x,y,-z
-x,-y,-z
x,-y,z
1/2+x,1/2+y,z
1/2-x,1/2+y,-z
1/2-x,1/2-y,-z
1/2+x,1/2-y,z
loop_
_atom_site_type_symbol
_atom_site_label
_atom_site_fract_x
_atom_site_fract_y
_atom_site_fract_z
Si Si1 0.524037 0.286536 0.623951
Si Si2 0.438869 0.795449 0.003381
Si Si3 0.186184 0.192883 0.860590
Si Si4 0.541670 0.289673 0.270746
Si Si5 0.304092 0.291400 0.638252
Si Si6 0.272209 0.300597 0.790218
O O1 0.500000 0.228490 0.500000
O O2 0.526957 0.500000 0.623036
O O3 0.605376 0.223301 0.749281
O O4 0.466153 0.237383 0.636900
O O5 0.360328 0.701391 0.908335
O O6 0.426380 0.000000 0.972752
O O7 0.500000 0.731928 0.000000
O O8 0.471859 0.770159 0.136026
O O9 0.227920 0.196908 0.813910
O O10 0.166567 0.000000 0.869535
O O11 0.250000 0.250000 0.000000
O O12 0.543601 0.500000 0.271470
O O13 0.614640 0.224052 0.299972
O O14 0.310835 0.500000 0.657670
O O15 0.250000 0.250000 0.500000
O O16 0.269674 0.224136 0.690199
O O17 0.244695 0.500000 0.762179
#
# Coordination Sequence:
#
# PCOD9202712 Si02
#       6
#     8   8   8   8   8   8
#     4   9  20  38  62  90 117 153 204 254 302 360
#     4  11  22  36  58  90 122 153 194 247 306 366
#     4  11  23  40  65  94 125 163 207 259 313 370
#     4  10  20  38  63  88 117 156 198 247 305 367
#     4  10  23  38  58  87 119 158 202 250 306 368
#     4  11  23  40  61  88 123 161 202 248 303 371
#
# _framework density 22.837209999999999
#
# number of rings (size 3 to 8) (size 9 to 14) (size 15 to 20)
#    0.000    1.667    1.667    2.500    2.333    4.000 
#    0.000    0.833    0.000    2.500    0.000    0.000 
#    0.000    0.000    0.000    0.000    0.000    0.000 
#
# Total GULP energy -134062.932081 kJ/mol
# GULP energy per Si atom -5585.955503 kJ/mol
# Density = 2.278523 g / cm^3
# Si number density = 22.837210 Si / 1000 Ang^3
#
#
#
# Elastic Constant Matrix: (Units=GPa)
#
#
# Indices 1 2 3 4 5 6 
#
# 1 90.9356 -0.3190 17.9317 0.0000 -26.9538 0.0000
# 2 -0.3190 45.1068 -5.3071 0.0000 -2.8023 0.0000
# 3 17.9317 -5.3071 120.9572 0.0000 -28.1354 0.0000
# 4 0.0000 0.0000 0.0000 20.3480 0.0000 4.6930
# 5 -26.9538 -2.8023 -28.1354 0.0000 43.1962 0.0000
# 6 0.0000 0.0000 0.0000 4.6930 0.0000 0.5814
#
#
#
# Elastic Compliance Matrix: (Units=1/GPa)
#
#
# Indices 1 2 3 4 5 6 
#
# 1 0.013510 0.000621 -0.000006 0.000000 0.008466 0.000000
# 2 0.000621 0.022536 0.001564 0.000000 0.002868 0.000000
# 3 -0.000006 0.001564 0.009852 0.000000 0.006515 0.000000
# 4 0.000000 0.000000 0.000000 -0.057032 0.000000 0.460368
# 5 0.008466 0.002868 0.006515 0.000000 0.032862 0.000000
# 6 0.000000 0.000000 0.000000 0.460368 0.000000 -1.996087
#
#
# Mechanical properties :
#
#
# Convention : Reuss Voigt Hill
#
# Bulk Modulus (GPa) = 19.89863 31.29008 25.59436
# Shear Modulus (GPa) = -2.54847 29.13805 13.29479
#
# Velocity S-wave (km/s) = -1.05752 3.57585 2.41541
# Velocity P-wave (km/s) = 2.69092 5.54798 4.36011
#
# Compressibility (1/GPa) = 0.05025471
#
# Stress axis : x y z
#
# Youngs Moduli (GPa) = 74.02161 44.37309 101.49912
#
# Poissons Ratio (x) = -0.02754 0.00064
# Poissons Ratio (y) = -0.04595 -0.15873
# Poissons Ratio (z) = 0.00047 -0.06939
#
# Static dielectric constant tensor:
#      x y z
#    x 1.838460 0.000000 0.014460 
#    y 0.000000 1.899020 0.000000 
#    z 0.014460 0.000000 1.840720 
# 
# From -- ./inp_files/244863.got.cif
#   From: 2010.05.17/outbox.cif.g08.bks.cpg/sg12_123_cif.got.tgz:244863.got - 2010.06.03 13:09:07.
