data_PCOD9202366
_publ_section_title
;
Structure prediction by ZEFSAII (Michael W. Deem and Ramdas Pophale) SiO2 
 PCOD9202366
Probable space group: C 2/M
;
_chemical_formula_sum "Si O2"
_cell_formula_units_Z 36
_cell_length_a 24.479796
_cell_length_b 14.528677
_cell_length_c 24.332098
_cell_angle_alpha 90.000000
_cell_angle_beta 11.786150
_cell_angle_gamma 90.000000
_cell_volume 1767.646947
_symmetry_space_group_name_H-M "C 2/M"
_symmetry_group_IT_number 12
_symmetry_cell_setting 'monoclinic'
loop_
_space_group_symop_operation_xyz
x,y,z
-x,y,-z
-x,-y,-z
x,-y,z
1/2+x,1/2+y,z
1/2-x,1/2+y,-z
1/2-x,1/2-y,-z
1/2+x,1/2-y,z
loop_
_atom_site_type_symbol
_atom_site_label
_atom_site_fract_x
_atom_site_fract_y
_atom_site_fract_z
Si Si1 0.990782 0.801898 0.734290
Si Si2 0.331964 0.301545 0.566945
Si Si3 0.336260 0.000000 0.284968
Si Si4 0.125443 0.000000 0.171197
Si Si5 0.654134 0.701020 0.906457
Si Si6 0.235890 0.500000 0.223194
O O1 0.250000 0.750000 0.500000
O O2 0.036481 0.800568 0.623453
O O3 0.929598 0.908091 0.808438
O O4 0.750000 0.750000 0.000000
O O5 0.210834 0.403133 0.699707
O O6 0.584561 0.265792 0.353046
O O7 0.073982 0.235229 0.826617
O O8 0.097829 0.000000 0.562659
O O9 0.600086 0.000000 0.063712
O O10 0.757547 0.596851 0.815372
O O11 0.500000 0.702722 0.000000
O O12 0.000000 0.500000 0.500000
O O13 0.500000 0.500000 0.000000
#
# Coordination Sequence:
#
# PCOD9202366 Si02
#       6
#     8   8   4   4   8   4
#     4  11  22  39  61  88 118 155 200 247 296 356
#     4  11  22  39  61  88 119 157 201 251 298 356
#     4  10  20  38  61  84 115 162 201 228 291 376
#     4  10  20  38  61  84 115 162 199 228 289 376
#     4  11  22  39  61  88 119 157 202 249 299 357
#     4  10  20  38  61  84 115 162 201 230 293 382
#
# _framework density 20.366057999999999
#
# number of rings (size 3 to 8) (size 9 to 14) (size 15 to 20)
#    0.000    1.333    0.000   10.000    0.000    0.000 
#    0.000   10.000    0.000    0.000    0.000    0.000 
#    0.000    0.000    0.000    0.000    0.000    0.000 
#
# Total GULP energy -100285.006599 kJ/mol
# GULP energy per Si atom -5571.389255 kJ/mol
# Density = 2.031970 g / cm^3
# Si number density = 20.366058 Si / 1000 Ang^3
#
#
#
# Elastic Constant Matrix: (Units=GPa)
#
#
# Indices 1 2 3 4 5 6 
#
# 1 40.7566 40.4094 16.1546 -0.0285 -6.3972 0.0017
# 2 40.4094 212.9914 79.0089 0.0404 -7.2669 -0.0214
# 3 16.1546 79.0089 188.9236 -0.2170 -8.5760 0.0493
# 4 -0.0285 0.0404 -0.2170 34.8245 0.0093 0.5693
# 5 -6.3972 -7.2669 -8.5760 0.0093 49.5253 0.0633
# 6 0.0017 -0.0214 0.0493 0.5693 0.0633 30.5545
#
#
#
# Elastic Compliance Matrix: (Units=1/GPa)
#
#
# Indices 1 2 3 4 5 6 
#
# 1 0.030697 -0.005677 -0.000109 0.000030 0.003113 -0.000012
# 2 -0.005677 0.006616 -0.002288 -0.000027 -0.000159 0.000009
# 3 -0.000109 -0.002288 0.006293 0.000042 0.000740 -0.000014
# 4 0.000030 -0.000027 0.000042 0.028724 0.000003 -0.000535
# 5 0.003113 -0.000159 0.000740 0.000003 0.020699 -0.000044
# 6 -0.000012 0.000009 -0.000014 -0.000535 -0.000044 0.032739
#
#
# Mechanical properties :
#
#
# Convention : Reuss Voigt Hill
#
# Bulk Modulus (GPa) = 36.42233 79.31303 57.86768
# Shear Modulus (GPa) = 33.09751 43.45410 38.27581
#
# Velocity S-wave (km/s) = 4.03566 4.62416 4.33990
# Velocity P-wave (km/s) = 6.29588 8.21820 7.32041
#
# Compressibility (1/GPa) = 0.02745568
#
# Stress axis : x y z
#
# Youngs Moduli (GPa) = 32.57687 151.15784 158.90209
#
# Poissons Ratio (x) = 0.85814 0.01736
# Poissons Ratio (y) = 0.18494 0.36365
# Poissons Ratio (z) = 0.00356 0.34592
#
# Static dielectric constant tensor:
#      x y z
#    x 1.761080 -0.000080 -0.011750 
#    y -0.000080 1.967410 0.000120 
#    z -0.011750 0.000120 1.682760 
# 
# From -- ./inp_files/350087.got.cif
#   From: 2010.05.17/outbox.cif.g08.bks.cpg/sg12_176_cif.got.tgz:350087.got - 2010.06.03 13:09:07.
