data_PCOD9202967
_publ_section_title
;
Structure prediction by ZEFSAII (Michael W. Deem and Ramdas Pophale) SiO2 
 PCOD9202967
Probable space group: C 2/M
;
_chemical_formula_sum "Si O2"
_cell_formula_units_Z 40
_cell_length_a 14.495047
_cell_length_b 14.799412
_cell_length_c 17.264263
_cell_angle_alpha 90.000000
_cell_angle_beta 23.424327
_cell_angle_gamma 90.000000
_cell_volume 1472.279472
_symmetry_space_group_name_H-M "C 2/M"
_symmetry_group_IT_number 12
_symmetry_cell_setting 'monoclinic'
loop_
_space_group_symop_operation_xyz
x,y,z
-x,y,-z
-x,-y,-z
x,-y,z
1/2+x,1/2+y,z
1/2-x,1/2+y,-z
1/2-x,1/2-y,-z
1/2+x,1/2-y,z
loop_
_atom_site_type_symbol
_atom_site_label
_atom_site_fract_x
_atom_site_fract_y
_atom_site_fract_z
Si Si1 0.344415 0.394568 0.442850
Si Si2 0.821349 0.793346 0.710021
Si Si3 0.777269 0.399243 0.728769
Si Si4 0.482711 0.098198 0.161572
Si Si5 0.429250 0.665311 0.868872
O O1 0.329770 0.500000 0.432222
O O2 0.573781 0.366908 0.313971
O O3 0.140822 0.379391 0.661609
O O4 0.359308 0.332172 0.355715
O O5 0.808250 0.692472 0.754515
O O6 0.588787 0.828778 0.847638
O O7 0.000000 0.788754 0.500000
O O8 0.758337 0.500000 0.778281
O O9 0.552242 0.372407 0.850708
O O10 0.000000 0.403946 0.500000
O O11 0.389917 0.000000 0.208203
O O12 0.751504 0.092682 0.972167
O O13 0.250000 0.750000 0.000000
#
# Coordination Sequence:
#
# PCOD9202967 Si02
#       5
#     8   8   8   8   8
#     4  10  22  40  69 100 132 173 217 273 342 400
#     4   9  18  37  61  98 132 171 215 264 331 395
#     4  10  21  41  67  91 129 182 225 267 325 393
#     4  10  20  38  64  98 136 169 213 277 336 396
#     4  12  24  42  66  98 132 172 223 285 332 390
#
# _framework density 27.168755000000001
#
# number of rings (size 3 to 8) (size 9 to 14) (size 15 to 20)
#    0.000    1.800    2.000    2.400    0.000    4.000 
#    0.000    2.000    0.000    3.600    0.000    0.000 
#    0.000    0.000    0.000    0.000    0.000    0.000 
#
# Total GULP energy -111836.432517 kJ/mol
# GULP energy per Si atom -5591.821626 kJ/mol
# Density = 2.710692 g / cm^3
# Si number density = 27.168755 Si / 1000 Ang^3
#
#
#
# Elastic Constant Matrix: (Units=GPa)
#
#
# Indices 1 2 3 4 5 6 
#
# 1 47.9322 4.4765 24.5084 -0.0113 -22.9136 -0.0060
# 2 4.4765 197.2346 16.6041 0.0132 5.6839 0.0040
# 3 24.5084 16.6041 122.9814 -0.0442 -2.4309 0.0141
# 4 -0.0113 0.0132 -0.0442 26.1734 0.0201 -6.0330
# 5 -22.9136 5.6839 -2.4309 0.0201 48.8200 -0.0005
# 6 -0.0060 0.0040 0.0141 -6.0330 -0.0005 15.9739
#
#
#
# Elastic Compliance Matrix: (Units=1/GPa)
#
#
# Indices 1 2 3 4 5 6 
#
# 1 0.030624 -0.000620 -0.005739 -0.000003 0.014160 0.000016
# 2 -0.000620 0.005161 -0.000591 -0.000004 -0.000921 -0.000002
# 3 -0.005739 -0.000591 0.009312 0.000014 -0.002161 -0.000005
# 4 -0.000003 -0.000004 0.000014 0.041850 -0.000018 0.015806
# 5 0.014160 -0.000921 -0.002161 -0.000018 0.027129 0.000002
# 6 0.000016 -0.000002 -0.000005 0.015806 0.000002 0.068572
#
#
# Mechanical properties :
#
#
# Convention : Reuss Voigt Hill
#
# Bulk Modulus (GPa) = 32.05584 51.03624 41.54604
# Shear Modulus (GPa) = 24.16070 39.69741 31.92905
#
# Velocity S-wave (km/s) = 2.98532 3.82664 3.43186
# Velocity P-wave (km/s) = 4.86901 6.19273 5.57033
#
# Compressibility (1/GPa) = 0.03119557
#
# Stress axis : x y z
#
# Youngs Moduli (GPa) = 32.65377 193.77930 107.38569
#
# Poissons Ratio (x) = 0.12013 0.61633
# Poissons Ratio (y) = 0.02024 0.06351
# Poissons Ratio (z) = 0.18741 0.11460
#
# Static dielectric constant tensor:
#      x y z
#    x 2.100330 -0.000010 0.045700 
#    y -0.000010 2.173420 0.000040 
#    z 0.045700 0.000040 2.137370 
# 
# From -- ./inp_files/284653.got.cif
#   From: 2010.05.17/outbox.cif.g08.bks.cpg/sg12_143_cif.got.tgz:284653.got - 2010.06.03 13:09:07.
