data_PCOD9202112
_publ_section_title
;
Structure prediction by ZEFSAII (Michael W. Deem and Ramdas Pophale) SiO2 
 PCOD9202112
Probable space group: C 2/M
;
_chemical_formula_sum "Si O2"
_cell_formula_units_Z 56
_cell_length_a 19.886252
_cell_length_b 25.675314
_cell_length_c 6.026294
_cell_angle_alpha 90.000000
_cell_angle_beta 113.199117
_cell_angle_gamma 90.000000
_cell_volume 2828.142905
_symmetry_space_group_name_H-M "C 2/M"
_symmetry_group_IT_number 12
_symmetry_cell_setting 'monoclinic'
loop_
_space_group_symop_operation_xyz
x,y,z
-x,y,-z
-x,-y,-z
x,-y,z
1/2+x,1/2+y,z
1/2-x,1/2+y,-z
1/2-x,1/2-y,-z
1/2+x,1/2-y,z
loop_
_atom_site_type_symbol
_atom_site_label
_atom_site_fract_x
_atom_site_fract_y
_atom_site_fract_z
Si Si1 0.298300 0.880214 0.490014
Si Si2 0.923968 0.613966 0.300784
Si Si3 0.056160 0.274498 0.886294
Si Si4 0.029405 0.842066 0.781674
Si Si5 0.801406 0.440457 0.891324
Si Si6 0.287390 0.218075 0.749126
Si Si7 0.298390 0.647846 0.021947
O O1 0.364597 0.889010 0.415278
O O2 0.284458 0.931968 0.610011
O O3 0.318056 0.835656 0.689187
O O4 0.232433 0.854722 0.266937
O O5 0.931932 0.675326 0.252196
O O6 0.000000 0.594528 0.500000
O O7 0.883015 0.581470 0.054446
O O8 0.019994 0.220775 0.759422
O O9 0.137431 0.256611 0.068961
O O10 0.000000 0.294040 0.000000
O O11 0.115221 0.854788 0.875565
O O12 0.000000 0.862008 0.500000
O O13 0.000000 0.856188 0.000000
O O14 0.796072 0.500000 0.953393
O O15 0.741162 0.403235 0.927302
O O16 0.250000 0.250000 0.500000
O O17 0.233103 0.196693 0.872775
#
# Coordination Sequence:
#
# PCOD9202112 Si02
#       7
#     8   8   8   8   8   8   8
#     4  10  20  38  58  90 117 169 217 271 325 384
#     4  11  22  37  60  87 130 173 221 271 325 387
#     4  11  22  38  57  92 134 185 222 261 316 394
#     4  11  27  43  65 102 140 181 218 269 336 411
#     4  10  23  43  65  93 122 164 222 283 347 397
#     4  11  22  34  61  89 128 173 222 268 320 388
#     4  10  23  42  67  94 129 170 220 274 333 404
#
# _framework density 19.800978000000001
#
# number of rings (size 3 to 8) (size 9 to 14) (size 15 to 20)
#    0.000    1.429    4.286    2.143   10.000    3.714 
#    0.000    0.714    0.000    0.857    0.000    0.000 
#    0.000    0.000    0.000    0.000    0.000    0.000 
#
# Total GULP energy -155871.512704 kJ/mol
# GULP energy per Si atom -5566.839739 kJ/mol
# Density = 1.975591 g / cm^3
# Si number density = 19.800978 Si / 1000 Ang^3
#
#
#
# Elastic Constant Matrix: (Units=GPa)
#
#
# Indices 1 2 3 4 5 6 
#
# 1 108.2879 10.3320 59.8589 0.0000 18.0075 0.0000
# 2 10.3320 75.1894 18.1623 0.0000 2.5557 0.0000
# 3 59.8589 18.1623 116.5002 0.0000 6.5961 0.0000
# 4 0.0000 0.0000 0.0000 14.2475 0.0000 -2.4873
# 5 18.0075 2.5557 6.5961 0.0000 24.5226 0.0000
# 6 0.0000 0.0000 0.0000 -2.4873 0.0000 14.6446
#
#
#
# Elastic Compliance Matrix: (Units=1/GPa)
#
#
# Indices 1 2 3 4 5 6 
#
# 1 0.014560 -0.000015 -0.006980 0.000000 -0.008813 0.000000
# 2 -0.000015 0.013839 -0.002101 0.000000 -0.000866 0.000000
# 3 -0.006980 -0.002101 0.012383 0.000000 0.002013 0.000000
# 4 0.000000 0.000000 0.000000 0.072332 0.000000 0.012285
# 5 -0.008813 -0.000866 0.002013 0.000000 0.046799 0.000000
# 6 0.000000 0.000000 0.000000 0.012285 0.000000 0.070371
#
#
# Mechanical properties :
#
#
# Convention : Reuss Voigt Hill
#
# Bulk Modulus (GPa) = 44.26550 52.96488 48.61519
# Shear Modulus (GPa) = 19.53086 24.79123 22.16105
#
# Velocity S-wave (km/s) = 3.14404 3.54223 3.34906
# Velocity P-wave (km/s) = 5.96521 6.59822 6.28968
#
# Compressibility (1/GPa) = 0.02259096
#
# Stress axis : x y z
#
# Youngs Moduli (GPa) = 68.68275 72.26123 80.75359
#
# Poissons Ratio (x) = 0.00110 0.56363
# Poissons Ratio (y) = 0.00104 0.16963
# Poissons Ratio (z) = 0.47938 0.15179
#
# Static dielectric constant tensor:
#      x y z
#    x 1.573050 0.000000 0.190800 
#    y 0.000000 1.718890 0.000000 
#    z 0.190800 0.000000 1.437050 
# 
# From -- ./inp_files/17632.got.cif
#   From: 2010.05.17/outbox.cif.g08.bks.cpg/sg12_9_cif.got.tgz:17632.got - 2010.06.03 13:09:07.
