data_PCOD9202144
_publ_section_title
;
Structure prediction by ZEFSAII (Michael W. Deem and Ramdas Pophale) SiO2 
 PCOD9202144
Probable space group: C 2/M
;
_chemical_formula_sum "Si O2"
_cell_formula_units_Z 48
_cell_length_a 19.243718
_cell_length_b 28.998591
_cell_length_c 11.542003
_cell_angle_alpha 90.000000
_cell_angle_beta 24.451564
_cell_angle_gamma 90.000000
_cell_volume 2666.045192
_symmetry_space_group_name_H-M "C 2/M"
_symmetry_group_IT_number 12
_symmetry_cell_setting 'monoclinic'
loop_
_space_group_symop_operation_xyz
x,y,z
-x,y,-z
-x,-y,-z
x,-y,z
1/2+x,1/2+y,z
1/2-x,1/2+y,-z
1/2-x,1/2-y,-z
1/2+x,1/2-y,z
loop_
_atom_site_type_symbol
_atom_site_label
_atom_site_fract_x
_atom_site_fract_y
_atom_site_fract_z
Si Si1 0.300081 0.225273 0.303734
Si Si2 0.477964 0.946983 0.670497
Si Si3 0.695420 0.554273 0.670682
Si Si4 0.700968 0.120127 0.692484
Si Si5 0.798653 0.116354 0.796434
Si Si6 0.800794 0.224373 0.803175
O O1 0.250000 0.250000 0.500000
O O2 0.234440 0.172716 0.413616
O O3 0.251918 0.242546 0.246119
O O4 0.500000 0.224421 0.000000
O O5 0.500000 0.944751 0.500000
O O6 0.658225 0.935850 0.456619
O O7 0.437706 0.000000 0.764470
O O8 0.324045 0.914137 0.939033
O O9 0.712167 0.500000 0.615134
O O10 0.736249 0.588029 0.504139
O O11 0.500000 0.561329 0.000000
O O12 0.758409 0.101152 0.727659
O O13 0.500000 0.121678 0.000000
O O14 0.748139 0.170387 0.887970
O O15 0.000000 0.112540 0.500000
O O16 0.000000 0.225161 0.500000
O O17 0.750000 0.250000 0.000000
#
# Coordination Sequence:
#
# PCOD9202144 Si02
#       6
#     8   8   8   8   8   8
#     4  10  21  37  58  84 117 149 187 241 293 344
#     4  10  22  40  58  84 122 155 190 239 291 345
#     4  10  22  39  60  87 117 153 195 238 288 347
#     4  10  20  38  59  82 115 149 191 240 286 342
#     4  10  22  38  58  86 116 152 193 239 288 343
#     4  10  21  39  59  84 116 151 196 241 287 349
#
# _framework density 18.004194999999999
#
# number of rings (size 3 to 8) (size 9 to 14) (size 15 to 20)
#    0.000    2.000    1.667    1.000    2.333    2.667 
#    3.000    0.000    0.000    0.000    0.000    0.000 
#    0.000    0.000    0.000    0.000    0.000    0.000 
#
# Total GULP energy -133646.293813 kJ/mol
# GULP energy per Si atom -5568.595576 kJ/mol
# Density = 1.796322 g / cm^3
# Si number density = 18.004195 Si / 1000 Ang^3
#
#
#
# Elastic Constant Matrix: (Units=GPa)
#
#
# Indices 1 2 3 4 5 6 
#
# 1 131.5852 36.1845 34.4440 0.0177 13.8767 -0.0009
# 2 36.1845 62.2394 56.9811 0.0024 24.2608 0.0009
# 3 34.4440 56.9811 87.2904 0.0366 16.5131 -0.0015
# 4 0.0177 0.0024 0.0366 8.4737 -0.0227 5.4218
# 5 13.8767 24.2608 16.5131 -0.0227 33.8353 0.0001
# 6 -0.0009 0.0009 -0.0015 5.4218 0.0001 28.6102
#
#
#
# Elastic Compliance Matrix: (Units=1/GPa)
#
#
# Indices 1 2 3 4 5 6 
#
# 1 0.009050 -0.004954 -0.000338 -0.000019 0.000006 0.000004
# 2 -0.004954 0.054998 -0.029604 0.000072 -0.022955 -0.000017
# 3 -0.000338 -0.029604 0.029606 -0.000116 0.006917 0.000024
# 4 -0.000019 0.000072 -0.000116 0.134297 0.000103 -0.025450
# 5 0.000006 -0.022955 0.006917 0.000103 0.042636 -0.000019
# 6 0.000004 -0.000017 0.000024 -0.025450 -0.000019 0.039776
#
#
# Mechanical properties :
#
#
# Convention : Reuss Voigt Hill
#
# Bulk Modulus (GPa) = 41.90892 59.59268 50.75080
# Shear Modulus (GPa) = 12.88300 24.41753 18.65027
#
# Velocity S-wave (km/s) = 2.67789 3.68668 3.22201
# Velocity P-wave (km/s) = 5.73492 7.16193 6.48778
#
# Compressibility (1/GPa) = 0.02386127
#
# Stress axis : x y z
#
# Youngs Moduli (GPa) = 110.49903 18.18258 33.77701
#
# Poissons Ratio (x) = 0.09007 0.01143
# Poissons Ratio (y) = 0.54739 0.99993
# Poissons Ratio (z) = 0.03739 0.53828
#
# Static dielectric constant tensor:
#      x y z
#    x 1.686270 0.000000 -0.056920 
#    y 0.000000 1.639350 0.000010 
#    z -0.056920 0.000010 1.668160 
# 
# From -- ./inp_files/123514.got.cif
#   From: 2010.05.17/outbox.cif.g08.bks.cpg/sg12_62_cif.got.tgz:123514.got - 2010.06.03 13:09:07.
