data_PCOD9202681
_publ_section_title
;
Structure prediction by ZEFSAII (Michael W. Deem and Ramdas Pophale) SiO2 
 PCOD9202681
Probable space group: C 2/M
;
_chemical_formula_sum "Si O2"
_cell_formula_units_Z 48
_cell_length_a 9.347843
_cell_length_b 33.364595
_cell_length_c 7.749656
_cell_angle_alpha 90.000000
_cell_angle_beta 86.630493
_cell_angle_gamma 90.000000
_cell_volume 2412.838509
_symmetry_space_group_name_H-M "C 2/M"
_symmetry_group_IT_number 12
_symmetry_cell_setting 'monoclinic'
loop_
_space_group_symop_operation_xyz
x,y,z
-x,y,-z
-x,-y,-z
x,-y,z
1/2+x,1/2+y,z
1/2-x,1/2+y,-z
1/2-x,1/2-y,-z
1/2+x,1/2-y,z
loop_
_atom_site_type_symbol
_atom_site_label
_atom_site_fract_x
_atom_site_fract_y
_atom_site_fract_z
Si Si1 0.657110 0.092018 0.318372
Si Si2 0.134192 0.235888 0.372369
Si Si3 0.170381 0.954264 0.981567
Si Si4 0.817634 0.421047 0.297167
Si Si5 0.382856 0.176984 0.784150
Si Si6 0.718133 0.164862 0.838781
O O1 0.754037 0.076159 0.156189
O O2 0.705300 0.073121 0.496865
O O3 0.492265 0.081271 0.277867
O O4 0.658562 0.140665 0.341815
O O5 0.250000 0.250000 0.500000
O O6 0.116877 0.276652 0.265791
O O7 0.188729 0.199283 0.254796
O O8 0.000000 0.224737 0.500000
O O9 0.189858 0.000000 0.917995
O O10 0.247386 0.950545 0.163085
O O11 0.000000 0.946309 0.000000
O O12 0.750451 0.378713 0.239255
O O13 0.549803 0.170133 0.810617
O O14 0.281010 0.169204 0.955172
#
# Coordination Sequence:
#
# PCOD9202681 Si02
#       6
#     8   8   8   8   8   8
#     4  10  21  40  70  97 123 167 214 265 313 371
#     4  12  23  38  55  86 128 164 212 261 309 367
#     4  11  25  45  65  95 136 167 199 254 321 389
#     4  10  21  41  68  97 126 163 217 264 313 372
#     4  10  20  38  63  85 122 165 211 261 316 366
#     4  10  20  39  61  87 122 166 211 261 314 367
#
# _framework density 19.893581999999999
#
# number of rings (size 3 to 8) (size 9 to 14) (size 15 to 20)
#    0.000    1.500    3.333    2.000    2.333    2.667 
#    6.000    3.333    0.000    0.000    0.000    0.000 
#    0.000    0.000    0.000    0.000    0.000    0.000 
#
# Total GULP energy -133816.715703 kJ/mol
# GULP energy per Si atom -5575.696488 kJ/mol
# Density = 1.984830 g / cm^3
# Si number density = 19.893582 Si / 1000 Ang^3
#
#
#
# Elastic Constant Matrix: (Units=GPa)
#
#
# Indices 1 2 3 4 5 6 
#
# 1 50.9149 14.5383 33.3506 0.0000 -16.7666 0.0000
# 2 14.5383 80.8798 18.4369 0.0000 -14.8777 0.0000
# 3 33.3506 18.4369 95.9185 0.0000 -14.5549 0.0000
# 4 0.0000 0.0000 0.0000 10.6284 0.0000 -4.4388
# 5 -16.7666 -14.8777 -14.5549 0.0000 20.6603 0.0000
# 6 0.0000 0.0000 0.0000 -4.4388 0.0000 19.3987
#
#
#
# Elastic Compliance Matrix: (Units=1/GPa)
#
#
# Indices 1 2 3 4 5 6 
#
# 1 0.031358 -0.000210 -0.007865 0.000000 0.019757 0.000000
# 2 -0.000210 0.014405 -0.001285 0.000000 0.009298 0.000000
# 3 -0.007865 -0.001285 0.013770 0.000000 0.002393 0.000000
# 4 0.000000 0.000000 0.000000 0.104028 0.000000 0.023804
# 5 0.019757 0.009298 0.002393 0.000000 0.072816 0.000000
# 6 0.000000 0.000000 0.000000 0.023804 0.000000 0.056997
#
#
# Mechanical properties :
#
#
# Convention : Reuss Voigt Hill
#
# Bulk Modulus (GPa) = 24.50139 40.04054 32.27096
# Shear Modulus (GPa) = 15.35160 20.89664 18.12412
#
# Velocity S-wave (km/s) = 2.78094 3.24454 3.02164
# Velocity P-wave (km/s) = 4.75967 5.84868 5.33205
#
# Compressibility (1/GPa) = 0.04081402
#
# Stress axis : x y z
#
# Youngs Moduli (GPa) = 31.88961 69.42056 72.62032
#
# Poissons Ratio (x) = 0.01456 0.57115
# Poissons Ratio (y) = 0.00669 0.09332
# Poissons Ratio (z) = 0.25081 0.08921
#
# Static dielectric constant tensor:
#      x y z
#    x 1.659560 0.000000 -0.000850 
#    y 0.000000 1.545690 0.000000 
#    z -0.000850 0.000000 1.707080 
# 
# From -- ./inp_files/42141.got.cif
#   From: 2010.05.17/outbox.cif.g08.bks.cpg/sg12_22_cif.got.tgz:42141.got - 2010.06.03 13:09:07.
