data_PCOD9202535
_publ_section_title
;
Structure prediction by ZEFSAII (Michael W. Deem and Ramdas Pophale) SiO2 
 PCOD9202535
Probable space group: C 2/M
;
_chemical_formula_sum "Si O2"
_cell_formula_units_Z 56
_cell_length_a 31.383826
_cell_length_b 9.246731
_cell_length_c 18.234229
_cell_angle_alpha 90.000000
_cell_angle_beta 144.942856
_cell_angle_gamma 90.000000
_cell_volume 3039.420265
_symmetry_space_group_name_H-M "C 2/M"
_symmetry_group_IT_number 12
_symmetry_cell_setting 'monoclinic'
loop_
_space_group_symop_operation_xyz
x,y,z
-x,y,-z
-x,-y,-z
x,-y,z
1/2+x,1/2+y,z
1/2-x,1/2+y,-z
1/2-x,1/2-y,-z
1/2+x,1/2-y,z
loop_
_atom_site_type_symbol
_atom_site_label
_atom_site_fract_x
_atom_site_fract_y
_atom_site_fract_z
Si Si1 0.304466 0.830716 0.320013
Si Si2 0.262795 0.333115 0.404113
Si Si3 0.638146 0.330222 0.023102
Si Si4 0.828581 0.826558 0.095057
Si Si5 0.137759 0.167007 0.309315
Si Si6 0.009001 0.327872 0.925866
Si Si7 0.086023 0.172471 0.636217
O O1 0.302747 0.744221 0.393363
O O2 0.222265 0.817146 0.169892
O O3 0.362766 0.761226 0.346817
O O4 0.319487 0.000000 0.353028
O O5 0.245260 0.500000 0.362385
O O6 0.188402 0.246923 0.320434
O O7 0.315424 0.330024 0.549577
O O8 0.616876 0.500000 0.997305
O O9 0.639412 0.284832 0.939430
O O10 0.583024 0.238114 0.995297
O O11 0.885666 0.795968 0.241471
O O12 0.815896 0.000000 0.074852
O O13 0.750000 0.750000 0.000000
O O14 0.061328 0.251157 0.210424
O O15 0.125231 0.000000 0.271029
O O16 0.007133 0.500000 0.913004
O O17 0.000000 0.297906 0.000000
O O18 0.000000 0.205129 0.500000
O O19 0.096571 0.000000 0.639061
#
# Coordination Sequence:
#
# PCOD9202535 Si02
#       7
#     8   8   8   8   8   8   8
#     4  11  22  37  59  87 118 151 195 245 294 354
#     4  10  21  37  59  85 115 152 195 240 291 355
#     4  10  22  38  58  86 117 156 202 246 299 359
#     4  10  20  38  62  86 117 155 198 249 300 360
#     4  10  21  38  59  83 114 154 195 241 295 350
#     4  11  24  39  57  85 120 156 198 247 296 350
#     4  10  22  39  60  87 120 157 197 246 305 363
#
# _framework density 18.424567
#
# number of rings (size 3 to 8) (size 9 to 14) (size 15 to 20)
#    0.000    1.714    1.429    2.571    0.000    8.286 
#    0.000    2.857    0.000    0.000    0.000    0.000 
#    0.000    0.000    0.000    0.000    0.000    0.000 
#
# Total GULP energy -156452.193755 kJ/mol
# GULP energy per Si atom -5587.578348 kJ/mol
# Density = 1.838263 g / cm^3
# Si number density = 18.424567 Si / 1000 Ang^3
#
#
#
# Elastic Constant Matrix: (Units=GPa)
#
#
# Indices 1 2 3 4 5 6 
#
# 1 143.7671 88.4882 40.6015 0.0000 4.5850 0.0000
# 2 88.4882 106.3517 50.3862 0.0000 5.2755 0.0000
# 3 40.6015 50.3862 70.1038 0.0000 10.7131 0.0000
# 4 0.0000 0.0000 0.0000 16.7838 0.0000 11.2314
# 5 4.5850 5.2755 10.7131 0.0000 26.7178 0.0000
# 6 0.0000 0.0000 0.0000 11.2314 0.0000 32.6143
#
#
#
# Elastic Compliance Matrix: (Units=1/GPa)
#
#
# Indices 1 2 3 4 5 6 
#
# 1 0.014266 -0.012071 0.000451 0.000000 -0.000246 0.000000
# 2 -0.012071 0.024520 -0.010875 0.000000 0.001591 0.000000
# 3 0.000451 -0.010875 0.022907 0.000000 -0.007115 0.000000
# 4 0.000000 0.000000 0.000000 0.077423 0.000000 -0.026662
# 5 -0.000246 0.001591 -0.007115 0.000000 0.040009 0.000000
# 6 0.000000 0.000000 0.000000 -0.026662 0.000000 0.039843
#
#
# Mechanical properties :
#
#
# Convention : Reuss Voigt Hill
#
# Bulk Modulus (GPa) = 59.87173 75.46382 67.66777
# Shear Modulus (GPa) = 18.55109 24.60632 21.57870
#
# Velocity S-wave (km/s) = 3.17656 3.65844 3.42598
# Velocity P-wave (km/s) = 6.78382 7.67416 7.24268
#
# Compressibility (1/GPa) = 0.01670237
#
# Stress axis : x y z
#
# Youngs Moduli (GPa) = 70.09675 40.78285 43.65503
#
# Poissons Ratio (x) = 0.49231 -0.01971
# Poissons Ratio (y) = 0.84617 0.47476
# Poissons Ratio (z) = -0.03164 0.44352
#
# Static dielectric constant tensor:
#      x y z
#    x 1.606580 0.000000 -0.022020 
#    y 0.000000 1.617430 0.000000 
#    z -0.022020 0.000000 1.632160 
# 
# From -- ./inp_files/292526.got.cif
#   From: 2010.05.17/outbox.cif.g08.bks.cpg/sg12_147_cif.got.tgz:292526.got - 2010.06.03 13:09:07.
