data_PCOD9202760
_publ_section_title
;
Structure prediction by ZEFSAII (Michael W. Deem and Ramdas Pophale) SiO2 
 PCOD9202760
Probable space group: C 2/M
;
_chemical_formula_sum "Si O2"
_cell_formula_units_Z 64
_cell_length_a 13.820981
_cell_length_b 22.153733
_cell_length_c 9.102616
_cell_angle_alpha 90.000000
_cell_angle_beta 93.275667
_cell_angle_gamma 90.000000
_cell_volume 2782.542889
_symmetry_space_group_name_H-M "C 2/M"
_symmetry_group_IT_number 12
_symmetry_cell_setting 'monoclinic'
loop_
_space_group_symop_operation_xyz
x,y,z
-x,y,-z
-x,-y,-z
x,-y,z
1/2+x,1/2+y,z
1/2-x,1/2+y,-z
1/2-x,1/2-y,-z
1/2+x,1/2-y,z
loop_
_atom_site_type_symbol
_atom_site_label
_atom_site_fract_x
_atom_site_fract_y
_atom_site_fract_z
Si Si1 0.714120 0.355744 0.577147
Si Si2 0.393358 0.427877 0.839420
Si Si3 0.139941 0.259833 0.045746
Si Si4 0.129075 0.243270 0.731502
Si Si5 0.436803 0.683711 0.689243
Si Si6 0.310526 0.881696 0.311166
Si Si7 0.892394 0.401491 0.018224
Si Si8 0.686993 0.431623 0.858240
O O1 0.719078 0.296387 0.680107
O O2 0.638157 0.334114 0.446175
O O3 0.802277 0.382764 0.488146
O O4 0.680932 0.401733 0.698838
O O5 0.412099 0.500000 0.830603
O O6 0.463890 0.381545 0.762645
O O7 0.290325 0.411205 0.753751
O O8 0.375806 0.409598 0.007496
O O9 0.116172 0.222884 0.188727
O O10 0.113707 0.330859 0.037542
O O11 0.250000 0.250000 0.000000
O O12 0.092789 0.232757 0.894980
O O13 0.163723 0.311198 0.713025
O O14 0.029931 0.221663 0.648140
O O15 0.380382 0.909296 0.193506
O O16 0.798702 0.428390 0.927253
O O17 0.000000 0.424193 0.000000
O O18 0.657614 0.500000 0.837678
#
# Coordination Sequence:
#
# PCOD9202760 Si02
#       8
#     8   8   8   8   8   8   8   8
#     4  11  22  37  57  83 124 168 207 248 301 377
#     4   9  19  39  65  90 119 162 217 263 304 368
#     4  11  20  35  60  87 119 157 204 253 307 377
#     4  11  21  36  57  90 126 157 198 256 319 369
#     4  11  22  36  59  91 126 160 202 257 315 368
#     4   9  20  37  60  89 119 160 206 250 306 372
#     4  10  20  38  63  91 118 149 196 259 323 371
#     4  10  22  40  63  88 118 163 216 263 306 366
#
# _framework density 23.000543
#
# number of rings (size 3 to 8) (size 9 to 14) (size 15 to 20)
#    0.000    1.750    0.000    7.875    0.000    3.250 
#    0.000    3.750    0.000    7.500    0.000    0.000 
#    0.000    0.000    0.000    0.000    0.000    0.000 
#
# Total GULP energy -178164.861856 kJ/mol
# GULP energy per Si atom -5567.651933 kJ/mol
# Density = 2.294819 g / cm^3
# Si number density = 23.000543 Si / 1000 Ang^3
#
#
#
# Elastic Constant Matrix: (Units=GPa)
#
#
# Indices 1 2 3 4 5 6 
#
# 1 84.3141 8.2869 10.9292 0.0000 -11.0329 0.0000
# 2 8.2869 83.4760 36.2426 0.0000 2.5094 0.0000
# 3 10.9292 36.2426 140.4597 0.0000 -32.7745 0.0000
# 4 0.0000 0.0000 0.0000 14.2705 0.0000 17.8549
# 5 -11.0329 2.5094 -32.7745 0.0000 31.1815 0.0000
# 6 0.0000 0.0000 0.0000 17.8549 0.0000 -65.7277
#
#
#
# Elastic Compliance Matrix: (Units=1/GPa)
#
#
# Indices 1 2 3 4 5 6 
#
# 1 0.012639 -0.001725 0.000712 0.000000 0.005359 0.000000
# 2 -0.001725 0.014725 -0.005411 0.000000 -0.007483 0.000000
# 3 0.000712 -0.005411 0.011422 0.000000 0.012693 0.000000
# 4 0.000000 0.000000 0.000000 0.052299 0.000000 0.014207
# 5 0.005359 -0.007483 0.012693 0.000000 0.047910 0.000000
# 6 0.000000 0.000000 0.000000 0.014207 0.000000 -0.011355
#
#
# Mechanical properties :
#
#
# Convention : Reuss Voigt Hill
#
# Bulk Modulus (GPa) = 38.55377 46.57413 42.56395
# Shear Modulus (GPa) = 33.52660 12.79761 23.16210
#
# Velocity S-wave (km/s) = 3.82205 2.36138 3.17681
# Velocity P-wave (km/s) = 6.02295 5.26573 5.65703
#
# Compressibility (1/GPa) = 0.02593780
#
# Stress axis : x y z
#
# Youngs Moduli (GPa) = 79.12052 67.91096 87.54919
#
# Poissons Ratio (x) = 0.11715 -0.06236
# Poissons Ratio (y) = 0.13649 0.47377
# Poissons Ratio (z) = -0.05635 0.36749
#
# Static dielectric constant tensor:
#      x y z
#    x 1.708410 0.000000 -0.057030 
#    y 0.000000 1.865630 0.000000 
#    z -0.057030 0.000000 1.978520 
# 
# From -- ./inp_files/65871.got.cif
#   From: 2010.05.17/outbox.cif.g08.bks.cpg/sg12_33_cif.got.tgz:65871.got - 2010.06.03 13:09:07.
