data_PCOD9202958
_publ_section_title
;
Structure prediction by ZEFSAII (Michael W. Deem and Ramdas Pophale) SiO2 
 PCOD9202958
Probable space group: C 2/M
;
_chemical_formula_sum "Si O2"
_cell_formula_units_Z 64
_cell_length_a 17.168005
_cell_length_b 17.667654
_cell_length_c 15.192581
_cell_angle_alpha 90.000000
_cell_angle_beta 44.467593
_cell_angle_gamma 90.000000
_cell_volume 3228.062763
_symmetry_space_group_name_H-M "C 2/M"
_symmetry_group_IT_number 12
_symmetry_cell_setting 'monoclinic'
loop_
_space_group_symop_operation_xyz
x,y,z
-x,y,-z
-x,-y,-z
x,-y,z
1/2+x,1/2+y,z
1/2-x,1/2+y,-z
1/2-x,1/2-y,-z
1/2+x,1/2-y,z
loop_
_atom_site_type_symbol
_atom_site_label
_atom_site_fract_x
_atom_site_fract_y
_atom_site_fract_z
Si Si1 0.017002 0.088045 0.202488
Si Si2 0.312679 0.088984 0.297774
Si Si3 0.604616 0.909474 0.581394
Si Si4 0.289451 0.310997 0.037018
Si Si5 0.709111 0.642232 0.688593
Si Si6 0.641311 0.089780 0.266601
Si Si7 0.374540 0.223695 0.135347
Si Si8 0.441754 0.408333 0.457068
O O1 0.897903 0.092100 0.249551
O O2 0.995919 0.115089 0.320471
O O3 0.103775 0.142148 0.082842
O O4 0.054152 0.000000 0.173207
O O5 0.395742 0.100961 0.313094
O O6 0.342766 0.140027 0.190676
O O7 0.188735 0.109449 0.431171
O O8 0.312109 0.000000 0.276664
O O9 0.705139 0.861447 0.460622
O O10 0.488937 0.889314 0.627670
O O11 0.626978 0.000000 0.548123
O O12 0.250000 0.250000 0.000000
O O13 0.195969 0.371323 0.138132
O O14 0.309570 0.261756 0.107992
O O15 0.783748 0.612348 0.709938
O O16 0.656506 0.722786 0.756948
O O17 0.644990 0.000000 0.255755
O O18 0.500000 0.226769 0.000000
O O19 0.500000 0.380581 0.500000
O O20 0.450005 0.500000 0.449913
#
# Coordination Sequence:
#
# PCOD9202958 Si02
#       8
#     8   8   8   8   8   8   8   8
#     4  11  21  39  70  97 122 165 211 258 318 379
#     4  10  22  41  65  91 121 163 214 263 309 373
#     4  10  20  38  64  96 129 163 209 259 311 378
#     4  11  26  44  60  87 129 171 209 265 314 372
#     4  11  21  39  64  97 131 161 200 263 325 373
#     4  10  22  39  63  92 128 171 213 256 308 380
#     4  11  25  44  60  87 126 163 209 255 317 374
#     4   9  19  37  61  94 125 151 202 269 318 361
#
# _framework density 19.826132999999999
#
# number of rings (size 3 to 8) (size 9 to 14) (size 15 to 20)
#    0.000    1.625    2.500    1.875    3.500    1.750 
#    2.250    2.500    0.000    0.000    0.000    0.000 
#    0.000    0.000    0.000    0.000    0.000    0.000 
#
# Total GULP energy -178566.171973 kJ/mol
# GULP energy per Si atom -5580.192874 kJ/mol
# Density = 1.978101 g / cm^3
# Si number density = 19.826133 Si / 1000 Ang^3
#
#
#
# Elastic Constant Matrix: (Units=GPa)
#
#
# Indices 1 2 3 4 5 6 
#
# 1 81.0705 33.1316 36.1489 0.0000 0.7879 0.0000
# 2 33.1316 68.5834 51.9518 0.0000 -0.5529 0.0000
# 3 36.1489 51.9518 102.2328 0.0000 -8.1801 0.0000
# 4 0.0000 0.0000 0.0000 36.3511 0.0000 11.1813
# 5 0.7879 -0.5529 -8.1801 0.0000 26.7382 0.0000
# 6 0.0000 0.0000 0.0000 11.1813 0.0000 38.3538
#
#
#
# Elastic Compliance Matrix: (Units=1/GPa)
#
#
# Indices 1 2 3 4 5 6 
#
# 1 0.015899 -0.005436 -0.002979 0.000000 -0.001492 0.000000
# 2 -0.005436 0.025848 -0.011437 0.000000 -0.002804 0.000000
# 3 -0.002979 -0.011437 0.017053 0.000000 0.005068 0.000000
# 4 0.000000 0.000000 0.000000 0.030219 0.000000 -0.008810
# 5 -0.001492 -0.002804 0.005068 0.000000 0.038936 0.000000
# 6 0.000000 0.000000 0.000000 -0.008810 0.000000 0.028641
#
#
# Mechanical properties :
#
#
# Convention : Reuss Voigt Hill
#
# Bulk Modulus (GPa) = 52.36955 54.92793 53.64874
# Shear Modulus (GPa) = 24.67098 28.99890 26.83494
#
# Velocity S-wave (km/s) = 3.53139 3.82862 3.68300
# Velocity P-wave (km/s) = 6.56501 6.87819 6.72342
#
# Compressibility (1/GPa) = 0.01909507
#
# Stress axis : x y z
#
# Youngs Moduli (GPa) = 62.89554 38.68730 58.64224
#
# Poissons Ratio (x) = 0.21032 0.17468
# Poissons Ratio (y) = 0.34193 0.67072
# Poissons Ratio (z) = 0.18735 0.44248
#
# Static dielectric constant tensor:
#      x y z
#    x 1.573400 0.000000 -0.008090 
#    y 0.000000 1.699890 0.000000 
#    z -0.008090 0.000000 1.699400 
# 
# From -- ./inp_files/226814.got.cif
#   From: 2010.05.17/outbox.cif.g08.bks.cpg/sg12_114_cif.got.tgz:226814.got - 2010.06.03 13:09:07.
