data_PCOD9202944
_publ_section_title
;
Structure prediction by ZEFSAII (Michael W. Deem and Ramdas Pophale) SiO2 
 PCOD9202944
Probable space group: C 2/M
;
_chemical_formula_sum "Si O2"
_cell_formula_units_Z 38
_cell_length_a 13.241886
_cell_length_b 24.791205
_cell_length_c 4.955429
_cell_angle_alpha 90.000000
_cell_angle_beta 79.413703
_cell_angle_gamma 90.000000
_cell_volume 1599.090777
_symmetry_space_group_name_H-M "C 2/M"
_symmetry_group_IT_number 12
_symmetry_cell_setting 'monoclinic'
loop_
_space_group_symop_operation_xyz
x,y,z
-x,y,-z
-x,-y,-z
x,-y,z
1/2+x,1/2+y,z
1/2-x,1/2+y,-z
1/2-x,1/2-y,-z
1/2+x,1/2-y,z
loop_
_atom_site_type_symbol
_atom_site_label
_atom_site_fract_x
_atom_site_fract_y
_atom_site_fract_z
Si Si1 0.627729 0.903864 0.703982
Si Si2 0.500000 0.812408 0.500000
Si Si3 0.500000 0.000000 0.500000
Si Si4 0.679343 0.735739 0.281273
Si Si5 0.570103 0.374538 0.213818
Si Si6 0.749918 0.435357 0.851128
O O1 0.566465 0.850024 0.665595
O O2 0.665196 0.910522 0.989651
O O3 0.555533 0.953149 0.655812
O O4 0.725832 0.910950 0.453951
O O5 0.580343 0.773636 0.317054
O O6 0.750000 0.750000 0.500000
O O7 0.640202 0.674444 0.285756
O O8 0.750000 0.750000 0.000000
O O9 0.500000 0.393285 0.500000
O O10 0.642003 0.419370 0.037130
O O11 0.500000 0.353704 0.000000
O O12 0.764002 0.500000 0.831981
#
# Coordination Sequence:
#
# PCOD9202944 Si02
#       6
#     8   4   2   8   8   8
#     4  11  24  41  67 104 138 180 224 285 347 423
#     4  11  26  45  72 104 143 182 233 284 358 420
#     4  10  20  38  64  94 136 170 214 274 346 402
#     4  12  26  46  73 102 137 186 235 288 350 417
#     4  12  26  46  70 100 142 182 237 292 341 403
#     4  12  24  45  70 100 140 184 233 283 348 410
#
# _framework density 23.763504000000001
#
# number of rings (size 3 to 8) (size 9 to 14) (size 15 to 20)
#    0.000    0.421    3.158    5.053    0.000    6.737 
#    0.000    0.000    0.000    0.000    0.000    0.000 
#    0.000    0.000    0.000    0.000    0.000    0.000 
#
# Total GULP energy -106322.911441 kJ/mol
# GULP energy per Si atom -5595.942707 kJ/mol
# Density = 2.370942 g / cm^3
# Si number density = 23.763504 Si / 1000 Ang^3
#
#
#
# Elastic Constant Matrix: (Units=GPa)
#
#
# Indices 1 2 3 4 5 6 
#
# 1 87.5784 29.7629 47.3909 0.0000 -16.4560 0.0000
# 2 29.7629 110.4047 26.7825 0.0000 -11.3395 0.0000
# 3 47.3909 26.7825 141.9826 0.0000 -18.8824 0.0000
# 4 0.0000 0.0000 0.0000 19.8536 0.0000 -13.8868
# 5 -16.4560 -11.3395 -18.8824 0.0000 59.1269 0.0000
# 6 0.0000 0.0000 0.0000 -13.8868 0.0000 36.5731
#
#
#
# Elastic Compliance Matrix: (Units=1/GPa)
#
#
# Indices 1 2 3 4 5 6 
#
# 1 0.015078 -0.002809 -0.004195 0.000000 0.002318 0.000000
# 2 -0.002809 0.010113 -0.000852 0.000000 0.000885 0.000000
# 3 -0.004195 -0.000852 0.008801 0.000000 0.001480 0.000000
# 4 0.000000 0.000000 0.000000 0.068583 0.000000 0.026041
# 5 0.002318 0.000885 0.001480 0.000000 0.018200 0.000000
# 6 0.000000 0.000000 0.000000 0.026041 0.000000 0.037230
#
#
# Mechanical properties :
#
#
# Convention : Reuss Voigt Hill
#
# Bulk Modulus (GPa) = 54.70537 60.87090 57.78813
# Shear Modulus (GPa) = 27.80696 38.84600 33.32648
#
# Velocity S-wave (km/s) = 3.42446 4.04752 3.74896
# Velocity P-wave (km/s) = 6.22147 6.89305 6.56585
#
# Compressibility (1/GPa) = 0.01827974
#
# Stress axis : x y z
#
# Youngs Moduli (GPa) = 66.31972 98.88707 113.62681
#
# Poissons Ratio (x) = 0.27779 0.47663
# Poissons Ratio (y) = 0.18630 0.09683
# Poissons Ratio (z) = 0.27819 0.08427
#
# Static dielectric constant tensor:
#      x y z
#    x 1.938630 0.000000 -0.055140 
#    y 0.000000 1.858860 0.000000 
#    z -0.055140 0.000000 1.863420 
# 
# From -- ./inp_files/7621.got.cif
#   From: 2010.05.17/outbox.cif.g08.bks.cpg/sg12_4_cif.got.tgz:7621.got - 2010.06.03 13:09:07.
