data_PCOD9202098
_publ_section_title
;
Structure prediction by ZEFSAII (Michael W. Deem and Ramdas Pophale) SiO2 
 PCOD9202098
Probable space group: C 2/M
;
_chemical_formula_sum "Si O2"
_cell_formula_units_Z 48
_cell_length_a 15.699040
_cell_length_b 17.748736
_cell_length_c 17.087291
_cell_angle_alpha 90.000000
_cell_angle_beta 145.517396
_cell_angle_gamma 90.000000
_cell_volume 2695.565251
_symmetry_space_group_name_H-M "C 2/M"
_symmetry_group_IT_number 12
_symmetry_cell_setting 'monoclinic'
loop_
_space_group_symop_operation_xyz
x,y,z
-x,y,-z
-x,-y,-z
x,-y,z
1/2+x,1/2+y,z
1/2-x,1/2+y,-z
1/2-x,1/2-y,-z
1/2+x,1/2-y,z
loop_
_atom_site_type_symbol
_atom_site_label
_atom_site_fract_x
_atom_site_fract_y
_atom_site_fract_z
Si Si1 0.360401 0.154738 0.652674
Si Si2 0.667481 0.910028 0.810646
Si Si3 0.823785 0.590196 0.359774
Si Si4 0.293342 0.662788 0.049387
Si Si5 0.870371 0.835493 0.650893
Si Si6 0.005685 0.409611 0.912011
O O1 0.506892 0.125287 0.715317
O O2 0.211927 0.135308 0.490105
O O3 0.360659 0.245109 0.652184
O O4 0.381776 0.123550 0.757068
O O5 0.714304 0.890363 0.758357
O O6 0.651515 0.000000 0.803903
O O7 0.789034 0.879177 0.963057
O O8 0.812903 0.500000 0.362049
O O9 0.720506 0.629279 0.345484
O O10 0.000000 0.610614 0.500000
O O11 0.452675 0.649928 0.210320
O O12 0.250000 0.750000 0.000000
O O13 0.160699 0.625280 0.998328
O O14 0.004554 0.500000 0.902545
O O15 0.000000 0.391708 0.000000
#
# Coordination Sequence:
#
# PCOD9202098 Si02
#       6
#     8   8   8   8   8   8
#     4  10  20  38  58  86 117 154 196 241 294 353
#     4  10  20  38  60  81 117 163 196 231 292 360
#     4  10  21  36  57  87 120 156 192 232 287 352
#     4  11  21  38  58  89 120 154 193 249 302 350
#     4  11  22  36  59  91 121 151 195 242 300 355
#     4  10  22  42  64  84 113 162 209 241 292 359
#
# _framework density 17.807026
#
# number of rings (size 3 to 8) (size 9 to 14) (size 15 to 20)
#    0.000    1.667    5.000    2.000    0.000    4.000 
#    0.000    2.500    0.000    2.000    0.000    0.000 
#    0.000    0.000    0.000    0.000    0.000    0.000 
#
# Total GULP energy -133823.898678 kJ/mol
# GULP energy per Si atom -5575.995778 kJ/mol
# Density = 1.776650 g / cm^3
# Si number density = 17.807026 Si / 1000 Ang^3
#
#
#
# Elastic Constant Matrix: (Units=GPa)
#
#
# Indices 1 2 3 4 5 6 
#
# 1 98.7416 43.9512 61.8116 0.0013 -33.2355 0.0054
# 2 43.9512 56.8104 32.6531 0.0006 -15.5216 0.0040
# 3 61.8116 32.6531 168.0609 0.0007 -24.6347 0.0079
# 4 0.0013 0.0006 0.0007 27.0279 0.0007 -16.9643
# 5 -33.2355 -15.5216 -24.6347 0.0007 28.6001 0.0054
# 6 0.0054 0.0040 0.0079 -16.9643 0.0054 -163.5385
#
#
#
# Elastic Compliance Matrix: (Units=1/GPa)
#
#
# Indices 1 2 3 4 5 6 
#
# 1 0.023537 -0.011065 -0.003866 -0.000001 0.018017 0.000001
# 2 -0.011065 0.027010 -0.001047 0.000000 0.000899 0.000000
# 3 -0.003866 -0.001047 0.007821 0.000000 0.001676 0.000000
# 4 -0.000001 0.000000 0.000000 0.034737 -0.000001 -0.003603
# 5 0.018017 0.000899 0.001676 -0.000001 0.057834 0.000003
# 6 0.000001 0.000000 0.000000 -0.003603 0.000003 -0.005741
#
#
# Mechanical properties :
#
#
# Convention : Reuss Voigt Hill
#
# Bulk Modulus (GPa) = 37.85957 66.71609 52.28783
# Shear Modulus (GPa) = 26.88807 -9.23565 8.82621
#
# Velocity S-wave (km/s) = 3.89005 -2.27986 2.22875
# Velocity P-wave (km/s) = 6.44079 5.53327 6.00420
#
# Compressibility (1/GPa) = 0.02641340
#
# Stress axis : x y z
#
# Youngs Moduli (GPa) = 42.48663 37.02368 127.85868
#
# Poissons Ratio (x) = 0.40966 0.49430
# Poissons Ratio (y) = 0.47010 0.13381
# Poissons Ratio (z) = 0.16425 0.03875
#
# Static dielectric constant tensor:
#      x y z
#    x 1.595560 0.000000 -0.040270 
#    y 0.000000 1.599260 0.000000 
#    z -0.040270 0.000000 1.660910 
# 
# From -- ./inp_files/271775.got.cif
#   From: 2010.05.17/outbox.cif.g08.bks.cpg/sg12_136_cif.got.tgz:271775.got - 2010.06.03 13:09:07.
