data_PCOD9202914
_publ_section_title
;
Structure prediction by ZEFSAII (Michael W. Deem and Ramdas Pophale) SiO2 
 PCOD9202914
Probable space group: C 2/M
;
_chemical_formula_sum "Si O2"
_cell_formula_units_Z 32
_cell_length_a 17.197802
_cell_length_b 12.379748
_cell_length_c 28.195362
_cell_angle_alpha 90.000000
_cell_angle_beta 163.925506
_cell_angle_gamma 90.000000
_cell_volume 1662.129536
_symmetry_space_group_name_H-M "C 2/M"
_symmetry_group_IT_number 12
_symmetry_cell_setting 'monoclinic'
loop_
_space_group_symop_operation_xyz
x,y,z
-x,y,-z
-x,-y,-z
x,-y,z
1/2+x,1/2+y,z
1/2-x,1/2+y,-z
1/2-x,1/2-y,-z
1/2+x,1/2-y,z
loop_
_atom_site_type_symbol
_atom_site_label
_atom_site_fract_x
_atom_site_fract_y
_atom_site_fract_z
Si Si1 0.295931 0.000000 0.926491
Si Si2 0.133922 0.500000 0.525602
Si Si3 0.173112 0.622104 0.325831
Si Si4 0.581640 0.877800 0.170824
Si Si5 0.385809 0.231437 0.529006
O O1 0.972069 0.000000 0.724631
O O2 0.500000 0.000000 0.000000
O O3 0.363485 0.102085 0.000735
O O4 0.056330 0.609344 0.452780
O O5 0.000000 0.500000 0.500000
O O6 0.500000 0.623863 0.500000
O O7 0.110282 0.500000 0.305707
O O8 0.989813 0.645060 0.171127
O O9 0.178107 0.711857 0.369033
O O10 0.820295 0.794334 0.298351
O O11 0.711565 0.000000 0.250332
O O12 0.250000 0.250000 0.500000
#
# Coordination Sequence:
#
# PCOD9202914 Si02
#       5
#     4   4   8   8   8
#     4  10  20  38  64  93 121 161 219 254 293 373
#     4  12  26  40  57  97 139 157 186 270 342 361
#     4   8  14  29  54  79 105 146 206 247 278 353
#     4   8  17  35  62  83 105 154 216 245 279 359
#     4  11  21  33  57  88 125 161 201 254 312 369
#
# _framework density 19.252410999999999
#
# number of rings (size 3 to 8) (size 9 to 14) (size 15 to 20)
#    0.750    1.750    0.000    6.000    3.500    0.000 
#    0.000    5.000    0.000    0.000    3.250    4.375 
#    0.000    0.000    0.000    0.000    0.000    0.000 
#
# Total GULP energy -89069.444861 kJ/mol
# GULP energy per Si atom -5566.840304 kJ/mol
# Density = 1.920859 g / cm^3
# Si number density = 19.252411 Si / 1000 Ang^3
#
#
#
# Elastic Constant Matrix: (Units=GPa)
#
#
# Indices 1 2 3 4 5 6 
#
# 1 106.2123 54.5816 -3.5589 0.0052 -4.7753 0.0046
# 2 54.5816 119.2447 0.9695 0.0215 1.2332 0.0001
# 3 -3.5589 0.9695 39.3792 0.0472 -0.9070 0.0176
# 4 0.0052 0.0215 0.0472 17.6456 -0.0001 -7.0676
# 5 -4.7753 1.2332 -0.9070 -0.0001 22.8574 -0.0016
# 6 0.0046 0.0001 0.0176 -7.0676 -0.0016 24.8532
#
#
#
# Elastic Compliance Matrix: (Units=1/GPa)
#
#
# Indices 1 2 3 4 5 6 
#
# 1 0.012574 -0.005797 0.001348 -0.000002 0.002993 -0.000003
# 2 -0.005797 0.011066 -0.000839 -0.000010 -0.001841 -0.000001
# 3 0.001348 -0.000839 0.025568 -0.000085 0.001341 -0.000042
# 4 -0.000002 -0.000010 -0.000085 0.063956 -0.000002 0.018188
# 5 0.002993 -0.001841 0.001341 -0.000002 0.044527 0.000001
# 6 -0.000003 -0.000001 -0.000042 0.018188 0.000001 0.045408
#
#
# Mechanical properties :
#
#
# Convention : Reuss Voigt Hill
#
# Bulk Modulus (GPa) = 25.88591 40.98006 33.43299
# Shear Modulus (GPa) = 22.06991 27.26084 24.66537
#
# Velocity S-wave (km/s) = 3.38944 3.76702 3.58321
# Velocity P-wave (km/s) = 5.36587 6.34448 5.87558
#
# Compressibility (1/GPa) = 0.03863105
#
# Stress axis : x y z
#
# Youngs Moduli (GPa) = 79.52857 90.36997 39.11199
#
# Poissons Ratio (x) = 0.52391 -0.05273
# Poissons Ratio (y) = 0.46106 0.03281
# Poissons Ratio (z) = -0.10721 0.07580
#
# Static dielectric constant tensor:
#      x y z
#    x 1.698840 -0.000140 -0.069830 
#    y -0.000140 1.720530 0.000030 
#    z -0.069830 0.000030 1.713760 
# 
# From -- ./inp_files/343244.got.cif
#   From: 2010.05.17/outbox.cif.g08.bks.cpg/sg12_172_cif.got.tgz:343244.got - 2010.06.03 13:09:07.
