data_PCOD9202202
_publ_section_title
;
Structure prediction by ZEFSAII (Michael W. Deem and Ramdas Pophale) SiO2 
 PCOD9202202
Probable space group: C 2/M
;
_chemical_formula_sum "Si O2"
_cell_formula_units_Z 36
_cell_length_a 20.912087
_cell_length_b 17.462296
_cell_length_c 9.127518
_cell_angle_alpha 90.000000
_cell_angle_beta 33.378839
_cell_angle_gamma 90.000000
_cell_volume 1833.792516
_symmetry_space_group_name_H-M "C 2/M"
_symmetry_group_IT_number 12
_symmetry_cell_setting 'monoclinic'
loop_
_space_group_symop_operation_xyz
x,y,z
-x,y,-z
-x,-y,-z
x,-y,z
1/2+x,1/2+y,z
1/2-x,1/2+y,-z
1/2-x,1/2-y,-z
1/2+x,1/2-y,z
loop_
_atom_site_type_symbol
_atom_site_label
_atom_site_fract_x
_atom_site_fract_y
_atom_site_fract_z
Si Si1 0.137365 0.085238 0.764518
Si Si2 0.135605 0.585806 0.242566
Si Si3 0.706628 0.628079 0.309744
Si Si4 0.500000 0.666245 0.500000
Si Si5 0.200346 0.201428 0.898718
O O1 0.192989 0.098066 0.499049
O O2 0.166861 0.152997 0.819805
O O3 0.168120 0.000000 0.762421
O O4 0.000000 0.086819 0.000000
O O5 0.150856 0.500000 0.274367
O O6 0.207455 0.648608 0.193205
O O7 0.000000 0.603373 0.500000
O O8 0.191132 0.587763 0.975157
O O9 0.587719 0.620411 0.440722
O O10 0.741384 0.717670 0.246674
O O11 0.411761 0.709951 0.779019
#
# Coordination Sequence:
#
# PCOD9202202 Si02
#       5
#     8   8   8   4   8
#     4  11  23  42  61  87 125 160 199 252 304 358
#     4  10  22  39  60  90 125 162 201 245 301 363
#     4  11  23  38  65  89 123 158 205 252 299 358
#     4  10  20  38  59  96 117 150 206 246 312 338
#     4  11  23  38  65  89 123 158 205 252 299 358
#
# _framework density 19.631447999999999
#
# number of rings (size 3 to 8) (size 9 to 14) (size 15 to 20)
#    0.000    1.333    2.222    4.667    6.222    0.000 
#    0.000    4.444    0.000    4.000    0.000    0.000 
#    0.000    0.000    0.000    0.000    0.000    0.000 
#
# Total GULP energy -100546.116376 kJ/mol
# GULP energy per Si atom -5585.895354 kJ/mol
# Density = 1.958677 g / cm^3
# Si number density = 19.631448 Si / 1000 Ang^3
#
#
#
# Elastic Constant Matrix: (Units=GPa)
#
#
# Indices 1 2 3 4 5 6 
#
# 1 85.2731 34.8556 44.5815 0.0000 8.5397 0.0000
# 2 34.8556 107.2018 26.4776 0.0000 -13.9142 0.0000
# 3 44.5815 26.4776 123.2656 0.0000 -12.1219 0.0000
# 4 0.0000 0.0000 0.0000 145.1453 0.0000 -15.8996
# 5 8.5397 -13.9142 -12.1219 0.0000 27.9486 0.0000
# 6 0.0000 0.0000 0.0000 -15.8996 0.0000 5.8978
#
#
#
# Elastic Compliance Matrix: (Units=1/GPa)
#
#
# Indices 1 2 3 4 5 6 
#
# 1 0.018819 -0.005981 -0.006664 0.000000 -0.011618 0.000000
# 2 -0.005981 0.012238 0.000327 0.000000 0.008062 0.000000
# 3 -0.006664 0.000327 0.011144 0.000000 0.007033 0.000000
# 4 0.000000 0.000000 0.000000 0.009777 0.000000 0.026357
# 5 -0.011618 0.008062 0.007033 0.000000 0.046394 0.000000
# 6 0.000000 0.000000 0.000000 0.026357 0.000000 0.240607
#
#
# Mechanical properties :
#
#
# Convention : Reuss Voigt Hill
#
# Bulk Modulus (GPa) = 56.92844 58.61888 57.77366
# Shear Modulus (GPa) = 13.53286 49.78673 31.65980
#
# Velocity S-wave (km/s) = 2.62839 5.04140 4.02021
# Velocity P-wave (km/s) = 6.18650 7.98825 7.14440
#
# Compressibility (1/GPa) = 0.01756591
#
# Stress axis : x y z
#
# Youngs Moduli (GPa) = 53.13682 81.70955 89.73334
#
# Poissons Ratio (x) = 0.48870 0.59800
# Poissons Ratio (y) = 0.31781 -0.02935
# Poissons Ratio (z) = 0.35412 -0.02673
#
# Static dielectric constant tensor:
#      x y z
#    x 1.684800 0.000000 0.015150 
#    y 0.000000 1.709600 0.000000 
#    z 0.015150 0.000000 1.682630 
# 
# From -- ./inp_files/70940.got.cif
#   From: 2010.05.17/outbox.cif.g08.bks.cpg/sg12_36_cif.got.tgz:70940.got - 2010.06.03 13:09:07.
