data_PCOD9202237
_publ_section_title
;
Structure prediction by ZEFSAII (Michael W. Deem and Ramdas Pophale) SiO2 
 PCOD9202237
Probable space group: C 2/M
;
_chemical_formula_sum "Si O2"
_cell_formula_units_Z 64
_cell_length_a 29.957757
_cell_length_b 7.524793
_cell_length_c 16.446841
_cell_angle_alpha 90.000000
_cell_angle_beta 41.168035
_cell_angle_gamma 90.000000
_cell_volume 2440.563642
_symmetry_space_group_name_H-M "C 2/M"
_symmetry_group_IT_number 12
_symmetry_cell_setting 'monoclinic'
loop_
_space_group_symop_operation_xyz
x,y,z
-x,y,-z
-x,-y,-z
x,-y,z
1/2+x,1/2+y,z
1/2-x,1/2+y,-z
1/2-x,1/2-y,-z
1/2+x,1/2-y,z
loop_
_atom_site_type_symbol
_atom_site_label
_atom_site_fract_x
_atom_site_fract_y
_atom_site_fract_z
Si Si1 0.539951 0.213196 0.278615
Si Si2 0.948345 0.204103 0.913342
Si Si3 0.404832 0.290439 0.543761
Si Si4 0.917910 0.785758 0.200452
Si Si5 0.794163 0.290266 0.269186
Si Si6 0.831025 0.294809 0.809846
Si Si7 0.335444 0.716229 0.470041
Si Si8 0.301910 0.704833 0.080949
O O1 0.518193 0.294928 0.222441
O O2 0.484782 0.260083 0.422189
O O3 0.614787 0.281020 0.200950
O O4 0.541538 0.000000 0.269092
O O5 0.005297 0.280934 0.894644
O O6 0.935002 0.000000 0.957078
O O7 0.875693 0.290728 0.993370
O O8 0.391638 0.500000 0.568908
O O9 0.371355 0.207248 0.668874
O O10 0.372213 0.228843 0.503227
O O11 0.871806 0.744575 0.186300
O O12 0.873998 0.718395 0.337582
O O13 0.923013 0.000000 0.197893
O O14 0.784820 0.500000 0.272561
O O15 0.742670 0.227796 0.409987
O O16 0.774367 0.205673 0.210978
O O17 0.820780 0.500000 0.846276
O O18 0.756701 0.214725 0.895161
O O19 0.337497 0.500000 0.463045
O O20 0.311501 0.500000 0.042945
#
# Coordination Sequence:
#
# PCOD9202237 Si02
#       8
#     8   8   8   8   8   8   8   8
#     4  11  23  38  58  87 122 154 187 236 297 349
#     4  10  22  41  63  84 111 151 203 247 280 337
#     4  11  20  36  61  88 117 152 194 237 283 342
#     4  10  20  38  60  83 114 150 188 237 289 343
#     4  11  22  37  58  88 119 148 188 239 290 346
#     4  10  22  39  58  86 122 154 189 237 292 348
#     4   9  18  34  57  84 115 146 183 232 283 336
#     4  10  22  41  62  83 111 155 201 240 287 341
#
# _framework density 26.22345
#
# number of rings (size 3 to 8) (size 9 to 14) (size 15 to 20)
#    0.000    1.750    2.500    1.875    0.000    4.500 
#    0.000    3.125    0.000    0.000    0.000    0.000 
#    0.000    0.000    0.000    0.000    0.000    0.000 
#
# Total GULP energy -179082.399720 kJ/mol
# GULP energy per Si atom -5596.324991 kJ/mol
# Density = 2.616376 g / cm^3
# Si number density = 26.223450 Si / 1000 Ang^3
#
#
#
# Elastic Constant Matrix: (Units=GPa)
#
#
# Indices 1 2 3 4 5 6 
#
# 1 170.6152 3.1013 31.7088 -0.0012 -31.7178 0.0011
# 2 3.1013 89.2005 4.8861 -0.0204 -0.8404 0.0118
# 3 31.7088 4.8861 98.0062 -0.0124 -21.9165 0.0083
# 4 -0.0012 -0.0204 -0.0124 18.6818 0.0029 5.5593
# 5 -31.7178 -0.8404 -21.9165 0.0029 60.7727 -0.0014
# 6 0.0011 0.0118 0.0083 5.5593 -0.0014 10.3212
#
#
#
# Elastic Compliance Matrix: (Units=1/GPa)
#
#
# Indices 1 2 3 4 5 6 
#
# 1 0.006690 -0.000123 -0.001499 -0.000002 0.002949 0.000002
# 2 -0.000123 0.011244 -0.000544 0.000019 -0.000105 -0.000022
# 3 -0.001499 -0.000544 0.011463 0.000010 0.003344 -0.000014
# 4 -0.000002 0.000019 0.000010 0.063745 -0.000001 -0.034335
# 5 0.002949 -0.000105 0.003344 -0.000001 0.019199 0.000000
# 6 0.000002 -0.000022 -0.000014 -0.034335 0.000000 0.115382
#
#
# Mechanical properties :
#
#
# Convention : Reuss Voigt Hill
#
# Bulk Modulus (GPa) = 39.89519 48.57935 44.23727
# Shear Modulus (GPa) = 20.79776 39.16352 29.98064
#
# Velocity S-wave (km/s) = 2.81925 3.86872 3.38490
# Velocity P-wave (km/s) = 5.08372 6.20655 5.67298
#
# Compressibility (1/GPa) = 0.02506568
#
# Stress axis : x y z
#
# Youngs Moduli (GPa) = 149.47119 88.93791 87.23439
#
# Poissons Ratio (x) = 0.01091 0.13075
# Poissons Ratio (y) = 0.01834 0.04748
# Poissons Ratio (z) = 0.22404 0.04841
#
# Static dielectric constant tensor:
#      x y z
#    x 2.041450 0.000000 -0.038340 
#    y 0.000000 1.959180 0.000000 
#    z -0.038340 0.000000 2.116280 
# 
# From -- ./inp_files/295477.got.cif
#   From: 2010.05.17/outbox.cif.g08.bks.cpg/sg12_148_cif.got.tgz:295477.got - 2010.06.03 13:09:07.
