data_PCOD9202108
_publ_section_title
;
Structure prediction by ZEFSAII (Michael W. Deem and Ramdas Pophale) SiO2 
 PCOD9202108
Probable space group: C 2/M
;
_chemical_formula_sum "Si O2"
_cell_formula_units_Z 64
_cell_length_a 21.908726
_cell_length_b 17.415036
_cell_length_c 15.660579
_cell_angle_alpha 90.000000
_cell_angle_beta 150.623509
_cell_angle_gamma 90.000000
_cell_volume 2931.090790
_symmetry_space_group_name_H-M "C 2/M"
_symmetry_group_IT_number 12
_symmetry_cell_setting 'monoclinic'
loop_
_space_group_symop_operation_xyz
x,y,z
-x,y,-z
-x,-y,-z
x,-y,z
1/2+x,1/2+y,z
1/2-x,1/2+y,-z
1/2-x,1/2-y,-z
1/2+x,1/2-y,z
loop_
_atom_site_type_symbol
_atom_site_label
_atom_site_fract_x
_atom_site_fract_y
_atom_site_fract_z
Si Si1 0.763910 0.658814 0.528048
Si Si2 0.472704 0.089601 0.138858
Si Si3 0.200006 0.091420 0.767063
Si Si4 0.460352 0.089989 0.325418
Si Si5 0.362670 0.689072 0.144227
Si Si6 0.305160 0.591651 0.920141
Si Si7 0.733924 0.151634 0.661853
Si Si8 0.871141 0.813368 0.477246
O O1 0.750000 0.750000 0.500000
O O2 0.738725 0.626272 0.402371
O O3 0.674785 0.637777 0.497328
O O4 0.904552 0.638645 0.725726
O O5 0.439451 0.099144 0.198522
O O6 0.504036 0.000000 0.163879
O O7 0.348014 0.106997 0.934875
O O8 0.167366 0.127592 0.818579
O O9 0.126268 0.133859 0.602493
O O10 0.181133 0.000000 0.744418
O O11 0.336495 0.113319 0.223886
O O12 0.592355 0.125723 0.507994
O O13 0.474880 0.000000 0.360243
O O14 0.495382 0.722826 0.335233
O O15 0.250000 0.750000 0.000000
O O16 0.381921 0.644160 0.078885
O O17 0.321685 0.500000 0.952139
O O18 0.318705 0.615637 0.838398
O O19 0.725454 0.243887 0.656046
#
# Coordination Sequence:
#
# PCOD9202108 Si02
#       8
#     8   8   8   8   8   8   8   8
#     4   9  21  40  64  88 127 167 209 267 322 379
#     4   9  18  36  64  94 125 163 211 262 313 376
#     4  11  24  43  66  94 129 169 214 268 325 382
#     4   9  16  30  57  90 122 154 193 254 319 370
#     4  12  25  40  65  94 131 169 212 265 319 392
#     4  11  21  35  59  92 124 160 204 254 319 378
#     4  10  20  38  58  88 122 157 207 260 317 378
#     4  11  25  42  61  91 123 170 217 258 326 382
#
# _framework density 21.834875
#
# number of rings (size 3 to 8) (size 9 to 14) (size 15 to 20)
#    0.000    1.750    1.250    3.000    3.500    5.000 
#    0.000    1.875    0.000    0.750    0.000    0.000 
#    0.000    0.000    0.000    0.000    0.000    0.000 
#
# Total GULP energy -178762.001979 kJ/mol
# GULP energy per Si atom -5586.312562 kJ/mol
# Density = 2.178518 g / cm^3
# Si number density = 21.834875 Si / 1000 Ang^3
#
#
#
# Elastic Constant Matrix: (Units=GPa)
#
#
# Indices 1 2 3 4 5 6 
#
# 1 33.7925 3.9705 20.8067 0.0000 -0.1439 0.0000
# 2 3.9705 48.8096 37.6812 0.0000 -10.8429 0.0000
# 3 20.8067 37.6812 101.3867 0.0000 -19.2576 0.0000
# 4 0.0000 0.0000 0.0000 27.8678 0.0000 3.2370
# 5 -0.1439 -10.8429 -19.2576 0.0000 21.6658 0.0000
# 6 0.0000 0.0000 0.0000 3.2370 0.0000 24.1479
#
#
#
# Elastic Compliance Matrix: (Units=1/GPa)
#
#
# Indices 1 2 3 4 5 6 
#
# 1 0.035142 0.003079 -0.009648 0.000000 -0.006801 0.000000
# 2 0.003079 0.029638 -0.010618 0.000000 0.005415 0.000000
# 3 -0.009648 -0.010618 0.017768 0.000000 0.010415 0.000000
# 4 0.000000 0.000000 0.000000 0.036451 0.000000 -0.004886
# 5 -0.006801 0.005415 0.010415 0.000000 0.058078 0.000000
# 6 0.000000 0.000000 0.000000 -0.004886 0.000000 0.042067
#
#
# Mechanical properties :
#
#
# Convention : Reuss Voigt Hill
#
# Bulk Modulus (GPa) = 20.75889 34.32285 27.54087
# Shear Modulus (GPa) = 18.54766 22.83831 20.69298
#
# Velocity S-wave (km/s) = 2.91770 3.23763 3.08182
# Velocity P-wave (km/s) = 4.56930 5.45250 5.03032
#
# Compressibility (1/GPa) = 0.04817213
#
# Stress axis : x y z
#
# Youngs Moduli (GPa) = 28.45590 33.74090 56.28157
#
# Poissons Ratio (x) = -0.10388 0.54300
# Poissons Ratio (y) = -0.08761 0.59762
# Poissons Ratio (z) = 0.27454 0.35827
#
# Static dielectric constant tensor:
#      x y z
#    x 1.870200 0.000000 0.027970 
#    y 0.000000 1.787080 0.000000 
#    z 0.027970 0.000000 1.869230 
# 
# From -- ./inp_files/241533.got.cif
#   From: 2010.05.17/outbox.cif.g08.bks.cpg/sg12_121_cif.got.tgz:241533.got - 2010.06.03 13:09:07.
