data_PCOD9202287
_publ_section_title
;
Structure prediction by ZEFSAII (Michael W. Deem and Ramdas Pophale) SiO2 
 PCOD9202287
Probable space group: C 2/M
;
_chemical_formula_sum "Si O2"
_cell_formula_units_Z 48
_cell_length_a 11.581755
_cell_length_b 18.751006
_cell_length_c 10.304972
_cell_angle_alpha 90.000000
_cell_angle_beta 62.976377
_cell_angle_gamma 90.000000
_cell_volume 1993.587789
_symmetry_space_group_name_H-M "C 2/M"
_symmetry_group_IT_number 12
_symmetry_cell_setting 'monoclinic'
loop_
_space_group_symop_operation_xyz
x,y,z
-x,y,-z
-x,-y,-z
x,-y,z
1/2+x,1/2+y,z
1/2-x,1/2+y,-z
1/2-x,1/2-y,-z
1/2+x,1/2-y,z
loop_
_atom_site_type_symbol
_atom_site_label
_atom_site_fract_x
_atom_site_fract_y
_atom_site_fract_z
Si Si1 0.313577 0.000000 0.794828
Si Si2 0.319747 0.126654 0.593747
Si Si3 0.610723 0.000000 0.605649
Si Si4 0.658643 0.000000 0.933029
Si Si5 0.947995 0.156180 0.376988
Si Si6 0.347140 0.158358 0.064370
Si Si7 0.142974 0.269175 0.213294
Si Si8 0.078457 0.000000 0.590339
O O1 0.276276 0.932399 0.725329
O O2 0.470227 0.000000 0.745484
O O3 0.269295 0.000000 0.964565
O O4 0.400579 0.076215 0.458468
O O5 0.205519 0.162970 0.568399
O O6 0.386091 0.186298 0.644895
O O7 0.769585 0.000000 0.535093
O O8 0.692290 0.079386 0.864768
O O9 0.500000 0.000000 0.000000
O O10 0.000000 0.160538 0.500000
O O11 0.027094 0.213107 0.252262
O O12 0.962475 0.073843 0.323026
O O13 0.327459 0.177884 0.921752
O O14 0.500000 0.163792 0.000000
O O15 0.267421 0.219600 0.175172
O O16 0.000000 0.000000 0.500000
#
# Coordination Sequence:
#
# PCOD9202287 Si02
#       8
#     4   8   4   4   8   8   8   4
#     4  11  20  40  66  92 119 165 209 258 312 348
#     4  10  20  38  60  87 124 157 201 255 300 371
#     4   9  20  36  64  93 118 163 208 249 304 363
#     4  10  21  42  61  90 119 151 202 269 296 353
#     4  10  22  39  58  88 122 161 202 250 309 373
#     4  10  22  42  60  87 120 157 207 256 308 358
#     4  11  22  38  63  86 123 166 196 252 314 373
#     4   8  17  40  56  79 125 153 196 247 286 355
#
# _framework density 24.077193999999999
#
# number of rings (size 3 to 8) (size 9 to 14) (size 15 to 20)
#    0.000    2.000    1.667    2.500    0.000    2.667 
#   18.000    0.000    0.000    1.000    0.000    0.000 
#    0.000    0.000    0.000    0.000    0.000    0.000 
#
# Total GULP energy -133642.466760 kJ/mol
# GULP energy per Si atom -5568.436115 kJ/mol
# Density = 2.402239 g / cm^3
# Si number density = 24.077194 Si / 1000 Ang^3
#
#
#
# Elastic Constant Matrix: (Units=GPa)
#
#
# Indices 1 2 3 4 5 6 
#
# 1 102.7381 33.8149 11.4821 0.0000 -0.9205 0.0000
# 2 33.8149 164.9013 24.5076 0.0000 -8.9675 0.0000
# 3 11.4821 24.5076 42.4519 0.0000 3.3460 0.0000
# 4 0.0000 0.0000 0.0000 9.6748 0.0000 14.1506
# 5 -0.9205 -8.9675 3.3460 0.0000 25.3070 0.0000
# 6 0.0000 0.0000 0.0000 14.1506 0.0000 25.5350
#
#
#
# Elastic Compliance Matrix: (Units=1/GPa)
#
#
# Indices 1 2 3 4 5 6 
#
# 1 0.010556 -0.001908 -0.001749 0.000000 -0.000061 0.000000
# 2 -0.001908 0.007194 -0.003873 0.000000 0.002992 0.000000
# 3 -0.001749 -0.003873 0.026656 0.000000 -0.004960 0.000000
# 4 0.000000 0.000000 0.000000 0.545541 0.000000 -0.302318
# 5 -0.000061 0.002992 -0.004960 0.000000 0.041228 0.000000
# 6 0.000000 0.000000 0.000000 -0.302318 0.000000 0.206696
#
#
# Mechanical properties :
#
#
# Convention : Reuss Voigt Hill
#
# Bulk Modulus (GPa) = 34.07547 49.96671 42.02109
# Shear Modulus (GPa) = 5.79567 28.12247 16.95907
#
# Velocity S-wave (km/s) = 1.55317 3.42133 2.65686
# Velocity P-wave (km/s) = 4.17130 6.03366 5.18676
#
# Compressibility (1/GPa) = 0.02934663
#
# Stress axis : x y z
#
# Youngs Moduli (GPa) = 94.72897 139.00924 37.51529
#
# Poissons Ratio (x) = 0.26525 0.06561
# Poissons Ratio (y) = 0.18075 0.14529
# Poissons Ratio (z) = 0.16567 0.53834
#
# Static dielectric constant tensor:
#      x y z
#    x 1.997610 0.000000 0.000530 
#    y 0.000000 1.948710 0.000000 
#    z 0.000530 0.000000 2.005390 
# 
# From -- ./inp_files/131730.got.cif
#   From: 2010.05.17/outbox.cif.g08.bks.cpg/sg12_66_cif.got.tgz:131730.got - 2010.06.03 13:09:07.
