data_PCOD9202679
_publ_section_title
;
Structure prediction by ZEFSAII (Michael W. Deem and Ramdas Pophale) SiO2 
 PCOD9202679
Probable space group: C 2/M
;
_chemical_formula_sum "Si O2"
_cell_formula_units_Z 40
_cell_length_a 24.092827
_cell_length_b 7.598303
_cell_length_c 9.810698
_cell_angle_alpha 90.000000
_cell_angle_beta 106.609531
_cell_angle_gamma 90.000000
_cell_volume 1721.053824
_symmetry_space_group_name_H-M "C 2/M"
_symmetry_group_IT_number 12
_symmetry_cell_setting 'monoclinic'
loop_
_space_group_symop_operation_xyz
x,y,z
-x,y,-z
-x,-y,-z
x,-y,z
1/2+x,1/2+y,z
1/2-x,1/2+y,-z
1/2-x,1/2-y,-z
1/2+x,1/2-y,z
loop_
_atom_site_type_symbol
_atom_site_label
_atom_site_fract_x
_atom_site_fract_y
_atom_site_fract_z
Si Si1 0.271006 0.211452 0.861464
Si Si2 0.554917 0.715113 0.627700
Si Si3 0.502870 0.704354 0.150307
Si Si4 0.325014 0.286743 0.421521
Si Si5 0.867925 0.705520 0.740721
O O1 0.225000 0.274419 0.715837
O O2 0.333623 0.274461 0.849893
O O3 0.272848 0.000000 0.852789
O O4 0.250000 0.250000 0.000000
O O5 0.500000 0.768489 0.500000
O O6 0.555884 0.500000 0.629548
O O7 0.540478 0.779897 0.768701
O O8 0.614656 0.771912 0.604235
O O9 0.485762 0.500000 0.124694
O O10 0.569893 0.708317 0.243804
O O11 0.500000 0.787718 0.000000
O O12 0.323426 0.500000 0.424127
O O13 0.327034 0.225490 0.579208
O O14 0.880045 0.500000 0.768042
#
# Coordination Sequence:
#
# PCOD9202679 Si02
#       5
#     8   8   8   8   8
#     4  10  24  41  60  86 116 152 194 241 292 344
#     4   9  16  31  56  86 112 135 185 247 280 318
#     4  10  21  36  59  87 113 151 198 238 280 338
#     4  10  20  38  63  85 111 152 198 243 282 333
#     4  11  23  39  57  85 122 154 189 237 294 350
#
# _framework density 23.241574
#
# number of rings (size 3 to 8) (size 9 to 14) (size 15 to 20)
#    0.000    2.000    2.000    1.200    2.800    2.800 
#    0.000    2.000    0.000    0.000    0.000    0.000 
#    0.000    0.000    0.000    0.000    0.000    0.000 
#
# Total GULP energy -111737.690030 kJ/mol
# GULP energy per Si atom -5586.884501 kJ/mol
# Density = 2.318868 g / cm^3
# Si number density = 23.241574 Si / 1000 Ang^3
#
#
#
# Elastic Constant Matrix: (Units=GPa)
#
#
# Indices 1 2 3 4 5 6 
#
# 1 88.1317 -4.6591 20.9188 0.0000 -34.7863 0.0000
# 2 -4.6591 54.6721 -8.1503 0.0000 -4.1699 0.0000
# 3 20.9188 -8.1503 113.8625 0.0000 -33.0396 0.0000
# 4 0.0000 0.0000 0.0000 16.9399 0.0000 2.1163
# 5 -34.7863 -4.1699 -33.0396 0.0000 49.8598 0.0000
# 6 0.0000 0.0000 0.0000 2.1163 0.0000 0.3584
#
#
#
# Elastic Compliance Matrix: (Units=1/GPa)
#
#
# Indices 1 2 3 4 5 6 
#
# 1 0.015959 0.002354 0.000649 0.000000 0.011762 0.000000
# 2 0.002354 0.019205 0.002334 0.000000 0.004795 0.000000
# 3 0.000649 0.002334 0.011165 0.000000 0.008047 0.000000
# 4 0.000000 0.000000 0.000000 0.225074 0.000000 -1.329067
# 5 0.011762 0.004795 0.008047 0.000000 0.033996 0.000000
# 6 0.000000 0.000000 0.000000 -1.329067 0.000000 10.638414
#
#
# Mechanical properties :
#
#
# Convention : Reuss Voigt Hill
#
# Bulk Modulus (GPa) = 17.54280 30.32056 23.93168
# Shear Modulus (GPa) = 0.45653 30.00207 15.22930
#
# Velocity S-wave (km/s) = 0.44368 3.59678 2.56258
# Velocity P-wave (km/s) = 2.79766 5.50665 4.36750
#
# Compressibility (1/GPa) = 0.05700344
#
# Stress axis : x y z
#
# Youngs Moduli (GPa) = 62.65882 52.06965 89.56379
#
# Poissons Ratio (x) = -0.12257 -0.05816
# Poissons Ratio (y) = -0.14750 -0.20900
# Poissons Ratio (z) = -0.04069 -0.12151
#
# Static dielectric constant tensor:
#      x y z
#    x 1.873930 0.000000 -0.015460 
#    y 0.000000 1.852610 0.000000 
#    z -0.015460 0.000000 1.899660 
# 
# From -- ./inp_files/92931.got.cif
#   From: 2010.05.17/outbox.cif.g08.bks.cpg/sg12_47_cif.got.tgz:92931.got - 2010.06.03 13:09:07.
