data_PCOD9202972
_publ_section_title
;
Structure prediction by ZEFSAII (Michael W. Deem and Ramdas Pophale) SiO2 
 PCOD9202972
Probable space group: C 2/M
;
_chemical_formula_sum "Si O2"
_cell_formula_units_Z 48
_cell_length_a 10.869734
_cell_length_b 26.929917
_cell_length_c 13.470685
_cell_angle_alpha 90.000000
_cell_angle_beta 146.173287
_cell_angle_gamma 90.000000
_cell_volume 2195.086097
_symmetry_space_group_name_H-M "C 2/M"
_symmetry_group_IT_number 12
_symmetry_cell_setting 'monoclinic'
loop_
_space_group_symop_operation_xyz
x,y,z
-x,y,-z
-x,-y,-z
x,-y,z
1/2+x,1/2+y,z
1/2-x,1/2+y,-z
1/2-x,1/2-y,-z
1/2+x,1/2-y,z
loop_
_atom_site_type_symbol
_atom_site_label
_atom_site_fract_x
_atom_site_fract_y
_atom_site_fract_z
Si Si1 0.619330 0.639966 0.219679
Si Si2 0.172668 0.786452 0.536771
Si Si3 0.070011 0.500000 0.663696
Si Si4 0.591223 0.500000 0.449813
Si Si5 0.182462 0.399935 0.833931
Si Si6 0.513825 0.249256 0.890684
Si Si7 0.186357 0.107054 0.474182
O O1 0.764669 0.638442 0.218093
O O2 0.582134 0.697960 0.208463
O O3 0.734315 0.614312 0.389697
O O4 0.381262 0.612359 0.042844
O O5 0.250000 0.750000 0.500000
O O6 0.383644 0.794152 0.748443
O O7 0.087913 0.839916 0.441969
O O8 0.000000 0.763937 0.500000
O O9 0.844251 0.500000 0.577798
O O10 0.000000 0.500000 0.500000
O O11 0.205024 0.452198 0.790743
O O12 0.500000 0.500000 0.500000
O O13 0.537415 0.557533 0.383010
O O14 0.924018 0.398262 0.688737
O O15 0.500000 0.245519 0.000000
O O16 0.750000 0.250000 0.000000
#
# Coordination Sequence:
#
# PCOD9202972 Si02
#       7
#     8   8   4   4   8   8   8
#     4  11  22  37  65  94 133 175 217 269 344 392
#     4  12  26  42  68  99 132 178 226 275 339 411
#     4  10  20  38  65 101 127 170 223 277 331 392
#     4  10  22  43  69  93 134 173 215 276 327 399
#     4  10  21  37  61  96 134 169 215 276 331 395
#     4  12  25  44  65  96 139 177 225 282 342 408
#     4  11  23  42  67  95 132 175 231 266 341 397
#
# _framework density 21.867023
#
# number of rings (size 3 to 8) (size 9 to 14) (size 15 to 20)
#    0.000    1.000    3.333    5.000    2.333    2.000 
#    0.000    0.000    0.000    4.000    0.000    0.000 
#    0.000    0.000    0.000    0.000    0.000    0.000 
#
# Total GULP energy -133621.949046 kJ/mol
# GULP energy per Si atom -5567.581210 kJ/mol
# Density = 2.181725 g / cm^3
# Si number density = 21.867023 Si / 1000 Ang^3
#
#
#
# Elastic Constant Matrix: (Units=GPa)
#
#
# Indices 1 2 3 4 5 6 
#
# 1 115.8780 18.4297 11.5991 0.0000 -2.7773 0.0000
# 2 18.4297 142.0732 2.6182 0.0000 -14.4568 0.0000
# 3 11.5991 2.6182 74.4262 0.0000 -14.0006 0.0000
# 4 0.0000 0.0000 0.0000 24.6678 0.0000 -4.8387
# 5 -2.7773 -14.4568 -14.0006 0.0000 28.0441 0.0000
# 6 0.0000 0.0000 0.0000 -4.8387 0.0000 24.7179
#
#
#
# Elastic Compliance Matrix: (Units=1/GPa)
#
#
# Indices 1 2 3 4 5 6 
#
# 1 0.008951 -0.001179 -0.001436 0.000000 -0.000438 0.000000
# 2 -0.001179 0.007601 0.000697 0.000000 0.004149 0.000000
# 3 -0.001436 0.000697 0.015094 0.000000 0.007752 0.000000
# 4 0.000000 0.000000 0.000000 0.042157 0.000000 0.008253
# 5 -0.000438 0.004149 0.007752 0.000000 0.041624 0.000000
# 6 0.000000 0.000000 0.000000 0.008253 0.000000 0.042072
#
#
# Mechanical properties :
#
#
# Convention : Reuss Voigt Hill
#
# Bulk Modulus (GPa) = 35.95960 44.18571 40.07265
# Shear Modulus (GPa) = 29.30754 35.46801 32.38777
#
# Velocity S-wave (km/s) = 3.66493 4.03176 3.85271
# Velocity P-wave (km/s) = 5.86424 6.47486 6.17710
#
# Compressibility (1/GPa) = 0.02780899
#
# Stress axis : x y z
#
# Youngs Moduli (GPa) = 111.72515 131.56199 66.25273
#
# Poissons Ratio (x) = 0.15514 0.09513
# Poissons Ratio (y) = 0.13175 -0.04618
# Poissons Ratio (z) = 0.16042 -0.09169
#
# Static dielectric constant tensor:
#      x y z
#    x 5.499930 0.000000 2.895050 
#    y 0.000000 1.935290 0.000000 
#    z 2.895050 0.000000 4.058100 
# 
# From -- ./inp_files/209485.got.cif
#   From: 2010.05.17/outbox.cif.g08.bks.cpg/sg12_105_cif.got.tgz:209485.got - 2010.06.03 13:09:07.
