data_PCOD9202676
_publ_section_title
;
Structure prediction by ZEFSAII (Michael W. Deem and Ramdas Pophale) SiO2 
 PCOD9202676
Probable space group: C 2/M
;
_chemical_formula_sum "Si O2"
_cell_formula_units_Z 64
_cell_length_a 9.798115
_cell_length_b 18.084975
_cell_length_c 34.017409
_cell_angle_alpha 90.000000
_cell_angle_beta 143.902615
_cell_angle_gamma 90.000000
_cell_volume 3551.358758
_symmetry_space_group_name_H-M "C 2/M"
_symmetry_group_IT_number 12
_symmetry_cell_setting 'monoclinic'
loop_
_space_group_symop_operation_xyz
x,y,z
-x,y,-z
-x,-y,-z
x,-y,z
1/2+x,1/2+y,z
1/2-x,1/2+y,-z
1/2-x,1/2-y,-z
1/2+x,1/2-y,z
loop_
_atom_site_type_symbol
_atom_site_label
_atom_site_fract_x
_atom_site_fract_y
_atom_site_fract_z
Si Si1 0.226717 0.915541 0.443986
Si Si2 0.269149 0.409691 0.063466
Si Si3 0.489833 0.680383 0.321498
Si Si4 0.675109 0.173127 0.673720
Si Si5 0.616332 0.911614 0.186635
Si Si6 0.432890 0.411727 0.187299
Si Si7 0.253564 0.412951 0.463528
Si Si8 0.420301 0.409993 0.938248
O O1 0.500000 0.918324 0.500000
O O2 0.105741 0.867959 0.382666
O O3 0.205854 0.884157 0.482939
O O4 0.135824 0.000000 0.422042
O O5 0.270245 0.500000 0.063476
O O6 0.382523 0.386175 0.131231
O O7 0.415632 0.385263 0.059446
O O8 0.000000 0.386882 0.000000
O O9 0.401793 0.755709 0.319940
O O10 0.675860 0.693473 0.330227
O O11 0.280990 0.633844 0.253780
O O12 0.450134 0.128648 0.606535
O O13 0.845105 0.124746 0.740670
O O14 0.713041 0.898285 0.164945
O O15 0.349010 0.890532 0.129665
O O16 0.639102 0.000000 0.199024
O O17 0.467484 0.500000 0.194313
O O18 0.500000 0.407751 0.500000
O O19 0.188019 0.500000 0.451557
O O20 0.431438 0.500000 0.941111
O O21 0.500000 0.384789 0.000000
#
# Coordination Sequence:
#
# PCOD9202676 Si02
#       8
#     8   8   8   8   8   8   8   8
#     4  10  20  38  63  85 108 140 183 227 270 326
#     4   9  16  27  47  78 111 141 176 218 269 322
#     4  11  24  38  56  81 110 148 185 225 275 325
#     4  11  24  39  56  79 112 148 184 226 273 327
#     4   9  18  34  55  78 106 141 184 226 268 320
#     4   9  18  34  56  78 104 143 184 224 269 321
#     4  10  22  40  61  86 111 140 179 227 278 325
#     4   9  16  27  47  78 112 141 173 220 271 318
#
# _framework density 18.021270999999999
#
# number of rings (size 3 to 8) (size 9 to 14) (size 15 to 20)
#    0.000    2.250    1.250    1.500    1.750    6.000 
#    0.000    0.000    0.000    0.750    0.000    5.250 
#    0.000    0.000    0.000    0.000    0.000    0.000 
#
# Total GULP energy -178536.782406 kJ/mol
# GULP energy per Si atom -5579.274450 kJ/mol
# Density = 1.798025 g / cm^3
# Si number density = 18.021271 Si / 1000 Ang^3
#
#
#
# Elastic Constant Matrix: (Units=GPa)
#
#
# Indices 1 2 3 4 5 6 
#
# 1 137.9299 46.0795 101.8827 0.0001 -10.4927 -0.0001
# 2 46.0795 38.9023 47.0363 0.0001 -1.4684 -0.0002
# 3 101.8827 47.0363 141.9028 0.0006 -10.7174 -0.0007
# 4 0.0001 0.0001 0.0006 0.4504 0.0001 20.5252
# 5 -10.4927 -1.4684 -10.7174 0.0001 34.2103 -0.0003
# 6 -0.0001 -0.0002 -0.0007 20.5252 -0.0003 115.1105
#
#
#
# Elastic Compliance Matrix: (Units=1/GPa)
#
#
# Indices 1 2 3 4 5 6 
#
# 1 0.017294 -0.009313 -0.009176 -0.000002 0.002030 0.000000
# 2 -0.009313 0.048153 -0.009561 -0.000001 -0.003785 0.000000
# 3 -0.009176 -0.009561 0.016962 0.000003 0.002089 -0.000001
# 4 -0.000002 -0.000001 0.000003 -0.311583 0.000002 0.055558
# 5 0.002030 -0.003785 0.002089 0.000002 0.030346 0.000000
# 6 0.000000 0.000000 -0.000001 0.055558 0.000000 -0.001219
#
#
# Mechanical properties :
#
#
# Convention : Reuss Voigt Hill
#
# Bulk Modulus (GPa) = 38.00892 78.74799 58.37845
# Shear Modulus (GPa) = -36.98846 38.20334 0.60744
#
# Velocity S-wave (km/s) = -4.53536 4.60924 0.58121
# Velocity P-wave (km/s) = 2.50779 8.49228 5.73715
#
# Compressibility (1/GPa) = 0.02630961
#
# Stress axis : x y z
#
# Youngs Moduli (GPa) = 57.82404 20.76703 58.95419
#
# Poissons Ratio (x) = 0.19340 0.54098
# Poissons Ratio (y) = 0.53850 0.56365
# Poissons Ratio (z) = 0.53061 0.19855
#
# Static dielectric constant tensor:
#      x y z
#    x 1.548660 0.000000 -0.006940 
#    y 0.000000 1.601620 0.000000 
#    z -0.006940 0.000000 1.589850 
# 
# From -- ./inp_files/373016.got.cif
#   From: 2010.05.17/outbox.cif.g08.bks.cpg/sg12_187_cif.got.tgz:373016.got - 2010.06.03 13:09:07.
