data_PCOD9202401
_publ_section_title
;
Structure prediction by ZEFSAII (Michael W. Deem and Ramdas Pophale) SiO2 
 PCOD9202401
Probable space group: C 2/M
;
_chemical_formula_sum "Si O2"
_cell_formula_units_Z 48
_cell_length_a 13.258382
_cell_length_b 23.848013
_cell_length_c 7.612489
_cell_angle_alpha 90.000000
_cell_angle_beta 87.148424
_cell_angle_gamma 90.000000
_cell_volume 2403.982553
_symmetry_space_group_name_H-M "C 2/M"
_symmetry_group_IT_number 12
_symmetry_cell_setting 'monoclinic'
loop_
_space_group_symop_operation_xyz
x,y,z
-x,y,-z
-x,-y,-z
x,-y,z
1/2+x,1/2+y,z
1/2-x,1/2+y,-z
1/2-x,1/2-y,-z
1/2+x,1/2-y,z
loop_
_atom_site_type_symbol
_atom_site_label
_atom_site_fract_x
_atom_site_fract_y
_atom_site_fract_z
Si Si1 0.425542 0.663826 0.746716
Si Si2 0.107254 0.602395 0.411003
Si Si3 0.184980 0.724829 0.350076
Si Si4 0.711662 0.934645 0.079609
Si Si5 0.227914 0.066043 0.320954
Si Si6 0.357504 0.658491 0.155992
O O1 0.387991 0.724809 0.693697
O O2 0.363331 0.611632 0.668290
O O3 0.546728 0.660524 0.723685
O O4 0.397198 0.663127 0.955314
O O5 0.125185 0.669199 0.410011
O O6 0.117284 0.583128 0.207471
O O7 0.195059 0.576391 0.526042
O O8 0.000000 0.587225 0.500000
O O9 0.250000 0.750000 0.500000
O O10 0.269488 0.703448 0.203288
O O11 0.802683 0.901241 0.163331
O O12 0.726529 0.000000 0.096546
O O13 0.714756 0.922107 0.871052
O O14 0.196729 0.000000 0.321637
#
# Coordination Sequence:
#
# PCOD9202401 Si02
#       6
#     8   8   8   8   8   8
#     4  10  20  38  61  86 118 152 197 237 298 354
#     4  11  24  40  59  88 118 157 202 246 294 348
#     4  11  22  37  58  81 118 153 194 243 291 349
#     4   9  20  40  62  87 121 157 196 244 296 350
#     4  10  21  39  62  88 120 156 197 246 296 349
#     4   9  21  37  59  89 116 153 192 246 291 352
#
# _framework density 19.966867000000001
#
# number of rings (size 3 to 8) (size 9 to 14) (size 15 to 20)
#    0.000    2.000    1.667    1.000    2.333    2.667 
#    0.000    5.000    0.000    3.000    0.000    0.000 
#    0.000    0.000    0.000    0.000    0.000    0.000 
#
# Total GULP energy -133857.673254 kJ/mol
# GULP energy per Si atom -5577.403052 kJ/mol
# Density = 1.992142 g / cm^3
# Si number density = 19.966867 Si / 1000 Ang^3
#
#
#
# Elastic Constant Matrix: (Units=GPa)
#
#
# Indices 1 2 3 4 5 6 
#
# 1 19.8105 -12.4766 6.5628 0.0000 0.1995 0.0000
# 2 -12.4766 95.0858 15.8394 0.0000 3.0891 0.0000
# 3 6.5628 15.8394 57.6663 0.0000 -5.5525 0.0000
# 4 0.0000 0.0000 0.0000 29.3900 0.0000 1.2524
# 5 0.1995 3.0891 -5.5525 0.0000 25.0261 0.0000
# 6 0.0000 0.0000 0.0000 1.2524 0.0000 2.2739
#
#
#
# Elastic Compliance Matrix: (Units=1/GPa)
#
#
# Indices 1 2 3 4 5 6 
#
# 1 0.059821 0.009610 -0.009817 0.000000 -0.003841 0.000000
# 2 0.009610 0.012671 -0.004835 0.000000 -0.002714 0.000000
# 3 -0.009817 -0.004835 0.020285 0.000000 0.005176 0.000000
# 4 0.000000 0.000000 0.000000 0.034843 0.000000 -0.019190
# 5 -0.003841 -0.002714 0.005176 0.000000 0.041472 0.000000
# 6 0.000000 0.000000 0.000000 -0.019190 0.000000 0.450337
#
#
# Mechanical properties :
#
#
# Convention : Reuss Voigt Hill
#
# Bulk Modulus (GPa) = 12.09316 21.37930 16.73623
# Shear Modulus (GPa) = 7.60943 22.18048 14.89495
#
# Velocity S-wave (km/s) = 1.95430 3.33658 2.73423
# Velocity P-wave (km/s) = 3.34098 5.05710 4.28582
#
# Compressibility (1/GPa) = 0.08269134
#
# Stress axis : x y z
#
# Youngs Moduli (GPa) = 16.71642 78.91814 49.29769
#
# Poissons Ratio (x) = -0.75837 0.48397
# Poissons Ratio (y) = -0.16064 0.23837
# Poissons Ratio (z) = 0.16411 0.38160
#
# Static dielectric constant tensor:
#      x y z
#    x 1.731960 0.000000 -0.008810 
#    y 0.000000 1.688560 0.000000 
#    z -0.008810 0.000000 1.749090 
# 
# From -- ./inp_files/50691.got.cif
#   From: 2010.05.17/outbox.cif.g08.bks.cpg/sg12_26_cif.got.tgz:50691.got - 2010.06.03 13:09:07.
