data_PCOD9202840
_publ_section_title
;
Structure prediction by ZEFSAII (Michael W. Deem and Ramdas Pophale) SiO2 
 PCOD9202840
Probable space group: C 2/M
;
_chemical_formula_sum "Si O2"
_cell_formula_units_Z 64
_cell_length_a 10.740444
_cell_length_b 22.537643
_cell_length_c 19.239401
_cell_angle_alpha 90.000000
_cell_angle_beta 43.318607
_cell_angle_gamma 90.000000
_cell_volume 3195.074563
_symmetry_space_group_name_H-M "C 2/M"
_symmetry_group_IT_number 12
_symmetry_cell_setting 'monoclinic'
loop_
_space_group_symop_operation_xyz
x,y,z
-x,y,-z
-x,-y,-z
x,-y,z
1/2+x,1/2+y,z
1/2-x,1/2+y,-z
1/2-x,1/2-y,-z
1/2+x,1/2-y,z
loop_
_atom_site_type_symbol
_atom_site_label
_atom_site_fract_x
_atom_site_fract_y
_atom_site_fract_z
Si Si1 0.170628 0.428495 0.379533
Si Si2 0.480907 0.723957 0.147174
Si Si3 0.218821 0.662411 0.064710
Si Si4 0.305046 0.065137 0.043912
Si Si5 0.342118 0.855621 0.759222
Si Si6 0.041410 0.132816 0.247742
Si Si7 0.290217 0.199363 0.394891
Si Si8 0.027340 0.796678 0.381135
O O1 0.187315 0.500000 0.368407
O O2 0.167199 0.399868 0.302888
O O3 0.346473 0.396545 0.340008
O O4 0.000000 0.415064 0.500000
O O5 0.551028 0.790593 0.131312
O O6 0.275229 0.703953 0.212857
O O7 0.527063 0.686412 0.197776
O O8 0.606763 0.699737 0.032811
O O9 0.238694 0.631911 0.131779
O O10 0.193305 0.612639 0.017532
O O11 0.165134 0.085030 0.159823
O O12 0.256937 0.000000 0.037036
O O13 0.500000 0.064166 0.000000
O O14 0.555073 0.846769 0.686398
O O15 0.111988 0.159301 0.290885
O O16 0.132913 0.173809 0.507901
O O17 0.409184 0.247986 0.387734
O O18 0.178905 0.224759 0.374423
#
# Coordination Sequence:
#
# PCOD9202840 Si02
#       8
#     8   8   8   8   8   8   8   8
#     4  10  22  40  63  91 122 163 216 266 311 366
#     4   9  21  37  54  92 123 157 197 246 309 375
#     4  10  21  37  59  86 122 161 195 257 309 372
#     4  10  23  40  58  83 114 156 209 256 305 366
#     4  11  22  35  62  88 123 160 207 256 310 369
#     4  10  20  38  64  85 119 161 204 250 310 369
#     4  10  23  36  57  88 128 162 205 242 307 375
#     4  10  22  39  56  87 126 168 198 249 304 380
#
# _framework density 20.030830999999999
#
# number of rings (size 3 to 8) (size 9 to 14) (size 15 to 20)
#    0.000    2.000    0.000    2.250    7.000    3.500 
#    0.000    0.000    0.000    4.500    0.000    4.375 
#    0.000    0.000    0.000    0.000    0.000    0.000 
#
# Total GULP energy -178438.697524 kJ/mol
# GULP energy per Si atom -5576.209298 kJ/mol
# Density = 1.998524 g / cm^3
# Si number density = 20.030831 Si / 1000 Ang^3
#
#
#
# Elastic Constant Matrix: (Units=GPa)
#
#
# Indices 1 2 3 4 5 6 
#
# 1 98.3288 17.3355 28.6203 0.0002 4.0897 0.0000
# 2 17.3355 81.8263 31.1373 0.0002 1.2638 0.0000
# 3 28.6203 31.1373 101.1126 0.0007 5.3224 -0.0001
# 4 0.0002 0.0002 0.0007 31.5687 -0.0002 0.8036
# 5 4.0897 1.2638 5.3224 -0.0002 38.2595 0.0000
# 6 0.0000 0.0000 -0.0001 0.8036 0.0000 20.4720
#
#
#
# Elastic Compliance Matrix: (Units=1/GPa)
#
#
# Indices 1 2 3 4 5 6 
#
# 1 0.011231 -0.001329 -0.002729 0.000000 -0.000777 0.000000
# 2 -0.001329 0.014001 -0.003947 0.000000 0.000229 0.000000
# 3 -0.002729 -0.003947 0.011943 0.000000 -0.001239 0.000000
# 4 0.000000 0.000000 0.000000 0.031709 0.000000 -0.001245
# 5 -0.000777 0.000229 -0.001239 0.000000 0.026385 0.000000
# 6 0.000000 0.000000 0.000000 -0.001245 0.000000 0.048896
#
#
# Mechanical properties :
#
#
# Convention : Reuss Voigt Hill
#
# Bulk Modulus (GPa) = 47.24834 48.38376 47.81605
# Shear Modulus (GPa) = 29.89885 31.67167 30.78526
#
# Velocity S-wave (km/s) = 3.86766 3.98068 3.92458
# Velocity P-wave (km/s) = 6.60183 6.73311 6.66779
#
# Compressibility (1/GPa) = 0.02116476
#
# Stress axis : x y z
#
# Youngs Moduli (GPa) = 89.04058 71.42260 83.72954
#
# Poissons Ratio (x) = 0.09492 0.22848
# Poissons Ratio (y) = 0.11833 0.33052
# Poissons Ratio (z) = 0.24297 0.28194
#
# Static dielectric constant tensor:
#      x y z
#    x 1.717370 0.000000 -0.000580 
#    y 0.000000 1.707610 0.000000 
#    z -0.000580 0.000000 1.777800 
# 
# From -- ./inp_files/306789.got.cif
#   From: 2010.05.17/outbox.cif.g08.bks.cpg/sg12_154_cif.got.tgz:306789.got - 2010.06.03 13:09:07.
