data_PCOD9202004
_publ_section_title
;
Structure prediction by ZEFSAII (Michael W. Deem and Ramdas Pophale) SiO2 
 PCOD9202004
Probable space group: C 2/M
;
_chemical_formula_sum "Si O2"
_cell_formula_units_Z 38
_cell_length_a 11.698942
_cell_length_b 30.933505
_cell_length_c 9.100869
_cell_angle_alpha 90.000000
_cell_angle_beta 37.317101
_cell_angle_gamma 90.000000
_cell_volume 1996.608869
_symmetry_space_group_name_H-M "C 2/M"
_symmetry_group_IT_number 12
_symmetry_cell_setting 'monoclinic'
loop_
_space_group_symop_operation_xyz
x,y,z
-x,y,-z
-x,-y,-z
x,-y,z
1/2+x,1/2+y,z
1/2-x,1/2+y,-z
1/2-x,1/2-y,-z
1/2+x,1/2-y,z
loop_
_atom_site_type_symbol
_atom_site_label
_atom_site_fract_x
_atom_site_fract_y
_atom_site_fract_z
Si Si1 0.500000 0.270322 0.500000
Si Si2 0.411284 0.813645 0.436704
Si Si3 0.699995 0.424334 0.371933
Si Si4 0.000000 0.500000 0.000000
Si Si5 0.771200 0.341735 0.101426
Si Si6 0.056523 0.128485 0.779729
O O1 0.563395 0.237623 0.564443
O O2 0.672323 0.300734 0.278356
O O3 0.500000 0.831626 0.500000
O O4 0.201460 0.831500 0.640466
O O5 0.533943 0.829340 0.174001
O O6 0.500000 0.436064 0.500000
O O7 0.772124 0.381622 0.212145
O O8 0.655285 0.408818 0.582845
O O9 0.848377 0.462181 0.205101
O O10 0.627198 0.356273 0.120405
O O11 0.000000 0.114517 0.000000
#
# Coordination Sequence:
#
# PCOD9202004 Si02
#       6
#     4   8   8   2   8   8
#     4  10  20  38  56  83 132 165 212 254 288 332
#     4  10  22  32  55  89 120 167 207 252 278 337
#     4  10  23  40  68  91 119 156 195 253 307 370
#     4  12  22  44  70  96 114 146 206 244 316 378
#     4  11  20  42  57  86 127 162 207 252 298 350
#     4  11  20  39  63  88 122 167 199 241 309 352
#
# _framework density 19.032271999999999
#
# number of rings (size 3 to 8) (size 9 to 14) (size 15 to 20)
#    0.632    0.842    5.263    2.211    0.000    0.842 
#    0.000    2.632    0.000    5.053    0.000    0.000 
#    0.000    0.000    0.000    0.000    0.000    0.000 
#
# Total GULP energy -105871.022198 kJ/mol
# GULP energy per Si atom -5572.159063 kJ/mol
# Density = 1.898895 g / cm^3
# Si number density = 19.032272 Si / 1000 Ang^3
#
#
#
# Elastic Constant Matrix: (Units=GPa)
#
#
# Indices 1 2 3 4 5 6 
#
# 1 65.6043 43.1709 43.0191 0.0000 7.4837 0.0000
# 2 43.1709 141.0932 79.5863 0.0000 7.4061 0.0000
# 3 43.0191 79.5863 157.0776 0.0000 22.5853 0.0000
# 4 0.0000 0.0000 0.0000 12.1572 0.0000 -7.6699
# 5 7.4837 7.4061 22.5853 0.0000 22.6459 0.0000
# 6 0.0000 0.0000 0.0000 -7.6699 0.0000 4.0036
#
#
#
# Elastic Compliance Matrix: (Units=1/GPa)
#
#
# Indices 1 2 3 4 5 6 
#
# 1 0.020388 -0.004416 -0.003018 0.000000 -0.002284 0.000000
# 2 -0.004416 0.010964 -0.004716 0.000000 0.002577 0.000000
# 3 -0.003018 -0.004716 0.010760 0.000000 -0.008192 0.000000
# 4 0.000000 0.000000 0.000000 -0.394256 0.000000 -0.755298
# 5 -0.002284 0.002577 -0.008192 0.000000 0.052240 0.000000
# 6 0.000000 0.000000 0.000000 -0.755298 0.000000 -1.197189
#
#
# Mechanical properties :
#
#
# Convention : Reuss Voigt Hill
#
# Bulk Modulus (GPa) = 56.14225 77.25863 66.70044
# Shear Modulus (GPa) = -3.40865 20.96128 8.77631
#
# Velocity S-wave (km/s) = -1.33973 3.32227 2.14972
# Velocity P-wave (km/s) = 5.21242 7.44300 6.42524
#
# Compressibility (1/GPa) = 0.01781190
#
# Stress axis : x y z
#
# Youngs Moduli (GPa) = 49.04750 91.21081 92.93583
#
# Poissons Ratio (x) = 0.40280 0.28048
# Poissons Ratio (y) = 0.21660 0.43829
# Poissons Ratio (z) = 0.14802 0.43015
#
# Static dielectric constant tensor:
#      x y z
#    x 1.698280 0.000000 0.005880 
#    y 0.000000 1.623030 0.000000 
#    z 0.005880 0.000000 1.648760 
# 
# From -- ./inp_files/54034.got.cif
#   From: 2010.05.17/outbox.cif.g08.bks.cpg/sg12_28_cif.got.tgz:54034.got - 2010.06.03 13:09:07.
