data_PCOD9202224
_publ_section_title
;
Structure prediction by ZEFSAII (Michael W. Deem and Ramdas Pophale) SiO2 
 PCOD9202224
Probable space group: C 2/M
;
_chemical_formula_sum "Si O2"
_cell_formula_units_Z 56
_cell_length_a 16.882728
_cell_length_b 23.666287
_cell_length_c 9.644217
_cell_angle_alpha 90.000000
_cell_angle_beta 124.859606
_cell_angle_gamma 90.000000
_cell_volume 3161.894981
_symmetry_space_group_name_H-M "C 2/M"
_symmetry_group_IT_number 12
_symmetry_cell_setting 'monoclinic'
loop_
_space_group_symop_operation_xyz
x,y,z
-x,y,-z
-x,-y,-z
x,-y,z
1/2+x,1/2+y,z
1/2-x,1/2+y,-z
1/2-x,1/2-y,-z
1/2+x,1/2-y,z
loop_
_atom_site_type_symbol
_atom_site_label
_atom_site_fract_x
_atom_site_fract_y
_atom_site_fract_z
Si Si1 0.693079 0.067509 0.176416
Si Si2 0.404338 0.432249 0.991689
Si Si3 0.089203 0.931462 0.681909
Si Si4 0.743804 0.848156 0.743225
Si Si5 0.603247 0.148280 0.862850
Si Si6 0.622322 0.852357 0.342934
Si Si7 0.611452 0.243548 0.102553
O O1 0.806418 0.083213 0.275716
O O2 0.649780 0.095430 0.270795
O O3 0.684382 0.000000 0.167117
O O4 0.639487 0.095617 0.991963
O O5 0.392012 0.500000 0.979300
O O6 0.415906 0.413062 0.163123
O O7 0.500000 0.418981 0.000000
O O8 0.312140 0.402243 0.834032
O O9 0.000000 0.910570 0.500000
O O10 0.084002 0.000000 0.677923
O O11 0.664527 0.847398 0.785181
O O12 0.691586 0.849077 0.543357
O O13 0.813794 0.794262 0.826260
O O14 0.489193 0.143054 0.724055
O O15 0.619594 0.203226 0.976290
O O16 0.630329 0.797093 0.253128
O O17 0.500000 0.263377 0.000000
#
# Coordination Sequence:
#
# PCOD9202224 Si02
#       7
#     8   8   8   8   8   8   8
#     4  10  20  38  60  82 111 154 197 229 274 336
#     4  10  22  37  54  82 119 151 179 227 291 339
#     4   9  18  34  56  78 108 148 187 229 272 326
#     4  12  21  36  61  86 113 148 188 232 282 342
#     4  10  21  39  59  82 114 151 188 234 283 326
#     4  10  23  37  57  85 116 149 186 237 281 326
#     4   9  20  40  60  81 109 146 190 230 281 340
#
# _framework density 17.710898
#
# number of rings (size 3 to 8) (size 9 to 14) (size 15 to 20)
#    0.000    2.000    1.429    3.000    2.000    1.714 
#    0.000    0.000    0.000    2.571    0.000    0.000 
#    0.000    0.000    0.000    0.000    0.000    0.000 
#
# Total GULP energy -156332.261960 kJ/mol
# GULP energy per Si atom -5583.295070 kJ/mol
# Density = 1.767059 g / cm^3
# Si number density = 17.710898 Si / 1000 Ang^3
#
#
#
# Elastic Constant Matrix: (Units=GPa)
#
#
# Indices 1 2 3 4 5 6 
#
# 1 110.9955 38.5540 34.0996 0.0000 -2.7554 0.0000
# 2 38.5540 61.3216 26.5447 0.0000 2.7566 0.0000
# 3 34.0996 26.5447 117.6361 0.0000 4.0818 0.0000
# 4 0.0000 0.0000 0.0000 21.4936 0.0000 9.1770
# 5 -2.7554 2.7566 4.0818 0.0000 26.5924 0.0000
# 6 0.0000 0.0000 0.0000 9.1770 0.0000 22.9592
#
#
#
# Elastic Compliance Matrix: (Units=1/GPa)
#
#
# Indices 1 2 3 4 5 6 
#
# 1 0.012053 -0.006797 -0.002039 0.000000 0.002266 0.000000
# 2 -0.006797 0.021948 -0.002894 0.000000 -0.002535 0.000000
# 3 -0.002039 -0.002894 0.009794 0.000000 -0.001415 0.000000
# 4 0.000000 0.000000 0.000000 0.056100 0.000000 -0.022423
# 5 0.002266 -0.002535 -0.001415 0.000000 0.038320 0.000000
# 6 0.000000 0.000000 0.000000 -0.022423 0.000000 0.052518
#
#
# Mechanical properties :
#
#
# Convention : Reuss Voigt Hill
#
# Bulk Modulus (GPa) = 49.17785 54.26107 51.71946
# Shear Modulus (GPa) = 22.62743 26.92602 24.77672
#
# Velocity S-wave (km/s) = 3.57823 3.90334 3.74432
# Velocity P-wave (km/s) = 6.70067 7.14272 6.92522
#
# Compressibility (1/GPa) = 0.02033436
#
# Stress axis : x y z
#
# Youngs Moduli (GPa) = 82.96704 45.56246 102.10421
#
# Poissons Ratio (x) = 0.30970 0.20816
# Poissons Ratio (y) = 0.56395 0.29551
# Poissons Ratio (z) = 0.16914 0.13187
#
# Static dielectric constant tensor:
#      x y z
#    x 1.591170 0.000000 0.001580 
#    y 0.000000 1.590130 0.000000 
#    z 0.001580 0.000000 1.577270 
# 
# From -- ./inp_files/79166.got.cif
#   From: 2010.05.17/outbox.cif.g08.bks.cpg/sg12_40_cif.got.tgz:79166.got - 2010.06.03 13:09:07.
