data_PCOD9202245
_publ_section_title
;
Structure prediction by ZEFSAII (Michael W. Deem and Ramdas Pophale) SiO2 
 PCOD9202245
Probable space group: C 2/M
;
_chemical_formula_sum "Si O2"
_cell_formula_units_Z 48
_cell_length_a 20.572482
_cell_length_b 18.942038
_cell_length_c 9.049540
_cell_angle_alpha 90.000000
_cell_angle_beta 137.398714
_cell_angle_gamma 90.000000
_cell_volume 2387.039441
_symmetry_space_group_name_H-M "C 2/M"
_symmetry_group_IT_number 12
_symmetry_cell_setting 'monoclinic'
loop_
_space_group_symop_operation_xyz
x,y,z
-x,y,-z
-x,-y,-z
x,-y,z
1/2+x,1/2+y,z
1/2-x,1/2+y,-z
1/2-x,1/2-y,-z
1/2+x,1/2-y,z
loop_
_atom_site_type_symbol
_atom_site_label
_atom_site_fract_x
_atom_site_fract_y
_atom_site_fract_z
Si Si1 0.607733 0.718178 0.501071
Si Si2 0.291805 0.855833 0.831528
Si Si3 0.055152 0.419094 0.452215
Si Si4 0.618990 0.280752 0.860178
Si Si5 0.252068 0.579589 0.942123
Si Si6 0.412954 0.171690 0.764615
O O1 0.678418 0.652109 0.608683
O O2 0.493603 0.707957 0.293909
O O3 0.623681 0.744218 0.696327
O O4 0.639614 0.771979 0.426884
O O5 0.346688 0.868296 0.770773
O O6 0.332636 0.779989 0.959691
O O7 0.297857 0.907875 0.980841
O O8 0.024433 0.500000 0.387224
O O9 0.167438 0.416887 0.680258
O O10 0.038006 0.379461 0.272328
O O11 0.000000 0.387008 0.500000
O O12 0.675128 0.355374 0.960389
O O13 0.293395 0.500000 0.007875
O O14 0.500000 0.206681 0.000000
#
# Coordination Sequence:
#
# PCOD9202245 Si02
#       6
#     8   8   8   8   8   8
#     4  10  21  35  56  83 114 151 187 233 291 336
#     4  11  21  37  57  88 118 150 186 245 293 334
#     4  10  22  38  56  79 113 156 193 229 282 352
#     4  10  20  38  60  84 115 151 193 240 285 339
#     4  10  21  39  61  83 112 154 197 237 282 339
#     4  12  22  33  56  86 118 150 188 236 291 339
#
# _framework density 20.108592000000002
#
# number of rings (size 3 to 8) (size 9 to 14) (size 15 to 20)
#    0.000    1.500    1.667    5.500    2.333    1.000 
#    0.000    6.667    0.000    0.000    0.000    4.667 
#    0.000    0.000    0.000    0.000    0.000    0.000 
#
# Total GULP energy -133960.917001 kJ/mol
# GULP energy per Si atom -5581.704875 kJ/mol
# Density = 2.006282 g / cm^3
# Si number density = 20.108592 Si / 1000 Ang^3
#
#
#
# Elastic Constant Matrix: (Units=GPa)
#
#
# Indices 1 2 3 4 5 6 
#
# 1 91.9905 5.9011 24.0984 0.0000 -8.7812 0.0000
# 2 5.9011 86.3177 25.0712 0.0000 -7.4958 0.0000
# 3 24.0984 25.0712 75.9454 0.0000 -1.8380 0.0000
# 4 0.0000 0.0000 0.0000 16.3863 0.0000 5.8783
# 5 -8.7812 -7.4958 -1.8380 0.0000 36.0771 0.0000
# 6 0.0000 0.0000 0.0000 5.8783 0.0000 7.0145
#
#
#
# Elastic Compliance Matrix: (Units=1/GPa)
#
#
# Indices 1 2 3 4 5 6 
#
# 1 0.012150 0.000573 -0.003975 0.000000 0.002874 0.000000
# 2 0.000573 0.013061 -0.004430 0.000000 0.002628 0.000000
# 3 -0.003975 -0.004430 0.015865 0.000000 -0.001080 0.000000
# 4 0.000000 0.000000 0.000000 0.087259 0.000000 -0.073125
# 5 0.002874 0.002628 -0.001080 0.000000 0.028909 0.000000
# 6 0.000000 0.000000 0.000000 -0.073125 0.000000 0.203842
#
#
# Mechanical properties :
#
#
# Convention : Reuss Voigt Hill
#
# Bulk Modulus (GPa) = 39.35102 40.48834 39.91968
# Shear Modulus (GPa) = 12.97964 25.17444 19.07704
#
# Velocity S-wave (km/s) = 2.54338 3.54209 3.08344
# Velocity P-wave (km/s) = 5.31383 6.07512 5.70718
#
# Compressibility (1/GPa) = 0.02541230
#
# Stress axis : x y z
#
# Youngs Moduli (GPa) = 82.30764 76.56503 63.03196
#
# Poissons Ratio (x) = -0.04391 0.25055
# Poissons Ratio (y) = -0.04720 0.27923
# Poissons Ratio (z) = 0.32717 0.33919
#
# Static dielectric constant tensor:
#      x y z
#    x 1.759810 0.000000 0.033620 
#    y 0.000000 1.726760 0.000000 
#    z 0.033620 0.000000 1.715960 
# 
# From -- ./inp_files/88162.got.cif
#   From: 2010.05.17/outbox.cif.g08.bks.cpg/sg12_45_cif.got.tgz:88162.got - 2010.06.03 13:09:07.
