data_PCOD9202408
_publ_section_title
;
Structure prediction by ZEFSAII (Michael W. Deem and Ramdas Pophale) SiO2 
 PCOD9202408
Probable space group: C 2/M
;
_chemical_formula_sum "Si O2"
_cell_formula_units_Z 50
_cell_length_a 7.532986
_cell_length_b 12.239942
_cell_length_c 25.232873
_cell_angle_alpha 90.000000
_cell_angle_beta 113.132193
_cell_angle_gamma 90.000000
_cell_volume 2139.501590
_symmetry_space_group_name_H-M "C 2/M"
_symmetry_group_IT_number 12
_symmetry_cell_setting 'monoclinic'
loop_
_space_group_symop_operation_xyz
x,y,z
-x,y,-z
-x,-y,-z
x,-y,z
1/2+x,1/2+y,z
1/2-x,1/2+y,-z
1/2-x,1/2-y,-z
1/2+x,1/2-y,z
loop_
_atom_site_type_symbol
_atom_site_label
_atom_site_fract_x
_atom_site_fract_y
_atom_site_fract_z
Si Si1 0.557228 0.881314 0.280919
Si Si2 0.227237 0.377022 0.016961
Si Si3 0.033806 0.881799 0.147184
Si Si4 0.294751 0.302770 0.213482
Si Si5 0.317159 0.153987 0.593135
Si Si6 0.500000 0.500000 0.500000
Si Si7 0.836550 0.616783 0.435900
O O1 0.410553 0.780994 0.264512
O O2 0.660089 0.871434 0.236130
O O3 0.702503 0.868717 0.346991
O O4 0.464099 0.000000 0.275054
O O5 0.272412 0.500000 0.995682
O O6 0.364451 0.377566 0.084389
O O7 0.250000 0.250000 0.000000
O O8 0.000000 0.383878 0.000000
O O9 0.937671 0.871010 0.193853
O O10 0.173853 0.777883 0.160665
O O11 0.131800 0.000000 0.152547
O O12 0.303106 0.282230 0.580147
O O13 0.531557 0.117444 0.600957
O O14 0.153287 0.093948 0.540338
O O15 0.735000 0.500000 0.432917
O O16 0.000000 0.627574 0.500000
#
# Coordination Sequence:
#
# PCOD9202408 Si02
#       7
#     8   8   8   8   8   2   8
#     4  11  22  40  60  85 116 149 191 250 303 356
#     4  10  21  37  59  91 130 169 209 255 302 357
#     4  10  20  38  61  86 121 162 203 251 300 352
#     4  10  22  38  60  87 114 153 205 248 302 359
#     4  12  24  42  63  88 119 152 191 240 300 362
#     4  12  24  40  68  88 120 156 190 238 302 376
#     4  11  24  41  60  86 114 149 188 230 280 354
#
# _framework density 23.369928000000002
#
# number of rings (size 3 to 8) (size 9 to 14) (size 15 to 20)
#    0.000    1.280    2.400    3.360    0.000    0.320 
#    0.000    8.000    0.000    0.000    0.000    0.000 
#    0.000    0.000    0.000    0.000    0.000    0.000 
#
# Total GULP energy -139389.647015 kJ/mol
# GULP energy per Si atom -5575.585881 kJ/mol
# Density = 2.331674 g / cm^3
# Si number density = 23.369928 Si / 1000 Ang^3
#
#
#
# Elastic Constant Matrix: (Units=GPa)
#
#
# Indices 1 2 3 4 5 6 
#
# 1 27.3991 10.5547 -4.9506 0.0000 9.8407 0.0000
# 2 10.5547 204.7008 39.1099 0.0000 2.4320 0.0000
# 3 -4.9506 39.1099 73.7254 0.0000 19.6597 0.0000
# 4 0.0000 0.0000 0.0000 -95.6071 0.0000 453.3754
# 5 9.8407 2.4320 19.6597 0.0000 29.3843 0.0000
# 6 0.0000 0.0000 0.0000 453.3754 0.0000-2136.8568
#
#
#
# Elastic Compliance Matrix: (Units=1/GPa)
#
#
# Indices 1 2 3 4 5 6 
#
# 1 0.049174 -0.004578 0.012197 0.000000 -0.024250 0.000000
# 2 -0.004578 0.005942 -0.004549 0.000000 0.004085 0.000000
# 3 0.012197 -0.004549 0.021647 0.000000 -0.018191 0.000000
# 4 0.000000 0.000000 0.000000 1.708827 0.000000 0.362561
# 5 -0.024250 0.004085 -0.018191 0.000000 0.053986 0.000000
# 6 0.000000 0.000000 0.000000 0.362561 0.000000 0.076456
#
#
# Mechanical properties :
#
#
# Convention : Reuss Voigt Hill
#
# Bulk Modulus (GPa) = 12.06212 43.91702 27.98957
# Shear Modulus (GPa) = 2.58061 -423.20850 -210.31394
#
# Velocity S-wave (km/s) = 1.05197 -13.47161 -9.49678
# Velocity P-wave (km/s) = 2.57839 14.93807 10.40428
#
# Compressibility (1/GPa) = 0.08290415
#
# Stress axis : x y z
#
# Youngs Moduli (GPa) = 20.33577 168.30124 46.19659
#
# Poissons Ratio (x) = 0.77044 -0.56346
# Poissons Ratio (y) = 0.09309 0.21013
# Poissons Ratio (z) = -0.24803 0.76553
#
# Static dielectric constant tensor:
#      x y z
#    x 1.915770 0.000000 -0.069440 
#    y 0.000000 1.917780 0.000000 
#    z -0.069440 0.000000 1.883840 
# 
# From -- ./inp_files/355475.got.cif
#   From: 2010.05.17/outbox.cif.g08.bks.cpg/sg12_178_cif.got.tgz:355475.got - 2010.06.03 13:09:07.
