data_PCOD9202359
_publ_section_title
;
Structure prediction by ZEFSAII (Michael W. Deem and Ramdas Pophale) SiO2 
 PCOD9202359
Probable space group: C 2/M
;
_chemical_formula_sum "Si O2"
_cell_formula_units_Z 36
_cell_length_a 12.746813
_cell_length_b 21.944232
_cell_length_c 5.180134
_cell_angle_alpha 90.000000
_cell_angle_beta 84.109806
_cell_angle_gamma 90.000000
_cell_volume 1441.331962
_symmetry_space_group_name_H-M "C 2/M"
_symmetry_group_IT_number 12
_symmetry_cell_setting 'monoclinic'
loop_
_space_group_symop_operation_xyz
x,y,z
-x,y,-z
-x,-y,-z
x,-y,z
1/2+x,1/2+y,z
1/2-x,1/2+y,-z
1/2-x,1/2-y,-z
1/2+x,1/2-y,z
loop_
_atom_site_type_symbol
_atom_site_label
_atom_site_fract_x
_atom_site_fract_y
_atom_site_fract_z
Si Si1 0.615640 0.070873 0.936316
Si Si2 0.250141 0.069403 0.613765
Si Si3 0.000000 0.185676 0.000000
Si Si4 0.313935 0.673261 0.704038
Si Si5 0.100079 0.284024 0.598290
O O1 0.699611 0.091869 0.131160
O O2 0.603926 0.000000 0.026032
O O3 0.500000 0.099497 0.000000
O O4 0.660494 0.066238 0.634495
O O5 0.174375 0.122152 0.522692
O O6 0.207375 0.000000 0.649552
O O7 0.099264 0.153362 0.109353
O O8 0.948405 0.230478 0.220667
O O9 0.185985 0.680304 0.745019
O O10 0.341576 0.744391 0.637425
O O11 0.000000 0.318336 0.500000
#
# Coordination Sequence:
#
# PCOD9202359 Si02
#       5
#     8   8   4   8   8
#     4   9  18  34  54  79 116 160 201 242 292 351
#     4  10  21  36  57  86 121 160 199 243 296 356
#     4  10  20  38  61  84 111 158 198 250 306 354
#     4  10  21  37  60  84 121 154 200 249 299 359
#     4   9  20  38  59  87 115 149 198 251 309 358
#
# _framework density 24.976894000000001
#
# number of rings (size 3 to 8) (size 9 to 14) (size 15 to 20)
#    0.000    2.444    0.000    1.333    3.111    4.444 
#    2.000    0.556    0.000    6.000    0.000    0.000 
#    0.000    0.000    0.000    0.000    0.000    0.000 
#
# Total GULP energy -100302.414543 kJ/mol
# GULP energy per Si atom -5572.356363 kJ/mol
# Density = 2.492005 g / cm^3
# Si number density = 24.976894 Si / 1000 Ang^3
#
#
#
# Elastic Constant Matrix: (Units=GPa)
#
#
# Indices 1 2 3 4 5 6 
#
# 1 169.0721 44.2321 48.7657 0.0000 54.0660 0.0000
# 2 44.2321 88.5948 18.0695 0.0000 24.9868 0.0000
# 3 48.7657 18.0695 88.9311 0.0000 30.1805 0.0000
# 4 0.0000 0.0000 0.0000 38.7988 0.0000 11.4084
# 5 54.0660 24.9868 30.1805 0.0000 41.7936 0.0000
# 6 0.0000 0.0000 0.0000 11.4084 0.0000 27.4211
#
#
#
# Elastic Compliance Matrix: (Units=1/GPa)
#
#
# Indices 1 2 3 4 5 6 
#
# 1 0.010439 -0.001687 -0.001511 0.000000 -0.011404 0.000000
# 2 -0.001687 0.013849 0.000239 0.000000 -0.006270 0.000000
# 3 -0.001511 0.000239 0.015114 0.000000 -0.009102 0.000000
# 4 0.000000 0.000000 0.000000 0.029367 0.000000 -0.012218
# 5 -0.011404 -0.006270 -0.009102 0.000000 0.049001 0.000000
# 6 0.000000 0.000000 0.000000 -0.012218 0.000000 0.041552
#
#
# Mechanical properties :
#
#
# Convention : Reuss Voigt Hill
#
# Bulk Modulus (GPa) = 29.86567 63.19250 46.52909
# Shear Modulus (GPa) = 28.34458 37.30473 32.82466
#
# Velocity S-wave (km/s) = 3.37238 3.86887 3.62912
# Velocity P-wave (km/s) = 5.21030 6.73148 6.01914
#
# Compressibility (1/GPa) = 0.03348326
#
# Stress axis : x y z
#
# Youngs Moduli (GPa) = 95.79793 72.20596 66.16510
#
# Poissons Ratio (x) = 0.12182 0.09998
# Poissons Ratio (y) = 0.16162 -0.01581
# Poissons Ratio (z) = 0.14476 -0.01726
#
# Static dielectric constant tensor:
#      x y z
#    x 2.106900 0.000000 -0.062430 
#    y 0.000000 2.090680 0.000000 
#    z -0.062430 0.000000 2.077800 
# 
# From -- ./inp_files/7007.got.cif
#   From: 2010.05.17/outbox.cif.g08.bks.cpg/sg12_4_cif.got.tgz:7007.got - 2010.06.03 13:09:07.
