data_PCOD9202735
_publ_section_title
;
Structure prediction by ZEFSAII (Michael W. Deem and Ramdas Pophale) SiO2 
 PCOD9202735
Probable space group: C 2/M
;
_chemical_formula_sum "Si O2"
_cell_formula_units_Z 56
_cell_length_a 26.598791
_cell_length_b 8.896719
_cell_length_c 11.510497
_cell_angle_alpha 90.000000
_cell_angle_beta 97.427248
_cell_angle_gamma 90.000000
_cell_volume 2701.012889
_symmetry_space_group_name_H-M "C 2/M"
_symmetry_group_IT_number 12
_symmetry_cell_setting 'monoclinic'
loop_
_space_group_symop_operation_xyz
x,y,z
-x,y,-z
-x,-y,-z
x,-y,z
1/2+x,1/2+y,z
1/2-x,1/2+y,-z
1/2-x,1/2-y,-z
1/2+x,1/2-y,z
loop_
_atom_site_type_symbol
_atom_site_label
_atom_site_fract_x
_atom_site_fract_y
_atom_site_fract_z
Si Si1 0.113090 0.828795 0.395560
Si Si2 0.544415 0.670720 0.149444
Si Si3 0.928785 0.174177 0.182527
Si Si4 0.374496 0.826750 0.972148
Si Si5 0.444738 0.825629 0.428694
Si Si6 0.728707 0.320890 0.113676
Si Si7 0.229355 0.821285 0.373834
O O1 0.070654 0.823448 0.283167
O O2 0.097304 0.711370 0.488153
O O3 0.168513 0.799500 0.360766
O O4 0.113199 0.000000 0.442901
O O5 0.552890 0.500000 0.106353
O O6 0.484722 0.694918 0.143444
O O7 0.574479 0.790895 0.083320
O O8 0.935043 0.220858 0.316696
O O9 0.914742 0.000000 0.166209
O O10 0.887982 0.277500 0.106435
O O11 0.330551 0.721690 0.909418
O O12 0.359798 0.000000 0.959509
O O13 0.500000 0.794455 0.500000
O O14 0.443747 0.000000 0.393428
O O15 0.735963 0.500000 0.110728
O O16 0.747189 0.269483 0.249144
O O17 0.750000 0.250000 0.000000
O O18 0.250000 0.750000 0.500000
O O19 0.239379 0.000000 0.381889
#
# Coordination Sequence:
#
# PCOD9202735 Si02
#       7
#     8   8   8   8   8   8   8
#     4  10  20  39  64  89 119 164 211 251 303 374
#     4  10  20  38  63  89 121 163 212 256 303 371
#     4  11  23  39  62  89 123 171 217 259 309 377
#     4  12  25  40  62  93 128 165 207 262 322 380
#     4  11  23  37  56  88 128 164 204 260 316 369
#     4  11  24  46  71  98 131 171 217 270 328 394
#     4  10  23  43  69  97 128 162 209 266 322 385
#
# _framework density 20.732963000000002
#
# number of rings (size 3 to 8) (size 9 to 14) (size 15 to 20)
#    0.000    1.286    2.857    3.000    0.000    6.857 
#    0.000    2.857    0.000    0.000    0.000    0.000 
#    0.000    0.000    0.000    0.000    0.000    0.000 
#
# Total GULP energy -156392.284822 kJ/mol
# GULP energy per Si atom -5585.438744 kJ/mol
# Density = 2.068577 g / cm^3
# Si number density = 20.732963 Si / 1000 Ang^3
#
#
#
# Elastic Constant Matrix: (Units=GPa)
#
#
# Indices 1 2 3 4 5 6 
#
# 1 28.1613 16.9715 30.5115 0.0000 -5.2498 0.0000
# 2 16.9715 30.7322 31.4531 0.0000 -14.3404 0.0000
# 3 30.5115 31.4531 119.7247 0.0000 -11.2213 0.0000
# 4 0.0000 0.0000 0.0000 34.0397 0.0000 -2.3356
# 5 -5.2498 -14.3404 -11.2213 0.0000 29.3484 0.0000
# 6 0.0000 0.0000 0.0000 -2.3356 0.0000 25.7636
#
#
#
# Elastic Compliance Matrix: (Units=1/GPa)
#
#
# Indices 1 2 3 4 5 6 
#
# 1 0.060203 -0.026911 -0.008812 0.000000 -0.005749 0.000000
# 2 -0.026911 0.067950 -0.008642 0.000000 0.025084 0.000000
# 3 -0.008812 -0.008642 0.012783 0.000000 -0.000911 0.000000
# 4 0.000000 0.000000 0.000000 0.029561 0.000000 0.002680
# 5 -0.005749 0.025084 -0.000911 0.000000 0.044953 0.000000
# 6 0.000000 0.000000 0.000000 0.002680 0.000000 0.039057
#
#
# Mechanical properties :
#
#
# Convention : Reuss Voigt Hill
#
# Bulk Modulus (GPa) = 19.15463 37.38783 28.27123
# Shear Modulus (GPa) = 13.86432 24.47583 19.17007
#
# Velocity S-wave (km/s) = 2.58875 3.43961 3.04405
# Velocity P-wave (km/s) = 4.26547 5.81779 5.10103
#
# Compressibility (1/GPa) = 0.05220670
#
# Stress axis : x y z
#
# Youngs Moduli (GPa) = 16.61058 14.71677 78.22860
#
# Poissons Ratio (x) = 0.39604 0.68931
# Poissons Ratio (y) = 0.44700 0.67606
# Poissons Ratio (z) = 0.14636 0.12718
#
# Static dielectric constant tensor:
#      x y z
#    x 1.739280 0.000000 -0.023020 
#    y 0.000000 1.714410 0.000000 
#    z -0.023020 0.000000 1.788940 
# 
# From -- ./inp_files/181141.got.cif
#   From: 2010.05.17/outbox.cif.g08.bks.cpg/sg12_91_cif.got.tgz:181141.got - 2010.06.03 13:09:07.
