data_PCOD9202941
_publ_section_title
;
Structure prediction by ZEFSAII (Michael W. Deem and Ramdas Pophale) SiO2 
 PCOD9202941
Probable space group: C 2/M
;
_chemical_formula_sum "Si O2"
_cell_formula_units_Z 64
_cell_length_a 14.918994
_cell_length_b 8.932578
_cell_length_c 28.703415
_cell_angle_alpha 90.000000
_cell_angle_beta 49.616665
_cell_angle_gamma 90.000000
_cell_volume 2913.728990
_symmetry_space_group_name_H-M "C 2/M"
_symmetry_group_IT_number 12
_symmetry_cell_setting 'monoclinic'
loop_
_space_group_symop_operation_xyz
x,y,z
-x,y,-z
-x,-y,-z
x,-y,z
1/2+x,1/2+y,z
1/2-x,1/2+y,-z
1/2-x,1/2-y,-z
1/2+x,1/2-y,z
loop_
_atom_site_type_symbol
_atom_site_label
_atom_site_fract_x
_atom_site_fract_y
_atom_site_fract_z
Si Si1 0.632819 0.326134 0.257728
Si Si2 0.019725 0.673700 0.938234
Si Si3 0.403469 0.322797 0.896108
Si Si4 0.765615 0.323689 0.862479
Si Si5 0.978823 0.326522 0.562215
Si Si6 0.265683 0.178112 0.362786
Si Si7 0.400820 0.323017 0.397946
Si Si8 0.620421 0.823796 0.770544
O O1 0.625211 0.500000 0.244894
O O2 0.644347 0.222688 0.208655
O O3 0.521387 0.295229 0.327958
O O4 0.753519 0.310346 0.246320
O O5 0.036035 0.500000 0.919540
O O6 0.917174 0.744043 0.941496
O O7 0.138765 0.764940 0.889026
O O8 0.000000 0.681867 0.000000
O O9 0.394186 0.500000 0.904117
O O10 0.300805 0.259270 0.898116
O O11 0.522387 0.274997 0.828444
O O12 0.765062 0.500000 0.869640
O O13 0.959031 0.500000 0.581143
O O14 0.862521 0.229620 0.610365
O O15 0.000000 0.317037 0.500000
O O16 0.082639 0.261003 0.558906
O O17 0.299617 0.260026 0.398867
O O18 0.356051 0.218091 0.290989
O O19 0.268210 0.000000 0.367967
O O20 0.387647 0.500000 0.409505
O O21 0.585728 0.000000 0.784421
#
# Coordination Sequence:
#
# PCOD9202941 Si02
#       8
#     8   8   8   8   8   8   8   8
#     4  10  20  38  64  94 130 165 203 252 309 372
#     4  11  25  46  69  92 123 164 210 263 316 367
#     4  12  25  41  65  96 129 168 209 254 310 370
#     4  12  25  41  65  96 129 168 209 254 310 370
#     4  11  25  44  65  90 121 162 212 263 312 367
#     4  11  23  41  65  95 127 165 206 254 312 370
#     4  11  23  41  65  95 127 165 206 254 312 370
#     4  10  20  38  64  94 130 165 203 252 309 372
#
# _framework density 21.964981000000002
#
# number of rings (size 3 to 8) (size 9 to 14) (size 15 to 20)
#    0.000    1.000    2.500    4.500    0.000    7.000 
#    0.000    0.000    0.000    0.000    0.000    0.000 
#    0.000    0.000    0.000    0.000    0.000    0.000 
#
# Total GULP energy -179197.647961 kJ/mol
# GULP energy per Si atom -5599.926499 kJ/mol
# Density = 2.191499 g / cm^3
# Si number density = 21.964981 Si / 1000 Ang^3
#
#
#
# Elastic Constant Matrix: (Units=GPa)
#
#
# Indices 1 2 3 4 5 6 
#
# 1 108.9083 19.4600 -0.9918 0.0000 30.4978 0.0000
# 2 19.4600 74.7055 12.5639 0.0000 20.1578 0.0000
# 3 -0.9918 12.5639 36.9241 0.0000 14.6245 0.0000
# 4 0.0000 0.0000 0.0000 24.5691 0.0000 5.4407
# 5 30.4978 20.1578 14.6245 0.0000 36.2535 0.0000
# 6 0.0000 0.0000 0.0000 5.4407 0.0000 37.7071
#
#
#
# Elastic Compliance Matrix: (Units=1/GPa)
#
#
# Indices 1 2 3 4 5 6 
#
# 1 0.012945 -0.000906 0.005677 0.000000 -0.012676 0.000000
# 2 -0.000906 0.015971 -0.002670 0.000000 -0.007041 0.000000
# 3 0.005677 -0.002670 0.035046 0.000000 -0.017429 0.000000
# 4 0.000000 0.000000 0.000000 0.042045 0.000000 -0.006067
# 5 -0.012676 -0.007041 -0.017429 0.000000 0.049193 0.000000
# 6 0.000000 0.000000 0.000000 -0.006067 0.000000 0.027396
#
#
# Mechanical properties :
#
#
# Convention : Reuss Voigt Hill
#
# Bulk Modulus (GPa) = 14.67067 31.40025 23.03546
# Shear Modulus (GPa) = 24.86124 32.33966 28.60045
#
# Velocity S-wave (km/s) = 3.36796 3.84126 3.61237
# Velocity P-wave (km/s) = 4.67095 5.83098 5.28290
#
# Compressibility (1/GPa) = 0.06816320
#
# Stress axis : x y z
#
# Youngs Moduli (GPa) = 77.24742 62.61423 28.53353
#
# Poissons Ratio (x) = 0.05676 -0.16198
# Poissons Ratio (y) = 0.07002 0.07619
# Poissons Ratio (z) = -0.43852 0.16719
#
# Static dielectric constant tensor:
#      x y z
#    x 1.789810 0.000000 0.005960 
#    y 0.000000 1.728280 0.000000 
#    z 0.005960 0.000000 1.824710 
# 
# From -- ./inp_files/375397.got.cif
#   From: 2010.05.17/outbox.cif.g08.bks.cpg/sg12_188_cif.got.tgz:375397.got - 2010.06.03 13:09:07.
