data_PCOD9202243
_publ_section_title
;
Structure prediction by ZEFSAII (Michael W. Deem and Ramdas Pophale) SiO2 
 PCOD9202243
Probable space group: C 2/M
;
_chemical_formula_sum "Si O2"
_cell_formula_units_Z 48
_cell_length_a 20.918564
_cell_length_b 11.204637
_cell_length_c 9.569401
_cell_angle_alpha 90.000000
_cell_angle_beta 99.045350
_cell_angle_gamma 90.000000
_cell_volume 2215.030734
_symmetry_space_group_name_H-M "C 2/M"
_symmetry_group_IT_number 12
_symmetry_cell_setting 'monoclinic'
loop_
_space_group_symop_operation_xyz
x,y,z
-x,y,-z
-x,-y,-z
x,-y,z
1/2+x,1/2+y,z
1/2-x,1/2+y,-z
1/2-x,1/2-y,-z
1/2+x,1/2-y,z
loop_
_atom_site_type_symbol
_atom_site_label
_atom_site_fract_x
_atom_site_fract_y
_atom_site_fract_z
Si Si1 0.169079 0.635217 0.977872
Si Si2 0.436475 0.240017 0.885703
Si Si3 0.397342 0.857219 0.601703
Si Si4 0.126519 0.773600 0.685418
Si Si5 0.232822 0.642760 0.274000
Si Si6 0.966507 0.000000 0.339178
Si Si7 0.562293 0.500000 0.121409
O O1 0.186947 0.500000 0.944372
O O2 0.144434 0.704934 0.833946
O O3 0.107379 0.639079 0.060435
O O4 0.220993 0.684559 0.109111
O O5 0.446257 0.204924 0.727966
O O6 0.403628 0.372197 0.884993
O O7 0.500000 0.246674 0.000000
O O8 0.402476 0.807754 0.447475
O O9 0.326694 0.824170 0.644915
O O10 0.404143 0.000000 0.605630
O O11 0.196631 0.817613 0.654598
O O12 0.079248 0.884761 0.697669
O O13 0.232091 0.500000 0.266839
O O14 0.000000 0.000000 0.500000
O O15 0.027487 0.000000 0.257855
O O16 0.500000 0.500000 0.000000
#
# Coordination Sequence:
#
# PCOD9202243 Si02
#       7
#     8   8   8   8   8   4   4
#     4  10  22  37  60  89 121 151 196 245 292 354
#     4  10  20  39  62  83 115 157 195 242 295 348
#     4  10  22  37  59  86 119 152 198 246 285 353
#     4  12  21  38  61  84 118 159 193 244 306 345
#     4   9  19  39  59  86 115 154 199 241 292 355
#     4  12  26  40  58  88 122 156 199 249 300 350
#     4  10  20  38  60  84 114 148 200 245 283 342
#
# _framework density 21.670127999999998
#
# number of rings (size 3 to 8) (size 9 to 14) (size 15 to 20)
#    0.000    1.667    0.833    6.000    0.000    1.333 
#    0.000    0.000   14.667    4.000    0.000    0.000 
#    0.000    0.000    0.000    0.000    0.000    0.000 
#
# Total GULP energy -133896.311295 kJ/mol
# GULP energy per Si atom -5579.012971 kJ/mol
# Density = 2.162081 g / cm^3
# Si number density = 21.670128 Si / 1000 Ang^3
#
#
#
# Elastic Constant Matrix: (Units=GPa)
#
#
# Indices 1 2 3 4 5 6 
#
# 1 26.7103 8.2447 0.1889 0.0000 9.9199 0.0000
# 2 8.2447 83.7502 30.2975 0.0000 8.2257 0.0000
# 3 0.1889 30.2975 136.7512 0.0000 7.1781 0.0000
# 4 0.0000 0.0000 0.0000 30.0316 0.0000 -3.2762
# 5 9.9199 8.2257 7.1781 0.0000 31.6709 0.0000
# 6 0.0000 0.0000 0.0000 -3.2762 0.0000 10.4899
#
#
#
# Elastic Compliance Matrix: (Units=1/GPa)
#
#
# Indices 1 2 3 4 5 6 
#
# 1 0.043328 -0.003496 0.001396 0.000000 -0.012980 0.000000
# 2 -0.003496 0.013504 -0.002895 0.000000 -0.001756 0.000000
# 3 0.001396 -0.002895 0.008031 0.000000 -0.001506 0.000000
# 4 0.000000 0.000000 0.000000 0.034473 0.000000 0.010767
# 5 -0.012980 -0.001756 -0.001506 0.000000 0.036438 0.000000
# 6 0.000000 0.000000 0.000000 0.010767 0.000000 0.098692
#
#
# Mechanical properties :
#
#
# Convention : Reuss Voigt Hill
#
# Bulk Modulus (GPa) = 18.22338 36.07488 27.14913
# Shear Modulus (GPa) = 19.02972 28.33719 23.68346
#
# Velocity S-wave (km/s) = 2.96658 3.62008 3.30950
# Velocity P-wave (km/s) = 4.49020 5.84438 5.21146
#
# Compressibility (1/GPa) = 0.05487455
#
# Stress axis : x y z
#
# Youngs Moduli (GPa) = 23.07954 74.05139 124.51741
#
# Poissons Ratio (x) = 0.25885 -0.17381
# Poissons Ratio (y) = 0.08068 0.36046
# Poissons Ratio (z) = -0.03222 0.21437
#
# Static dielectric constant tensor:
#      x y z
#    x 1.811740 0.000000 0.013240 
#    y 0.000000 1.811340 0.000000 
#    z 0.013240 0.000000 1.785780 
# 
# From -- ./inp_files/95002.got.cif
#   From: 2010.05.17/outbox.cif.g08.bks.cpg/sg12_48_cif.got.tgz:95002.got - 2010.06.03 13:09:07.
