data_PCOD9202012
_publ_section_title
;
Structure prediction by ZEFSAII (Michael W. Deem and Ramdas Pophale) SiO2 
 PCOD9202012
Probable space group: C 2/M
;
_chemical_formula_sum "Si O2"
_cell_formula_units_Z 40
_cell_length_a 12.555849
_cell_length_b 26.722677
_cell_length_c 12.394422
_cell_angle_alpha 90.000000
_cell_angle_beta 28.812998
_cell_angle_gamma 90.000000
_cell_volume 2004.271382
_symmetry_space_group_name_H-M "C 2/M"
_symmetry_group_IT_number 12
_symmetry_cell_setting 'monoclinic'
loop_
_space_group_symop_operation_xyz
x,y,z
-x,y,-z
-x,-y,-z
x,-y,z
1/2+x,1/2+y,z
1/2-x,1/2+y,-z
1/2-x,1/2-y,-z
1/2+x,1/2-y,z
loop_
_atom_site_type_symbol
_atom_site_label
_atom_site_fract_x
_atom_site_fract_y
_atom_site_fract_z
Si Si1 0.500000 0.140874 0.000000
Si Si2 0.219370 0.558411 0.380131
Si Si3 0.500000 0.368769 0.000000
Si Si4 0.403679 0.305486 0.754801
Si Si5 0.154734 0.304804 0.197029
Si Si6 0.686157 0.879341 0.612963
O O1 0.307598 0.175961 0.124116
O O2 0.407546 0.110778 0.184558
O O3 0.271009 0.500000 0.321394
O O4 0.186886 0.573134 0.533777
O O5 0.000000 0.568114 0.500000
O O6 0.421629 0.593608 0.163086
O O7 0.289652 0.333431 0.168466
O O8 0.449723 0.248394 0.679715
O O9 0.587959 0.347760 0.576977
O O10 0.337562 0.299943 0.939237
O O11 0.972635 0.340615 0.308272
#
# Coordination Sequence:
#
# PCOD9202012 Si02
#       6
#     4   8   4   8   8   8
#     4  10  23  38  59  87 118 169 207 245 304 356
#     4  11  24  42  65  93 122 160 205 261 322 367
#     4  12  20  40  60  95 126 159 203 257 312 370
#     4  10  20  38  56  88 127 165 204 247 298 365
#     4  10  21  33  60  90 124 164 205 241 305 371
#     4  11  21  41  60  87 124 165 206 258 301 362
#
# _framework density 19.957377999999999
#
# number of rings (size 3 to 8) (size 9 to 14) (size 15 to 20)
#    0.000    1.400    4.000    2.100    0.000    0.000 
#    7.200    0.500    0.000    2.400    0.000    0.000 
#    0.000    0.000    0.000    0.000    0.000    0.000 
#
# Total GULP energy -111607.007610 kJ/mol
# GULP energy per Si atom -5580.350381 kJ/mol
# Density = 1.991195 g / cm^3
# Si number density = 19.957378 Si / 1000 Ang^3
#
#
#
# Elastic Constant Matrix: (Units=GPa)
#
#
# Indices 1 2 3 4 5 6 
#
# 1 79.2311 23.7581 15.7248 0.0000 3.9465 0.0000
# 2 23.7581 68.1413 -4.8357 0.0000 -7.9188 0.0000
# 3 15.7248 -4.8357 22.8889 -0.0001 -5.1890 0.0003
# 4 0.0000 0.0000 -0.0001 13.3456 0.0000 1.8331
# 5 3.9465 -7.9188 -5.1890 0.0000 39.6835 0.0000
# 6 0.0000 0.0000 0.0003 1.8331 0.0000 30.5974
#
#
#
# Elastic Compliance Matrix: (Units=1/GPa)
#
#
# Indices 1 2 3 4 5 6 
#
# 1 0.018461 -0.008189 -0.015664 0.000000 -0.005518 0.000000
# 2 -0.008189 0.019015 0.011015 0.000000 0.006049 0.000000
# 3 -0.015664 0.011015 0.059389 0.000000 0.011522 -0.000001
# 4 0.000000 0.000000 0.000000 0.075553 0.000000 -0.004526
# 5 -0.005518 0.006049 0.011522 0.000000 0.028462 0.000000
# 6 0.000000 0.000000 -0.000001 -0.004526 0.000000 0.032954
#
#
# Mechanical properties :
#
#
# Convention : Reuss Voigt Hill
#
# Bulk Modulus (GPa) = 14.04710 26.61729 20.33219
# Shear Modulus (GPa) = 17.65290 25.76623 21.70956
#
# Velocity S-wave (km/s) = 2.97733 3.59703 3.30175
# Velocity P-wave (km/s) = 4.34433 5.53331 4.97447
#
# Compressibility (1/GPa) = 0.07118906
#
# Stress axis : x y z
#
# Youngs Moduli (GPa) = 54.16952 52.58908 16.83800
#
# Poissons Ratio (x) = 0.43067 0.26375
# Poissons Ratio (y) = 0.44361 -0.18547
# Poissons Ratio (z) = 0.84850 -0.57926
#
# Static dielectric constant tensor:
#      x y z
#    x 1.715390 0.000000 0.039590 
#    y 0.000000 1.683420 0.000000 
#    z 0.039590 0.000000 1.777450 
# 
# From -- ./inp_files/137132.got.cif
#   From: 2010.05.17/outbox.cif.g08.bks.cpg/sg12_69_cif.got.tgz:137132.got - 2010.06.03 13:09:07.
