data_PCOD9202745
_publ_section_title
;
Structure prediction by ZEFSAII (Michael W. Deem and Ramdas Pophale) SiO2 
 PCOD9202745
Probable space group: C 2/M
;
_chemical_formula_sum "Si O2"
_cell_formula_units_Z 56
_cell_length_a 13.356953
_cell_length_b 11.228107
_cell_length_c 27.493691
_cell_angle_alpha 90.000000
_cell_angle_beta 141.901687
_cell_angle_gamma 90.000000
_cell_volume 2544.140516
_symmetry_space_group_name_H-M "C 2/M"
_symmetry_group_IT_number 12
_symmetry_cell_setting 'monoclinic'
loop_
_space_group_symop_operation_xyz
x,y,z
-x,y,-z
-x,-y,-z
x,-y,z
1/2+x,1/2+y,z
1/2-x,1/2+y,-z
1/2-x,1/2-y,-z
1/2+x,1/2-y,z
loop_
_atom_site_type_symbol
_atom_site_label
_atom_site_fract_x
_atom_site_fract_y
_atom_site_fract_z
Si Si1 0.522368 0.367255 0.566342
Si Si2 0.618036 0.805702 0.914028
Si Si3 0.991053 0.640780 0.620406
Si Si4 0.608261 0.874107 0.090217
Si Si5 0.626327 0.636755 0.238699
Si Si6 0.274619 0.123805 0.145570
Si Si7 0.379877 0.814796 0.684089
O O1 0.500000 0.353234 0.500000
O O2 0.459830 0.500000 0.556981
O O3 0.460543 0.248970 0.570616
O O4 0.717981 0.368236 0.645661
O O5 0.503779 0.879307 0.905518
O O6 0.500414 0.712672 0.841165
O O7 0.712386 0.872455 0.907581
O O8 0.750000 0.750000 0.000000
O O9 0.964612 0.500000 0.596234
O O10 0.185306 0.650363 0.705814
O O11 0.887811 0.669776 0.629256
O O12 0.700875 0.750280 0.131294
O O13 0.701954 0.000000 0.122226
O O14 0.500000 0.865010 0.000000
O O15 0.584159 0.500000 0.219081
O O16 0.617423 0.683253 0.291130
O O17 0.457159 0.124596 0.234929
O O18 0.192728 0.000000 0.130541
#
# Coordination Sequence:
#
# PCOD9202745 Si02
#       7
#     8   8   8   8   8   8   8
#     4  10  22  40  62  92 128 163 199 244 298 359
#     4  11  22  39  57  85 114 159 199 249 309 369
#     4  10  20  38  63  90 120 160 201 246 299 352
#     4  11  24  42  58  82 119 155 194 249 309 361
#     4   9  21  38  59  86 118 153 201 257 303 358
#     4  11  23  40  62  88 114 153 206 253 300 359
#     4  10  21  39  62  88 120 159 202 246 301 361
#
# _framework density 22.011361999999998
#
# number of rings (size 3 to 8) (size 9 to 14) (size 15 to 20)
#    0.000    1.714    1.429    2.571    0.000    6.857 
#    0.000    5.000    0.000    0.000    0.000    0.000 
#    0.000    0.000    0.000    0.000    0.000    0.000 
#
# Total GULP energy -156203.538883 kJ/mol
# GULP energy per Si atom -5578.697817 kJ/mol
# Density = 2.196126 g / cm^3
# Si number density = 22.011362 Si / 1000 Ang^3
#
#
#
# Elastic Constant Matrix: (Units=GPa)
#
#
# Indices 1 2 3 4 5 6 
#
# 1 82.6985 49.1939 -3.7648 0.0000 -10.5752 0.0000
# 2 49.1939 198.4028 37.5521 0.0000 -7.9821 0.0000
# 3 -3.7648 37.5521 52.5113 0.0000 -5.3479 0.0000
# 4 0.0000 0.0000 0.0000 46.9555 0.0000 -11.1663
# 5 -10.5752 -7.9821 -5.3479 0.0000 32.6359 0.0000
# 6 0.0000 0.0000 0.0000 -11.1663 0.0000 20.0786
#
#
#
# Elastic Compliance Matrix: (Units=1/GPa)
#
#
# Indices 1 2 3 4 5 6 
#
# 1 0.015676 -0.004626 0.004916 0.000000 0.004754 0.000000
# 2 -0.004626 0.007213 -0.005555 0.000000 -0.000645 0.000000
# 3 0.004916 -0.005555 0.023790 0.000000 0.004133 0.000000
# 4 0.000000 0.000000 0.000000 0.024543 0.000000 0.013649
# 5 0.004754 -0.000645 0.004133 0.000000 0.032701 0.000000
# 6 0.000000 0.000000 0.000000 0.013649 0.000000 0.057395
#
#
# Mechanical properties :
#
#
# Convention : Reuss Voigt Hill
#
# Bulk Modulus (GPa) = 27.66442 55.50834 41.58638
# Shear Modulus (GPa) = 27.18931 36.64277 31.91604
#
# Velocity S-wave (km/s) = 3.51841 4.08453 3.81199
# Velocity P-wave (km/s) = 5.39455 6.89328 6.18944
#
# Compressibility (1/GPa) = 0.03614752
#
# Stress axis : x y z
#
# Youngs Moduli (GPa) = 63.79341 138.64254 42.03506
#
# Poissons Ratio (x) = 0.64136 -0.20665
# Poissons Ratio (y) = 0.29511 0.23352
# Poissons Ratio (z) = -0.31362 0.77022
#
# Static dielectric constant tensor:
#      x y z
#    x 1.840660 0.000000 0.025160 
#    y 0.000000 1.877140 0.000000 
#    z 0.025160 0.000000 1.814940 
# 
# From -- ./inp_files/360837.got.cif
#   From: 2010.05.17/outbox.cif.g08.bks.cpg/sg12_181_cif.got.tgz:360837.got - 2010.06.03 13:09:07.
