data_PCOD9202664
_publ_section_title
;
Structure prediction by ZEFSAII (Michael W. Deem and Ramdas Pophale) SiO2 
 PCOD9202664
Probable space group: C 2/M
;
_chemical_formula_sum "Si O2"
_cell_formula_units_Z 56
_cell_length_a 14.644500
_cell_length_b 27.957607
_cell_length_c 12.290229
_cell_angle_alpha 90.000000
_cell_angle_beta 29.526140
_cell_angle_gamma 90.000000
_cell_volume 2479.838303
_symmetry_space_group_name_H-M "C 2/M"
_symmetry_group_IT_number 12
_symmetry_cell_setting 'monoclinic'
loop_
_space_group_symop_operation_xyz
x,y,z
-x,y,-z
-x,-y,-z
x,-y,z
1/2+x,1/2+y,z
1/2-x,1/2+y,-z
1/2-x,1/2-y,-z
1/2+x,1/2-y,z
loop_
_atom_site_type_symbol
_atom_site_label
_atom_site_fract_x
_atom_site_fract_y
_atom_site_fract_z
Si Si1 0.360608 0.634938 0.974367
Si Si2 0.895139 0.946604 0.342394
Si Si3 0.222251 0.277571 0.642622
Si Si4 0.279716 0.946722 0.717707
Si Si5 0.000000 0.827194 0.500000
Si Si6 0.978336 0.551359 0.151119
Si Si7 0.135542 0.653050 0.017496
Si Si8 0.000000 0.206692 0.000000
O O1 0.476180 0.599119 0.778001
O O2 0.286153 0.596936 0.140366
O O3 0.216111 0.664449 0.052714
O O4 0.476541 0.673042 0.920844
O O5 0.794393 0.941448 0.328691
O O6 0.736007 0.945184 0.596650
O O7 0.979139 0.000000 0.261294
O O8 0.250000 0.250000 0.500000
O O9 0.412495 0.301221 0.485142
O O10 0.045282 0.314224 0.819125
O O11 0.170185 0.240640 0.793153
O O12 0.500000 0.946898 0.500000
O O13 0.215602 0.000000 0.819376
O O14 0.196611 0.847085 0.245121
O O15 0.046388 0.500000 0.125176
O O16 0.073766 0.598183 0.095985
O O17 0.000000 0.551415 0.000000
#
# Coordination Sequence:
#
# PCOD9202664 Si02
#       8
#     8   8   8   8   4   8   8   4
#     4  12  25  40  71 106 147 185 246 300 361 438
#     4  10  21  40  67 103 147 196 240 292 367 444
#     4  12  29  51  80 109 148 192 250 308 368 442
#     4  10  20  38  62  97 145 194 237 291 365 438
#     4  12  26  54  79 102 146 200 239 304 376 440
#     4  10  23  44  71 102 143 187 243 305 356 430
#     4  12  28  47  76 109 147 193 245 299 374 438
#     4  12  26  48  69 108 145 180 248 308 366 430
#
# _framework density 22.582117
#
# number of rings (size 3 to 8) (size 9 to 14) (size 15 to 20)
#    0.000    0.857    2.857    3.000    8.000    5.714 
#    0.000    0.357    0.000    0.000    0.000    0.000 
#    0.000    0.000    0.000    0.000    0.000    0.000 
#
# Total GULP energy -156334.731492 kJ/mol
# GULP energy per Si atom -5583.383268 kJ/mol
# Density = 2.253072 g / cm^3
# Si number density = 22.582117 Si / 1000 Ang^3
#
#
#
# Elastic Constant Matrix: (Units=GPa)
#
#
# Indices 1 2 3 4 5 6 
#
# 1 80.6458 18.6995 2.4520 -0.0002 -13.6473 -0.0002
# 2 18.6995 96.0154 33.8862 0.0003 -17.6583 -0.0002
# 3 2.4520 33.8862 108.7626 -0.0008 0.1228 -0.0004
# 4 -0.0002 0.0003 -0.0008 35.0116 0.0002 7.0869
# 5 -13.6473 -17.6583 0.1228 0.0002 37.8555 0.0002
# 6 -0.0002 -0.0002 -0.0004 7.0869 0.0002 19.5149
#
#
#
# Elastic Compliance Matrix: (Units=1/GPa)
#
#
# Indices 1 2 3 4 5 6 
#
# 1 0.013525 -0.002025 0.000321 0.000000 0.003930 0.000000
# 2 -0.002025 0.013259 -0.004092 0.000000 0.005468 0.000000
# 3 0.000321 -0.004092 0.010464 0.000000 -0.001827 0.000000
# 4 0.000000 0.000000 0.000000 0.030828 0.000000 -0.011195
# 5 0.003930 0.005468 -0.001827 0.000000 0.030390 0.000000
# 6 0.000000 0.000000 0.000000 -0.011195 0.000000 0.055309
#
#
# Mechanical properties :
#
#
# Convention : Reuss Voigt Hill
#
# Bulk Modulus (GPa) = 38.97387 43.94434 41.45910
# Shear Modulus (GPa) = 28.74949 33.83545 31.29247
#
# Velocity S-wave (km/s) = 3.57194 3.87503 3.72656
# Velocity P-wave (km/s) = 5.85729 6.28674 6.07581
#
# Compressibility (1/GPa) = 0.02565822
#
# Stress axis : x y z
#
# Youngs Moduli (GPa) = 73.93883 75.42071 95.56659
#
# Poissons Ratio (x) = 0.15270 -0.03072
# Poissons Ratio (y) = 0.14970 0.39101
# Poissons Ratio (z) = -0.02377 0.30858
#
# Static dielectric constant tensor:
#      x y z
#    x 2.535930 0.000000 -0.309470 
#    y 0.000000 1.871090 0.000000 
#    z -0.309470 0.000000 2.037770 
# 
# From -- ./inp_files/150460.got.cif
#   From: 2010.05.17/outbox.cif.g08.bks.cpg/sg12_76_cif.got.tgz:150460.got - 2010.06.03 13:09:07.
