data_PCOD9202819
_publ_section_title
;
Structure prediction by ZEFSAII (Michael W. Deem and Ramdas Pophale) SiO2 
 PCOD9202819
Probable space group: C 2/M
;
_chemical_formula_sum "Si O2"
_cell_formula_units_Z 56
_cell_length_a 14.576719
_cell_length_b 32.506062
_cell_length_c 11.887079
_cell_angle_alpha 90.000000
_cell_angle_beta 29.661170
_cell_angle_gamma 90.000000
_cell_volume 2787.342301
_symmetry_space_group_name_H-M "C 2/M"
_symmetry_group_IT_number 12
_symmetry_cell_setting 'monoclinic'
loop_
_space_group_symop_operation_xyz
x,y,z
-x,y,-z
-x,-y,-z
x,-y,z
1/2+x,1/2+y,z
1/2-x,1/2+y,-z
1/2-x,1/2-y,-z
1/2+x,1/2-y,z
loop_
_atom_site_type_symbol
_atom_site_label
_atom_site_fract_x
_atom_site_fract_y
_atom_site_fract_z
Si Si1 0.787430 0.701653 0.967559
Si Si2 0.126578 0.273853 0.474879
Si Si3 0.057226 0.045132 0.308281
Si Si4 0.281282 0.188714 0.233573
Si Si5 0.010924 0.453706 0.124118
Si Si6 0.780616 0.885788 0.535298
Si Si7 0.960422 0.168783 0.160438
O O1 0.740249 0.686898 0.143628
O O2 0.647840 0.680472 0.027754
O O3 0.750000 0.750000 0.000000
O O4 0.005200 0.703851 0.701890
O O5 0.166211 0.224638 0.421240
O O6 0.332080 0.292364 0.263106
O O7 0.000000 0.283136 0.500000
O O8 0.000000 0.044258 0.500000
O O9 0.949723 0.083100 0.372827
O O10 0.006984 0.000000 0.314740
O O11 0.276491 0.050023 0.067861
O O12 0.248006 0.145278 0.329695
O O13 0.500000 0.198797 0.000000
O O14 0.945830 0.500000 0.224619
O O15 0.894189 0.415625 0.293104
O O16 0.000000 0.451667 0.000000
O O17 0.832405 0.858544 0.374870
O O18 0.000000 0.147312 0.000000
#
# Coordination Sequence:
#
# PCOD9202819 Si02
#       7
#     8   8   8   8   8   8   8
#     4  12  24  42  66  87 120 168 219 279 325 384
#     4  12  24  46  64  81 122 179 227 267 326 389
#     4  10  21  38  64  94 132 172 203 242 313 404
#     4  12  27  42  63  99 130 165 216 282 336 382
#     4  10  20  38  63  94 133 171 199 239 314 401
#     4  12  26  39  65  96 138 158 210 271 331 375
#     4  12  27  45  64  91 124 174 228 275 321 389
#
# _framework density 20.090823
#
# number of rings (size 3 to 8) (size 9 to 14) (size 15 to 20)
#    0.000    0.571    4.286    3.857    2.000    2.857 
#    0.000    0.000    0.000    1.714    0.000    2.000 
#    0.000    0.000    0.000    0.000    0.000    0.000 
#
# Total GULP energy -156436.491117 kJ/mol
# GULP energy per Si atom -5587.017540 kJ/mol
# Density = 2.004510 g / cm^3
# Si number density = 20.090823 Si / 1000 Ang^3
#
#
#
# Elastic Constant Matrix: (Units=GPa)
#
#
# Indices 1 2 3 4 5 6 
#
# 1 85.0958 45.2018 47.9295 0.0000 -0.7983 0.0000
# 2 45.2018 125.6090 63.2988 0.0000 1.3313 0.0000
# 3 47.9295 63.2988 120.5418 0.0000 -10.4812 0.0000
# 4 0.0000 0.0000 0.0000 39.3397 0.0000 -11.6841
# 5 -0.7983 1.3313 -10.4812 0.0000 37.8413 0.0000
# 6 0.0000 0.0000 0.0000 -11.6841 0.0000 24.1088
#
#
#
# Elastic Compliance Matrix: (Units=1/GPa)
#
#
# Indices 1 2 3 4 5 6 
#
# 1 0.016235 -0.003459 -0.004712 0.000000 -0.000841 0.000000
# 2 -0.003459 0.011713 -0.004937 0.000000 -0.001852 0.000000
# 3 -0.004712 -0.004937 0.013083 0.000000 0.003698 0.000000
# 4 0.000000 0.000000 0.000000 0.029694 0.000000 0.014391
# 5 -0.000841 -0.001852 0.003698 0.000000 0.027498 0.000000
# 6 0.000000 0.000000 0.000000 0.014391 0.000000 0.048453
#
#
# Mechanical properties :
#
#
# Convention : Reuss Voigt Hill
#
# Bulk Modulus (GPa) = 67.49267 71.56741 69.53004
# Shear Modulus (GPa) = 28.11671 31.91238 30.01455
#
# Velocity S-wave (km/s) = 3.74502 3.98980 3.86935
# Velocity P-wave (km/s) = 7.23650 7.54480 7.39226
#
# Compressibility (1/GPa) = 0.01481642
#
# Stress axis : x y z
#
# Youngs Moduli (GPa) = 61.59566 85.37312 76.43279
#
# Poissons Ratio (x) = 0.29529 0.36016
# Poissons Ratio (y) = 0.21305 0.37732
# Poissons Ratio (z) = 0.29025 0.42146
#
# Static dielectric constant tensor:
#      x y z
#    x 1.726240 0.000000 -0.023150 
#    y 0.000000 1.636600 0.000000 
#    z -0.023150 0.000000 1.835690 
# 
# From -- ./inp_files/150399.got.cif
#   From: 2010.05.17/outbox.cif.g08.bks.cpg/sg12_76_cif.got.tgz:150399.got - 2010.06.03 13:09:07.
