data_PCOD9202580
_publ_section_title
;
Structure prediction by ZEFSAII (Michael W. Deem and Ramdas Pophale) SiO2 
 PCOD9202580
Probable space group: C 2/M
;
_chemical_formula_sum "Si O2"
_cell_formula_units_Z 56
_cell_length_a 22.433421
_cell_length_b 8.810639
_cell_length_c 15.188111
_cell_angle_alpha 90.000000
_cell_angle_beta 112.296311
_cell_angle_gamma 90.000000
_cell_volume 2777.527255
_symmetry_space_group_name_H-M "C 2/M"
_symmetry_group_IT_number 12
_symmetry_cell_setting 'monoclinic'
loop_
_space_group_symop_operation_xyz
x,y,z
-x,y,-z
-x,-y,-z
x,-y,z
1/2+x,1/2+y,z
1/2-x,1/2+y,-z
1/2-x,1/2-y,-z
1/2+x,1/2-y,z
loop_
_atom_site_type_symbol
_atom_site_label
_atom_site_fract_x
_atom_site_fract_y
_atom_site_fract_z
Si Si1 0.408609 0.319034 0.255386
Si Si2 0.258567 0.826788 0.411545
Si Si3 0.923691 0.681653 0.961459
Si Si4 0.140885 0.818256 0.245601
Si Si5 0.092756 0.326779 0.555454
Si Si6 0.822639 0.184387 0.048612
Si Si7 0.452910 0.680629 0.647577
O O1 0.404164 0.500000 0.250976
O O2 0.408304 0.265961 0.355400
O O3 0.353039 0.263783 0.159477
O O4 0.480879 0.275806 0.266188
O O5 0.250000 0.750000 0.500000
O O6 0.214082 0.768595 0.307016
O O7 0.332840 0.823728 0.430563
O O8 0.236807 0.000000 0.410801
O O9 0.922012 0.500000 0.974217
O O10 0.892516 0.727706 0.850808
O O11 0.875944 0.759113 0.006904
O O12 0.000000 0.727872 0.000000
O O13 0.104732 0.788588 0.317754
O O14 0.136803 0.000000 0.223581
O O15 0.073648 0.500000 0.561987
O O16 0.054622 0.261346 0.450478
O O17 0.819399 0.000000 0.042325
O O18 0.750000 0.250000 0.000000
O O19 0.454200 0.500000 0.631499
#
# Coordination Sequence:
#
# PCOD9202580 Si02
#       7
#     8   8   8   8   8   8   8
#     4  10  23  41  62  87 116 158 206 249 299 365
#     4  10  21  37  57  85 119 157 200 246 302 363
#     4  11  25  44  67  98 132 167 213 269 326 384
#     4  10  21  38  63  91 120 160 206 254 310 369
#     4  11  23  36  56  89 125 159 198 244 301 363
#     4  11  25  46  70  96 128 168 217 270 327 385
#     4  10  20  38  62  88 120 159 204 247 295 363
#
# _framework density 20.161818
#
# number of rings (size 3 to 8) (size 9 to 14) (size 15 to 20)
#    0.000    1.571    1.429    2.571    2.000    7.429 
#    0.000    0.000    0.000    0.000    0.000    0.000 
#    0.000    0.000    0.000    0.000    0.000    0.000 
#
# Total GULP energy -156245.276240 kJ/mol
# GULP energy per Si atom -5580.188437 kJ/mol
# Density = 2.011593 g / cm^3
# Si number density = 20.161818 Si / 1000 Ang^3
#
#
#
# Elastic Constant Matrix: (Units=GPa)
#
#
# Indices 1 2 3 4 5 6 
#
# 1 100.2291 29.3690 50.8121 0.0000 24.3738 0.0000
# 2 29.3690 26.0295 24.1632 0.0000 16.2159 0.0000
# 3 50.8121 24.1632 145.7854 0.0000 34.9879 0.0000
# 4 0.0000 0.0000 0.0000 29.5898 0.0000 0.8426
# 5 24.3738 16.2159 34.9879 0.0000 38.9557 0.0000
# 6 0.0000 0.0000 0.0000 0.8426 0.0000 27.2714
#
#
#
# Elastic Compliance Matrix: (Units=1/GPa)
#
#
# Indices 1 2 3 4 5 6 
#
# 1 0.016027 -0.014571 -0.002830 0.000000 -0.001421 0.000000
# 2 -0.014571 0.067379 -0.001971 0.000000 -0.017161 0.000000
# 3 -0.002830 -0.001971 0.009625 0.000000 -0.006054 0.000000
# 4 0.000000 0.000000 0.000000 0.033825 0.000000 -0.001045
# 5 -0.001421 -0.017161 -0.006054 0.000000 0.039140 0.000000
# 6 0.000000 0.000000 0.000000 -0.001045 0.000000 0.036701
#
#
# Mechanical properties :
#
#
# Convention : Reuss Voigt Hill
#
# Bulk Modulus (GPa) = 18.42046 53.41474 35.91760
# Shear Modulus (GPa) = 19.26518 30.34334 24.80426
#
# Velocity S-wave (km/s) = 3.09451 3.88363 3.51131
# Velocity P-wave (km/s) = 4.68233 6.83086 5.85597
#
# Compressibility (1/GPa) = 0.05428747
#
# Stress axis : x y z
#
# Youngs Moduli (GPa) = 62.39511 14.84152 103.89275
#
# Poissons Ratio (x) = 0.21626 0.29402
# Poissons Ratio (y) = 0.90916 0.20473
# Poissons Ratio (z) = 0.17658 0.02925
#
# Static dielectric constant tensor:
#      x y z
#    x 1.753110 0.000000 0.034630 
#    y 0.000000 1.710800 0.000000 
#    z 0.034630 0.000000 1.710000 
# 
# From -- ./inp_files/239016.got.cif
#   From: 2010.05.17/outbox.cif.g08.bks.cpg/sg12_120_cif.got.tgz:239016.got - 2010.06.03 13:09:07.
