data_PCOD9202042
_publ_section_title
;
Structure prediction by ZEFSAII (Michael W. Deem and Ramdas Pophale) SiO2 
 PCOD9202042
Probable space group: C 2/M
;
_chemical_formula_sum "Si O2"
_cell_formula_units_Z 60
_cell_length_a 18.843724
_cell_length_b 26.659218
_cell_length_c 5.713179
_cell_angle_alpha 90.000000
_cell_angle_beta 91.610268
_cell_angle_gamma 90.000000
_cell_volume 2868.933178
_symmetry_space_group_name_H-M "C 2/M"
_symmetry_group_IT_number 12
_symmetry_cell_setting 'monoclinic'
loop_
_space_group_symop_operation_xyz
x,y,z
-x,y,-z
-x,-y,-z
x,-y,z
1/2+x,1/2+y,z
1/2-x,1/2+y,-z
1/2-x,1/2-y,-z
1/2+x,1/2-y,z
loop_
_atom_site_type_symbol
_atom_site_label
_atom_site_fract_x
_atom_site_fract_y
_atom_site_fract_z
Si Si1 0.956708 0.000000 0.750970
Si Si2 0.166988 0.556712 0.512484
Si Si3 0.801848 0.941855 0.211153
Si Si4 0.082254 0.099285 0.456211
Si Si5 0.316060 0.688359 0.587029
Si Si6 0.714520 0.213895 0.185630
Si Si7 0.794641 0.627830 0.110332
Si Si8 0.470755 0.940105 0.750213
O O1 0.913689 0.052104 0.722821
O O2 0.000000 0.000000 0.500000
O O3 0.000000 0.000000 0.000000
O O4 0.154452 0.500000 0.596875
O O5 0.247275 0.560360 0.427338
O O6 0.155196 0.595915 0.717558
O O7 0.114138 0.564923 0.290040
O O8 0.875139 0.918928 0.309349
O O9 0.810623 0.000000 0.147293
O O10 0.760348 0.910603 0.013428
O O11 0.118802 0.150795 0.382209
O O12 0.000000 0.108009 0.500000
O O13 0.327669 0.746456 0.658106
O O14 0.281289 0.689960 0.327921
O O15 0.253130 0.663744 0.731788
O O16 0.750000 0.250000 0.000000
O O17 0.673198 0.167113 0.071917
O O18 0.500000 0.921481 0.500000
O O19 0.486463 0.000000 0.754097
O O20 0.500000 0.919948 0.000000
#
# Coordination Sequence:
#
# PCOD9202042 Si02
#       8
#     4   8   8   8   8   8   8   8
#     4  10  24  44  60  88 132 194 240 271 328 399
#     4  10  21  34  53  86 125 167 213 264 317 385
#     4  11  22  37  55  87 134 172 221 266 315 381
#     4  11  22  40  58  87 131 180 229 271 328 392
#     4  10  20  38  57  89 119 151 219 272 331 391
#     4   9  19  35  62  86 114 143 196 279 337 392
#     4  11  19  34  59  89 121 160 205 271 332 390
#     4   9  19  35  55  80 118 161 207 258 312 384
#
# _framework density 20.913696000000002
#
# number of rings (size 3 to 8) (size 9 to 14) (size 15 to 20)
#    0.000    1.867    3.333    0.400    1.867    2.133 
#    1.200    0.000    0.000    0.000    0.000   22.400 
#    0.000    0.000    0.000    0.000    0.000    0.000 
#
# Total GULP energy -167374.299083 kJ/mol
# GULP energy per Si atom -5579.143303 kJ/mol
# Density = 2.086610 g / cm^3
# Si number density = 20.913696 Si / 1000 Ang^3
#
#
#
# Elastic Constant Matrix: (Units=GPa)
#
#
# Indices 1 2 3 4 5 6 
#
# 1 75.8380 29.6512 22.0829 0.0000 14.6878 0.0000
# 2 29.6512 123.3523 43.1051 0.0000 17.3070 0.0000
# 3 22.0829 43.1051 110.3214 0.0000 27.7298 0.0000
# 4 0.0000 0.0000 0.0000 45.0122 0.0000 -2.4378
# 5 14.6878 17.3070 27.7298 0.0000 26.5270 0.0000
# 6 0.0000 0.0000 0.0000 -2.4378 0.0000 22.2220
#
#
#
# Elastic Compliance Matrix: (Units=1/GPa)
#
#
# Indices 1 2 3 4 5 6 
#
# 1 0.015614 -0.002693 -0.000464 0.000000 -0.006404 0.000000
# 2 -0.002693 0.010046 -0.002867 0.000000 -0.002067 0.000000
# 3 -0.000464 -0.002867 0.013215 0.000000 -0.011687 0.000000
# 4 0.000000 0.000000 0.000000 0.022349 0.000000 0.002452
# 5 -0.006404 -0.002067 -0.011687 0.000000 0.054808 0.000000
# 6 0.000000 0.000000 0.000000 0.002452 0.000000 0.045269
#
#
# Mechanical properties :
#
#
# Convention : Reuss Voigt Hill
#
# Bulk Modulus (GPa) = 37.27374 55.46557 46.36966
# Shear Modulus (GPa) = 27.42868 33.06372 30.24620
#
# Velocity S-wave (km/s) = 3.62542 3.98044 3.80707
# Velocity P-wave (km/s) = 5.94863 6.90681 6.44555
#
# Compressibility (1/GPa) = 0.02682854
#
# Stress axis : x y z
#
# Youngs Moduli (GPa) = 64.04473 99.54357 75.67212
#
# Poissons Ratio (x) = 0.26805 0.03509
# Poissons Ratio (y) = 0.17246 0.21693
# Poissons Ratio (z) = 0.02970 0.28536
#
# Static dielectric constant tensor:
#      x y z
#    x 1.786360 0.000000 -0.049050 
#    y 0.000000 1.779450 0.000000 
#    z -0.049050 0.000000 1.842920 
# 
# From -- ./inp_files/22341.got.cif
#   From: 2010.05.17/outbox.cif.g08.bks.cpg/sg12_12_cif.got.tgz:22341.got - 2010.06.03 13:09:07.
