data_PCOD9202268
_publ_section_title
;
Structure prediction by ZEFSAII (Michael W. Deem and Ramdas Pophale) SiO2 
 PCOD9202268
Probable space group: C 2/M
;
_chemical_formula_sum "Si O2"
_cell_formula_units_Z 48
_cell_length_a 16.978497
_cell_length_b 13.596823
_cell_length_c 17.147691
_cell_angle_alpha 90.000000
_cell_angle_beta 37.949895
_cell_angle_gamma 90.000000
_cell_volume 2434.432669
_symmetry_space_group_name_H-M "C 2/M"
_symmetry_group_IT_number 12
_symmetry_cell_setting 'monoclinic'
loop_
_space_group_symop_operation_xyz
x,y,z
-x,y,-z
-x,-y,-z
x,-y,z
1/2+x,1/2+y,z
1/2-x,1/2+y,-z
1/2-x,1/2-y,-z
1/2+x,1/2-y,z
loop_
_atom_site_type_symbol
_atom_site_label
_atom_site_fract_x
_atom_site_fract_y
_atom_site_fract_z
Si Si1 0.463425 0.713667 0.806241
Si Si2 0.122945 0.716934 0.554299
Si Si3 0.295659 0.000000 0.696968
Si Si4 0.053612 0.500000 0.586219
Si Si5 0.714630 0.710468 0.719912
Si Si6 0.283735 0.107942 0.990746
Si Si7 0.153755 0.389953 0.876289
O O1 0.513365 0.715521 0.678037
O O2 0.586931 0.714575 0.765833
O O3 0.365565 0.628809 0.907353
O O4 0.376626 0.810640 0.883329
O O5 0.250000 0.750000 0.500000
O O6 0.089932 0.602810 0.598146
O O7 0.161540 0.721986 0.433531
O O8 0.406109 0.000000 0.675521
O O9 0.364767 0.000000 0.558150
O O10 0.221522 0.896227 0.755833
O O11 0.708558 0.801066 0.783424
O O12 0.298574 0.114644 0.072443
O O13 0.322157 0.000000 0.934329
O O14 0.181980 0.500000 0.822790
O O15 0.000000 0.379771 0.000000
#
# Coordination Sequence:
#
# PCOD9202268 Si02
#       7
#     8   8   4   4   8   8   8
#     4  10  21  37  58  84 116 152 193 244 292 349
#     4   9  20  37  57  88 115 154 188 239 291 349
#     4   9  20  34  59  84 114 155 180 242 295 344
#     4   9  18  36  56  84 116 151 193 222 289 354
#     4  10  20  38  60  86 118 147 198 242 298 355
#     4  10  22  38  58  83 114 157 199 240 294 345
#     4  10  20  38  61  82 113 156 199 243 284 345
#
# _framework density 19.717120000000001
#
# number of rings (size 3 to 8) (size 9 to 14) (size 15 to 20)
#    0.000    2.333    1.667    0.000    4.667    0.000 
#    6.000    0.417    0.000    2.000    0.000    0.000 
#    0.000    0.000    0.000    0.000    0.000    0.000 
#
# Total GULP energy -133819.920818 kJ/mol
# GULP energy per Si atom -5575.830034 kJ/mol
# Density = 1.967224 g / cm^3
# Si number density = 19.717120 Si / 1000 Ang^3
#
#
#
# Elastic Constant Matrix: (Units=GPa)
#
#
# Indices 1 2 3 4 5 6 
#
# 1 25.6474 3.1039 17.2353 0.0000 -7.3339 0.0000
# 2 3.1039 95.6740 43.3493 0.0000 8.7741 0.0000
# 3 17.2353 43.3493 71.4283 0.0000 -6.2091 0.0000
# 4 0.0000 0.0000 0.0000 30.3646 0.0000 8.9266
# 5 -7.3339 8.7741 -6.2091 0.0000 22.1649 0.0000
# 6 0.0000 0.0000 0.0000 8.9266 0.0000 31.2056
#
#
#
# Elastic Compliance Matrix: (Units=1/GPa)
#
#
# Indices 1 2 3 4 5 6 
#
# 1 0.050865 0.003253 -0.013219 0.000000 0.011839 0.000000
# 2 0.003253 0.016313 -0.011432 0.000000 -0.008584 0.000000
# 3 -0.013219 -0.011432 0.024743 0.000000 0.007083 0.000000
# 4 0.000000 0.000000 0.000000 0.035957 0.000000 -0.010286
# 5 0.011839 -0.008584 0.007083 0.000000 0.054416 0.000000
# 6 0.000000 0.000000 0.000000 -0.010286 0.000000 0.034988
#
#
# Mechanical properties :
#
#
# Convention : Reuss Voigt Hill
#
# Bulk Modulus (GPa) = 20.35515 35.56965 27.96240
# Shear Modulus (GPa) = 18.08627 25.35109 21.71868
#
# Velocity S-wave (km/s) = 3.03196 3.58961 3.32251
# Velocity P-wave (km/s) = 4.75427 5.93798 5.37878
#
# Compressibility (1/GPa) = 0.04912762
#
# Stress axis : x y z
#
# Youngs Moduli (GPa) = 19.65977 61.29918 40.41514
#
# Poissons Ratio (x) = -0.19943 0.53424
# Poissons Ratio (y) = -0.06396 0.46201
# Poissons Ratio (z) = 0.25988 0.70075
#
# Static dielectric constant tensor:
#      x y z
#    x 1.691260 0.000000 0.002060 
#    y 0.000000 1.699180 0.000000 
#    z 0.002060 0.000000 1.721860 
# 
# From -- ./inp_files/153609.got.cif
#   From: 2010.05.17/outbox.cif.g08.bks.cpg/sg12_77_cif.got.tgz:153609.got - 2010.06.03 13:09:07.
