data_PCOD9202541
_publ_section_title
;
Structure prediction by ZEFSAII (Michael W. Deem and Ramdas Pophale) SiO2 
 PCOD9202541
Probable space group: C 2/M
;
_chemical_formula_sum "Si O2"
_cell_formula_units_Z 56
_cell_length_a 20.902200
_cell_length_b 8.608121
_cell_length_c 18.191215
_cell_angle_alpha 90.000000
_cell_angle_beta 63.670137
_cell_angle_gamma 90.000000
_cell_volume 2933.552350
_symmetry_space_group_name_H-M "C 2/M"
_symmetry_group_IT_number 12
_symmetry_cell_setting 'monoclinic'
loop_
_space_group_symop_operation_xyz
x,y,z
-x,y,-z
-x,-y,-z
x,-y,z
1/2+x,1/2+y,z
1/2-x,1/2+y,-z
1/2-x,1/2-y,-z
1/2+x,1/2-y,z
loop_
_atom_site_type_symbol
_atom_site_label
_atom_site_fract_x
_atom_site_fract_y
_atom_site_fract_z
Si Si1 0.650663 0.312696 0.753934
Si Si2 0.095936 0.814834 0.217358
Si Si3 0.422956 0.188910 0.508399
Si Si4 0.439075 0.186280 0.334029
Si Si5 0.581693 0.312338 0.943402
Si Si6 0.815722 0.311843 0.690629
Si Si7 0.170002 0.314961 0.034424
O O1 0.647162 0.500000 0.748814
O O2 0.616173 0.239058 0.699608
O O3 0.606389 0.267935 0.849144
O O4 0.733151 0.269257 0.723613
O O5 0.148485 0.759251 0.255375
O O6 0.123779 0.747304 0.126290
O O7 0.016816 0.754466 0.276028
O O8 0.095238 0.000000 0.213418
O O9 0.500000 0.238961 0.500000
O O10 0.415858 0.238499 0.427615
O O11 0.361465 0.237550 0.596058
O O12 0.422845 0.000000 0.508748
O O13 0.444903 0.000000 0.331657
O O14 0.586201 0.500000 0.946652
O O15 0.500000 0.266488 0.000000
O O16 0.633433 0.241046 0.977916
O O17 0.820044 0.500000 0.694623
O O18 0.172321 0.500000 0.035715
O O19 0.250000 0.250000 0.000000
#
# Coordination Sequence:
#
# PCOD9202541 Si02
#       7
#     8   8   8   8   8   8   8
#     4  10  22  38  58  87 122 158 197 248 306 360
#     4  12  24  39  61  90 122 155 200 253 303 355
#     4   9  17  34  60  87 117 155 202 247 299 361
#     4  11  22  38  62  88 118 159 204 247 295 360
#     4  10  21  39  61  85 120 163 203 248 305 360
#     4  10  20  38  62  86 119 162 203 247 306 366
#     4  12  25  41  63  91 123 158 201 250 301 357
#
# _framework density 19.089483000000001
#
# number of rings (size 3 to 8) (size 9 to 14) (size 15 to 20)
#    0.000    1.429    1.429    4.714    0.000    4.286 
#    0.000    2.143    0.000    0.000    0.000    0.000 
#    0.000    0.000    0.000    0.000    0.000    0.000 
#
# Total GULP energy -156570.117009 kJ/mol
# GULP energy per Si atom -5591.789893 kJ/mol
# Density = 1.904603 g / cm^3
# Si number density = 19.089483 Si / 1000 Ang^3
#
#
#
# Elastic Constant Matrix: (Units=GPa)
#
#
# Indices 1 2 3 4 5 6 
#
# 1 97.2071 25.4423 14.5520 0.0000 13.2772 0.0000
# 2 25.4423 42.9205 14.9891 0.0000 6.6671 0.0000
# 3 14.5520 14.9891 98.3884 0.0000 14.4731 0.0001
# 4 0.0000 0.0000 0.0000 7.9351 0.0000 1.3393
# 5 13.2772 6.6671 14.4731 0.0000 39.6865 0.0000
# 6 0.0000 0.0000 0.0001 1.3393 0.0000 30.9515
#
#
#
# Elastic Compliance Matrix: (Units=1/GPa)
#
#
# Indices 1 2 3 4 5 6 
#
# 1 0.012533 -0.006844 -0.000384 0.000000 -0.002903 0.000000
# 2 -0.006844 0.028671 -0.003153 0.000000 -0.001377 0.000000
# 3 -0.000384 -0.003153 0.011205 0.000000 -0.003428 0.000000
# 4 0.000000 0.000000 0.000000 0.126950 0.000000 -0.005493
# 5 -0.002903 -0.001377 -0.003428 0.000000 0.027650 0.000000
# 6 0.000000 0.000000 0.000000 -0.005493 0.000000 0.032546
#
#
# Mechanical properties :
#
#
# Convention : Reuss Voigt Hill
#
# Bulk Modulus (GPa) = 31.59889 38.72032 35.15960
# Shear Modulus (GPa) = 18.45930 27.95013 23.20471
#
# Velocity S-wave (km/s) = 3.11302 3.83059 3.49029
# Velocity P-wave (km/s) = 5.43232 6.31603 5.89077
#
# Compressibility (1/GPa) = 0.03164668
#
# Stress axis : x y z
#
# Youngs Moduli (GPa) = 79.79193 34.87859 89.24397
#
# Poissons Ratio (x) = 0.23871 0.03426
# Poissons Ratio (y) = 0.54610 0.28140
# Poissons Ratio (z) = 0.03063 0.10998
#
# Static dielectric constant tensor:
#      x y z
#    x 1.621470 0.000000 -0.006510 
#    y 0.000000 1.647650 0.000000 
#    z -0.006510 0.000000 1.648170 
# 
# From -- ./inp_files/281007.got.cif
#   From: 2010.05.17/outbox.cif.g08.bks.cpg/sg12_141_cif.got.tgz:281007.got - 2010.06.03 13:09:07.
