data_PCOD9202850
_publ_section_title
;
Structure prediction by ZEFSAII (Michael W. Deem and Ramdas Pophale) SiO2 
 PCOD9202850
Probable space group: C 2/M
;
_chemical_formula_sum "Si O2"
_cell_formula_units_Z 40
_cell_length_a 19.699541
_cell_length_b 7.728265
_cell_length_c 25.422988
_cell_angle_alpha 90.000000
_cell_angle_beta 27.801154
_cell_angle_gamma 90.000000
_cell_volume 1805.208612
_symmetry_space_group_name_H-M "C 2/M"
_symmetry_group_IT_number 12
_symmetry_cell_setting 'monoclinic'
loop_
_space_group_symop_operation_xyz
x,y,z
-x,y,-z
-x,-y,-z
x,-y,z
1/2+x,1/2+y,z
1/2-x,1/2+y,-z
1/2-x,1/2-y,-z
1/2+x,1/2-y,z
loop_
_atom_site_type_symbol
_atom_site_label
_atom_site_fract_x
_atom_site_fract_y
_atom_site_fract_z
Si Si1 0.335486 0.798869 0.106261
Si Si2 0.794396 0.291927 0.528678
Si Si3 0.852828 0.206444 0.978176
Si Si4 0.607945 0.799835 0.348071
Si Si5 0.334299 0.288011 0.276700
O O1 0.220304 0.707569 0.222595
O O2 0.336980 0.000000 0.121047
O O3 0.500000 0.729058 0.000000
O O4 0.298721 0.783902 0.070085
O O5 0.799416 0.500000 0.527571
O O6 0.750000 0.250000 0.500000
O O7 0.683933 0.234800 0.650277
O O8 0.954372 0.223736 0.435128
O O9 0.015811 0.269458 0.852724
O O10 0.857802 0.000000 0.981462
O O11 0.750000 0.250000 0.000000
O O12 0.695789 0.726947 0.337655
O O13 0.578645 0.000000 0.381756
O O14 0.335890 0.500000 0.273794
#
# Coordination Sequence:
#
# PCOD9202850 Si02
#       5
#     8   8   8   8   8
#     4  11  23  39  60  89 123 157 196 247 299 353
#     4  10  22  39  60  88 118 152 194 244 298 355
#     4  11  23  39  61  89 123 160 197 244 297 356
#     4  10  20  38  64  88 113 155 204 245 288 351
#     4   9  19  38  62  85 114 153 197 241 290 348
#
# _framework density 22.158103000000001
#
# number of rings (size 3 to 8) (size 9 to 14) (size 15 to 20)
#    0.000    1.800    2.000    1.800    2.800    4.000 
#    0.000    2.000    0.000    2.400    0.000    0.000 
#    0.000    0.000    0.000    0.000    0.000    0.000 
#
# Total GULP energy -111793.709897 kJ/mol
# GULP energy per Si atom -5589.685495 kJ/mol
# Density = 2.210767 g / cm^3
# Si number density = 22.158103 Si / 1000 Ang^3
#
#
#
# Elastic Constant Matrix: (Units=GPa)
#
#
# Indices 1 2 3 4 5 6 
#
# 1 136.2758 -8.3081 21.2053 0.0002 18.5595 0.0001
# 2 -8.3081 43.5938 0.4756 0.0006 -3.0387 0.0000
# 3 21.2053 0.4756 62.5225 0.0009 15.5981 0.0000
# 4 0.0002 0.0006 0.0009 5.5668 -0.0002 -1.0043
# 5 18.5595 -3.0387 15.5981 -0.0002 43.0754 -0.0001
# 6 0.0001 0.0000 0.0000 -1.0043 -0.0001 25.8278
#
#
#
# Elastic Compliance Matrix: (Units=1/GPa)
#
#
# Indices 1 2 3 4 5 6 
#
# 1 0.008109 0.001385 -0.002103 0.000000 -0.002634 0.000000
# 2 0.001385 0.023312 -0.000999 -0.000002 0.001410 0.000000
# 3 -0.002103 -0.000999 0.018146 -0.000003 -0.005735 0.000000
# 4 0.000000 -0.000002 -0.000003 0.180906 0.000002 0.007034
# 5 -0.002634 0.001410 -0.005735 0.000002 0.026526 0.000000
# 6 0.000000 0.000000 0.000000 0.007034 0.000000 0.038991
#
#
# Mechanical properties :
#
#
# Convention : Reuss Voigt Hill
#
# Bulk Modulus (GPa) = 21.67701 29.90421 25.79061
# Shear Modulus (GPa) = 15.88297 30.16195 23.02246
#
# Velocity S-wave (km/s) = 2.68022 3.69347 3.22686
# Velocity P-wave (km/s) = 4.40252 5.63152 5.05452
#
# Compressibility (1/GPa) = 0.04613183
#
# Stress axis : x y z
#
# Youngs Moduli (GPa) = 123.32663 42.89624 55.10850
#
# Poissons Ratio (x) = -0.05940 0.11592
# Poissons Ratio (y) = -0.17076 0.05503
# Poissons Ratio (z) = 0.25941 0.04284
#
# Static dielectric constant tensor:
#      x y z
#    x 1.794510 0.000000 -0.013590 
#    y 0.000000 1.848640 0.000000 
#    z -0.013590 0.000000 1.798140 
# 
# From -- ./inp_files/151631.got.cif
#   From: 2010.05.17/outbox.cif.g08.bks.cpg/sg12_76_cif.got.tgz:151631.got - 2010.06.03 13:09:07.
