data_PCOD9202147
_publ_section_title
;
Structure prediction by ZEFSAII (Michael W. Deem and Ramdas Pophale) SiO2 
 PCOD9202147
Probable space group: C 2/M
;
_chemical_formula_sum "Si O2"
_cell_formula_units_Z 36
_cell_length_a 23.006273
_cell_length_b 11.705138
_cell_length_c 16.548230
_cell_angle_alpha 90.000000
_cell_angle_beta 18.033872
_cell_angle_gamma 90.000000
_cell_volume 1379.577513
_symmetry_space_group_name_H-M "C 2/M"
_symmetry_group_IT_number 12
_symmetry_cell_setting 'monoclinic'
loop_
_space_group_symop_operation_xyz
x,y,z
-x,y,-z
-x,-y,-z
x,-y,z
1/2+x,1/2+y,z
1/2-x,1/2+y,-z
1/2-x,1/2-y,-z
1/2+x,1/2-y,z
loop_
_atom_site_type_symbol
_atom_site_label
_atom_site_fract_x
_atom_site_fract_y
_atom_site_fract_z
Si Si1 0.063435 0.637261 0.827044
Si Si2 0.389555 0.753551 0.560626
Si Si3 0.498759 0.288681 0.760227
Si Si4 0.599402 0.500000 0.452532
Si Si5 0.715023 0.500000 0.995251
Si Si6 0.386130 0.000000 0.565010
O O1 0.041323 0.500000 0.854650
O O2 0.288401 0.661945 0.519282
O O3 0.980576 0.699040 0.856711
O O4 0.000000 0.683325 0.000000
O O5 0.500000 0.755746 0.500000
O O6 0.519584 0.753945 0.307947
O O7 0.304999 0.624030 0.668768
O O8 0.288174 0.877164 0.685029
O O9 0.347667 0.388349 0.970743
O O10 0.500000 0.500000 0.500000
O O11 0.432004 0.500000 0.737731
O O12 0.930371 0.500000 0.735726
O O13 0.500000 0.000000 0.500000
#
# Coordination Sequence:
#
# PCOD9202147 Si02
#       6
#     8   8   8   4   4   4
#     4  10  22  41  65  95 122 159 215 267 310 366
#     4   9  19  36  59  87 122 162 200 247 304 373
#     4  10  21  39  67  89 126 164 203 255 323 373
#     4   8  16  32  54  79 110 152 198 234 289 357
#     4  10  20  38  59  82 123 161 197 249 313 365
#     4  10  22  36  53  83 125 161 200 247 297 368
#
# _framework density 26.094944999999999
#
# number of rings (size 3 to 8) (size 9 to 14) (size 15 to 20)
#    0.000    2.444    1.111    0.000    1.556    7.111 
#    0.000    5.000    2.444    0.000    0.000    0.000 
#    0.000    0.000    0.000    0.000    0.000    0.000 
#
# Total GULP energy -100455.026678 kJ/mol
# GULP energy per Si atom -5580.834815 kJ/mol
# Density = 2.603555 g / cm^3
# Si number density = 26.094945 Si / 1000 Ang^3
#
#
#
# Elastic Constant Matrix: (Units=GPa)
#
#
# Indices 1 2 3 4 5 6 
#
# 1 143.9140 49.6165 47.6965 0.0004 34.8702 -0.0005
# 2 49.6165 271.6164 54.9663 0.0004 16.3375 -0.0004
# 3 47.6965 54.9663 107.6281 0.0002 33.1815 -0.0001
# 4 0.0004 0.0004 0.0002 35.4810 -0.0002 -4.7994
# 5 34.8702 16.3375 33.1815 -0.0002 48.3888 0.0003
# 6 -0.0005 -0.0004 -0.0001 -4.7994 0.0003 48.6289
#
#
#
# Elastic Compliance Matrix: (Units=1/GPa)
#
#
# Indices 1 2 3 4 5 6 
#
# 1 0.009138 -0.000960 -0.002066 0.000000 -0.004844 0.000000
# 2 -0.000960 0.004207 -0.001900 0.000000 0.000574 0.000000
# 3 -0.002066 -0.001900 0.013341 0.000000 -0.007018 0.000000
# 4 0.000000 0.000000 0.000000 0.028565 0.000000 0.002819
# 5 -0.004844 0.000574 -0.007018 0.000000 0.028775 0.000000
# 6 0.000000 0.000000 0.000000 0.002819 0.000000 0.020842
#
#
# Mechanical properties :
#
#
# Convention : Reuss Voigt Hill
#
# Bulk Modulus (GPa) = 59.40396 91.96855 75.68625
# Shear Modulus (GPa) = 41.55174 51.22502 46.38838
#
# Velocity S-wave (km/s) = 3.99473 4.43541 4.22082
# Velocity P-wave (km/s) = 6.64011 7.84543 7.26780
#
# Compressibility (1/GPa) = 0.01683390
#
# Stress axis : x y z
#
# Youngs Moduli (GPa) = 109.43359 237.69944 74.95786
#
# Poissons Ratio (x) = 0.22814 0.15486
# Poissons Ratio (y) = 0.10503 0.14244
# Poissons Ratio (z) = 0.22608 0.45169
#
# Static dielectric constant tensor:
#      x y z
#    x 1.974340 0.000000 -0.076040 
#    y 0.000000 2.086190 0.000000 
#    z -0.076040 0.000000 2.109950 
# 
# From -- ./inp_files/293040.got.cif
#   From: 2010.05.17/outbox.cif.g08.bks.cpg/sg12_147_cif.got.tgz:293040.got - 2010.06.03 13:09:07.
