data_PCOD9202164
_publ_section_title
;
Structure prediction by ZEFSAII (Michael W. Deem and Ramdas Pophale) SiO2 
 PCOD9202164
Probable space group: C 2/M
;
_chemical_formula_sum "Si O2"
_cell_formula_units_Z 56
_cell_length_a 24.701999
_cell_length_b 12.697644
_cell_length_c 8.979766
_cell_angle_alpha 90.000000
_cell_angle_beta 72.039940
_cell_angle_gamma 90.000000
_cell_volume 2679.321576
_symmetry_space_group_name_H-M "C 2/M"
_symmetry_group_IT_number 12
_symmetry_cell_setting 'monoclinic'
loop_
_space_group_symop_operation_xyz
x,y,z
-x,y,-z
-x,-y,-z
x,-y,z
1/2+x,1/2+y,z
1/2-x,1/2+y,-z
1/2-x,1/2-y,-z
1/2+x,1/2-y,z
loop_
_atom_site_type_symbol
_atom_site_label
_atom_site_fract_x
_atom_site_fract_y
_atom_site_fract_z
Si Si1 0.309642 0.285185 0.388134
Si Si2 0.294232 0.379130 0.070960
Si Si3 0.022746 0.208298 0.836647
Si Si4 0.114866 0.620019 0.822667
Si Si5 0.163914 0.669480 0.101735
Si Si6 0.051680 0.695019 0.357048
Si Si7 0.095469 0.116212 0.521791
O O1 0.250000 0.250000 0.500000
O O2 0.305852 0.342799 0.231369
O O3 0.345712 0.178731 0.330880
O O4 0.340679 0.356946 0.483669
O O5 0.311581 0.500000 0.033385
O O6 0.226155 0.369225 0.099452
O O7 0.326707 0.295363 0.936804
O O8 0.060303 0.304742 0.868594
O O9 0.060692 0.132681 0.703914
O O10 0.976308 0.261540 0.769941
O O11 0.000000 0.150235 0.000000
O O12 0.101539 0.500000 0.796173
O O13 0.146287 0.624751 0.955239
O O14 0.111702 0.642986 0.257505
O O15 0.070771 0.795542 0.436127
O O16 0.000000 0.643519 0.500000
O O17 0.089004 0.000000 0.466380
#
# Coordination Sequence:
#
# PCOD9202164 Si02
#       7
#     8   8   8   8   8   8   8
#     4  10  21  39  59  84 121 156 195 250 299 351
#     4  10  21  36  59  88 118 157 201 246 301 357
#     4  10  20  38  59  85 118 154 193 249 296 347
#     4  10  21  37  61  88 115 155 205 246 298 359
#     4  10  20  38  59  87 124 157 196 255 302 353
#     4  10  21  38  60  83 123 160 197 245 302 357
#     4  10  22  38  59  87 119 158 199 239 294 361
#
# _framework density 20.900812999999999
#
# number of rings (size 3 to 8) (size 9 to 14) (size 15 to 20)
#    0.000    2.000    1.429    1.714    0.000    4.857 
#    0.000    0.000    0.000   15.857    0.000    0.000 
#    0.000    0.000    0.000    0.000    0.000    0.000 
#
# Total GULP energy -156270.751961 kJ/mol
# GULP energy per Si atom -5581.098284 kJ/mol
# Density = 2.085324 g / cm^3
# Si number density = 20.900813 Si / 1000 Ang^3
#
#
#
# Elastic Constant Matrix: (Units=GPa)
#
#
# Indices 1 2 3 4 5 6 
#
# 1 85.5469 -12.7915 6.9251 0.0000 1.8976 0.0000
# 2 -12.7915 81.2320 -7.6615 0.0000 -1.8418 0.0000
# 3 6.9251 -7.6615 57.3051 0.0000 -12.5803 0.0000
# 4 0.0000 0.0000 0.0000 3.1242 0.0000 7.0542
# 5 1.8976 -1.8418 -12.5803 0.0000 44.8329 0.0000
# 6 0.0000 0.0000 0.0000 7.0542 0.0000 2.8248
#
#
#
# Elastic Compliance Matrix: (Units=1/GPa)
#
#
# Indices 1 2 3 4 5 6 
#
# 1 0.012084 0.001751 -0.001410 0.000000 -0.000835 0.000000
# 2 0.001751 0.012767 0.001699 0.000000 0.000927 0.000000
# 3 -0.001410 0.001699 0.019050 0.000000 0.005475 0.000000
# 4 0.000000 0.000000 0.000000 -0.069006 0.000000 0.172322
# 5 -0.000835 0.000927 0.005475 0.000000 0.023915 0.000000
# 6 0.000000 0.000000 0.000000 0.172322 0.000000 -0.076320
#
#
# Mechanical properties :
#
#
# Convention : Reuss Voigt Hill
#
# Bulk Modulus (GPa) = 20.84123 21.89203 21.36663
# Shear Modulus (GPa) = -76.22312 25.99719 -25.11297
#
# Velocity S-wave (km/s) = -6.04551 3.53063 -3.47007
# Velocity P-wave (km/s) = 6.22396 5.20744 2.41042
#
# Compressibility (1/GPa) = 0.04798182
#
# Stress axis : x y z
#
# Youngs Moduli (GPa) = 82.75446 78.32456 52.49388
#
# Poissons Ratio (x) = -0.13714 0.07399
# Poissons Ratio (y) = -0.14490 -0.08918
# Poissons Ratio (z) = 0.11664 -0.13306
#
# Static dielectric constant tensor:
#      x y z
#    x 1.903900 0.000000 -0.080430 
#    y 0.000000 1.737970 0.000000 
#    z -0.080430 0.000000 1.796460 
# 
# From -- ./inp_files/103144.got.cif
#   From: 2010.05.17/outbox.cif.g08.bks.cpg/sg12_52_cif.got.tgz:103144.got - 2010.06.03 13:09:07.
