data_PCOD9202249
_publ_section_title
;
Structure prediction by ZEFSAII (Michael W. Deem and Ramdas Pophale) SiO2 
 PCOD9202249
Probable space group: C 2/M
;
_chemical_formula_sum "Si O2"
_cell_formula_units_Z 64
_cell_length_a 14.982818
_cell_length_b 14.054522
_cell_length_c 18.232980
_cell_angle_alpha 90.000000
_cell_angle_beta 54.139190
_cell_angle_gamma 90.000000
_cell_volume 3111.640826
_symmetry_space_group_name_H-M "C 2/M"
_symmetry_group_IT_number 12
_symmetry_cell_setting 'monoclinic'
loop_
_space_group_symop_operation_xyz
x,y,z
-x,y,-z
-x,-y,-z
x,-y,z
1/2+x,1/2+y,z
1/2-x,1/2+y,-z
1/2-x,1/2-y,-z
1/2+x,1/2-y,z
loop_
_atom_site_type_symbol
_atom_site_label
_atom_site_fract_x
_atom_site_fract_y
_atom_site_fract_z
Si Si1 0.617662 0.892916 0.957889
Si Si2 0.845597 0.690732 0.914190
Si Si3 0.752967 0.614296 0.241773
Si Si4 0.413552 0.276547 0.200979
Si Si5 0.235060 0.614845 0.203532
Si Si6 0.010367 0.115423 0.411256
Si Si7 0.117682 0.384879 0.414376
Si Si8 0.661861 0.384936 0.622215
O O1 0.717105 0.861204 0.857529
O O2 0.603762 0.000000 0.937439
O O3 0.500000 0.842493 0.000000
O O4 0.638253 0.892140 0.033679
O O5 0.814842 0.653676 0.848484
O O6 0.959153 0.749276 0.863617
O O7 0.750000 0.750000 0.000000
O O8 0.762298 0.500000 0.251567
O O9 0.842191 0.678492 0.241765
O O10 0.628661 0.642323 0.321102
O O11 0.352454 0.335365 0.165500
O O12 0.399108 0.343450 0.277990
O O13 0.245893 0.500000 0.195213
O O14 0.158527 0.638560 0.311955
O O15 0.905799 0.148838 0.415228
O O16 0.000000 0.143512 0.500000
O O17 0.008047 0.000000 0.409935
O O18 0.114897 0.500000 0.416239
O O19 0.212421 0.354623 0.425866
O O20 0.000000 0.351970 0.500000
O O21 0.659725 0.500000 0.624827
#
# Coordination Sequence:
#
# PCOD9202249 Si02
#       8
#     8   8   8   8   8   8   8   8
#     4  10  20  38  60  84 118 157 204 259 315 376
#     4  12  26  39  63  91 125 168 215 265 324 382
#     4  10  21  38  63  88 123 168 208 259 323 379
#     4  11  23  41  65  90 129 166 214 264 323 386
#     4  10  23  44  67  96 134 172 217 274 328 387
#     4   9  19  38  63  91 124 160 206 263 319 382
#     4   8  15  34  63  92 124 167 211 255 312 380
#     4   9  19  37  63  93 125 165 206 253 318 383
#
# _framework density 20.567926
#
# number of rings (size 3 to 8) (size 9 to 14) (size 15 to 20)
#    0.000    2.125    1.250    2.250    3.500    0.500 
#    2.250    5.625    0.000    0.000    0.000    0.000 
#    0.000    0.500    0.000    0.000    0.000    0.000 
#
# Total GULP energy -178357.747771 kJ/mol
# GULP energy per Si atom -5573.679618 kJ/mol
# Density = 2.052111 g / cm^3
# Si number density = 20.567926 Si / 1000 Ang^3
#
#
#
# Elastic Constant Matrix: (Units=GPa)
#
#
# Indices 1 2 3 4 5 6 
#
# 1 194.3698 40.6173 116.0980 0.0000 0.3523 0.0000
# 2 40.6173 76.6151 19.7734 0.0000 -11.9832 0.0000
# 3 116.0980 19.7734 144.6187 0.0000 -17.2440 0.0000
# 4 0.0000 0.0000 0.0000 4.4793 0.0000 -0.4781
# 5 0.3523 -11.9832 -17.2440 0.0000 42.5700 0.0000
# 6 0.0000 0.0000 0.0000 -0.4781 0.0000 19.2608
#
#
#
# Elastic Compliance Matrix: (Units=1/GPa)
#
#
# Indices 1 2 3 4 5 6 
#
# 1 0.011743 -0.004610 -0.009418 0.000000 -0.005210 0.000000
# 2 -0.004610 0.015771 0.002184 0.000000 0.005362 0.000000
# 3 -0.009418 0.002184 0.014983 0.000000 0.006762 0.000000
# 4 0.000000 0.000000 0.000000 0.223844 0.000000 0.005556
# 5 -0.005210 0.005362 0.006762 0.000000 0.027782 0.000000
# 6 0.000000 0.000000 0.000000 0.005556 0.000000 0.052057
#
#
# Mechanical properties :
#
#
# Convention : Reuss Voigt Hill
#
# Bulk Modulus (GPa) = 53.16590 85.39791 69.28190
# Shear Modulus (GPa) = 13.29298 29.20301 21.24799
#
# Velocity S-wave (km/s) = 2.54499 3.77215 3.21762
# Velocity P-wave (km/s) = 5.87716 7.78346 6.89650
#
# Compressibility (1/GPa) = 0.01880905
#
# Stress axis : x y z
#
# Youngs Moduli (GPa) = 85.15692 63.40675 66.74157
#
# Poissons Ratio (x) = 0.29229 0.62858
# Poissons Ratio (y) = 0.39255 -0.14574
# Poissons Ratio (z) = 0.80201 -0.13846
#
# Static dielectric constant tensor:
#      x y z
#    x 1.702460 0.000000 0.011220 
#    y 0.000000 1.782790 0.000000 
#    z 0.011220 0.000000 1.734500 
# 
# From -- ./inp_files/270655.got.cif
#   From: 2010.05.17/outbox.cif.g08.bks.cpg/sg12_136_cif.got.tgz:270655.got - 2010.06.03 13:09:07.
