data_PCOD9202003
_publ_section_title
;
Structure prediction by ZEFSAII (Michael W. Deem and Ramdas Pophale) SiO2 
 PCOD9202003
Probable space group: C 2/M
;
_chemical_formula_sum "Si O2"
_cell_formula_units_Z 64
_cell_length_a 17.893927
_cell_length_b 17.868421
_cell_length_c 21.032531
_cell_angle_alpha 90.000000
_cell_angle_beta 147.901929
_cell_angle_gamma 90.000000
_cell_volume 3573.390306
_symmetry_space_group_name_H-M "C 2/M"
_symmetry_group_IT_number 12
_symmetry_cell_setting 'monoclinic'
loop_
_space_group_symop_operation_xyz
x,y,z
-x,y,-z
-x,-y,-z
x,-y,z
1/2+x,1/2+y,z
1/2-x,1/2+y,-z
1/2-x,1/2-y,-z
1/2+x,1/2-y,z
loop_
_atom_site_type_symbol
_atom_site_label
_atom_site_fract_x
_atom_site_fract_y
_atom_site_fract_z
Si Si1 0.446066 0.411670 0.140520
Si Si2 0.604665 0.179003 0.199359
Si Si3 0.257740 0.236208 0.198208
Si Si4 0.217514 0.311212 0.032413
Si Si5 0.147298 0.914308 0.568059
Si Si6 0.148192 0.084530 0.071004
Si Si7 0.655395 0.299998 0.343684
Si Si8 0.571750 0.724353 0.427078
O O1 0.456520 0.500000 0.152948
O O2 0.592812 0.373224 0.265397
O O3 0.329530 0.376570 0.102576
O O4 0.391343 0.393616 0.029841
O O5 0.648494 0.227752 0.169269
O O6 0.441321 0.157403 0.081914
O O7 0.720900 0.114574 0.294638
O O8 0.615956 0.233946 0.267505
O O9 0.237185 0.148043 0.170598
O O10 0.414292 0.256334 0.334060
O O11 0.237480 0.273192 0.114845
O O12 0.250000 0.250000 0.000000
O O13 0.125276 0.852923 0.497017
O O14 0.000000 0.912979 0.500000
O O15 0.171278 0.000000 0.564141
O O16 0.208901 0.000000 0.114627
O O17 0.000000 0.081646 0.000000
O O18 0.582944 0.285741 0.359422
O O19 0.821168 0.290135 0.475253
#
# Coordination Sequence:
#
# PCOD9202003 Si02
#       8
#     8   8   8   8   8   8   8   8
#     4  11  22  37  58  85 118 159 192 238 307 354
#     4  11  22  36  62  88 114 155 202 242 292 347
#     4  12  20  36  61  90 114 156 198 238 292 362
#     4  12  21  37  58  85 120 154 193 246 289 350
#     4  10  21  40  61  86 120 156 196 243 291 345
#     4  10  21  36  56  84 117 151 192 242 295 354
#     4  10  20  38  56  83 114 149 192 249 282 340
#     4  10  21  36  61  86 111 153 201 238 287 347
#
# _framework density 17.910162
#
# number of rings (size 3 to 8) (size 9 to 14) (size 15 to 20)
#    0.000    1.250    5.000    1.875    0.000    1.000 
#    0.000    1.250    0.000    1.500    0.000    5.250 
#    0.000    0.000    0.000    0.000    0.000    0.000 
#
# Total GULP energy -178486.508889 kJ/mol
# GULP energy per Si atom -5577.703403 kJ/mol
# Density = 1.786940 g / cm^3
# Si number density = 17.910162 Si / 1000 Ang^3
#
#
#
# Elastic Constant Matrix: (Units=GPa)
#
#
# Indices 1 2 3 4 5 6 
#
# 1 71.7056 27.9072 22.0684 -0.0004 -1.9928 -0.0003
# 2 27.9072 112.3456 49.4255 0.0005 1.0386 0.0001
# 3 22.0684 49.4255 84.0680 0.0009 12.9349 0.0000
# 4 -0.0004 0.0005 0.0009 32.1895 0.0009 2.2615
# 5 -1.9928 1.0386 12.9349 0.0009 32.2486 0.0002
# 6 -0.0003 0.0001 0.0000 2.2615 0.0002 18.6041
#
#
#
# Elastic Compliance Matrix: (Units=1/GPa)
#
#
# Indices 1 2 3 4 5 6 
#
# 1 0.015965 -0.002684 -0.002961 0.000000 0.002260 0.000000
# 2 -0.002684 0.012667 -0.007092 0.000000 0.002271 0.000000
# 3 -0.002961 -0.007092 0.017942 0.000000 -0.007151 0.000000
# 4 0.000000 0.000000 0.000000 0.031334 -0.000001 -0.003809
# 5 0.002260 0.002271 -0.007151 -0.000001 0.033944 0.000000
# 6 0.000000 0.000000 0.000000 -0.003809 0.000000 0.054215
#
#
# Mechanical properties :
#
#
# Convention : Reuss Voigt Hill
#
# Bulk Modulus (GPa) = 47.39261 51.88014 49.63637
# Shear Modulus (GPa) = 25.17975 27.85632 26.51804
#
# Velocity S-wave (km/s) = 3.75359 3.94805 3.85205
# Velocity P-wave (km/s) = 6.73087 7.05780 6.89628
#
# Compressibility (1/GPa) = 0.02110034
#
# Stress axis : x y z
#
# Youngs Moduli (GPa) = 62.63896 78.94602 55.73486
#
# Poissons Ratio (x) = 0.21190 0.16501
# Poissons Ratio (y) = 0.16813 0.39527
# Poissons Ratio (z) = 0.18545 0.55988
#
# Static dielectric constant tensor:
#      x y z
#    x 1.616110 0.000000 0.003260 
#    y 0.000000 1.615180 0.000000 
#    z 0.003260 0.000000 1.642680 
# 
# From -- ./inp_files/271757.got.cif
#   From: 2010.05.17/outbox.cif.g08.bks.cpg/sg12_136_cif.got.tgz:271757.got - 2010.06.03 13:09:07.
