data_PCOD9202425
_publ_section_title
;
Structure prediction by ZEFSAII (Michael W. Deem and Ramdas Pophale) SiO2 
 PCOD9202425
Probable space group: C 2/M
;
_chemical_formula_sum "Si O2"
_cell_formula_units_Z 48
_cell_length_a 20.783438
_cell_length_b 7.971936
_cell_length_c 34.608915
_cell_angle_alpha 90.000000
_cell_angle_beta 155.077775
_cell_angle_gamma 90.000000
_cell_volume 2416.300556
_symmetry_space_group_name_H-M "C 2/M"
_symmetry_group_IT_number 12
_symmetry_cell_setting 'monoclinic'
loop_
_space_group_symop_operation_xyz
x,y,z
-x,y,-z
-x,-y,-z
x,-y,z
1/2+x,1/2+y,z
1/2-x,1/2+y,-z
1/2-x,1/2-y,-z
1/2+x,1/2-y,z
loop_
_atom_site_type_symbol
_atom_site_label
_atom_site_fract_x
_atom_site_fract_y
_atom_site_fract_z
Si Si1 0.851075 0.702338 0.441616
Si Si2 0.889240 0.298435 0.752171
Si Si3 0.524258 0.198372 0.056311
Si Si4 0.607879 0.799542 0.449005
Si Si5 0.238935 0.201714 0.751078
Si Si6 0.732447 0.201318 0.945865
O O1 0.856209 0.500000 0.445631
O O2 0.707466 0.752267 0.337883
O O3 0.859032 0.765130 0.489653
O O4 0.000000 0.763571 0.500000
O O5 0.893924 0.500000 0.757962
O O6 0.809198 0.235506 0.748325
O O7 0.062920 0.239756 0.842409
O O8 0.660487 0.266379 0.157950
O O9 0.556041 0.000000 0.068936
O O10 0.500000 0.270071 0.000000
O O11 0.367967 0.220699 0.994835
O O12 0.750000 0.750000 0.500000
O O13 0.440565 0.740230 0.344499
O O14 0.600567 0.000000 0.446413
O O15 0.255518 0.000000 0.759663
O O16 0.741518 0.000000 0.946886
O O17 0.750000 0.250000 0.000000
#
# Coordination Sequence:
#
# PCOD9202425 Si02
#       6
#     8   8   8   8   8   8
#     4  10  21  38  59  86 116 147 195 245 287 345
#     4  10  21  36  59  90 122 154 194 246 296 347
#     4  10  22  41  63  88 123 163 201 245 301 358
#     4  11  24  41  61  87 120 157 197 243 296 355
#     4  10  20  38  61  87 120 156 197 242 297 355
#     4  11  22  38  60  89 122 155 200 249 295 353
#
# _framework density 19.865079000000001
#
# number of rings (size 3 to 8) (size 9 to 14) (size 15 to 20)
#    0.000    1.667    3.333    1.000    0.000    5.333 
#    0.000    5.000    0.000    0.000    0.000    0.000 
#    0.000    0.000    0.000    0.000    0.000    0.000 
#
# Total GULP energy -134026.299415 kJ/mol
# GULP energy per Si atom -5584.429142 kJ/mol
# Density = 1.981987 g / cm^3
# Si number density = 19.865079 Si / 1000 Ang^3
#
#
#
# Elastic Constant Matrix: (Units=GPa)
#
#
# Indices 1 2 3 4 5 6 
#
# 1 153.8736 -6.9889 98.0340 0.0011 -15.5822 -0.0012
# 2 -6.9889 13.1332 -1.8832 0.0027 -8.2530 -0.0034
# 3 98.0340 -1.8832 224.4368 0.0008 -9.3863 -0.0011
# 4 0.0011 0.0027 0.0008 24.8896 -0.0002 6.0426
# 5 -15.5822 -8.2530 -9.3863 -0.0002 29.8121 0.0006
# 6 -0.0012 -0.0034 -0.0011 6.0426 0.0006 22.7556
#
#
#
# Elastic Compliance Matrix: (Units=1/GPa)
#
#
# Indices 1 2 3 4 5 6 
#
# 1 0.010170 0.008904 -0.004096 -0.000002 0.006491 0.000002
# 2 0.008904 0.100751 -0.001705 -0.000015 0.032008 0.000019
# 3 -0.004096 -0.001705 0.006203 0.000000 -0.000660 0.000000
# 4 -0.000002 -0.000015 0.000000 0.042946 -0.000005 -0.011404
# 5 0.006491 0.032008 -0.000660 -0.000005 0.045589 0.000005
# 6 0.000002 0.000019 0.000000 -0.011404 0.000005 0.046973
#
#
# Mechanical properties :
#
#
# Convention : Reuss Voigt Hill
#
# Bulk Modulus (GPa) = 8.10842 63.30749 35.70795
# Shear Modulus (GPa) = 17.38906 35.64360 26.51633
#
# Velocity S-wave (km/s) = 2.96186 4.24049 3.65748
# Velocity P-wave (km/s) = 3.97333 7.47754 5.98753
#
# Compressibility (1/GPa) = 0.12332862
#
# Stress axis : x y z
#
# Youngs Moduli (GPa) = 98.32557 9.92550 161.21475
#
# Poissons Ratio (x) = -0.08837 0.66037
# Poissons Ratio (y) = -0.87547 0.27490
# Poissons Ratio (z) = 0.40276 0.01692
#
# Static dielectric constant tensor:
#      x y z
#    x 1.670480 0.000000 -0.001290 
#    y 0.000000 1.739680 0.000000 
#    z -0.001290 0.000000 1.691050 
# 
# From -- ./inp_files/244647.got.cif
#   From: 2010.05.17/outbox.cif.g08.bks.cpg/sg12_123_cif.got.tgz:244647.got - 2010.06.03 13:09:07.
