data_PCOD9202565
_publ_section_title
;
Structure prediction by ZEFSAII (Michael W. Deem and Ramdas Pophale) SiO2 
 PCOD9202565
Probable space group: C 2/M
;
_chemical_formula_sum "Si O2"
_cell_formula_units_Z 48
_cell_length_a 13.959098
_cell_length_b 10.686310
_cell_length_c 22.723536
_cell_angle_alpha 90.000000
_cell_angle_beta 138.017219
_cell_angle_gamma 90.000000
_cell_volume 2267.393692
_symmetry_space_group_name_H-M "C 2/M"
_symmetry_group_IT_number 12
_symmetry_cell_setting 'monoclinic'
loop_
_space_group_symop_operation_xyz
x,y,z
-x,y,-z
-x,-y,-z
x,-y,z
1/2+x,1/2+y,z
1/2-x,1/2+y,-z
1/2-x,1/2-y,-z
1/2+x,1/2-y,z
loop_
_atom_site_type_symbol
_atom_site_label
_atom_site_fract_x
_atom_site_fract_y
_atom_site_fract_z
Si Si1 0.249783 0.862726 0.839217
Si Si2 0.512475 0.215157 0.883101
Si Si3 0.709490 0.362838 0.051374
Si Si4 0.554160 0.356166 0.367013
Si Si5 0.161208 0.143268 0.290958
Si Si6 0.990259 0.642919 0.425497
O O1 0.389201 0.856313 0.861591
O O2 0.264437 0.748724 0.890867
O O3 0.105054 0.850464 0.734827
O O4 0.245587 0.000000 0.866653
O O5 0.654735 0.140639 0.930671
O O6 0.442880 0.267339 0.791877
O O7 0.569110 0.327683 0.950083
O O8 0.699100 0.500000 0.073929
O O9 0.575778 0.500000 0.397386
O O10 0.658803 0.330732 0.359622
O O11 0.563611 0.250720 0.420943
O O12 0.319369 0.150705 0.336441
O O13 0.110890 0.000000 0.262384
O O14 0.038370 0.500000 0.434062
O O15 0.000000 0.660734 0.500000
#
# Coordination Sequence:
#
# PCOD9202565 Si02
#       6
#     8   8   8   8   8   8
#     4  11  23  40  61  86 119 160 204 250 300 349
#     4  11  22  39  60  84 120 163 201 248 298 349
#     4  11  25  39  58  89 121 156 207 255 296 348
#     4  10  21  39  62  89 119 156 200 242 293 356
#     4  10  20  38  62  87 120 160 196 240 296 354
#     4  10  22  41  65  93 122 153 192 242 299 356
#
# _framework density 21.169682000000002
#
# number of rings (size 3 to 8) (size 9 to 14) (size 15 to 20)
#    0.000    1.500    3.333    1.500    0.000    7.667 
#    0.000    0.833    0.000    0.000    0.000    0.000 
#    0.000    0.000    0.000    0.000    0.000    0.000 
#
# Total GULP energy -134137.111350 kJ/mol
# GULP energy per Si atom -5589.046306 kJ/mol
# Density = 2.112150 g / cm^3
# Si number density = 21.169682 Si / 1000 Ang^3
#
#
#
# Elastic Constant Matrix: (Units=GPa)
#
#
# Indices 1 2 3 4 5 6 
#
# 1 82.9301 41.0616 -3.3594 0.0000 0.6662 0.0000
# 2 41.0616 169.9010 38.2157 0.0000 -34.6939 0.0000
# 3 -3.3594 38.2157 48.5212 0.0000 -5.4443 0.0000
# 4 0.0000 0.0000 0.0000 19.5603 0.0000 -15.9121
# 5 0.6662 -34.6939 -5.4443 0.0000 32.2831 0.0000
# 6 0.0000 0.0000 0.0000 -15.9121 0.0000 27.9588
#
#
#
# Elastic Compliance Matrix: (Units=1/GPa)
#
#
# Indices 1 2 3 4 5 6 
#
# 1 0.015336 -0.006099 0.005192 0.000000 -0.005995 0.000000
# 2 -0.006099 0.011466 -0.008211 0.000000 0.011063 0.000000
# 3 0.005192 -0.008211 0.026944 0.000000 -0.004388 0.000000
# 4 0.000000 0.000000 0.000000 0.095200 0.000000 0.054181
# 5 -0.005995 0.011063 -0.004388 0.000000 0.042249 0.000000
# 6 0.000000 0.000000 0.000000 0.054181 0.000000 0.066603
#
#
# Mechanical properties :
#
#
# Convention : Reuss Voigt Hill
#
# Bulk Modulus (GPa) = 28.16012 50.35425 39.25718
# Shear Modulus (GPa) = 17.36895 30.98940 24.17917
#
# Velocity S-wave (km/s) = 2.86748 3.83019 3.38325
# Velocity P-wave (km/s) = 4.92892 6.58773 5.81775
#
# Compressibility (1/GPa) = 0.03551122
#
# Stress axis : x y z
#
# Youngs Moduli (GPa) = 65.20406 87.21631 37.11391
#
# Poissons Ratio (x) = 0.53190 -0.19271
# Poissons Ratio (y) = 0.39765 0.30476
# Poissons Ratio (z) = -0.33857 0.71617
#
# Static dielectric constant tensor:
#      x y z
#    x 1.783270 0.000000 0.014510 
#    y 0.000000 1.755930 0.000000 
#    z 0.014510 0.000000 1.755910 
# 
# From -- ./inp_files/310274.got.cif
#   From: 2010.05.17/outbox.cif.g08.bks.cpg/sg12_156_cif.got.tgz:310274.got - 2010.06.03 13:09:07.
