data_PCOD9202636
_publ_section_title
;
Structure prediction by ZEFSAII (Michael W. Deem and Ramdas Pophale) SiO2 
 PCOD9202636
Probable space group: C 2/M
;
_chemical_formula_sum "Si O2"
_cell_formula_units_Z 36
_cell_length_a 24.512343
_cell_length_b 9.198577
_cell_length_c 23.577637
_cell_angle_alpha 90.000000
_cell_angle_beta 18.152920
_cell_angle_gamma 90.000000
_cell_volume 1656.301475
_symmetry_space_group_name_H-M "C 2/M"
_symmetry_group_IT_number 12
_symmetry_cell_setting 'monoclinic'
loop_
_space_group_symop_operation_xyz
x,y,z
-x,y,-z
-x,-y,-z
x,-y,z
1/2+x,1/2+y,z
1/2-x,1/2+y,-z
1/2-x,1/2-y,-z
1/2+x,1/2-y,z
loop_
_atom_site_type_symbol
_atom_site_label
_atom_site_fract_x
_atom_site_fract_y
_atom_site_fract_z
Si Si1 0.634483 0.169853 0.986686
Si Si2 0.531084 0.325162 0.620151
Si Si3 0.640350 0.162436 0.407314
Si Si4 0.500000 0.269633 0.000000
Si Si5 0.942898 0.676648 0.817032
O O1 0.834054 0.225389 0.795530
O O2 0.654356 0.000000 0.976708
O O3 0.560277 0.189820 0.997667
O O4 0.518432 0.217707 0.155484
O O5 0.541436 0.500000 0.614817
O O6 0.648939 0.266999 0.452693
O O7 0.558399 0.250068 0.654001
O O8 0.500000 0.218430 0.500000
O O9 0.584589 0.000000 0.480246
O O10 0.825638 0.152074 0.193207
O O11 0.939486 0.500000 0.813396
O O12 0.750000 0.750000 0.000000
#
# Coordination Sequence:
#
# PCOD9202636 Si02
#       5
#     8   8   8   4   8
#     4   9  19  34  58  91 127 161 203 251 305 363
#     4  10  20  38  62  92 121 162 211 256 309 368
#     4  11  24  42  62  90 126 164 204 255 310 369
#     4  12  22  40  62  92 123 168 203 250 311 374
#     4   9  17  33  57  90 124 164 208 256 307 365
#
# _framework density 21.735174000000001
#
# number of rings (size 3 to 8) (size 9 to 14) (size 15 to 20)
#    0.000    2.000    2.222    3.333    0.000    2.222 
#    0.000    4.444    0.000    0.000    0.000    0.000 
#    0.000    0.000    0.000    0.000    0.000    0.000 
#
# Total GULP energy -100304.586538 kJ/mol
# GULP energy per Si atom -5572.477030 kJ/mol
# Density = 2.168570 g / cm^3
# Si number density = 21.735174 Si / 1000 Ang^3
#
#
#
# Elastic Constant Matrix: (Units=GPa)
#
#
# Indices 1 2 3 4 5 6 
#
# 1 137.4453 33.7392 55.1464 -0.0006 34.7515 0.0000
# 2 33.7392 81.5394 37.9645 -0.0047 31.3858 0.0025
# 3 55.1464 37.9645 114.1847 -0.0042 30.1379 0.0029
# 4 -0.0006 -0.0047 -0.0042 20.0194 0.0018 1.3842
# 5 34.7515 31.3858 30.1379 0.0018 48.0145 -0.0006
# 6 0.0000 0.0025 0.0029 1.3842 -0.0006 48.0840
#
#
#
# Elastic Compliance Matrix: (Units=1/GPa)
#
#
# Indices 1 2 3 4 5 6 
#
# 1 0.009974 -0.000803 -0.003336 0.000000 -0.004600 0.000000
# 2 -0.000803 0.017449 -0.003064 0.000004 -0.008901 -0.000001
# 3 -0.003336 -0.003064 0.012251 0.000002 -0.003273 -0.000001
# 4 0.000000 0.000004 0.000002 0.050051 -0.000006 -0.001441
# 5 -0.004600 -0.008901 -0.003273 -0.000006 0.032029 0.000001
# 6 0.000000 -0.000001 -0.000001 -0.001441 0.000001 0.020838
#
#
# Mechanical properties :
#
#
# Convention : Reuss Voigt Hill
#
# Bulk Modulus (GPa) = 39.57537 65.20773 52.39155
# Shear Modulus (GPa) = 30.22542 36.97822 33.60182
#
# Velocity S-wave (km/s) = 3.73315 4.12917 3.93614
# Velocity P-wave (km/s) = 6.06872 7.26633 6.69436
#
# Compressibility (1/GPa) = 0.02526824
#
# Stress axis : x y z
#
# Youngs Moduli (GPa) = 100.25693 57.30858 81.62308
#
# Poissons Ratio (x) = 0.04604 0.27229
# Poissons Ratio (y) = 0.08054 0.25011
# Poissons Ratio (z) = 0.33445 0.17561
#
# Static dielectric constant tensor:
#      x y z
#    x 1.886940 0.000000 -0.035310 
#    y 0.000000 1.757050 0.000000 
#    z -0.035310 0.000000 1.875610 
# 
# From -- ./inp_files/351206.got.cif
#   From: 2010.05.17/outbox.cif.g08.bks.cpg/sg12_176_cif.got.tgz:351206.got - 2010.06.03 13:09:07.
