data_PCOD9202668
_publ_section_title
;
Structure prediction by ZEFSAII (Michael W. Deem and Ramdas Pophale) SiO2 
 PCOD9202668
Probable space group: C 2/M
;
_chemical_formula_sum "Si O2"
_cell_formula_units_Z 42
_cell_length_a 16.343194
_cell_length_b 17.230005
_cell_length_c 9.300392
_cell_angle_alpha 90.000000
_cell_angle_beta 51.391534
_cell_angle_gamma 90.000000
_cell_volume 2046.504564
_symmetry_space_group_name_H-M "C 2/M"
_symmetry_group_IT_number 12
_symmetry_cell_setting 'monoclinic'
loop_
_space_group_symop_operation_xyz
x,y,z
-x,y,-z
-x,-y,-z
x,-y,z
1/2+x,1/2+y,z
1/2-x,1/2+y,-z
1/2-x,1/2-y,-z
1/2+x,1/2-y,z
loop_
_atom_site_type_symbol
_atom_site_label
_atom_site_fract_x
_atom_site_fract_y
_atom_site_fract_z
Si Si1 0.864248 0.253677 0.308767
Si Si2 0.896163 0.358126 0.703739
Si Si3 0.339541 0.366173 0.094487
Si Si4 0.000000 0.000000 0.000000
Si Si5 0.475338 0.915921 0.193713
Si Si6 0.545250 0.682983 0.303940
O O1 0.750000 0.250000 0.500000
O O2 0.862881 0.215436 0.151540
O O3 0.900302 0.342190 0.286627
O O4 0.945903 0.204733 0.314273
O O5 0.784585 0.380942 0.763643
O O6 0.900627 0.264444 0.710780
O O7 0.000000 0.380398 0.500000
O O8 0.920294 0.395041 0.831695
O O9 0.408880 0.432061 0.090939
O O10 0.376245 0.361498 0.887632
O O11 0.434498 0.000000 0.287756
O O12 0.500000 0.920978 0.000000
O O13 0.500000 0.645759 0.500000
#
# Coordination Sequence:
#
# PCOD9202668 Si02
#       6
#     8   8   8   2   8   8
#     4  11  21  40  66  92 130 179 225 269 332 409
#     4  10  22  40  68 100 127 172 228 282 336 398
#     4  12  23  45  68  95 140 184 231 279 331 417
#     4  12  28  44  68 100 136 194 226 266 350 410
#     4  10  22  40  62  94 131 163 213 275 337 388
#     4  10  20  38  63 100 127 169 233 277 341 397
#
# _framework density 20.522798999999999
#
# number of rings (size 3 to 8) (size 9 to 14) (size 15 to 20)
#    0.000    1.333    1.905    6.286    1.333    1.905 
#    5.143    0.476    0.000    0.000    0.000    0.000 
#    0.000    0.000    0.000    0.000    0.000    0.000 
#
# Total GULP energy -116983.955664 kJ/mol
# GULP energy per Si atom -5570.664555 kJ/mol
# Density = 2.047609 g / cm^3
# Si number density = 20.522799 Si / 1000 Ang^3
#
#
#
# Elastic Constant Matrix: (Units=GPa)
#
#
# Indices 1 2 3 4 5 6 
#
# 1 141.0489 37.8938 29.8143 0.0000 -32.3381 0.0000
# 2 37.8938 94.3924 13.6296 0.0000 -12.5058 0.0000
# 3 29.8143 13.6296 78.8740 0.0000 -7.7565 0.0000
# 4 0.0000 0.0000 0.0000 30.2767 0.0000 53.6642
# 5 -32.3381 -12.5058 -7.7565 0.0000 43.1551 0.0000
# 6 0.0000 0.0000 0.0000 53.6642 0.0000 107.3784
#
#
#
# Elastic Compliance Matrix: (Units=1/GPa)
#
#
# Indices 1 2 3 4 5 6 
#
# 1 0.009769 -0.002741 -0.002624 0.000000 0.006054 0.000000
# 2 -0.002741 0.011993 -0.000913 0.000000 0.001258 0.000000
# 3 -0.002624 -0.000913 0.013853 0.000000 0.000260 0.000000
# 4 0.000000 0.000000 0.000000 0.289262 0.000000 -0.144564
# 5 0.006054 0.001258 0.000260 0.000000 0.028120 0.000000
# 6 0.000000 0.000000 0.000000 -0.144564 0.000000 0.081561
#
#
# Mechanical properties :
#
#
# Convention : Reuss Voigt Hill
#
# Bulk Modulus (GPa) = 43.36353 52.99898 48.18126
# Shear Modulus (GPa) = 10.99387 51.69388 31.34388
#
# Velocity S-wave (km/s) = 2.31701 5.02426 3.91227
# Velocity P-wave (km/s) = 5.32291 7.71609 6.62840
#
# Compressibility (1/GPa) = 0.02306085
#
# Stress axis : x y z
#
# Youngs Moduli (GPa) = 102.36798 83.38392 72.18443
#
# Poissons Ratio (x) = 0.22853 0.18938
# Poissons Ratio (y) = 0.28056 0.06588
# Poissons Ratio (z) = 0.26857 0.07611
#
# Static dielectric constant tensor:
#      x y z
#    x 1.706610 0.000000 0.034010 
#    y 0.000000 1.738600 0.000000 
#    z 0.034010 0.000000 1.784810 
# 
# From -- ./inp_files/61628.got.cif
#   From: 2010.05.17/outbox.cif.g08.bks.cpg/sg12_31_cif.got.tgz:61628.got - 2010.06.03 13:09:07.
