data_PCOD9202113
_publ_section_title
;
Structure prediction by ZEFSAII (Michael W. Deem and Ramdas Pophale) SiO2 
 PCOD9202113
Probable space group: C 2/M
;
_chemical_formula_sum "Si O2"
_cell_formula_units_Z 58
_cell_length_a 26.081725
_cell_length_b 12.122214
_cell_length_c 9.534983
_cell_angle_alpha 90.000000
_cell_angle_beta 102.463520
_cell_angle_gamma 90.000000
_cell_volume 2943.614296
_symmetry_space_group_name_H-M "C 2/M"
_symmetry_group_IT_number 12
_symmetry_cell_setting 'monoclinic'
loop_
_space_group_symop_operation_xyz
x,y,z
-x,y,-z
-x,-y,-z
x,-y,z
1/2+x,1/2+y,z
1/2-x,1/2+y,-z
1/2-x,1/2-y,-z
1/2+x,1/2-y,z
loop_
_atom_site_type_symbol
_atom_site_label
_atom_site_fract_x
_atom_site_fract_y
_atom_site_fract_z
Si Si1 0.560448 0.294271 0.903564
Si Si2 0.194755 0.712877 0.315718
Si Si3 0.003700 0.373110 0.668115
Si Si4 0.306418 0.621709 0.446559
Si Si5 0.085097 0.624398 0.160968
Si Si6 0.500000 0.500000 0.000000
Si Si7 0.673588 0.684605 0.853005
Si Si8 0.253084 0.874991 0.132536
O O1 0.538851 0.218557 0.764857
O O2 0.526875 0.401846 0.918239
O O3 0.619772 0.329080 0.902167
O O4 0.563368 0.214329 0.040516
O O5 0.243449 0.637891 0.393176
O O6 0.175434 0.784128 0.436643
O O7 0.146394 0.647947 0.222335
O O8 0.219887 0.800160 0.221144
O O9 0.022830 0.500000 0.700678
O O10 0.000000 0.354394 0.500000
O O11 0.947519 0.366753 0.713891
O O12 0.318610 0.500000 0.507347
O O13 0.329144 0.638433 0.305064
O O14 0.077365 0.500000 0.102123
O O15 0.691798 0.812467 0.854055
O O16 0.721021 0.629342 0.968046
O O17 0.258473 0.000000 0.183997
#
# Coordination Sequence:
#
# PCOD9202113 Si02
#       8
#     8   8   8   8   8   2   8   8
#     4  12  24  45  66  95 127 171 217 266 327 389
#     4  10  21  37  59  91 122 164 215 254 308 386
#     4  10  23  44  69  96 127 157 208 277 337 392
#     4  10  21  38  56  84 127 168 202 252 310 378
#     4  11  22  41  68  94 122 165 217 273 326 386
#     4  12  28  44  68  92 136 176 226 274 320 398
#     4  10  23  37  59  90 123 160 212 257 311 379
#     4  10  20  38  58  90 127 165 206 260 312 383
#
# _framework density 19.703669000000001
#
# number of rings (size 3 to 8) (size 9 to 14) (size 15 to 20)
#    0.000    1.517    2.759    1.655    3.862    2.207 
#    1.241    1.034    0.000    0.000    0.000    0.000 
#    0.000    0.000    0.000    0.000    0.000    0.000 
#
# Total GULP energy -161734.765588 kJ/mol
# GULP energy per Si atom -5577.060882 kJ/mol
# Density = 1.965882 g / cm^3
# Si number density = 19.703669 Si / 1000 Ang^3
#
#
#
# Elastic Constant Matrix: (Units=GPa)
#
#
# Indices 1 2 3 4 5 6 
#
# 1 36.6128 17.0577 1.2698 0.0000 -3.6128 0.0000
# 2 17.0577 122.7554 30.5430 0.0000 -0.2305 0.0000
# 3 1.2698 30.5430 87.7741 0.0000 -13.4352 0.0000
# 4 0.0000 0.0000 0.0000 13.9158 0.0000 -4.7926
# 5 -3.6128 -0.2305 -13.4352 0.0000 26.2757 0.0000
# 6 0.0000 0.0000 0.0000 -4.7926 0.0000 10.2308
#
#
#
# Elastic Compliance Matrix: (Units=1/GPa)
#
#
# Indices 1 2 3 4 5 6 
#
# 1 0.029904 -0.004632 0.001955 0.000000 0.005071 0.000000
# 2 -0.004632 0.009701 -0.003681 0.000000 -0.002434 0.000000
# 3 0.001955 -0.003681 0.013759 0.000000 0.007272 0.000000
# 4 0.000000 0.000000 0.000000 0.085685 0.000000 0.040139
# 5 0.005071 -0.002434 0.007272 0.000000 0.042452 0.000000
# 6 0.000000 0.000000 0.000000 0.040139 0.000000 0.116547
#
#
# Mechanical properties :
#
#
# Convention : Reuss Voigt Hill
#
# Bulk Modulus (GPa) = 24.60198 38.32036 31.46117
# Shear Modulus (GPa) = 15.41721 23.30258 19.35990
#
# Velocity S-wave (km/s) = 2.80027 3.44270 3.13797
# Velocity P-wave (km/s) = 4.79254 5.94083 5.39731
#
# Compressibility (1/GPa) = 0.04064713
#
# Stress axis : x y z
#
# Youngs Moduli (GPa) = 33.44082 103.07816 72.68156
#
# Poissons Ratio (x) = 0.47749 -0.14213
# Poissons Ratio (y) = 0.15491 0.26757
# Poissons Ratio (z) = -0.06539 0.37947
#
# Static dielectric constant tensor:
#      x y z
#    x 1.694670 0.000000 -0.009400 
#    y 0.000000 1.689790 0.000000 
#    z -0.009400 0.000000 1.696960 
# 
# From -- ./inp_files/103246.got.cif
#   From: 2010.05.17/outbox.cif.g08.bks.cpg/sg12_52_cif.got.tgz:103246.got - 2010.06.03 13:09:07.
