data_PCOD9202116
_publ_section_title
;
Structure prediction by ZEFSAII (Michael W. Deem and Ramdas Pophale) SiO2 
 PCOD9202116
Probable space group: C 2/M
;
_chemical_formula_sum "Si O2"
_cell_formula_units_Z 48
_cell_length_a 9.140782
_cell_length_b 18.386098
_cell_length_c 15.248503
_cell_angle_alpha 90.000000
_cell_angle_beta 78.414023
_cell_angle_gamma 90.000000
_cell_volume 2510.497194
_symmetry_space_group_name_H-M "C 2/M"
_symmetry_group_IT_number 12
_symmetry_cell_setting 'monoclinic'
loop_
_space_group_symop_operation_xyz
x,y,z
-x,y,-z
-x,-y,-z
x,-y,z
1/2+x,1/2+y,z
1/2-x,1/2+y,-z
1/2-x,1/2-y,-z
1/2+x,1/2-y,z
loop_
_atom_site_type_symbol
_atom_site_label
_atom_site_fract_x
_atom_site_fract_y
_atom_site_fract_z
Si Si1 0.485590 0.837228 0.718743
Si Si2 0.622383 0.000000 0.063307
Si Si3 0.760102 0.753178 0.357559
Si Si4 0.500000 0.259986 0.000000
Si Si5 0.529204 0.000000 0.279688
Si Si6 0.835190 0.500000 0.558322
Si Si7 0.283156 0.843395 0.913182
Si Si8 0.842987 0.137226 0.485074
O O1 0.388394 0.794852 0.656832
O O2 0.629599 0.787651 0.723495
O O3 0.539242 0.919934 0.692080
O O4 0.362907 0.845530 0.809593
O O5 0.555912 0.000000 0.171252
O O6 0.713351 0.924718 0.047601
O O7 0.500000 0.000000 0.000000
O O8 0.856314 0.813090 0.397288
O O9 0.720751 0.690467 0.432386
O O10 0.606221 0.208261 0.044610
O O11 0.382406 0.310193 0.066662
O O12 0.663816 0.000000 0.335190
O O13 0.759360 0.571269 0.529660
O O14 0.000000 0.500000 0.500000
O O15 0.000000 0.109278 0.500000
#
# Coordination Sequence:
#
# PCOD9202116 Si02
#       8
#     8   4   8   4   4   4   8   8
#     4  11  21  39  59  87 117 156 199 255 296 357
#     4  10  20  39  62  88 122 162 195 248 305 361
#     4  11  22  36  60  82 119 154 205 246 303 345
#     4  10  20  38  58  92 120 150 196 242 300 376
#     4  10  22  37  60  89 115 156 205 243 295 366
#     4  12  23  39  64  85 120 163 204 252 302 359
#     4  10  21  36  63  87 120 154 198 242 307 360
#     4  11  23  38  56  85 117 163 200 247 300 356
#
# _framework density 19.119719
#
# number of rings (size 3 to 8) (size 9 to 14) (size 15 to 20)
#    0.000    1.333    4.167    2.250    0.000    0.333 
#    0.000    0.000    0.000    0.000    8.667    0.000 
#    0.000    0.000    0.000    0.000    0.000    0.000 
#
# Total GULP energy -133691.078049 kJ/mol
# GULP energy per Si atom -5570.461585 kJ/mol
# Density = 1.907620 g / cm^3
# Si number density = 19.119719 Si / 1000 Ang^3
#
#
#
# Elastic Constant Matrix: (Units=GPa)
#
#
# Indices 1 2 3 4 5 6 
#
# 1 83.8778 50.2771 9.7177 0.0000 2.4984 0.0000
# 2 50.2771 160.1646 29.4050 0.0000 0.3968 0.0000
# 3 9.7177 29.4050 52.8629 0.0000 6.9795 0.0000
# 4 0.0000 0.0000 0.0000 22.2786 0.0000 23.1341
# 5 2.4984 0.3968 6.9795 0.0000 26.9336 0.0000
# 6 0.0000 0.0000 0.0000 23.1341 0.0000 -26.9815
#
#
#
# Elastic Compliance Matrix: (Units=1/GPa)
#
#
# Indices 1 2 3 4 5 6 
#
# 1 0.014731 -0.004628 0.000039 0.000000 -0.001308 0.000000
# 2 -0.004628 0.008430 -0.004016 0.000000 0.001346 0.000000
# 3 0.000039 -0.004016 0.021885 0.000000 -0.005616 0.000000
# 4 0.000000 0.000000 0.000000 0.023745 0.000000 0.020359
# 5 -0.001308 0.001346 -0.005616 0.000000 0.038685 0.000000
# 6 0.000000 0.000000 0.000000 0.020359 0.000000 -0.019606
#
#
# Mechanical properties :
#
#
# Convention : Reuss Voigt Hill
#
# Bulk Modulus (GPa) = 35.92493 52.85610 44.39051
# Shear Modulus (GPa) = 43.72195 18.27985 31.00090
#
# Velocity S-wave (km/s) = 4.78718 3.09540 4.03104
# Velocity P-wave (km/s) = 7.02755 6.36240 6.70323
#
# Compressibility (1/GPa) = 0.02783582
#
# Stress axis : x y z
#
# Youngs Moduli (GPa) = 67.88581 118.61853 45.69301
#
# Poissons Ratio (x) = 0.54897 -0.00179
# Poissons Ratio (y) = 0.31418 0.18352
# Poissons Ratio (z) = -0.00266 0.47641
#
# Static dielectric constant tensor:
#      x y z
#    x 1.645650 0.000000 -0.010260 
#    y 0.000000 1.683000 0.000000 
#    z -0.010260 0.000000 1.717630 
# 
# From -- ./inp_files/196056.got.cif
#   From: 2010.05.17/outbox.cif.g08.bks.cpg/sg12_99_cif.got.tgz:196056.got - 2010.06.03 13:09:07.
