data_PCOD9202454
_publ_section_title
;
Structure prediction by ZEFSAII (Michael W. Deem and Ramdas Pophale) SiO2 
 PCOD9202454
Probable space group: C 2/M
;
_chemical_formula_sum "Si O2"
_cell_formula_units_Z 50
_cell_length_a 13.078072
_cell_length_b 12.807647
_cell_length_c 12.791616
_cell_angle_alpha 90.000000
_cell_angle_beta 88.327692
_cell_angle_gamma 90.000000
_cell_volume 2141.674537
_symmetry_space_group_name_H-M "C 2/M"
_symmetry_group_IT_number 12
_symmetry_cell_setting 'monoclinic'
loop_
_space_group_symop_operation_xyz
x,y,z
-x,y,-z
-x,-y,-z
x,-y,z
1/2+x,1/2+y,z
1/2-x,1/2+y,-z
1/2-x,1/2-y,-z
1/2+x,1/2-y,z
loop_
_atom_site_type_symbol
_atom_site_label
_atom_site_fract_x
_atom_site_fract_y
_atom_site_fract_z
Si Si1 0.395961 0.237636 0.384986
Si Si2 0.126140 0.190796 0.935530
Si Si3 0.670669 0.760477 0.165736
Si Si4 0.402716 0.619973 0.645096
Si Si5 0.465962 0.121015 0.181003
Si Si6 0.736842 0.116894 0.460910
Si Si7 0.500000 0.500000 0.000000
O O1 0.495564 0.312277 0.382870
O O2 0.412386 0.157294 0.290158
O O3 0.364507 0.170312 0.488531
O O4 0.296072 0.311727 0.376451
O O5 0.222739 0.183104 0.857413
O O6 0.076887 0.301231 0.905521
O O7 0.156433 0.198592 0.056119
O O8 0.052620 0.092837 0.926703
O O9 0.652874 0.674826 0.255809
O O10 0.584241 0.847393 0.185911
O O11 0.432000 0.500000 0.666489
O O12 0.321343 0.615301 0.552386
O O13 0.449423 0.000000 0.160043
O O14 0.716495 0.000000 0.426562
#
# Coordination Sequence:
#
# PCOD9202454 Si02
#       7
#     8   8   8   8   8   8   2
#     4  10  21  35  61  90 123 153 207 260 307 358
#     4  11  24  42  62  92 125 165 202 255 304 369
#     4  10  23  40  61  93 121 159 208 249 309 361
#     4  10  21  38  65  91 123 164 211 256 302 368
#     4  11  23  43  63  90 121 163 211 255 305 368
#     4  10  20  38  61  90 120 163 208 256 308 368
#     4  12  24  44  62  88 134 162 198 254 320 364
#
# _framework density 23.346218
#
# number of rings (size 3 to 8) (size 9 to 14) (size 15 to 20)
#    0.000    1.600    1.600    2.400    2.240    4.480 
#    4.320    0.000    0.000   36.480    0.000    0.000 
#    0.000    0.000    0.000    0.000    0.000    0.000 
#
# Total GULP energy -139553.497806 kJ/mol
# GULP energy per Si atom -5582.139912 kJ/mol
# Density = 2.329308 g / cm^3
# Si number density = 23.346218 Si / 1000 Ang^3
#
#
#
# Elastic Constant Matrix: (Units=GPa)
#
#
# Indices 1 2 3 4 5 6 
#
# 1 94.8476 46.2834 39.9475 0.0000 -43.6891 0.0000
# 2 46.2834 174.8266 36.7163 0.0000 -13.4695 0.0000
# 3 39.9475 36.7163 113.7809 0.0000 -29.2894 0.0000
# 4 0.0000 0.0000 0.0000 31.2386 0.0000 -4.0243
# 5 -43.6891 -13.4695 -29.2894 0.0000 46.6931 0.0000
# 6 0.0000 0.0000 0.0000 -4.0243 0.0000 9.8001
#
#
#
# Elastic Compliance Matrix: (Units=1/GPa)
#
#
# Indices 1 2 3 4 5 6 
#
# 1 0.021369 -0.003939 -0.001642 0.000000 0.017828 0.000000
# 2 -0.003939 0.006877 -0.001520 0.000000 -0.002655 0.000000
# 3 -0.001642 -0.001520 0.011147 0.000000 0.005018 0.000000
# 4 0.000000 0.000000 0.000000 0.033800 0.000000 0.013880
# 5 0.017828 -0.002655 0.005018 0.000000 0.040479 0.000000
# 6 0.000000 0.000000 0.000000 0.013880 0.000000 0.107739
#
#
# Mechanical properties :
#
#
# Convention : Reuss Voigt Hill
#
# Bulk Modulus (GPa) = 39.69509 69.92773 54.81141
# Shear Modulus (GPa) = 20.49096 34.91356 27.70226
#
# Velocity S-wave (km/s) = 2.96581 3.87133 3.44842
# Velocity P-wave (km/s) = 5.36356 7.07110 6.27567
#
# Compressibility (1/GPa) = 0.02519203
#
# Stress axis : x y z
#
# Youngs Moduli (GPa) = 46.79737 145.40526 89.70686
#
# Poissons Ratio (x) = 0.57271 0.14732
# Poissons Ratio (y) = 0.18432 0.13634
# Poissons Ratio (z) = 0.07685 0.22099
#
# Static dielectric constant tensor:
#      x y z
#    x 1.965600 0.000000 0.055110 
#    y 0.000000 1.839370 0.000000 
#    z 0.055110 0.000000 1.915500 
# 
# From -- ./inp_files/213321.got.cif
#   From: 2010.05.17/outbox.cif.g08.bks.cpg/sg12_107_cif.got.tgz:213321.got - 2010.06.03 13:09:07.
