data_PCOD9202326
_publ_section_title
;
Structure prediction by ZEFSAII (Michael W. Deem and Ramdas Pophale) SiO2 
 PCOD9202326
Probable space group: C 2/M
;
_chemical_formula_sum "Si O2"
_cell_formula_units_Z 58
_cell_length_a 25.783212
_cell_length_b 20.283999
_cell_length_c 9.211250
_cell_angle_alpha 90.000000
_cell_angle_beta 37.130468
_cell_angle_gamma 90.000000
_cell_volume 2907.913253
_symmetry_space_group_name_H-M "C 2/M"
_symmetry_group_IT_number 12
_symmetry_cell_setting 'monoclinic'
loop_
_space_group_symop_operation_xyz
x,y,z
-x,y,-z
-x,-y,-z
x,-y,z
1/2+x,1/2+y,z
1/2-x,1/2+y,-z
1/2-x,1/2-y,-z
1/2+x,1/2-y,z
loop_
_atom_site_type_symbol
_atom_site_label
_atom_site_fract_x
_atom_site_fract_y
_atom_site_fract_z
Si Si1 0.119294 0.619372 0.838059
Si Si2 0.638807 0.783197 0.531766
Si Si3 0.000000 0.500000 0.000000
Si Si4 0.248543 0.328854 0.037621
Si Si5 0.423598 0.336707 0.786563
Si Si6 0.472699 0.798145 0.726202
Si Si7 0.717923 0.640045 0.349174
Si Si8 0.529397 0.575990 0.767975
O O1 0.119224 0.679420 0.723466
O O2 0.217076 0.611863 0.676234
O O3 0.072853 0.557599 0.870941
O O4 0.063003 0.641559 0.102854
O O5 0.552145 0.766718 0.637681
O O6 0.693070 0.716729 0.434866
O O7 0.684743 0.832793 0.315485
O O8 0.338401 0.357442 0.894071
O O9 0.233733 0.361546 0.914778
O O10 0.250000 0.250000 0.000000
O O11 0.500000 0.331249 0.500000
O O12 0.404811 0.261593 0.876920
O O13 0.460799 0.382374 0.828361
O O14 0.500000 0.814074 0.500000
O O15 0.626274 0.603842 0.541479
O O16 0.528506 0.500000 0.721540
O O17 0.500000 0.579476 0.000000
#
# Coordination Sequence:
#
# PCOD9202326 Si02
#       8
#     8   8   2   8   8   8   8   8
#     4  12  26  43  68  94 131 175 221 273 321 392
#     4  11  21  38  65 103 126 158 216 277 331 384
#     4  12  28  52  62  92 134 190 222 260 324 392
#     4  10  20  38  61 100 134 158 206 270 336 387
#     4  11  20  39  65  94 131 168 204 271 331 386
#     4  11  20  38  66  98 128 163 210 274 336 385
#     4  11  22  42  67  96 128 169 219 277 330 385
#     4  11  26  42  60  92 132 177 222 261 319 394
#
# _framework density 19.945575000000002
#
# number of rings (size 3 to 8) (size 9 to 14) (size 15 to 20)
#    0.000    0.966    4.138    5.379    4.828    0.276 
#    0.000    0.345    1.517    0.000    0.000    0.000 
#    0.000    0.000    0.000    0.000    0.000    0.000 
#
# Total GULP energy -161633.804495 kJ/mol
# GULP energy per Si atom -5573.579465 kJ/mol
# Density = 1.990018 g / cm^3
# Si number density = 19.945575 Si / 1000 Ang^3
#
#
#
# Elastic Constant Matrix: (Units=GPa)
#
#
# Indices 1 2 3 4 5 6 
#
# 1 131.8081 27.8699 20.4794 0.0000 -17.7355 0.0000
# 2 27.8699 76.8806 23.0542 0.0000 0.3389 0.0000
# 3 20.4794 23.0542 60.4844 0.0000 7.1643 0.0000
# 4 0.0000 0.0000 0.0000 12.6568 0.0000 -4.1279
# 5 -17.7355 0.3389 7.1643 0.0000 35.3568 0.0000
# 6 0.0000 0.0000 0.0000 -4.1279 0.0000 17.7586
#
#
#
# Elastic Compliance Matrix: (Units=1/GPa)
#
#
# Indices 1 2 3 4 5 6 
#
# 1 0.009262 -0.002545 -0.002786 0.000000 0.005235 0.000000
# 2 -0.002545 0.015421 -0.004967 0.000000 -0.000418 0.000000
# 3 -0.002786 -0.004967 0.020010 0.000000 -0.005404 0.000000
# 4 0.000000 0.000000 0.000000 0.085490 0.000000 0.019872
# 5 0.005235 -0.000418 -0.005404 0.000000 0.032008 0.000000
# 6 0.000000 0.000000 0.000000 0.019872 0.000000 0.060930
#
#
# Mechanical properties :
#
#
# Convention : Reuss Voigt Hill
#
# Bulk Modulus (GPa) = 41.49843 45.77558 43.63700
# Shear Modulus (GPa) = 19.86105 26.33907 23.10006
#
# Velocity S-wave (km/s) = 3.15899 3.63788 3.40686
# Velocity P-wave (km/s) = 5.84437 6.37539 6.11565
#
# Compressibility (1/GPa) = 0.02409730
#
# Stress axis : x y z
#
# Youngs Moduli (GPa) = 107.96521 64.84644 49.97571
#
# Poissons Ratio (x) = 0.16505 0.13923
# Poissons Ratio (y) = 0.27480 0.24821
# Poissons Ratio (z) = 0.30079 0.32206
#
# Static dielectric constant tensor:
#      x y z
#    x 1.743990 0.000000 -0.011420 
#    y 0.000000 1.678680 0.000000 
#    z -0.011420 0.000000 1.742730 
# 
# From -- ./inp_files/99239.got.cif
#   From: 2010.05.17/outbox.cif.g08.bks.cpg/sg12_50_cif.got.tgz:99239.got - 2010.06.03 13:09:07.
