data_PCOD9202335
_publ_section_title
;
Structure prediction by ZEFSAII (Michael W. Deem and Ramdas Pophale) SiO2 
 PCOD9202335
Probable space group: C 2/M
;
_chemical_formula_sum "Si O2"
_cell_formula_units_Z 52
_cell_length_a 17.563447
_cell_length_b 34.055454
_cell_length_c 9.087157
_cell_angle_alpha 90.000000
_cell_angle_beta 147.504014
_cell_angle_gamma 90.000000
_cell_volume 2920.069728
_symmetry_space_group_name_H-M "C 2/M"
_symmetry_group_IT_number 12
_symmetry_cell_setting 'monoclinic'
loop_
_space_group_symop_operation_xyz
x,y,z
-x,y,-z
-x,-y,-z
x,-y,z
1/2+x,1/2+y,z
1/2-x,1/2+y,-z
1/2-x,1/2-y,-z
1/2+x,1/2-y,z
loop_
_atom_site_type_symbol
_atom_site_label
_atom_site_fract_x
_atom_site_fract_y
_atom_site_fract_z
Si Si1 0.220590 0.500000 0.392904
Si Si2 0.500000 0.932332 0.500000
Si Si3 0.583137 0.285793 0.356755
Si Si4 0.274735 0.126078 0.272609
Si Si5 0.728746 0.711332 0.276551
Si Si6 0.544309 0.000000 0.814053
Si Si7 0.471558 0.631852 0.618205
Si Si8 0.351729 0.417153 0.670089
O O1 0.308162 0.461241 0.569448
O O2 0.092370 0.500000 0.301942
O O3 0.168617 0.500000 0.138468
O O4 0.625097 0.902686 0.656221
O O5 0.540597 0.961792 0.700944
O O6 0.665746 0.296080 0.338719
O O7 0.664168 0.247752 0.547906
O O8 0.585303 0.323660 0.464765
O O9 0.416475 0.279225 0.049036
O O10 0.308073 0.172077 0.350859
O O11 0.256913 0.105656 0.402128
O O12 0.120988 0.129015 0.946130
O O13 0.500000 0.619175 0.500000
O O14 0.367387 0.604848 0.541477
O O15 0.500000 0.416011 0.000000
#
# Coordination Sequence:
#
# PCOD9202335 Si02
#       8
#     4   4   8   8   8   4   8   8
#     4  11  21  40  60  88 113 146 190 241 287 354
#     4  11  22  42  58  84 116 158 190 234 280 355
#     4   9  17  34  58  81 117 146 198 234 293 333
#     4  10  20  38  61  81 116 155 196 226 286 348
#     4   9  17  34  58  85 108 156 192 240 277 349
#     4  10  24  38  61  81 118 156 183 230 300 343
#     4  10  21  37  58  86 115 152 187 247 288 331
#     4  10  20  38  63  85 111 150 194 232 288 351
#
# _framework density 17.807793
#
# number of rings (size 3 to 8) (size 9 to 14) (size 15 to 20)
#    0.000    2.154    3.077    0.231    2.154    0.000 
#    4.154    1.923    3.385    0.000    0.000    0.000 
#    0.000    0.000    0.000    0.000    0.000    0.000 
#
# Total GULP energy -144878.411336 kJ/mol
# GULP energy per Si atom -5572.246590 kJ/mol
# Density = 1.776726 g / cm^3
# Si number density = 17.807793 Si / 1000 Ang^3
#
#
#
# Elastic Constant Matrix: (Units=GPa)
#
#
# Indices 1 2 3 4 5 6 
#
# 1 93.7573 55.4670 22.3587 0.0000 -7.1297 0.0000
# 2 55.4670 145.8024 36.2977 0.0000 7.0076 0.0000
# 3 22.3587 36.2977 26.8990 0.0000 -2.4318 0.0000
# 4 0.0000 0.0000 0.0000 19.8289 0.0000 2.6365
# 5 -7.1297 7.0076 -2.4318 0.0000 25.5346 0.0000
# 6 0.0000 0.0000 0.0000 2.6365 0.0000 110.0794
#
#
#
# Elastic Compliance Matrix: (Units=1/GPa)
#
#
# Indices 1 2 3 4 5 6 
#
# 1 0.015139 -0.004473 -0.006107 0.000000 0.004873 0.000000
# 2 -0.004473 0.012116 -0.013158 0.000000 -0.005827 0.000000
# 3 -0.006107 -0.013158 0.060703 0.000000 0.007687 0.000000
# 4 0.000000 0.000000 0.000000 0.050593 0.000000 -0.001212
# 5 0.004873 -0.005827 0.007687 0.000000 0.042854 0.000000
# 6 0.000000 0.000000 0.000000 -0.001212 0.000000 0.009113
#
#
# Mechanical properties :
#
#
# Convention : Reuss Voigt Hill
#
# Bulk Modulus (GPa) = 24.70267 54.96728 39.83497
# Shear Modulus (GPa) = 19.88149 41.24426 30.56287
#
# Velocity S-wave (km/s) = 3.34496 4.81779 4.14728
# Velocity P-wave (km/s) = 5.36845 7.86652 6.73433
#
# Compressibility (1/GPa) = 0.04048146
#
# Stress axis : x y z
#
# Youngs Moduli (GPa) = 66.05407 82.53444 16.47353
#
# Poissons Ratio (x) = 0.36919 0.10061
# Poissons Ratio (y) = 0.29547 0.21676
# Poissons Ratio (z) = 0.40340 1.08602
#
# Static dielectric constant tensor:
#      x y z
#    x 1.612710 0.000000 -0.007580 
#    y 0.000000 1.592300 0.000000 
#    z -0.007580 0.000000 1.599220 
# 
# From -- ./inp_files/68712.got.cif
#   From: 2010.05.17/outbox.cif.g08.bks.cpg/sg12_35_cif.got.tgz:68712.got - 2010.06.03 13:09:07.
