data_PCOD9202151
_publ_section_title
;
Structure prediction by ZEFSAII (Michael W. Deem and Ramdas Pophale) SiO2 
 PCOD9202151
Probable space group: C 2/M
;
_chemical_formula_sum "Si O2"
_cell_formula_units_Z 58
_cell_length_a 30.877472
_cell_length_b 7.499273
_cell_length_c 23.611602
_cell_angle_alpha 90.000000
_cell_angle_beta 150.942862
_cell_angle_gamma 90.000000
_cell_volume 2655.449192
_symmetry_space_group_name_H-M "C 2/M"
_symmetry_group_IT_number 12
_symmetry_cell_setting 'monoclinic'
loop_
_space_group_symop_operation_xyz
x,y,z
-x,y,-z
-x,-y,-z
x,-y,z
1/2+x,1/2+y,z
1/2-x,1/2+y,-z
1/2-x,1/2-y,-z
1/2+x,1/2-y,z
loop_
_atom_site_type_symbol
_atom_site_label
_atom_site_fract_x
_atom_site_fract_y
_atom_site_fract_z
Si Si1 0.376060 0.290148 0.896317
Si Si2 0.218034 0.200959 0.796166
Si Si3 0.352569 0.286435 0.629486
Si Si4 0.436066 0.718398 0.842959
Si Si5 0.498486 0.716838 0.284132
Si Si6 0.000000 0.500000 0.500000
Si Si7 0.977156 0.216319 0.391220
Si Si8 0.314396 0.287570 0.020747
O O1 0.391584 0.500000 0.909388
O O2 0.282309 0.268642 0.820385
O O3 0.385654 0.222738 0.842913
O O4 0.460612 0.224222 0.030182
O O5 0.122803 0.282010 0.704820
O O6 0.195941 0.000000 0.755196
O O7 0.275510 0.205872 0.919413
O O8 0.363042 0.500000 0.642923
O O9 0.250000 0.250000 0.500000
O O10 0.390016 0.219176 0.732568
O O11 0.414065 0.220587 0.648332
O O12 0.434783 0.500000 0.839223
O O13 0.496248 0.500000 0.280735
O O14 0.490780 0.762251 0.341126
O O15 0.411789 0.776281 0.150205
O O16 0.036519 0.340215 0.498495
O O17 0.986657 0.000000 0.408693
O O18 0.317986 0.500000 0.015205
O O19 0.250000 0.250000 0.000000
#
# Coordination Sequence:
#
# PCOD9202151 Si02
#       8
#     8   8   8   8   8   2   8   8
#     4   9  17  33  60  86 113 149 196 248 306 374
#     4  11  22  36  54  87 128 161 192 246 310 365
#     4  10  20  38  59  83 114 154 201 252 309 365
#     4   8  16  34  58  85 113 148 194 253 312 365
#     4   9  19  39  63  85 121 167 197 244 319 378
#     4  12  26  44  68  90 112 174 222 250 308 356
#     4  10  23  44  63  89 128 161 209 264 307 369
#     4  11  20  33  59  91 123 157 195 237 299 375
#
# _framework density 21.84188
#
# number of rings (size 3 to 8) (size 9 to 14) (size 15 to 20)
#    0.000    2.207    1.379    2.690    1.931    2.207 
#    4.966    4.138    0.000    0.000    0.000    0.000 
#    0.000    0.000    0.000    0.000    0.000    0.000 
#
# Total GULP energy -161613.261161 kJ/mol
# GULP energy per Si atom -5572.871075 kJ/mol
# Density = 2.179217 g / cm^3
# Si number density = 21.841880 Si / 1000 Ang^3
#
#
#
# Elastic Constant Matrix: (Units=GPa)
#
#
# Indices 1 2 3 4 5 6 
#
# 1 174.8319 7.9925 86.8527 0.0000 9.8910 0.0000
# 2 7.9925 71.6198 3.9194 -0.0001 -5.2720 0.0000
# 3 86.8527 3.9194 98.0577 0.0000 0.0211 0.0000
# 4 0.0000 -0.0001 0.0000 -3.1695 0.0000 13.0598
# 5 9.8910 -5.2720 0.0211 0.0000 40.0690 0.0000
# 6 0.0000 0.0000 0.0000 13.0598 0.0000 11.8699
#
#
#
# Elastic Compliance Matrix: (Units=1/GPa)
#
#
# Indices 1 2 3 4 5 6 
#
# 1 0.010527 -0.000866 -0.009289 0.000000 -0.002708 0.000000
# 2 -0.000866 0.014202 0.000199 0.000000 0.002082 0.000000
# 3 -0.009289 0.000199 0.018417 0.000000 0.002309 0.000000
# 4 0.000000 0.000000 0.000000 -0.057017 0.000000 0.062733
# 5 -0.002708 0.002082 0.002309 0.000000 0.025898 0.000000
# 6 0.000000 0.000000 0.000000 0.062733 0.000000 0.015225
#
#
# Mechanical properties :
#
#
# Convention : Reuss Voigt Hill
#
# Bulk Modulus (GPa) = 43.04057 60.22651 51.63354
# Shear Modulus (GPa) = 91.06125 26.13687 58.59906
#
# Velocity S-wave (km/s) = 6.46387 3.46300 5.18527
# Velocity P-wave (km/s) = 8.68661 6.60481 7.71624
#
# Compressibility (1/GPa) = 0.02323389
#
# Stress axis : x y z
#
# Youngs Moduli (GPa) = 94.99272 70.41446 54.29705
#
# Poissons Ratio (x) = 0.06096 0.50437
# Poissons Ratio (y) = 0.08224 -0.01079
# Poissons Ratio (z) = 0.88239 -0.01399
#
# Static dielectric constant tensor:
#      x y z
#    x 1.789840 0.000000 0.013860 
#    y 0.000000 1.913880 0.000000 
#    z 0.013860 0.000000 1.862220 
# 
# From -- ./inp_files/353075.got.cif
#   From: 2010.05.17/outbox.cif.g08.bks.cpg/sg12_177_cif.got.tgz:353075.got - 2010.06.03 13:09:07.
