data_PCOD9202166
_publ_section_title
;
Structure prediction by ZEFSAII (Michael W. Deem and Ramdas Pophale) SiO2 
 PCOD9202166
Probable space group: C 2/M
;
_chemical_formula_sum "Si O2"
_cell_formula_units_Z 56
_cell_length_a 8.956872
_cell_length_b 26.106208
_cell_length_c 19.113376
_cell_angle_alpha 90.000000
_cell_angle_beta 139.130319
_cell_angle_gamma 90.000000
_cell_volume 2924.432034
_symmetry_space_group_name_H-M "C 2/M"
_symmetry_group_IT_number 12
_symmetry_cell_setting 'monoclinic'
loop_
_space_group_symop_operation_xyz
x,y,z
-x,y,-z
-x,-y,-z
x,-y,z
1/2+x,1/2+y,z
1/2-x,1/2+y,-z
1/2-x,1/2-y,-z
1/2+x,1/2-y,z
loop_
_atom_site_type_symbol
_atom_site_label
_atom_site_fract_x
_atom_site_fract_y
_atom_site_fract_z
Si Si1 0.012582 0.221340 0.394983
Si Si2 0.824654 0.438502 0.000702
Si Si3 0.934352 0.698779 0.683041
Si Si4 0.000100 0.399562 0.209439
Si Si5 0.019198 0.380840 0.429311
Si Si6 0.314390 0.439898 0.777699
Si Si7 0.512893 0.395583 0.420289
O O1 0.810322 0.221232 0.380081
O O2 0.250000 0.250000 0.500000
O O3 0.930644 0.252166 0.297303
O O4 0.040176 0.160703 0.395019
O O5 0.823263 0.500000 0.013279
O O6 0.569400 0.423270 0.887943
O O7 0.000000 0.428480 0.000000
O O8 0.903176 0.411130 0.099214
O O9 0.008800 0.660580 0.771355
O O10 0.937835 0.660133 0.617534
O O11 0.267660 0.415899 0.309460
O O12 0.851788 0.428790 0.215362
O O13 0.792111 0.409798 0.325215
O O14 0.000000 0.358510 0.500000
O O15 0.238877 0.418996 0.506516
O O16 0.319435 0.500000 0.764793
O O17 0.500000 0.390501 0.500000
#
# Coordination Sequence:
#
# PCOD9202166 Si02
#       7
#     8   8   8   8   8   8   8
#     4  11  17  30  51  75 115 151 187 237 276 325
#     4  10  22  40  64  92 114 144 201 255 293 341
#     4  10  22  33  50  86 117 152 198 237 284 341
#     4  10  20  38  59  85 120 153 194 247 292 347
#     4  11  23  36  54  86 127 159 193 235 292 359
#     4  10  21  40  62  86 115 155 201 242 288 349
#     4  11  19  36  53  84 125 152 195 236 283 356
#
# _framework density 19.149018000000002
#
# number of rings (size 3 to 8) (size 9 to 14) (size 15 to 20)
#    0.000    1.571    5.714    1.286    4.000    2.000 
#    0.000    2.143    0.000    0.000    0.000   69.000 
#    0.000    0.000    0.000    0.000    0.000    0.000 
#
# Total GULP energy -155914.167315 kJ/mol
# GULP energy per Si atom -5568.363118 kJ/mol
# Density = 1.910543 g / cm^3
# Si number density = 19.149018 Si / 1000 Ang^3
#
#
#
# Elastic Constant Matrix: (Units=GPa)
#
#
# Indices 1 2 3 4 5 6 
#
# 1 102.6608 19.8486 55.9302 0.0000 1.6902 0.0000
# 2 19.8486 36.4272 42.2251 0.0000 -4.3838 0.0000
# 3 55.9302 42.2251 136.9143 0.0000 6.4241 0.0000
# 4 0.0000 0.0000 0.0000 29.9618 0.0000 -0.4581
# 5 1.6902 -4.3838 6.4241 0.0000 38.4674 0.0000
# 6 0.0000 0.0000 0.0000 -0.4581 0.0000 15.5127
#
#
#
# Elastic Compliance Matrix: (Units=1/GPa)
#
#
# Indices 1 2 3 4 5 6 
#
# 1 0.012575 -0.001375 -0.004716 0.000000 0.000078 0.000000
# 2 -0.001375 0.044907 -0.013637 0.000000 0.007456 0.000000
# 3 -0.004716 -0.013637 0.013606 0.000000 -0.003619 0.000000
# 4 0.000000 0.000000 0.000000 0.033391 0.000000 0.000986
# 5 0.000078 0.007456 -0.003619 0.000000 0.027447 0.000000
# 6 0.000000 0.000000 0.000000 0.000986 0.000000 0.064492
#
#
# Mechanical properties :
#
#
# Convention : Reuss Voigt Hill
#
# Bulk Modulus (GPa) = 31.61617 56.89000 44.25309
# Shear Modulus (GPa) = 20.29062 27.32162 23.80612
#
# Velocity S-wave (km/s) = 3.25871 3.78138 3.52973
# Velocity P-wave (km/s) = 5.54124 6.98847 6.30651
#
# Compressibility (1/GPa) = 0.03162939
#
# Stress axis : x y z
#
# Youngs Moduli (GPa) = 79.52288 22.26844 73.49594
#
# Poissons Ratio (x) = 0.03063 0.34664
# Poissons Ratio (y) = 0.10937 1.00229
# Poissons Ratio (z) = 0.37507 0.30368
#
# Static dielectric constant tensor:
#      x y z
#    x 1.713940 0.000000 0.026410 
#    y 0.000000 1.708250 0.000000 
#    z 0.026410 0.000000 1.701260 
# 
# From -- ./inp_files/259854.got.cif
#   From: 2010.05.17/outbox.cif.g08.bks.cpg/sg12_130_cif.got.tgz:259854.got - 2010.06.03 13:09:07.
