data_PCOD9202107
_publ_section_title
;
Structure prediction by ZEFSAII (Michael W. Deem and Ramdas Pophale) SiO2 
 PCOD9202107
Probable space group: C 2/M
;
_chemical_formula_sum "Si O2"
_cell_formula_units_Z 56
_cell_length_a 17.801138
_cell_length_b 29.391084
_cell_length_c 9.703622
_cell_angle_alpha 90.000000
_cell_angle_beta 141.235240
_cell_angle_gamma 90.000000
_cell_volume 3178.760742
_symmetry_space_group_name_H-M "C 2/M"
_symmetry_group_IT_number 12
_symmetry_cell_setting 'monoclinic'
loop_
_space_group_symop_operation_xyz
x,y,z
-x,y,-z
-x,-y,-z
x,-y,z
1/2+x,1/2+y,z
1/2-x,1/2+y,-z
1/2-x,1/2-y,-z
1/2+x,1/2-y,z
loop_
_atom_site_type_symbol
_atom_site_label
_atom_site_fract_x
_atom_site_fract_y
_atom_site_fract_z
Si Si1 0.156554 0.500000 0.890668
Si Si2 0.308737 0.290219 0.995206
Si Si3 0.634891 0.000000 0.546240
Si Si4 0.275608 0.185120 0.419867
Si Si5 0.118717 0.587824 0.347920
Si Si6 0.416879 0.723167 0.658173
Si Si7 0.840376 0.583244 0.909248
Si Si8 0.632546 0.346305 0.661681
O O1 0.190327 0.500000 0.778450
O O2 0.194377 0.543365 0.034957
O O3 0.011110 0.500000 0.670459
O O4 0.440203 0.275601 0.130737
O O5 0.326063 0.329449 0.130619
O O6 0.250000 0.250000 0.000000
O O7 0.236763 0.308074 0.761238
O O8 0.662967 0.047307 0.509986
O O9 0.319370 0.135577 0.527568
O O10 0.365371 0.225817 0.591417
O O11 0.150100 0.195831 0.316803
O O12 0.974902 0.596963 0.150160
O O13 0.143408 0.570602 0.227837
O O14 0.383586 0.696141 0.468233
O O15 0.737012 0.620945 0.760080
O O16 0.500000 0.366565 0.500000
#
# Coordination Sequence:
#
# PCOD9202107 Si02
#       8
#     4   8   4   8   8   8   8   8
#     4   9  19  35  60  84 120 143 179 236 298 341
#     4  11  23  37  55  80 113 156 190 241 283 327
#     4   9  19  37  53  90 119 146 174 237 296 339
#     4  11  22  37  58  85 111 153 193 235 285 340
#     4  10  21  35  61  85 117 145 189 234 285 350
#     4  10  22  40  55  79 118 152 196 233 278 338
#     4  10  20  38  58  88 109 151 187 231 287 347
#     4  10  21  39  56  78 115 152 190 234 277 335
#
# _framework density 17.616928000000001
#
# number of rings (size 3 to 8) (size 9 to 14) (size 15 to 20)
#    0.000    1.857    2.857    0.857    4.000    1.714 
#    2.571    0.357    0.000    0.000    0.000    3.000 
#    0.000    0.000    0.000    0.000    0.000    0.000 
#
# Total GULP energy -156021.785061 kJ/mol
# GULP energy per Si atom -5572.206609 kJ/mol
# Density = 1.757683 g / cm^3
# Si number density = 17.616928 Si / 1000 Ang^3
#
#
#
# Elastic Constant Matrix: (Units=GPa)
#
#
# Indices 1 2 3 4 5 6 
#
# 1 83.5613 39.4649 27.6801 0.0000 -5.0071 0.0000
# 2 39.4649 107.7874 46.2670 0.0000 -4.3774 0.0000
# 3 27.6801 46.2670 65.1051 0.0000 -21.1988 0.0000
# 4 0.0000 0.0000 0.0000 13.2746 0.0000 -3.4614
# 5 -5.0071 -4.3774 -21.1988 0.0000 33.0427 0.0000
# 6 0.0000 0.0000 0.0000 -3.4614 0.0000 24.4566
#
#
#
# Elastic Compliance Matrix: (Units=1/GPa)
#
#
# Indices 1 2 3 4 5 6 
#
# 1 0.015036 -0.003870 -0.003877 0.000000 -0.000722 0.000000
# 2 -0.003870 0.015173 -0.010964 0.000000 -0.005610 0.000000
# 3 -0.003877 -0.010964 0.030509 0.000000 0.017533 0.000000
# 4 0.000000 0.000000 0.000000 0.078219 0.000000 0.011071
# 5 -0.000722 -0.005610 0.017533 0.000000 0.040660 0.000000
# 6 0.000000 0.000000 0.000000 0.011071 0.000000 0.042456
#
#
# Mechanical properties :
#
#
# Convention : Reuss Voigt Hill
#
# Bulk Modulus (GPa) = 42.92827 53.69750 48.31289
# Shear Modulus (GPa) = 18.70973 23.69090 21.20031
#
# Velocity S-wave (km/s) = 3.26242 3.67110 3.47278
# Velocity P-wave (km/s) = 6.21383 6.96535 6.60030
#
# Compressibility (1/GPa) = 0.02329467
#
# Stress axis : x y z
#
# Youngs Moduli (GPa) = 66.50560 65.90680 32.77735
#
# Poissons Ratio (x) = 0.25508 0.12709
# Poissons Ratio (y) = 0.25740 0.35937
# Poissons Ratio (z) = 0.25787 0.72260
#
# Static dielectric constant tensor:
#      x y z
#    x 1.643850 0.000000 0.007140 
#    y 0.000000 1.590940 0.000000 
#    z 0.007140 0.000000 1.620860 
# 
# From -- ./inp_files/80157.got.cif
#   From: 2010.05.17/outbox.cif.g08.bks.cpg/sg12_41_cif.got.tgz:80157.got - 2010.06.03 13:09:07.
