data_PCOD9202609
_publ_section_title
;
Structure prediction by ZEFSAII (Michael W. Deem and Ramdas Pophale) SiO2 
 PCOD9202609
Probable space group: C 2/M
;
_chemical_formula_sum "Si O2"
_cell_formula_units_Z 56
_cell_length_a 25.919234
_cell_length_b 7.738381
_cell_length_c 15.097588
_cell_angle_alpha 90.000000
_cell_angle_beta 121.659501
_cell_angle_gamma 90.000000
_cell_volume 2577.522326
_symmetry_space_group_name_H-M "C 2/M"
_symmetry_group_IT_number 12
_symmetry_cell_setting 'monoclinic'
loop_
_space_group_symop_operation_xyz
x,y,z
-x,y,-z
-x,-y,-z
x,-y,z
1/2+x,1/2+y,z
1/2-x,1/2+y,-z
1/2-x,1/2-y,-z
1/2+x,1/2-y,z
loop_
_atom_site_type_symbol
_atom_site_label
_atom_site_fract_x
_atom_site_fract_y
_atom_site_fract_z
Si Si1 0.794631 0.791681 0.620359
Si Si2 0.928825 0.208899 0.692395
Si Si3 0.252108 0.703014 0.772898
Si Si4 0.023926 0.210909 0.926220
Si Si5 0.159195 0.788233 0.993911
Si Si6 0.511025 0.204467 0.608601
Si Si7 0.644141 0.298126 0.783566
O O1 0.750000 0.750000 0.500000
O O2 0.862122 0.728463 0.658026
O O3 0.770297 0.725382 0.693318
O O4 0.797864 0.000000 0.629115
O O5 0.978153 0.268811 0.808676
O O6 0.953647 0.261523 0.619238
O O7 0.927967 0.000000 0.694147
O O8 0.266772 0.500000 0.782553
O O9 0.182192 0.719981 0.737267
O O10 0.291339 0.773455 0.890804
O O11 0.092556 0.262469 0.967965
O O12 0.023496 0.000000 0.925754
O O13 0.000000 0.267740 0.000000
O O14 0.165250 0.726365 0.898095
O O15 0.160884 0.000000 0.992247
O O16 0.500000 0.274021 0.500000
O O17 0.572210 0.277919 0.707242
O O18 0.520897 0.000000 0.611206
O O19 0.658027 0.500000 0.795241
#
# Coordination Sequence:
#
# PCOD9202609 Si02
#       7
#     8   8   8   8   8   8   8
#     4  10  23  40  60  86 117 156 199 243 291 343
#     4  10  20  38  62  90 117 148 194 243 290 343
#     4  10  21  38  59  86 122 160 198 238 289 351
#     4   9  15  27  54  87 116 146 186 235 284 340
#     4   9  17  32  55  86 119 152 190 236 289 346
#     4  11  25  42  61  86 117 156 196 240 299 354
#     4  11  22  38  61  90 120 153 196 244 293 345
#
# _framework density 21.726289999999999
#
# number of rings (size 3 to 8) (size 9 to 14) (size 15 to 20)
#    0.000    2.000    1.429    2.143    2.000    5.714 
#    0.000    0.714    0.000    0.429    0.000    0.000 
#    0.000    0.000    0.000    0.000    0.000    0.000 
#
# Total GULP energy -156471.276289 kJ/mol
# GULP energy per Si atom -5588.259867 kJ/mol
# Density = 2.167684 g / cm^3
# Si number density = 21.726290 Si / 1000 Ang^3
#
#
#
# Elastic Constant Matrix: (Units=GPa)
#
#
# Indices 1 2 3 4 5 6 
#
# 1 155.6885 -2.8963 47.9356 0.0000 -24.9196 0.0000
# 2 -2.8963 33.0180 7.7788 0.0000 -2.0297 0.0000
# 3 47.9356 7.7788 87.0697 0.0000 -27.4343 0.0000
# 4 0.0000 0.0000 0.0000 12.1834 0.0000 9.8614
# 5 -24.9196 -2.0297 -27.4343 0.0000 43.5915 0.0000
# 6 0.0000 0.0000 0.0000 9.8614 0.0000 8.3121
#
#
#
# Elastic Compliance Matrix: (Units=1/GPa)
#
#
# Indices 1 2 3 4 5 6 
#
# 1 0.008000 0.001748 -0.003859 0.000000 0.002226 0.000000
# 2 0.001748 0.031324 -0.003725 0.000000 0.000113 0.000000
# 3 -0.003859 -0.003725 0.016456 0.000000 0.007977 0.000000
# 4 0.000000 0.000000 0.000000 2.066978 0.000000 -2.452256
# 5 0.002226 0.000113 0.007977 0.000000 0.029238 0.000000
# 6 0.000000 0.000000 0.000000 -2.452256 0.000000 3.029655
#
#
# Mechanical properties :
#
#
# Convention : Reuss Voigt Hill
#
# Bulk Modulus (GPa) = 22.67185 42.37914 32.52549
# Shear Modulus (GPa) = 0.96006 27.68126 14.32066
#
# Velocity S-wave (km/s) = 0.66547 3.57331 2.57016
# Velocity P-wave (km/s) = 3.32390 6.04756 4.87962
#
# Compressibility (1/GPa) = 0.04410757
#
# Stress axis : x y z
#
# Youngs Moduli (GPa) = 124.99826 31.92396 60.76849
#
# Poissons Ratio (x) = -0.05580 0.23452
# Poissons Ratio (y) = -0.21847 0.22637
# Poissons Ratio (z) = 0.48239 0.11892
#
# Static dielectric constant tensor:
#      x y z
#    x 1.764900 0.000000 -0.015840 
#    y 0.000000 1.819130 0.000000 
#    z -0.015840 0.000000 1.769380 
# 
# From -- ./inp_files/238994.got.cif
#   From: 2010.05.17/outbox.cif.g08.bks.cpg/sg12_120_cif.got.tgz:238994.got - 2010.06.03 13:09:07.
