data_PCOD9202022
_publ_section_title
;
Structure prediction by ZEFSAII (Michael W. Deem and Ramdas Pophale) SiO2 
 PCOD9202022
Probable space group: C 2/M
;
_chemical_formula_sum "Si O2"
_cell_formula_units_Z 56
_cell_length_a 14.737508
_cell_length_b 8.849728
_cell_length_c 26.733487
_cell_angle_alpha 90.000000
_cell_angle_beta 64.974205
_cell_angle_gamma 90.000000
_cell_volume 3159.323302
_symmetry_space_group_name_H-M "C 2/M"
_symmetry_group_IT_number 12
_symmetry_cell_setting 'monoclinic'
loop_
_space_group_symop_operation_xyz
x,y,z
-x,y,-z
-x,-y,-z
x,-y,z
1/2+x,1/2+y,z
1/2-x,1/2+y,-z
1/2-x,1/2-y,-z
1/2+x,1/2-y,z
loop_
_atom_site_type_symbol
_atom_site_label
_atom_site_fract_x
_atom_site_fract_y
_atom_site_fract_z
Si Si1 0.321369 0.680956 0.233957
Si Si2 0.318547 0.178696 0.440948
Si Si3 0.759206 0.682291 0.855450
Si Si4 0.009376 0.177872 0.438506
Si Si5 0.460523 0.682227 0.856033
Si Si6 0.762522 0.820061 0.645512
Si Si7 0.950489 0.319523 0.065397
O O1 0.318486 0.500000 0.237316
O O2 0.259010 0.724653 0.198706
O O3 0.437791 0.723827 0.197990
O O4 0.276316 0.747306 0.294800
O O5 0.250000 0.250000 0.500000
O O6 0.431148 0.219497 0.428111
O O7 0.292250 0.236681 0.391840
O O8 0.300109 0.000000 0.445553
O O9 0.760781 0.500000 0.858685
O O10 0.860760 0.750029 0.854582
O O11 0.659862 0.746169 0.905669
O O12 0.120454 0.204563 0.392673
O O13 0.000000 0.207400 0.500000
O O14 0.984719 0.000000 0.437232
O O15 0.453734 0.500000 0.859506
O O16 0.482327 0.746756 0.906318
O O17 0.746425 0.000000 0.653021
O O18 0.942745 0.500000 0.075350
O O19 0.000000 0.293165 0.000000
#
# Coordination Sequence:
#
# PCOD9202022 Si02
#       7
#     8   8   8   8   8   8   8
#     4   9  21  39  57  81 112 144 187 238 283 333
#     4  11  22  37  56  81 108 140 180 220 271 332
#     4  10  21  38  60  85 115 153 194 238 287 337
#     4  10  20  38  57  77 109 142 176 220 271 331
#     4  10  21  38  60  85 115 154 196 237 285 337
#     4  10  22  38  57  80 110 146 181 225 283 338
#     4  10  21  37  58  87 121 156 195 238 285 336
#
# _framework density 17.725315999999999
#
# number of rings (size 3 to 8) (size 9 to 14) (size 15 to 20)
#    0.000    2.000    1.429    2.571    0.000    8.286 
#    0.000    5.714    0.000    0.000    0.000    0.000 
#    0.000    0.000    0.000    0.000    0.000    0.000 
#
# Total GULP energy -156296.535962 kJ/mol
# GULP energy per Si atom -5582.019141 kJ/mol
# Density = 1.768497 g / cm^3
# Si number density = 17.725316 Si / 1000 Ang^3
#
#
#
# Elastic Constant Matrix: (Units=GPa)
#
#
# Indices 1 2 3 4 5 6 
#
# 1 124.1936 52.7315 70.6106 0.0000 11.1184 0.0000
# 2 52.7315 57.1576 59.9807 0.0000 2.7869 0.0000
# 3 70.6106 59.9807 160.0847 0.0000 1.9878 0.0000
# 4 0.0000 0.0000 0.0000 34.1401 0.0000 -0.8539
# 5 11.1184 2.7869 1.9878 0.0000 11.8668 0.0000
# 6 0.0000 0.0000 0.0000 -0.8539 0.0000 34.0574
#
#
#
# Elastic Compliance Matrix: (Units=1/GPa)
#
#
# Indices 1 2 3 4 5 6 
#
# 1 0.014994 -0.010704 -0.002465 0.000000 -0.011122 0.000000
# 2 -0.010704 0.036769 -0.009092 0.000000 0.002917 0.000000
# 3 -0.002465 -0.009092 0.010707 0.000000 0.002651 0.000000
# 4 0.000000 0.000000 0.000000 0.029309 0.000000 0.000735
# 5 -0.011122 0.002917 0.002651 0.000000 0.093560 0.000000
# 6 0.000000 0.000000 0.000000 0.000735 0.000000 0.029381
#
#
# Mechanical properties :
#
#
# Convention : Reuss Voigt Hill
#
# Bulk Modulus (GPa) = 55.71169 78.67573 67.19371
# Shear Modulus (GPa) = 18.85198 26.55370 22.70284
#
# Velocity S-wave (km/s) = 3.26477 3.87469 3.58273
# Velocity P-wave (km/s) = 6.76095 8.03119 7.42329
#
# Compressibility (1/GPa) = 0.01794955
#
# Stress axis : x y z
#
# Youngs Moduli (GPa) = 66.69434 27.19693 93.39319
#
# Poissons Ratio (x) = 0.29111 0.23020
# Poissons Ratio (y) = 0.71389 0.84909
# Poissons Ratio (z) = 0.16439 0.24726
#
# Static dielectric constant tensor:
#      x y z
#    x 1.599310 0.000000 -0.002290 
#    y 0.000000 1.600420 0.000000 
#    z -0.002290 0.000000 1.591280 
# 
# From -- ./inp_files/337857.got.cif
#   From: 2010.05.17/outbox.cif.g08.bks.cpg/sg12_169_cif.got.tgz:337857.got - 2010.06.03 13:09:07.
