data_PCOD9202687
_publ_section_title
;
Structure prediction by ZEFSAII (Michael W. Deem and Ramdas Pophale) SiO2 
 PCOD9202687
Probable space group: C 2/M
;
_chemical_formula_sum "Si O2"
_cell_formula_units_Z 64
_cell_length_a 9.313578
_cell_length_b 17.191364
_cell_length_c 27.028137
_cell_angle_alpha 90.000000
_cell_angle_beta 133.811954
_cell_angle_gamma 90.000000
_cell_volume 3122.835019
_symmetry_space_group_name_H-M "C 2/M"
_symmetry_group_IT_number 12
_symmetry_cell_setting 'monoclinic'
loop_
_space_group_symop_operation_xyz
x,y,z
-x,y,-z
-x,-y,-z
x,-y,z
1/2+x,1/2+y,z
1/2-x,1/2+y,-z
1/2-x,1/2-y,-z
1/2+x,1/2-y,z
loop_
_atom_site_type_symbol
_atom_site_label
_atom_site_fract_x
_atom_site_fract_y
_atom_site_fract_z
Si Si1 0.142086 0.170190 0.986221
Si Si2 0.581266 0.803473 0.332251
Si Si3 0.303434 0.588871 0.853374
Si Si4 0.478370 0.908909 0.123046
Si Si5 0.263998 0.911707 0.278655
Si Si6 0.615805 0.660172 0.761380
Si Si7 0.098146 0.908080 0.647253
Si Si8 0.725272 0.193700 0.541732
O O1 0.996119 0.141243 0.908413
O O2 0.187749 0.391095 0.957699
O O3 0.250000 0.250000 0.000000
O O4 0.000000 0.178889 0.000000
O O5 0.440531 0.853635 0.334737
O O6 0.443496 0.748988 0.264611
O O7 0.727541 0.860507 0.338238
O O8 0.708563 0.744610 0.395239
O O9 0.359910 0.500000 0.880372
O O10 0.234332 0.588631 0.780607
O O11 0.127847 0.609450 0.849699
O O12 0.670293 0.854553 0.163570
O O13 0.535412 0.000000 0.136272
O O14 0.056854 0.877600 0.247320
O O15 0.290948 0.000000 0.302547
O O16 0.615491 0.614508 0.709077
O O17 0.885922 0.875780 0.577360
O O18 0.119530 0.000000 0.645486
O O19 0.500000 0.168630 0.500000
O O20 0.750000 0.250000 0.500000
#
# Coordination Sequence:
#
# PCOD9202687 Si02
#       8
#     8   8   8   8   8   8   8   8
#     4  10  22  38  57  84 117 155 203 253 305 372
#     4  11  24  42  66  90 125 171 206 248 304 371
#     4   9  20  39  61  83 116 158 201 251 310 372
#     4  10  20  38  63  86 115 158 206 256 310 372
#     4  11  23  39  61  91 125 158 203 260 310 360
#     4  11  23  39  62  93 125 160 207 259 313 363
#     4  11  23  42  67  96 128 166 211 254 303 365
#     4  11  23  44  68  94 130 166 207 250 304 366
#
# _framework density 20.494198999999998
#
# number of rings (size 3 to 8) (size 9 to 14) (size 15 to 20)
#    0.000    1.500    1.250    4.125    3.500    3.750 
#    0.000    1.875    0.000    3.000    0.000    0.000 
#    0.000    0.000    0.000    0.000    0.000    0.000 
#
# Total GULP energy -178898.140541 kJ/mol
# GULP energy per Si atom -5590.566892 kJ/mol
# Density = 2.044755 g / cm^3
# Si number density = 20.494199 Si / 1000 Ang^3
#
#
#
# Elastic Constant Matrix: (Units=GPa)
#
#
# Indices 1 2 3 4 5 6 
#
# 1 79.3307 36.4548 15.2448 0.0000 33.0374 0.0000
# 2 36.4548 132.1296 19.0131 0.0000 29.1180 0.0000
# 3 15.2448 19.0131 48.9200 0.0000 28.7067 0.0000
# 4 0.0000 0.0000 0.0000 26.3737 0.0000 8.0793
# 5 33.0374 29.1180 28.7067 0.0000 39.7063 0.0000
# 6 0.0000 0.0000 0.0000 8.0793 0.0000 29.1082
#
#
#
# Elastic Compliance Matrix: (Units=1/GPa)
#
#
# Indices 1 2 3 4 5 6 
#
# 1 0.020844 -0.002186 0.006236 0.000000 -0.020249 0.000000
# 2 -0.002186 0.009268 0.000000 0.000000 -0.004978 0.000000
# 3 0.006236 0.000000 0.037417 0.000000 -0.032241 0.000000
# 4 0.000000 0.000000 0.000000 0.041440 0.000000 -0.011502
# 5 -0.020249 -0.004978 -0.032241 0.000000 0.068993 0.000000
# 6 0.000000 0.000000 0.000000 -0.011502 0.000000 0.037547
#
#
# Mechanical properties :
#
#
# Convention : Reuss Voigt Hill
#
# Bulk Modulus (GPa) = 13.22212 44.64508 28.93360
# Shear Modulus (GPa) = 21.49432 31.68214 26.58823
#
# Velocity S-wave (km/s) = 3.24203 3.93607 3.60579
# Velocity P-wave (km/s) = 4.52548 6.51831 5.61108
#
# Compressibility (1/GPa) = 0.07563082
#
# Stress axis : x y z
#
# Youngs Moduli (GPa) = 47.97466 107.89249 26.72574
#
# Poissons Ratio (x) = 0.23585 -0.16667
# Poissons Ratio (y) = 0.10487 -0.00001
# Poissons Ratio (z) = -0.29918 -0.00002
#
# Static dielectric constant tensor:
#      x y z
#    x 1.714620 0.000000 0.002730 
#    y 0.000000 1.742780 0.000000 
#    z 0.002730 0.000000 1.743180 
# 
# From -- ./inp_files/372604.got.cif
#   From: 2010.05.17/outbox.cif.g08.bks.cpg/sg12_187_cif.got.tgz:372604.got - 2010.06.03 13:09:07.
