data_PCOD9202993
_publ_section_title
;
Structure prediction by ZEFSAII (Michael W. Deem and Ramdas Pophale) SiO2 
 PCOD9202993
Probable space group: C 2/M
;
_chemical_formula_sum "Si O2"
_cell_formula_units_Z 52
_cell_length_a 8.660477
_cell_length_b 30.005468
_cell_length_c 14.182708
_cell_angle_alpha 90.000000
_cell_angle_beta 43.933898
_cell_angle_gamma 90.000000
_cell_volume 2557.132348
_symmetry_space_group_name_H-M "C 2/M"
_symmetry_group_IT_number 12
_symmetry_cell_setting 'monoclinic'
loop_
_space_group_symop_operation_xyz
x,y,z
-x,y,-z
-x,-y,-z
x,-y,z
1/2+x,1/2+y,z
1/2-x,1/2+y,-z
1/2-x,1/2-y,-z
1/2+x,1/2-y,z
loop_
_atom_site_type_symbol
_atom_site_label
_atom_site_fract_x
_atom_site_fract_y
_atom_site_fract_z
Si Si1 0.450281 0.448762 0.675968
Si Si2 0.282156 0.202758 0.533589
Si Si3 0.523641 0.947952 0.221056
Si Si4 0.237789 0.593838 0.947508
Si Si5 0.382546 0.890967 0.449133
Si Si6 0.500000 0.747011 0.000000
Si Si7 0.073896 0.808562 0.147442
O O1 0.522293 0.500000 0.637370
O O2 0.227819 0.443593 0.710759
O O3 0.378611 0.436180 0.813493
O O4 0.650616 0.417264 0.557682
O O5 0.500000 0.207507 0.500000
O O6 0.250000 0.250000 0.500000
O O7 0.327615 0.160168 0.447147
O O8 0.081766 0.190933 0.692430
O O9 0.533588 0.916371 0.307243
O O10 0.560244 0.000000 0.226613
O O11 0.686112 0.930997 0.067484
O O12 0.353787 0.641431 0.909290
O O13 0.000000 0.601574 0.000000
O O14 0.500000 0.890994 0.500000
O O15 0.710284 0.778745 0.924679
O O16 0.538939 0.715841 0.891896
#
# Coordination Sequence:
#
# PCOD9202993 Si02
#       7
#     8   8   8   8   8   4   8
#     4  10  20  39  64  89 119 161 209 259 308 367
#     4  11  25  43  63  90 126 166 211 256 307 369
#     4  10  22  39  63  94 122 159 213 260 310 371
#     4  10  20  38  65  90 124 157 203 260 318 367
#     4  11  24  40  61  89 128 167 203 254 314 373
#     4  10  24  36  66  90 124 162 208 258 314 368
#     4  11  21  42  61  92 123 164 207 259 310 378
#
# _framework density 20.335280000000001
#
# number of rings (size 3 to 8) (size 9 to 14) (size 15 to 20)
#    0.000    1.538    2.308    2.308    0.000   10.462 
#    0.000    0.000    0.000    1.846    0.000    0.000 
#    0.000    0.000    0.000    0.000    0.000    0.000 
#
# Total GULP energy -145378.459236 kJ/mol
# GULP energy per Si atom -5591.479201 kJ/mol
# Density = 2.028900 g / cm^3
# Si number density = 20.335280 Si / 1000 Ang^3
#
#
#
# Elastic Constant Matrix: (Units=GPa)
#
#
# Indices 1 2 3 4 5 6 
#
# 1 29.3406 36.4068 6.6529 0.0000 14.8046 0.0000
# 2 36.4068 170.7049 34.1539 0.0000 16.2122 0.0000
# 3 6.6529 34.1539 80.3459 0.0000 20.9708 0.0000
# 4 0.0000 0.0000 0.0000 35.5658 0.0000 5.8361
# 5 14.8046 16.2122 20.9708 0.0000 33.3640 0.0000
# 6 0.0000 0.0000 0.0000 5.8361 0.0000 18.7360
#
#
#
# Elastic Compliance Matrix: (Units=1/GPa)
#
#
# Indices 1 2 3 4 5 6 
#
# 1 0.059627 -0.011656 0.006514 0.000000 -0.024889 0.000000
# 2 -0.011656 0.008761 -0.003586 0.000000 0.003169 0.000000
# 3 0.006514 -0.003586 0.016425 0.000000 -0.011472 0.000000
# 4 0.000000 0.000000 0.000000 0.029631 0.000000 -0.009230
# 5 -0.024889 0.003169 -0.011472 0.000000 0.046687 0.000000
# 6 0.000000 0.000000 0.000000 -0.009230 0.000000 0.056248
#
#
# Mechanical properties :
#
#
# Convention : Reuss Voigt Hill
#
# Bulk Modulus (GPa) = 14.84653 48.31318 31.57985
# Shear Modulus (GPa) = 19.43339 31.07836 25.25587
#
# Velocity S-wave (km/s) = 3.09471 3.91359 3.52799
# Velocity P-wave (km/s) = 4.48178 6.65067 5.67088
#
# Compressibility (1/GPa) = 0.06735582
#
# Stress axis : x y z
#
# Youngs Moduli (GPa) = 16.77085 114.14813 60.88109
#
# Poissons Ratio (x) = 1.33056 -0.39656
# Poissons Ratio (y) = 0.19549 0.21832
# Poissons Ratio (z) = -0.10924 0.40934
#
# Static dielectric constant tensor:
#      x y z
#    x 1.719610 0.000000 -0.005150 
#    y 0.000000 1.704490 0.000000 
#    z -0.005150 0.000000 1.699470 
# 
# From -- ./inp_files/201193.got.cif
#   From: 2010.05.17/outbox.cif.g08.bks.cpg/sg12_101_cif.got.tgz:201193.got - 2010.06.03 13:09:07.
