data_PCOD9202761
_publ_section_title
;
Structure prediction by ZEFSAII (Michael W. Deem and Ramdas Pophale) SiO2 
 PCOD9202761
Probable space group: C 2/M
;
_chemical_formula_sum "Si O2"
_cell_formula_units_Z 56
_cell_length_a 15.152396
_cell_length_b 15.923312
_cell_length_c 21.824742
_cell_angle_alpha 90.000000
_cell_angle_beta 150.628214
_cell_angle_gamma 90.000000
_cell_volume 2582.738472
_symmetry_space_group_name_H-M "C 2/M"
_symmetry_group_IT_number 12
_symmetry_cell_setting 'monoclinic'
loop_
_space_group_symop_operation_xyz
x,y,z
-x,y,-z
-x,-y,-z
x,-y,z
1/2+x,1/2+y,z
1/2-x,1/2+y,-z
1/2-x,1/2-y,-z
1/2+x,1/2-y,z
loop_
_atom_site_type_symbol
_atom_site_label
_atom_site_fract_x
_atom_site_fract_y
_atom_site_fract_z
Si Si1 0.243920 0.344750 0.473944
Si Si2 0.860749 0.599277 0.465132
Si Si3 0.296785 0.401925 0.378949
Si Si4 0.164166 0.134004 0.733730
Si Si5 0.026631 0.097612 0.184208
Si Si6 0.843138 0.593910 0.970400
Si Si7 0.425431 0.733821 0.891378
O O1 0.250000 0.250000 0.500000
O O2 0.120144 0.384898 0.451285
O O3 0.193697 0.356277 0.371988
O O4 0.449769 0.380275 0.603230
O O5 0.872764 0.500000 0.466277
O O6 0.661311 0.622239 0.320979
O O7 0.000000 0.637638 0.500000
O O8 0.500000 0.366509 0.500000
O O9 0.300859 0.500000 0.398618
O O10 0.251828 0.396165 0.280153
O O11 0.255608 0.095661 0.849248
O O12 0.221172 0.232034 0.771713
O O13 0.055432 0.165181 0.148950
O O14 0.822954 0.100535 0.083801
O O15 0.066765 0.000000 0.191138
O O16 0.923364 0.500000 0.027019
O O17 0.958411 0.679450 0.046745
O O18 0.500000 0.698180 0.000000
#
# Coordination Sequence:
#
# PCOD9202761 Si02
#       7
#     8   8   8   8   8   8   8
#     4  11  23  35  56  86 120 160 193 241 297 359
#     4  10  22  39  62  87 115 157 207 252 287 349
#     4   9  19  34  54  81 114 151 189 233 289 355
#     4  10  21  36  58  86 122 158 195 241 298 363
#     4  10  21  39  65  87 116 162 204 248 302 353
#     4  10  20  38  63  91 118 156 202 250 306 361
#     4  10  23  38  59  88 120 153 200 256 301 362
#
# _framework density 21.682410999999998
#
# number of rings (size 3 to 8) (size 9 to 14) (size 15 to 20)
#    0.000    2.000    1.429    1.286    4.000    5.143 
#    0.000    0.000    0.000    0.000    0.000    0.000 
#    0.000    0.000    0.000    0.000    0.000    0.000 
#
# Total GULP energy -156107.705084 kJ/mol
# GULP energy per Si atom -5575.275182 kJ/mol
# Density = 2.163306 g / cm^3
# Si number density = 21.682411 Si / 1000 Ang^3
#
#
#
# Elastic Constant Matrix: (Units=GPa)
#
#
# Indices 1 2 3 4 5 6 
#
# 1 113.0178 23.4107 5.6850 0.0014 -26.4847 0.0005
# 2 23.4107 68.1176 8.6513 0.0034 -18.0865 0.0015
# 3 5.6850 8.6513 31.8272 0.0044 -9.9771 0.0017
# 4 0.0014 0.0034 0.0044 13.6012 0.0015 -12.7554
# 5 -26.4847 -18.0865 -9.9771 0.0015 35.0814 0.0004
# 6 0.0005 0.0015 0.0017 -12.7554 0.0004 38.8551
#
#
#
# Elastic Compliance Matrix: (Units=1/GPa)
#
#
# Indices 1 2 3 4 5 6 
#
# 1 0.010965 -0.001875 0.000926 -0.000003 0.007575 -0.000001
# 2 -0.001875 0.017453 -0.002231 -0.000007 0.006948 -0.000003
# 3 0.000926 -0.002231 0.034824 -0.000019 0.009452 -0.000008
# 4 -0.000003 -0.000007 -0.000019 0.106227 -0.000016 0.034872
# 5 0.007575 0.006948 0.009452 -0.000016 0.040494 -0.000007
# 6 -0.000001 -0.000003 -0.000008 0.034872 -0.000007 0.037185
#
#
# Mechanical properties :
#
#
# Convention : Reuss Voigt Hill
#
# Bulk Modulus (GPa) = 17.58054 32.05074 24.81564
# Shear Modulus (GPa) = 18.35072 29.18857 23.76964
#
# Velocity S-wave (km/s) = 2.91235 3.67302 3.31458
# Velocity P-wave (km/s) = 4.40850 5.72731 5.11062
#
# Compressibility (1/GPa) = 0.05688108
#
# Stress axis : x y z
#
# Youngs Moduli (GPa) = 91.19909 57.29659 28.71595
#
# Poissons Ratio (x) = 0.10742 -0.02658
# Poissons Ratio (y) = 0.17098 0.06407
# Poissons Ratio (z) = -0.08440 0.12784
#
# Static dielectric constant tensor:
#      x y z
#    x 1.853590 0.000000 0.010520 
#    y 0.000000 1.795690 0.000000 
#    z 0.010520 0.000000 1.865180 
# 
# From -- ./inp_files/310861.got.cif
#   From: 2010.05.17/outbox.cif.g08.bks.cpg/sg12_156_cif.got.tgz:310861.got - 2010.06.03 13:09:07.
