data_PCOD9202137
_publ_section_title
;
Structure prediction by ZEFSAII (Michael W. Deem and Ramdas Pophale) SiO2 
 PCOD9202137
Probable space group: C 2/M
;
_chemical_formula_sum "Si O2"
_cell_formula_units_Z 58
_cell_length_a 5.630780
_cell_length_b 25.465969
_cell_length_c 20.594701
_cell_angle_alpha 90.000000
_cell_angle_beta 66.037826
_cell_angle_gamma 90.000000
_cell_volume 2698.621400
_symmetry_space_group_name_H-M "C 2/M"
_symmetry_group_IT_number 12
_symmetry_cell_setting 'monoclinic'
loop_
_space_group_symop_operation_xyz
x,y,z
-x,y,-z
-x,-y,-z
x,-y,z
1/2+x,1/2+y,z
1/2-x,1/2+y,-z
1/2-x,1/2-y,-z
1/2+x,1/2-y,z
loop_
_atom_site_type_symbol
_atom_site_label
_atom_site_fract_x
_atom_site_fract_y
_atom_site_fract_z
Si Si1 0.317387 0.735753 0.283810
Si Si2 0.377991 0.129675 0.665655
Si Si3 0.663075 0.057980 0.718099
Si Si4 0.613478 0.308009 0.422805
Si Si5 0.124967 0.082586 0.580445
Si Si6 0.746055 0.562599 0.148634
Si Si7 0.500000 0.000000 0.500000
Si Si8 0.346818 0.563845 0.082951
O O1 0.608289 0.758088 0.249054
O O2 0.164783 0.767686 0.358515
O O3 0.333672 0.674400 0.298769
O O4 0.468744 0.104481 0.722889
O O5 0.613237 0.161219 0.605016
O O6 0.293334 0.083635 0.627740
O O7 0.814565 0.068236 0.768142
O O8 0.854152 0.059704 0.635504
O O9 0.541567 0.000000 0.737392
O O10 0.500000 0.281452 0.500000
O O11 0.415397 0.356604 0.432989
O O12 0.276919 0.046076 0.515360
O O13 0.759308 0.500000 0.133884
O O14 0.526475 0.582658 0.123461
O O15 0.046190 0.582188 0.110929
O O16 0.331630 0.500000 0.089500
O O17 0.500000 0.576282 0.000000
#
# Coordination Sequence:
#
# PCOD9202137 Si02
#       8
#     8   8   8   8   8   8   2   8
#     4  10  20  38  59  82 104 128 162 215 286 354
#     4  10  22  36  55  75 100 134 173 225 286 339
#     4  10  22  37  53  73 107 146 195 241 271 328
#     4  10  21  38  56  77 103 125 167 225 292 369
#     4  11  22  40  52  77  99 138 186 235 297 334
#     4   9  18  30  48  74 101 145 189 224 269 313
#     4  12  24  36  58  72 100 142 182 250 284 344
#     4   9  16  28  47  75 109 139 179 231 272 309
#
# _framework density 21.492456000000001
#
# number of rings (size 3 to 8) (size 9 to 14) (size 15 to 20)
#    0.000    2.069    2.069    1.241    2.897    3.862 
#    1.241    1.724    0.000    0.000    0.000    0.000 
#    0.000    0.000    0.000    0.000    0.000  124.138 
#
# Total GULP energy -161457.017335 kJ/mol
# GULP energy per Si atom -5567.483356 kJ/mol
# Density = 2.144354 g / cm^3
# Si number density = 21.492456 Si / 1000 Ang^3
#
#
#
# Elastic Constant Matrix: (Units=GPa)
#
#
# Indices 1 2 3 4 5 6 
#
# 1 107.8601 8.9590 22.8970 0.0000 5.9479 0.0000
# 2 8.9590 62.7353 -2.3564 0.0000 -0.2096 0.0000
# 3 22.8970 -2.3564 54.1028 0.0000 -9.3763 0.0000
# 4 0.0000 0.0000 0.0000 -3.2684 0.0000 19.5552
# 5 5.9479 -0.2096 -9.3763 0.0000 27.7446 0.0000
# 6 0.0000 0.0000 0.0000 19.5552 0.0000 4.9463
#
#
#
# Elastic Compliance Matrix: (Units=1/GPa)
#
#
# Indices 1 2 3 4 5 6 
#
# 1 0.010782 -0.001755 -0.005356 0.000000 -0.004135 0.000000
# 2 -0.001755 0.016255 0.001633 0.000000 0.001051 0.000000
# 3 -0.005356 0.001633 0.022330 0.000000 0.008707 0.000000
# 4 0.000000 0.000000 0.000000 -0.012410 0.000000 0.049063
# 5 -0.004135 0.001051 0.008707 0.000000 0.039880 0.000000
# 6 0.000000 0.000000 0.000000 0.049063 0.000000 0.008200
#
#
# Mechanical properties :
#
#
# Convention : Reuss Voigt Hill
#
# Bulk Modulus (GPa) = 26.03395 31.52195 28.77795
# Shear Modulus (GPa) = 45.95681 18.89775 32.42728
#
# Velocity S-wave (km/s) = 4.62917 2.96847 3.88851
# Velocity P-wave (km/s) = 6.38056 5.14271 5.79478
#
# Compressibility (1/GPa) = 0.03841138
#
# Stress axis : x y z
#
# Youngs Moduli (GPa) = 92.74677 61.51798 44.78242
#
# Poissons Ratio (x) = 0.10795 0.23986
# Poissons Ratio (y) = 0.16275 -0.07312
# Poissons Ratio (z) = 0.49676 -0.10044
#
# Static dielectric constant tensor:
#      x y z
#    x 1.911390 0.000000 0.018850 
#    y 0.000000 1.780830 0.000000 
#    z 0.018850 0.000000 1.813910 
# 
# From -- ./inp_files/298280.got.cif
#   From: 2010.05.17/outbox.cif.g08.bks.cpg/sg12_150_cif.got.tgz:298280.got - 2010.06.03 13:09:07.
