data_PCOD9202675
_publ_section_title
;
Structure prediction by ZEFSAII (Michael W. Deem and Ramdas Pophale) SiO2 
 PCOD9202675
Probable space group: C 2/M
;
_chemical_formula_sum "Si O2"
_cell_formula_units_Z 40
_cell_length_a 7.265745
_cell_length_b 24.836090
_cell_length_c 16.983588
_cell_angle_alpha 90.000000
_cell_angle_beta 37.542610
_cell_angle_gamma 90.000000
_cell_volume 1867.499696
_symmetry_space_group_name_H-M "C 2/M"
_symmetry_group_IT_number 12
_symmetry_cell_setting 'monoclinic'
loop_
_space_group_symop_operation_xyz
x,y,z
-x,y,-z
-x,-y,-z
x,-y,z
1/2+x,1/2+y,z
1/2-x,1/2+y,-z
1/2-x,1/2-y,-z
1/2+x,1/2-y,z
loop_
_atom_site_type_symbol
_atom_site_label
_atom_site_fract_x
_atom_site_fract_y
_atom_site_fract_z
Si Si1 0.746122 0.679559 0.220933
Si Si2 0.788580 0.606740 0.864256
Si Si3 0.665617 0.701402 0.789449
Si Si4 0.146200 0.559188 0.598402
Si Si5 0.320077 0.827748 0.485792
O O1 0.540316 0.679728 0.212432
O O2 0.912310 0.737160 0.165477
O O3 0.527170 0.676673 0.372295
O O4 0.973807 0.630148 0.153241
O O5 0.660210 0.659600 0.862161
O O6 0.959061 0.571976 0.740803
O O7 0.500000 0.578731 0.000000
O O8 0.019255 0.701940 0.641117
O O9 0.500000 0.559746 0.500000
O O10 0.067650 0.500000 0.593937
O O11 0.102591 0.609643 0.555772
O O12 0.500000 0.807025 0.500000
#
# Coordination Sequence:
#
# PCOD9202675 Si02
#       5
#     8   8   8   8   8
#     4  11  19  36  54  83 119 154 189 233 268 337
#     4  11  24  39  57  83 117 155 190 232 282 333
#     4  10  21  34  55  85 114 158 192 224 278 332
#     4  10  20  38  63  85 107 142 190 240 290 338
#     4   9  19  33  56  87 115 143 186 235 288 332
#
# _framework density 21.419013
#
# number of rings (size 3 to 8) (size 9 to 14) (size 15 to 20)
#    0.000    1.800    4.000    0.600    0.000    2.400 
#    0.000    0.000    0.000    0.000    0.000    5.600 
#    0.000    0.000    0.000    0.000    0.000    0.000 
#
# Total GULP energy -111678.458463 kJ/mol
# GULP energy per Si atom -5583.922923 kJ/mol
# Density = 2.137026 g / cm^3
# Si number density = 21.419013 Si / 1000 Ang^3
#
#
#
# Elastic Constant Matrix: (Units=GPa)
#
#
# Indices 1 2 3 4 5 6 
#
# 1 87.0311 -7.5134 9.5208 0.0000 -7.2151 0.0001
# 2 -7.5134 84.8777 -1.3283 -0.0001 1.5215 0.0001
# 3 9.5208 -1.3283 112.7966 -0.0002 -8.3077 -0.0001
# 4 0.0000 -0.0001 -0.0002 -1.7154 0.0001 7.6980
# 5 -7.2151 1.5215 -8.3077 0.0001 20.2537 0.0000
# 6 0.0001 0.0001 -0.0001 7.6980 0.0000 -14.5215
#
#
#
# Elastic Compliance Matrix: (Units=1/GPa)
#
#
# Indices 1 2 3 4 5 6 
#
# 1 0.011976 0.000979 -0.000712 0.000000 0.003901 0.000000
# 2 0.000979 0.011878 0.000018 0.000000 -0.000536 0.000000
# 3 -0.000712 0.000018 0.009185 0.000001 0.003512 0.000000
# 4 0.000000 0.000000 0.000001 0.422760 0.000000 0.224110
# 5 0.003901 -0.000536 0.003512 0.000000 0.052244 0.000000
# 6 0.000000 0.000000 0.000000 0.224110 0.000000 0.049940
#
#
# Mechanical properties :
#
#
# Convention : Reuss Voigt Hill
#
# Bulk Modulus (GPa) = 29.75466 31.78484 30.76975
# Shear Modulus (GPa) = 8.79328 19.73846 14.26587
#
# Velocity S-wave (km/s) = 2.02837 3.03898 2.58357
# Velocity P-wave (km/s) = 4.40540 5.21398 4.82665
#
# Compressibility (1/GPa) = 0.03360819
#
# Stress axis : x y z
#
# Youngs Moduli (GPa) = 83.50086 84.18774 108.87890
#
# Poissons Ratio (x) = -0.08242 0.07753
# Poissons Ratio (y) = -0.08175 -0.00193
# Poissons Ratio (z) = 0.05946 -0.00149
#
# Static dielectric constant tensor:
#      x y z
#    x 1.762230 0.000000 -0.014200 
#    y 0.000000 1.755060 0.000000 
#    z -0.014200 0.000000 1.846120 
# 
# From -- ./inp_files/199500.got.cif
#   From: 2010.05.17/outbox.cif.g08.bks.cpg/sg12_100_cif.got.tgz:199500.got - 2010.06.03 13:09:07.
