data_PCOD9202913
_publ_section_title
;
Structure prediction by ZEFSAII (Michael W. Deem and Ramdas Pophale) SiO2 
 PCOD9202913
Probable space group: C 2/M
;
_chemical_formula_sum "Si O2"
_cell_formula_units_Z 40
_cell_length_a 11.944357
_cell_length_b 18.572483
_cell_length_c 18.237971
_cell_angle_alpha 90.000000
_cell_angle_beta 149.471996
_cell_angle_gamma 90.000000
_cell_volume 2055.125255
_symmetry_space_group_name_H-M "C 2/M"
_symmetry_group_IT_number 12
_symmetry_cell_setting 'monoclinic'
loop_
_space_group_symop_operation_xyz
x,y,z
-x,y,-z
-x,-y,-z
x,-y,z
1/2+x,1/2+y,z
1/2-x,1/2+y,-z
1/2-x,1/2-y,-z
1/2+x,1/2-y,z
loop_
_atom_site_type_symbol
_atom_site_label
_atom_site_fract_x
_atom_site_fract_y
_atom_site_fract_z
Si Si1 0.970195 0.816853 0.859064
Si Si2 0.547085 0.318323 0.321531
Si Si3 0.512710 0.155418 0.354769
Si Si4 0.404413 0.847978 0.866217
Si Si5 0.650176 0.081493 0.874690
O O1 0.012501 0.829629 0.796875
O O2 0.719810 0.839236 0.735021
O O3 0.982763 0.732565 0.887167
O O4 0.146520 0.862724 0.004230
O O5 0.554597 0.232065 0.337829
O O6 0.780928 0.352340 0.474891
O O7 0.357771 0.345851 0.269489
O O8 0.482354 0.096979 0.274411
O O9 0.492279 0.901058 0.854122
O O10 0.500000 0.864790 0.000000
O O11 0.731179 0.000000 0.923130
#
# Coordination Sequence:
#
# PCOD9202913 Si02
#       5
#     8   8   8   8   8
#     4  11  20  39  66  91 119 159 204 255 300 357
#     4  10  20  38  64  93 120 152 204 257 302 355
#     4  10  22  37  61  94 123 155 198 254 309 359
#     4  11  21  38  65  91 121 156 208 258 296 353
#     4  12  25  41  61  88 127 166 205 248 305 366
#
# _framework density 19.463533999999999
#
# number of rings (size 3 to 8) (size 9 to 14) (size 15 to 20)
#    0.000    1.200    4.000    4.200    0.000    2.800 
#    0.000    3.000    0.000    2.400    0.000    0.000 
#    0.000    0.000    0.000    0.000    0.000    0.000 
#
# Total GULP energy -111784.940022 kJ/mol
# GULP energy per Si atom -5589.247001 kJ/mol
# Density = 1.941923 g / cm^3
# Si number density = 19.463534 Si / 1000 Ang^3
#
#
#
# Elastic Constant Matrix: (Units=GPa)
#
#
# Indices 1 2 3 4 5 6 
#
# 1 79.7368 13.6803 15.3492 0.0003 -0.0649 -0.0001
# 2 13.6803 41.4487 15.4548 0.0024 4.6042 0.0007
# 3 15.3492 15.4548 60.0974 0.0040 -1.4225 0.0019
# 4 0.0003 0.0024 0.0040 9.6489 0.0012 -6.7659
# 5 -0.0649 4.6042 -1.4225 0.0012 25.4301 0.0004
# 6 -0.0001 0.0007 0.0019 -6.7659 0.0004 6.8496
#
#
#
# Elastic Compliance Matrix: (Units=1/GPa)
#
#
# Indices 1 2 3 4 5 6 
#
# 1 0.013652 -0.003618 -0.002543 0.000008 0.000548 0.000009
# 2 -0.003618 0.028355 -0.006498 -0.000014 -0.005507 -0.000015
# 3 -0.002543 -0.006498 0.019013 -0.000032 0.002234 -0.000036
# 4 0.000008 -0.000014 -0.000032 0.337200 -0.000019 0.333081
# 5 0.000548 -0.005507 0.002234 -0.000019 0.040447 -0.000021
# 6 0.000009 -0.000015 -0.000036 0.333081 -0.000021 0.475007
#
#
# Mechanical properties :
#
#
# Convention : Reuss Voigt Hill
#
# Bulk Modulus (GPa) = 28.01064 30.02795 29.01929
# Shear Modulus (GPa) = 5.25821 17.50561 11.38191
#
# Velocity S-wave (km/s) = 1.64543 3.00226 2.42085
# Velocity P-wave (km/s) = 4.24647 5.24208 4.77032
#
# Compressibility (1/GPa) = 0.03570072
#
# Stress axis : x y z
#
# Youngs Moduli (GPa) = 73.24878 35.26702 52.59522
#
# Poissons Ratio (x) = 0.12761 0.13377
# Poissons Ratio (y) = 0.26505 0.34177
# Poissons Ratio (z) = 0.18629 0.22917
#
# Static dielectric constant tensor:
#      x y z
#    x 1.683540 0.000000 0.020660 
#    y 0.000000 1.657970 0.000000 
#    z 0.020660 0.000000 1.682180 
# 
# From -- ./inp_files/47160.got.cif
#   From: 2010.05.17/outbox.cif.g08.bks.cpg/sg12_24_cif.got.tgz:47160.got - 2010.06.03 13:09:07.
