data_PCOD9202734
_publ_section_title
;
Structure prediction by ZEFSAII (Michael W. Deem and Ramdas Pophale) SiO2 
 PCOD9202734
Probable space group: C 2/M
;
_chemical_formula_sum "Si O2"
_cell_formula_units_Z 64
_cell_length_a 34.882175
_cell_length_b 7.817121
_cell_length_c 19.047992
_cell_angle_alpha 90.000000
_cell_angle_beta 144.704465
_cell_angle_gamma 90.000000
_cell_volume 3001.045881
_symmetry_space_group_name_H-M "C 2/M"
_symmetry_group_IT_number 12
_symmetry_cell_setting 'monoclinic'
loop_
_space_group_symop_operation_xyz
x,y,z
-x,y,-z
-x,-y,-z
x,-y,z
1/2+x,1/2+y,z
1/2-x,1/2+y,-z
1/2-x,1/2-y,-z
1/2+x,1/2-y,z
loop_
_atom_site_type_symbol
_atom_site_label
_atom_site_fract_x
_atom_site_fract_y
_atom_site_fract_z
Si Si1 0.559634 0.697799 0.295829
Si Si2 0.663397 0.794690 0.042711
Si Si3 0.790086 0.704876 0.488951
Si Si4 0.565332 0.303201 0.637083
Si Si5 0.452450 0.197460 0.234598
Si Si6 0.283323 0.706699 0.125504
Si Si7 0.943407 0.791959 0.860992
Si Si8 0.824598 0.205434 0.777895
O O1 0.539477 0.500000 0.271755
O O2 0.638599 0.710064 0.409354
O O3 0.523983 0.792892 0.305370
O O4 0.538554 0.772149 0.188850
O O5 0.731306 0.733983 0.107188
O O6 0.659192 0.749412 0.118129
O O7 0.663346 0.000000 0.038994
O O8 0.601248 0.736283 0.902450
O O9 0.798720 0.500000 0.500978
O O10 0.750000 0.750000 0.500000
O O11 0.746884 0.759374 0.357102
O O12 0.500000 0.227207 0.500000
O O13 0.570201 0.500000 0.619027
O O14 0.549905 0.297830 0.696698
O O15 0.641096 0.230082 0.747358
O O16 0.435925 0.000000 0.226134
O O17 0.286810 0.500000 0.132293
O O18 0.250000 0.750000 0.000000
O O19 0.876351 0.728619 0.796918
O O20 0.938669 0.000000 0.847155
O O21 0.000000 0.751667 0.000000
O O22 0.827339 0.000000 0.777437
#
# Coordination Sequence:
#
# PCOD9202734 Si02
#       8
#     8   8   8   8   8   8   8   8
#     4  11  22  38  61  86 116 160 207 250 305 363
#     4  10  22  38  58  89 125 159 199 254 311 361
#     4  11  22  39  60  84 118 159 205 253 304 362
#     4  10  22  40  64  94 126 164 211 258 307 371
#     4  11  23  40  60  89 128 161 199 253 312 371
#     4  10  20  38  63  89 121 161 207 251 302 371
#     4   9  17  32  54  80 111 148 193 242 289 343
#     4  10  21  37  57  85 117 153 201 248 293 356
#
# _framework density 21.325897999999999
#
# number of rings (size 3 to 8) (size 9 to 14) (size 15 to 20)
#    0.000    1.750    2.500    1.875    0.000    4.750 
#    0.000    1.250    0.000    2.625    0.000    0.000 
#    0.000    0.000    0.000    0.000    0.000    0.000 
#
# Total GULP energy -178629.275359 kJ/mol
# GULP energy per Si atom -5582.164855 kJ/mol
# Density = 2.127736 g / cm^3
# Si number density = 21.325898 Si / 1000 Ang^3
#
#
#
# Elastic Constant Matrix: (Units=GPa)
#
#
# Indices 1 2 3 4 5 6 
#
# 1 69.7115 -4.6573 7.9739 0.0000 9.9549 0.0000
# 2 -4.6573 36.8596 2.6809 0.0000 1.6957 0.0000
# 3 7.9739 2.6809 100.8499 0.0000 1.7628 0.0000
# 4 0.0000 0.0000 0.0000 27.7614 0.0000 -5.0361
# 5 9.9549 1.6957 1.7628 0.0000 37.4270 0.0000
# 6 0.0000 0.0000 0.0000 -5.0361 0.0000 16.7973
#
#
#
# Elastic Compliance Matrix: (Units=1/GPa)
#
#
# Indices 1 2 3 4 5 6 
#
# 1 0.015212 0.002197 -0.001190 0.000000 -0.004090 0.000000
# 2 0.002197 0.027554 -0.000875 0.000000 -0.001791 0.000000
# 3 -0.001190 -0.000875 0.010035 0.000000 -0.000117 0.000000
# 4 0.000000 0.000000 0.000000 0.038093 0.000000 0.011421
# 5 -0.004090 -0.001791 -0.000117 0.000000 0.027893 0.000000
# 6 0.000000 0.000000 0.000000 0.011421 0.000000 0.062957
#
#
# Mechanical properties :
#
#
# Convention : Reuss Voigt Hill
#
# Bulk Modulus (GPa) = 18.84490 24.37955 21.61223
# Shear Modulus (GPa) = 25.10449 29.82539 27.46494
#
# Velocity S-wave (km/s) = 3.43473 3.74378 3.59258
# Velocity P-wave (km/s) = 4.95839 5.49041 5.23117
#
# Compressibility (1/GPa) = 0.05306475
#
# Stress axis : x y z
#
# Youngs Moduli (GPa) = 65.73905 36.29296 99.65046
#
# Poissons Ratio (x) = -0.07973 0.11855
# Poissons Ratio (y) = -0.14441 0.08718
# Poissons Ratio (z) = 0.07821 0.03175
#
# Static dielectric constant tensor:
#      x y z
#    x 1.744660 0.000000 0.034030 
#    y 0.000000 1.808720 0.000000 
#    z 0.034030 0.000000 1.805880 
# 
# From -- ./inp_files/295792.got.cif
#   From: 2010.05.17/outbox.cif.g08.bks.cpg/sg12_148_cif.got.tgz:295792.got - 2010.06.03 13:09:07.
