data_PCOD9202669
_publ_section_title
;
Structure prediction by ZEFSAII (Michael W. Deem and Ramdas Pophale) SiO2 
 PCOD9202669
Probable space group: C 2/M
;
_chemical_formula_sum "Si O2"
_cell_formula_units_Z 48
_cell_length_a 13.903561
_cell_length_b 15.759899
_cell_length_c 17.151075
_cell_angle_alpha 90.000000
_cell_angle_beta 32.588245
_cell_angle_gamma 90.000000
_cell_volume 2024.116500
_symmetry_space_group_name_H-M "C 2/M"
_symmetry_group_IT_number 12
_symmetry_cell_setting 'monoclinic'
loop_
_space_group_symop_operation_xyz
x,y,z
-x,y,-z
-x,-y,-z
x,-y,z
1/2+x,1/2+y,z
1/2-x,1/2+y,-z
1/2-x,1/2-y,-z
1/2+x,1/2-y,z
loop_
_atom_site_type_symbol
_atom_site_label
_atom_site_fract_x
_atom_site_fract_y
_atom_site_fract_z
Si Si1 0.327898 0.176583 0.833953
Si Si2 0.443546 0.500000 0.746942
Si Si3 0.302766 0.152820 0.140736
Si Si4 0.114091 0.676362 0.496946
Si Si5 0.215944 0.000000 0.677214
Si Si6 0.197486 0.500000 0.597494
Si Si7 0.148759 0.324056 0.712826
Si Si8 0.789503 0.500000 0.812141
O O1 0.216218 0.260383 0.894436
O O2 0.483062 0.175287 0.660320
O O3 0.436825 0.178250 0.840171
O O4 0.222631 0.088743 0.893526
O O5 0.336968 0.583616 0.793915
O O6 0.508852 0.500000 0.792050
O O7 0.631741 0.500000 0.573830
O O8 0.289704 0.179038 0.240198
O O9 0.500000 0.114762 0.000000
O O10 0.196001 0.584971 0.419068
O O11 0.266732 0.747210 0.394216
O O12 0.000000 0.700941 0.500000
O O13 0.744689 0.000000 0.257204
O O14 0.209265 0.415048 0.639757
O O15 0.001366 0.500000 0.691257
#
# Coordination Sequence:
#
# PCOD9202669 Si02
#       8
#     8   4   8   8   4   4   8   4
#     4  11  22  39  64  94 126 164 208 251 319 377
#     4  12  26  40  65  96 125 167 211 256 314 387
#     4  12  27  46  63  86 123 172 224 265 299 354
#     4  12  20  34  63  97 133 162 189 247 325 387
#     4  12  21  36  62  98 137 161 192 247 320 389
#     4  10  23  37  66 100 133 156 198 251 328 395
#     4  11  23  41  63  93 129 165 201 260 314 380
#     4  10  20  38  63 100 133 161 190 252 320 386
#
# _framework density 23.71405
#
# number of rings (size 3 to 8) (size 9 to 14) (size 15 to 20)
#    0.000    0.667    3.333    6.000    0.000    1.333 
#    0.000    0.417    0.000    0.000    0.000    0.000 
#    0.000    0.000    0.000    0.000    0.000    0.000 
#
# Total GULP energy -134339.997365 kJ/mol
# GULP energy per Si atom -5597.499890 kJ/mol
# Density = 2.366008 g / cm^3
# Si number density = 23.714050 Si / 1000 Ang^3
#
#
#
# Elastic Constant Matrix: (Units=GPa)
#
#
# Indices 1 2 3 4 5 6 
#
# 1 124.2855 56.8275 26.0607 0.0076 -7.9388 -0.0017
# 2 56.8275 133.2846 14.0985 -0.0001 7.5870 -0.0007
# 3 26.0607 14.0985 41.9000 0.0144 5.2685 -0.0027
# 4 0.0076 -0.0001 0.0144 -106.7864 -0.0012 9.4360
# 5 -7.9388 7.5870 5.2685 -0.0012 26.3879 0.0001
# 6 -0.0017 -0.0007 -0.0027 9.4360 0.0001 41.2028
#
#
#
# Elastic Compliance Matrix: (Units=1/GPa)
#
#
# Indices 1 2 3 4 5 6 
#
# 1 0.012038 -0.004787 -0.006673 0.000000 0.006330 0.000000
# 2 -0.004787 0.009764 0.000232 0.000000 -0.004294 0.000000
# 3 -0.006673 0.000232 0.028926 0.000004 -0.007849 0.000001
# 4 0.000000 0.000000 0.000004 -0.009179 -0.000001 0.002102
# 5 0.006330 -0.004294 -0.007849 -0.000001 0.042602 0.000000
# 6 0.000000 0.000000 0.000001 0.002102 0.000000 0.023789
#
#
# Mechanical properties :
#
#
# Convention : Reuss Voigt Hill
#
# Bulk Modulus (GPa) = 35.37074 54.82705 45.09890
# Shear Modulus (GPa) = 35.76030 5.65976 20.71003
#
# Velocity S-wave (km/s) = 3.88748 1.54656 2.95841
# Velocity P-wave (km/s) = 5.92435 5.13414 5.54334
#
# Compressibility (1/GPa) = 0.02827195
#
# Stress axis : x y z
#
# Youngs Moduli (GPa) = 83.06739 102.42015 34.57153
#
# Poissons Ratio (x) = 0.49031 0.23069
# Poissons Ratio (y) = 0.39766 -0.00803
# Poissons Ratio (z) = 0.55429 -0.02378
#
# Static dielectric constant tensor:
#      x y z
#    x 1.923180 0.000000 0.021710 
#    y 0.000000 1.894990 0.000000 
#    z 0.021710 0.000000 1.917920 
# 
# From -- ./inp_files/271660.got.cif
#   From: 2010.05.17/outbox.cif.g08.bks.cpg/sg12_136_cif.got.tgz:271660.got - 2010.06.03 13:09:07.
