data_PCOD9202332
_publ_section_title
;
Structure prediction by ZEFSAII (Michael W. Deem and Ramdas Pophale) SiO2 
 PCOD9202332
Probable space group: C 2/M
;
_chemical_formula_sum "Si O2"
_cell_formula_units_Z 56
_cell_length_a 15.713026
_cell_length_b 8.203139
_cell_length_c 25.347495
_cell_angle_alpha 90.000000
_cell_angle_beta 60.025747
_cell_angle_gamma 90.000000
_cell_volume 2830.206956
_symmetry_space_group_name_H-M "C 2/M"
_symmetry_group_IT_number 12
_symmetry_cell_setting 'monoclinic'
loop_
_space_group_symop_operation_xyz
x,y,z
-x,y,-z
-x,-y,-z
x,-y,z
1/2+x,1/2+y,z
1/2-x,1/2+y,-z
1/2-x,1/2-y,-z
1/2+x,1/2-y,z
loop_
_atom_site_type_symbol
_atom_site_label
_atom_site_fract_x
_atom_site_fract_y
_atom_site_fract_z
Si Si1 0.416208 0.300882 0.067860
Si Si2 0.417221 0.300519 0.290542
Si Si3 0.525766 0.302652 0.361647
Si Si4 0.304744 0.193664 0.621318
Si Si5 0.777229 0.304488 0.932487
Si Si6 0.999186 0.196406 0.846903
Si Si7 0.646727 0.693555 0.507819
O O1 0.416130 0.500000 0.068367
O O2 0.309825 0.248126 0.079687
O O3 0.446701 0.244593 0.116698
O O4 0.500000 0.251293 0.000000
O O5 0.415770 0.500000 0.290537
O O6 0.490615 0.251380 0.314611
O O7 0.306968 0.245669 0.338620
O O8 0.452080 0.244370 0.222392
O O9 0.527748 0.500000 0.362296
O O10 0.630153 0.239638 0.348680
O O11 0.443553 0.243419 0.429088
O O12 0.355176 0.260276 0.552788
O O13 0.300436 0.000000 0.617203
O O14 0.779013 0.500000 0.930736
O O15 0.884649 0.240578 0.884851
O O16 0.750000 0.250000 0.000000
O O17 0.006432 0.000000 0.844888
O O18 0.643473 0.500000 0.512911
O O19 0.750000 0.750000 0.500000
#
# Coordination Sequence:
#
# PCOD9202332 Si02
#       7
#     8   8   8   8   8   8   8
#     4   9  17  32  55  82 109 142 180 220 275 336
#     4   9  20  39  59  79 112 155 191 228 282 346
#     4  10  21  39  58  82 116 153 190 236 292 345
#     4  11  22  38  59  87 116 149 197 243 284 344
#     4  11  21  35  57  85 115 144 183 234 283 337
#     4  10  20  38  61  81 109 152 192 227 280 342
#     4  11  21  36  60  86 116 152 192 242 298 347
#
# _framework density 19.786539000000001
#
# number of rings (size 3 to 8) (size 9 to 14) (size 15 to 20)
#    0.000    1.857    2.857    1.714    0.000    4.000 
#    0.000    5.714    0.000    0.000    0.000    0.000 
#    0.000    0.000    0.000    0.000    0.000    0.000 
#
# Total GULP energy -156407.031614 kJ/mol
# GULP energy per Si atom -5585.965415 kJ/mol
# Density = 1.974150 g / cm^3
# Si number density = 19.786539 Si / 1000 Ang^3
#
#
#
# Elastic Constant Matrix: (Units=GPa)
#
#
# Indices 1 2 3 4 5 6 
#
# 1 120.9443 -1.8854 24.8969 0.0000 29.9382 0.0000
# 2 -1.8854 12.7386 2.1724 0.0000 4.4116 0.0000
# 3 24.8969 2.1724 101.8016 0.0000 28.9139 0.0000
# 4 0.0000 0.0000 0.0000 15.8724 0.0000 -1.7528
# 5 29.9382 4.4116 28.9139 0.0000 26.3697 0.0000
# 6 0.0000 0.0000 0.0000 -1.7528 0.0000 31.0045
#
#
#
# Elastic Compliance Matrix: (Units=1/GPa)
#
#
# Indices 1 2 3 4 5 6 
#
# 1 0.012239 0.007401 0.001666 0.000000 -0.016960 0.000000
# 2 0.007401 0.088514 0.004202 0.000000 -0.027819 0.000000
# 3 0.001666 0.004202 0.014614 0.000000 -0.018618 0.000000
# 4 0.000000 0.000000 0.000000 0.063398 0.000000 0.003584
# 5 -0.016960 -0.027819 -0.018618 0.000000 0.082246 0.000000
# 6 0.000000 0.000000 0.000000 0.003584 0.000000 0.032456
#
#
# Mechanical properties :
#
#
# Convention : Reuss Voigt Hill
#
# Bulk Modulus (GPa) = 7.04695 31.76137 19.40416
# Shear Modulus (GPa) = 15.91185 28.66935 22.29060
#
# Velocity S-wave (km/s) = 2.83888 3.81061 3.36006
# Velocity P-wave (km/s) = 3.78350 5.95381 4.98812
#
# Compressibility (1/GPa) = 0.14190531
#
# Stress axis : x y z
#
# Youngs Moduli (GPa) = 81.70641 11.29762 68.42778
#
# Poissons Ratio (x) = -0.08361 -0.11399
# Poissons Ratio (y) = -0.60470 -0.28755
# Poissons Ratio (z) = -0.13611 -0.04748
#
# Static dielectric constant tensor:
#      x y z
#    x 1.707560 0.000000 -0.018090 
#    y 0.000000 1.704010 0.000000 
#    z -0.018090 0.000000 1.710840 
# 
# From -- ./inp_files/338524.got.cif
#   From: 2010.05.17/outbox.cif.g08.bks.cpg/sg12_170_cif.got.tgz:338524.got - 2010.06.03 13:09:07.
