data_PCOD9202542
_publ_section_title
;
Structure prediction by ZEFSAII (Michael W. Deem and Ramdas Pophale) SiO2 
 PCOD9202542
Probable space group: C 2/M
;
_chemical_formula_sum "Si O2"
_cell_formula_units_Z 64
_cell_length_a 27.711758
_cell_length_b 16.425977
_cell_length_c 8.521070
_cell_angle_alpha 90.000000
_cell_angle_beta 134.001140
_cell_angle_gamma 90.000000
_cell_volume 2790.070431
_symmetry_space_group_name_H-M "C 2/M"
_symmetry_group_IT_number 12
_symmetry_cell_setting 'monoclinic'
loop_
_space_group_symop_operation_xyz
x,y,z
-x,y,-z
-x,-y,-z
x,-y,z
1/2+x,1/2+y,z
1/2-x,1/2+y,-z
1/2-x,1/2-y,-z
1/2+x,1/2-y,z
loop_
_atom_site_type_symbol
_atom_site_label
_atom_site_fract_x
_atom_site_fract_y
_atom_site_fract_z
Si Si1 0.597973 0.401313 0.044531
Si Si2 0.674121 0.256231 0.396323
Si Si3 0.007223 0.586435 0.203671
Si Si4 0.035804 0.876563 0.424636
Si Si5 0.662899 0.409011 0.861057
Si Si6 0.641481 0.908307 0.151743
Si Si7 0.891758 0.714081 0.440165
Si Si8 0.198232 0.403278 0.957461
O O1 0.607560 0.500000 0.095585
O O2 0.633437 0.336448 0.241729
O O3 0.517399 0.388045 0.835088
O O4 0.629998 0.376140 0.946606
O O5 0.750000 0.250000 0.500000
O O6 0.644347 0.170329 0.266109
O O7 0.661508 0.249818 0.554387
O O8 0.034786 0.500000 0.321624
O O9 0.057094 0.655909 0.356861
O O10 0.931637 0.594452 0.094730
O O11 0.000000 0.584060 0.000000
O O12 0.109656 0.914600 0.598677
O O13 0.059176 0.784707 0.507372
O O14 0.000000 0.909490 0.500000
O O15 0.680693 0.500000 0.948617
O O16 0.731956 0.373123 0.958346
O O17 0.646865 0.000000 0.236285
O O18 0.697205 0.900772 0.143359
O O19 0.855832 0.659705 0.229829
O O20 0.186212 0.500000 0.891935
#
# Coordination Sequence:
#
# PCOD9202542 Si02
#       8
#     8   8   8   8   8   8   8   8
#     4  10  22  44  69  93 129 172 222 275 322 383
#     4  12  27  43  64  98 132 176 217 262 328 396
#     4  10  20  38  62  86 119 167 214 259 314 382
#     4  10  23  38  64  96 122 167 213 271 331 376
#     4   9  19  40  66  92 122 163 216 269 327 390
#     4  10  23  42  66  93 130 171 213 270 325 385
#     4  12  25  38  62  94 131 169 212 267 323 393
#     4  10  23  40  64  97 130 169 214 268 332 395
#
# _framework density 22.938488
#
# number of rings (size 3 to 8) (size 9 to 14) (size 15 to 20)
#    0.000    1.625    1.250    2.250    7.000    3.000 
#    0.000    3.750    0.000    0.000    0.000    0.000 
#    0.000    0.000    0.000    0.000    0.000    0.000 
#
# Total GULP energy -178353.470765 kJ/mol
# GULP energy per Si atom -5573.545961 kJ/mol
# Density = 2.288628 g / cm^3
# Si number density = 22.938488 Si / 1000 Ang^3
#
#
#
# Elastic Constant Matrix: (Units=GPa)
#
#
# Indices 1 2 3 4 5 6 
#
# 1 62.6329 18.6437 -4.8793 0.0000 3.8077 0.0000
# 2 18.6437 158.5146 46.7765 0.0000 -1.8666 0.0000
# 3 -4.8793 46.7765 40.1283 0.0000 2.2143 0.0000
# 4 0.0000 0.0000 0.0000 9.3499 0.0000 21.0933
# 5 3.8077 -1.8666 2.2143 0.0000 24.3212 0.0000
# 6 0.0000 0.0000 0.0000 21.0933 0.0000 9.5386
#
#
#
# Elastic Compliance Matrix: (Units=1/GPa)
#
#
# Indices 1 2 3 4 5 6 
#
# 1 0.018098 -0.004400 0.007542 0.000000 -0.003858 0.000000
# 2 -0.004400 0.010762 -0.013230 0.000000 0.002719 0.000000
# 3 0.007542 -0.013230 0.041589 0.000000 -0.005983 0.000000
# 4 0.000000 0.000000 0.000000 -0.026813 0.000000 0.059294
# 5 -0.003858 0.002719 -0.005983 0.000000 0.042474 0.000000
# 6 0.000000 0.000000 0.000000 0.059294 0.000000 -0.026283
#
#
# Mechanical properties :
#
#
# Convention : Reuss Voigt Hill
#
# Bulk Modulus (GPa) = 19.89127 42.48418 31.18773
# Shear Modulus (GPa) = 51.67409 22.02425 36.84917
#
# Velocity S-wave (km/s) = 4.75144 3.10198 4.01238
# Velocity P-wave (km/s) = 6.22832 5.60275 5.92380
#
# Compressibility (1/GPa) = 0.05027330
#
# Stress axis : x y z
#
# Youngs Moduli (GPa) = 55.25567 92.91825 24.04472
#
# Poissons Ratio (x) = 0.40879 -0.18134
# Poissons Ratio (y) = 0.24310 0.31811
# Poissons Ratio (z) = -0.41673 1.22932
#
# Static dielectric constant tensor:
#      x y z
#    x 1.927130 0.000000 0.005650 
#    y 0.000000 1.586800 0.000000 
#    z 0.005650 0.000000 1.856690 
# 
# From -- ./inp_files/112907.got.cif
#   From: 2010.05.17/outbox.cif.g08.bks.cpg/sg12_57_cif.got.tgz:112907.got - 2010.06.03 13:09:07.
