data_PCOD9202741
_publ_section_title
;
Structure prediction by ZEFSAII (Michael W. Deem and Ramdas Pophale) SiO2 
 PCOD9202741
Probable space group: C 2/M
;
_chemical_formula_sum "Si O2"
_cell_formula_units_Z 48
_cell_length_a 14.888719
_cell_length_b 8.606570
_cell_length_c 29.357542
_cell_angle_alpha 90.000000
_cell_angle_beta 38.344586
_cell_angle_gamma 90.000000
_cell_volume 2333.842764
_symmetry_space_group_name_H-M "C 2/M"
_symmetry_group_IT_number 12
_symmetry_cell_setting 'monoclinic'
loop_
_space_group_symop_operation_xyz
x,y,z
-x,y,-z
-x,-y,-z
x,-y,z
1/2+x,1/2+y,z
1/2-x,1/2+y,-z
1/2-x,1/2-y,-z
1/2+x,1/2-y,z
loop_
_atom_site_type_symbol
_atom_site_label
_atom_site_fract_x
_atom_site_fract_y
_atom_site_fract_z
Si Si1 0.901737 0.814537 0.422324
Si Si2 0.549416 0.689126 0.700954
Si Si3 0.405656 0.684058 0.169313
Si Si4 0.194851 0.685891 0.333810
Si Si5 0.268592 0.814058 0.136228
Si Si6 0.709549 0.182701 0.065240
O O1 0.750000 0.750000 0.500000
O O2 0.931712 0.759714 0.358569
O O3 0.037859 0.761116 0.398299
O O4 0.895644 0.000000 0.424170
O O5 0.549656 0.500000 0.701765
O O6 0.686322 0.739781 0.676727
O O7 0.394587 0.734501 0.783593
O O8 0.436558 0.500000 0.160130
O O9 0.266444 0.717743 0.255977
O O10 0.374935 0.734478 0.130025
O O11 0.539781 0.776935 0.136531
O O12 0.179520 0.500000 0.344427
O O13 0.288712 0.762951 0.076228
O O14 0.280794 0.000000 0.135231
O O15 0.735531 0.000000 0.056079
O O16 0.750000 0.250000 0.000000
#
# Coordination Sequence:
#
# PCOD9202741 Si02
#       6
#     8   8   8   8   8   8
#     4  11  23  40  60  88 124 163 204 254 312 370
#     4   9  19  37  62  88 119 161 204 247 306 371
#     4  11  22  39  65  97 128 163 208 259 312 375
#     4  10  20  38  63  90 119 158 205 254 304 366
#     4  11  21  40  66  95 127 164 209 258 312 375
#     4  12  26  44  65  94 129 168 209 259 317 372
#
# _framework density 20.566938
#
# number of rings (size 3 to 8) (size 9 to 14) (size 15 to 20)
#    0.000    1.333    3.333    3.000    0.000    2.000 
#    0.000    8.333    0.000    0.000    0.000    0.000 
#    0.000    0.000    0.000    0.000    0.000    0.000 
#
# Total GULP energy -134196.125879 kJ/mol
# GULP energy per Si atom -5591.505245 kJ/mol
# Density = 2.052013 g / cm^3
# Si number density = 20.566938 Si / 1000 Ang^3
#
#
#
# Elastic Constant Matrix: (Units=GPa)
#
#
# Indices 1 2 3 4 5 6 
#
# 1 72.2597 -7.7458 -21.9158 0.0000 15.0560 -0.0002
# 2 -7.7458 37.0539 5.4180 0.0000 0.8036 -0.0003
# 3 -21.9158 5.4180 33.0334 0.0000 6.9741 0.0001
# 4 0.0000 0.0000 0.0000 28.3604 0.0000 -2.2934
# 5 15.0560 0.8036 6.9741 0.0000 27.6436 0.0000
# 6 -0.0002 -0.0003 0.0001 -2.2934 0.0000 32.3740
#
#
#
# Elastic Compliance Matrix: (Units=1/GPa)
#
#
# Indices 1 2 3 4 5 6 
#
# 1 0.023531 0.002535 0.018925 0.000000 -0.017664 0.000000
# 2 0.002535 0.027927 -0.002573 0.000000 -0.001543 0.000000
# 3 0.018925 -0.002573 0.047965 0.000000 -0.022334 0.000000
# 4 0.000000 0.000000 0.000000 0.035464 0.000000 0.002512
# 5 -0.017664 -0.001543 -0.022334 0.000000 0.051475 0.000000
# 6 0.000000 0.000000 0.000000 0.002512 0.000000 0.031067
#
#
# Mechanical properties :
#
#
# Convention : Reuss Voigt Hill
#
# Bulk Modulus (GPa) = 7.28874 10.42887 8.85881
# Shear Modulus (GPa) = 22.18399 28.78165 25.48282
#
# Velocity S-wave (km/s) = 3.28780 3.74493 3.52379
# Velocity P-wave (km/s) = 4.23845 4.87658 4.56867
#
# Compressibility (1/GPa) = 0.13719787
#
# Stress axis : x y z
#
# Youngs Moduli (GPa) = 42.49694 35.80730 20.84840
#
# Poissons Ratio (x) = -0.09077 -0.39456
# Poissons Ratio (y) = -0.10772 0.05364
# Poissons Ratio (z) = -0.80426 0.09213
#
# Static dielectric constant tensor:
#      x y z
#    x 1.729320 0.000000 0.001760 
#    y 0.000000 1.699040 0.000000 
#    z 0.001760 0.000000 1.749080 
# 
# From -- ./inp_files/308274.got.cif
#   From: 2010.05.17/outbox.cif.g08.bks.cpg/sg12_155_cif.got.tgz:308274.got - 2010.06.03 13:09:07.
