data_PCOD9202494
_publ_section_title
;
Structure prediction by ZEFSAII (Michael W. Deem and Ramdas Pophale) SiO2 
 PCOD9202494
Probable space group: C 2/M
;
_chemical_formula_sum "Si O2"
_cell_formula_units_Z 56
_cell_length_a 20.964274
_cell_length_b 8.487454
_cell_length_c 28.501739
_cell_angle_alpha 90.000000
_cell_angle_beta 145.000386
_cell_angle_gamma 90.000000
_cell_volume 2908.812597
_symmetry_space_group_name_H-M "C 2/M"
_symmetry_group_IT_number 12
_symmetry_cell_setting 'monoclinic'
loop_
_space_group_symop_operation_xyz
x,y,z
-x,y,-z
-x,-y,-z
x,-y,z
1/2+x,1/2+y,z
1/2-x,1/2+y,-z
1/2-x,1/2-y,-z
1/2+x,1/2-y,z
loop_
_atom_site_type_symbol
_atom_site_label
_atom_site_fract_x
_atom_site_fract_y
_atom_site_fract_z
Si Si1 0.036609 0.809655 0.255302
Si Si2 0.564856 0.308071 0.992024
Si Si3 0.397983 0.690985 0.810053
Si Si4 0.188359 0.311327 0.836639
Si Si5 0.758672 0.811465 0.558027
Si Si6 0.466130 0.309494 0.532119
Si Si7 0.172821 0.811116 0.721176
O O1 0.073638 0.759397 0.225643
O O2 0.128760 0.756131 0.348490
O O3 0.915660 0.750431 0.196719
O O4 0.034874 0.000000 0.254754
O O5 0.565589 0.500000 0.992629
O O6 0.692384 0.255242 0.071702
O O7 0.500000 0.258079 0.000000
O O8 0.494874 0.258980 0.904505
O O9 0.391661 0.500000 0.807357
O O10 0.281329 0.756636 0.758150
O O11 0.188441 0.500000 0.837581
O O12 0.177174 0.257114 0.776067
O O13 0.750000 0.750000 0.500000
O O14 0.651919 0.756766 0.523093
O O15 0.761085 0.000000 0.558290
O O16 0.500000 0.260448 0.500000
O O17 0.459955 0.500000 0.528994
O O18 0.562173 0.260887 0.626523
O O19 0.171821 0.000000 0.723561
#
# Coordination Sequence:
#
# PCOD9202494 Si02
#       7
#     8   8   8   8   8   8   8
#     4  10  23  40  57  84 119 149 184 237 290 330
#     4   9  17  34  59  86 113 144 188 233 273 329
#     4  10  20  38  62  83 113 155 189 227 284 339
#     4  11  22  37  60  85 112 151 193 229 274 338
#     4  11  23  39  59  83 113 151 193 235 281 336
#     4  10  22  39  58  82 114 149 185 233 289 337
#     4  11  22  36  57  86 116 145 186 239 285 330
#
# _framework density 19.251842
#
# number of rings (size 3 to 8) (size 9 to 14) (size 15 to 20)
#    0.000    1.714    1.429    3.000    0.000    7.143 
#    0.000    2.143    0.000    0.000    0.000    0.000 
#    0.000    0.000    0.000    0.000    0.000    0.000 
#
# Total GULP energy -156493.704629 kJ/mol
# GULP energy per Si atom -5589.060880 kJ/mol
# Density = 1.920802 g / cm^3
# Si number density = 19.251842 Si / 1000 Ang^3
#
#
#
# Elastic Constant Matrix: (Units=GPa)
#
#
# Indices 1 2 3 4 5 6 
#
# 1 91.2767 11.3815 7.8351 0.0000 10.3583 0.0000
# 2 11.3815 13.3064 12.9746 0.0000 0.0317 0.0002
# 3 7.8351 12.9746 98.5146 0.0000 12.6122 0.0000
# 4 0.0000 0.0000 0.0000 21.8964 0.0000 6.9899
# 5 10.3583 0.0317 12.6122 0.0000 38.0223 0.0000
# 6 0.0000 0.0002 0.0000 6.9899 0.0000 36.5147
#
#
#
# Elastic Compliance Matrix: (Units=1/GPa)
#
#
# Indices 1 2 3 4 5 6 
#
# 1 0.012790 -0.011950 0.001046 0.000000 -0.003821 0.000000
# 2 -0.011950 0.097936 -0.012902 0.000000 0.007454 -0.000001
# 3 0.001046 -0.012902 0.012325 0.000000 -0.004363 0.000000
# 4 0.000000 0.000000 0.000000 0.048642 0.000000 -0.009311
# 5 -0.003821 0.007454 -0.004363 0.000000 0.028782 0.000000
# 6 0.000000 -0.000001 0.000000 -0.009311 0.000000 0.029169
#
#
# Mechanical properties :
#
#
# Convention : Reuss Voigt Hill
#
# Bulk Modulus (GPa) = 13.25597 29.72003 21.48800
# Shear Modulus (GPa) = 16.53427 30.68046 23.60736
#
# Velocity S-wave (km/s) = 2.93378 3.99637 3.50557
# Velocity P-wave (km/s) = 4.28679 6.06347 5.25082
#
# Compressibility (1/GPa) = 0.07543772
#
# Stress axis : x y z
#
# Youngs Moduli (GPa) = 78.18812 10.21079 81.13369
#
# Poissons Ratio (x) = 0.12202 -0.08486
# Poissons Ratio (y) = 0.93436 1.04680
# Poissons Ratio (z) = -0.08177 0.13174
#
# Static dielectric constant tensor:
#      x y z
#    x 1.624350 0.000000 -0.003910 
#    y 0.000000 1.663550 0.000000 
#    z -0.003910 0.000000 1.656230 
# 
# From -- ./inp_files/363238.got.cif
#   From: 2010.05.17/outbox.cif.g08.bks.cpg/sg12_182_cif.got.tgz:363238.got - 2010.06.03 13:09:07.
