data_PCOD9202763
_publ_section_title
;
Structure prediction by ZEFSAII (Michael W. Deem and Ramdas Pophale) SiO2 
 PCOD9202763
Probable space group: C 2/M
;
_chemical_formula_sum "Si O2"
_cell_formula_units_Z 32
_cell_length_a 28.150409
_cell_length_b 14.015385
_cell_length_c 9.497540
_cell_angle_alpha 90.000000
_cell_angle_beta 155.176502
_cell_angle_gamma 90.000000
_cell_volume 1573.144040
_symmetry_space_group_name_H-M "C 2/M"
_symmetry_group_IT_number 12
_symmetry_cell_setting 'monoclinic'
loop_
_space_group_symop_operation_xyz
x,y,z
-x,y,-z
-x,-y,-z
x,-y,z
1/2+x,1/2+y,z
1/2-x,1/2+y,-z
1/2-x,1/2-y,-z
1/2+x,1/2-y,z
loop_
_atom_site_type_symbol
_atom_site_label
_atom_site_fract_x
_atom_site_fract_y
_atom_site_fract_z
Si Si1 0.379109 0.107635 0.735759
Si Si2 0.692015 0.278425 0.075989
Si Si3 0.015082 0.645815 0.697865
Si Si4 0.261469 0.112374 0.006873
O O1 0.277746 0.175195 0.416679
O O2 0.358664 0.000000 0.627065
O O3 0.500000 0.141506 0.000000
O O4 0.401287 0.102833 0.962495
O O5 0.680307 0.349305 0.911411
O O6 0.573534 0.247796 0.826111
O O7 0.742168 0.180735 0.139863
O O8 0.000000 0.603518 0.500000
O O9 0.887216 0.636033 0.407553
O O10 0.250806 0.000000 0.951277
#
# Coordination Sequence:
#
# PCOD9202763 Si02
#       4
#     8   8   8   8
#     4  11  21  36  61  91 120 154 199 249 293 348
#     4  10  21  35  58  93 121 155 191 250 302 343
#     4  10  21  36  58  91 119 149 194 246 295 343
#     4  10  20  38  63  91 119 153 201 246 293 352
#
# _framework density 20.341432000000001
#
# number of rings (size 3 to 8) (size 9 to 14) (size 15 to 20)
#    0.000    1.750    2.500    2.250    0.000    9.000 
#    0.000    0.000    0.000   50.250    0.000    0.000 
#    0.000    0.000    0.000    0.000    0.000    0.000 
#
# Total GULP energy -89124.604799 kJ/mol
# GULP energy per Si atom -5570.287800 kJ/mol
# Density = 2.029513 g / cm^3
# Si number density = 20.341432 Si / 1000 Ang^3
#
#
#
# Elastic Constant Matrix: (Units=GPa)
#
#
# Indices 1 2 3 4 5 6 
#
# 1 41.1333 15.2564 12.1455 0.0000 -10.4895 0.0000
# 2 15.2564 125.4050 55.8512 0.0000 -0.8144 0.0000
# 3 12.1455 55.8512 98.5419 0.0000 -22.9976 0.0000
# 4 0.0000 0.0000 0.0000 15.3580 0.0000 -7.3156
# 5 -10.4895 -0.8144 -22.9976 0.0000 36.8700 0.0000
# 6 0.0000 0.0000 0.0000 -7.3156 0.0000 14.1650
#
#
#
# Elastic Compliance Matrix: (Units=1/GPa)
#
#
# Indices 1 2 3 4 5 6 
#
# 1 0.027525 -0.003507 0.000474 0.000000 0.008049 0.000000
# 2 -0.003507 0.011682 -0.007445 0.000000 -0.005384 0.000000
# 3 0.000474 -0.007445 0.016739 0.000000 0.010411 0.000000
# 4 0.000000 0.000000 0.000000 0.086357 0.000000 0.044599
# 5 0.008049 -0.005384 0.010411 0.000000 0.035787 0.000000
# 6 0.000000 0.000000 0.000000 0.044599 0.000000 0.093630
#
#
# Mechanical properties :
#
#
# Convention : Reuss Voigt Hill
#
# Bulk Modulus (GPa) = 28.58096 47.95406 38.26751
# Shear Modulus (GPa) = 16.42902 25.40040 20.91471
#
# Velocity S-wave (km/s) = 2.84502 3.53753 3.21001
# Velocity P-wave (km/s) = 4.98732 6.34912 5.70897
#
# Compressibility (1/GPa) = 0.03498832
#
# Stress axis : x y z
#
# Youngs Moduli (GPa) = 36.33097 85.60429 59.74069
#
# Poissons Ratio (x) = 0.30024 -0.02831
# Poissons Ratio (y) = 0.12743 0.44477
# Poissons Ratio (z) = -0.01721 0.63733
#
# Static dielectric constant tensor:
#      x y z
#    x 1.861750 0.000000 -0.006460 
#    y 0.000000 1.745900 0.000000 
#    z -0.006460 0.000000 1.729200 
# 
# From -- ./inp_files/58727.got.cif
#   From: 2010.05.17/outbox.cif.g08.bks.cpg/sg12_30_cif.got.tgz:58727.got - 2010.06.03 13:09:07.
