data_PCOD9202069
_publ_section_title
;
Structure prediction by ZEFSAII (Michael W. Deem and Ramdas Pophale) SiO2 
 PCOD9202069
Probable space group: C 2/M
;
_chemical_formula_sum "Si O2"
_cell_formula_units_Z 48
_cell_length_a 11.511805
_cell_length_b 11.111450
_cell_length_c 27.897464
_cell_angle_alpha 90.000000
_cell_angle_beta 39.718333
_cell_angle_gamma 90.000000
_cell_volume 2280.285574
_symmetry_space_group_name_H-M "C 2/M"
_symmetry_group_IT_number 12
_symmetry_cell_setting 'monoclinic'
loop_
_space_group_symop_operation_xyz
x,y,z
-x,y,-z
-x,-y,-z
x,-y,z
1/2+x,1/2+y,z
1/2-x,1/2+y,-z
1/2-x,1/2-y,-z
1/2+x,1/2-y,z
loop_
_atom_site_type_symbol
_atom_site_label
_atom_site_fract_x
_atom_site_fract_y
_atom_site_fract_z
Si Si1 0.265921 0.366974 0.190434
Si Si2 0.250512 0.134067 0.696274
Si Si3 0.314147 0.370679 0.841073
Si Si4 0.291448 0.000000 0.542758
Si Si5 0.787814 0.000000 0.547283
Si Si6 0.298399 0.368972 0.955242
Si Si7 0.793296 0.748071 0.584547
O O1 0.196378 0.500000 0.197981
O O2 0.196482 0.340827 0.266081
O O3 0.225913 0.252446 0.171872
O O4 0.483978 0.374574 0.118985
O O5 0.297560 0.228436 0.640260
O O6 0.032672 0.124731 0.769495
O O7 0.319502 0.000000 0.660727
O O8 0.249027 0.500000 0.841541
O O9 0.237974 0.361700 0.919167
O O10 0.500000 0.000000 0.500000
O O11 0.209433 0.125243 0.589107
O O12 0.253055 0.000000 0.497298
O O13 0.712503 0.874445 0.592434
O O14 0.000000 0.000000 0.500000
O O15 0.237880 0.500000 0.994512
O O16 0.250000 0.250000 0.000000
O O17 0.000000 0.749381 0.500000
#
# Coordination Sequence:
#
# PCOD9202069 Si02
#       7
#     8   8   8   4   4   8   8
#     4   9  19  37  57  78 111 147 184 226 269 330
#     4   9  18  38  57  76 109 148 188 223 280 342
#     4   9  19  37  54  78 110 147 184 224 278 334
#     4  10  20  38  62  82 106 152 199 232 289 366
#     4  10  22  40  54  82 124 146 175 250 315 348
#     4   9  19  35  57  80 111 147 180 225 275 329
#     4  10  20  38  58  81 111 147 190 242 295 348
#
# _framework density 21.049994999999999
#
# number of rings (size 3 to 8) (size 9 to 14) (size 15 to 20)
#    0.000    2.667    0.833    2.500    0.000    2.000 
#   15.000    5.000    0.000    0.000    0.000    0.000 
#    0.000    0.000    0.000    0.000    0.000    0.000 
#
# Total GULP energy -133664.081822 kJ/mol
# GULP energy per Si atom -5569.336743 kJ/mol
# Density = 2.100208 g / cm^3
# Si number density = 21.049995 Si / 1000 Ang^3
#
#
#
# Elastic Constant Matrix: (Units=GPa)
#
#
# Indices 1 2 3 4 5 6 
#
# 1 58.9837 52.1047 19.8143 0.0000 13.1114 0.0000
# 2 52.1047 248.4133 62.9133 0.0001 46.0824 0.0000
# 3 19.8143 62.9133 93.5644 0.0001 11.7808 0.0000
# 4 0.0000 0.0001 0.0001 24.1254 -0.0001 16.5219
# 5 13.1114 46.0824 11.7808 -0.0001 30.3448 0.0000
# 6 0.0000 0.0000 0.0000 16.5219 0.0000 18.0772
#
#
#
# Elastic Compliance Matrix: (Units=1/GPa)
#
#
# Indices 1 2 3 4 5 6 
#
# 1 0.021300 -0.003386 -0.001811 0.000000 -0.003358 0.000000
# 2 -0.003386 0.006963 -0.002962 0.000000 -0.007961 0.000000
# 3 -0.001811 -0.002962 0.013036 0.000000 0.000221 0.000000
# 4 0.000000 0.000000 0.000000 0.110802 0.000000 -0.101268
# 5 -0.003358 -0.007961 0.000221 0.000000 0.046409 0.000000
# 6 0.000000 0.000000 0.000000 -0.101268 0.000000 0.147873
#
#
# Mechanical properties :
#
#
# Convention : Reuss Voigt Hill
#
# Bulk Modulus (GPa) = 40.03347 74.51400 57.27373
# Shear Modulus (GPa) = 13.47606 32.25143 22.86374
#
# Velocity S-wave (km/s) = 2.53295 3.91850 3.29928
# Velocity P-wave (km/s) = 5.25490 7.47986 6.46383
#
# Compressibility (1/GPa) = 0.02497910
#
# Stress axis : x y z
#
# Youngs Moduli (GPa) = 46.94872 143.62029 76.71331
#
# Poissons Ratio (x) = 0.48630 0.13894
# Poissons Ratio (y) = 0.15897 0.22726
# Poissons Ratio (z) = 0.08503 0.42546
#
# Static dielectric constant tensor:
#      x y z
#    x 1.855610 0.000000 -0.031140 
#    y 0.000000 1.854100 0.000000 
#    z -0.031140 0.000000 1.762490 
# 
# From -- ./inp_files/335097.got.cif
#   From: 2010.05.17/outbox.cif.g08.bks.cpg/sg12_168_cif.got.tgz:335097.got - 2010.06.03 13:09:07.
