data_PCOD9202038
_publ_section_title
;
Structure prediction by ZEFSAII (Michael W. Deem and Ramdas Pophale) SiO2 
 PCOD9202038
Probable space group: C 2/M
;
_chemical_formula_sum "Si O2"
_cell_formula_units_Z 48
_cell_length_a 20.895041
_cell_length_b 22.587607
_cell_length_c 16.135186
_cell_angle_alpha 90.000000
_cell_angle_beta 164.055077
_cell_angle_gamma 90.000000
_cell_volume 2092.025344
_symmetry_space_group_name_H-M "C 2/M"
_symmetry_group_IT_number 12
_symmetry_cell_setting 'monoclinic'
loop_
_space_group_symop_operation_xyz
x,y,z
-x,y,-z
-x,-y,-z
x,-y,z
1/2+x,1/2+y,z
1/2-x,1/2+y,-z
1/2-x,1/2-y,-z
1/2+x,1/2-y,z
loop_
_atom_site_type_symbol
_atom_site_label
_atom_site_fract_x
_atom_site_fract_y
_atom_site_fract_z
Si Si1 0.521431 0.753106 0.359621
Si Si2 0.660142 0.431058 0.398698
Si Si3 0.684746 0.570228 0.159342
Si Si4 0.146528 0.148708 0.753731
Si Si5 0.896889 0.328825 0.780030
Si Si6 0.491007 0.890045 0.310346
O O1 0.514386 0.705268 0.425275
O O2 0.713074 0.723779 0.539569
O O3 0.570248 0.822260 0.427421
O O4 0.250000 0.750000 0.000000
O O5 0.640871 0.500000 0.397637
O O6 0.757569 0.389635 0.591838
O O7 0.850579 0.423231 0.561428
O O8 0.422090 0.406540 0.060043
O O9 0.654341 0.500000 0.114333
O O10 0.938657 0.580211 0.514867
O O11 0.500000 0.591347 0.000000
O O12 0.000000 0.114819 0.500000
O O13 0.390938 0.171087 0.020020
O O14 0.237731 0.114634 0.950075
O O15 0.000000 0.325563 0.000000
#
# Coordination Sequence:
#
# PCOD9202038 Si02
#       6
#     8   8   8   8   8   8
#     4  10  22  39  58  92 128 159 204 252 307 373
#     4   9  19  35  58  90 122 157 212 264 304 367
#     4   8  14  30  53  81 114 148 194 257 308 354
#     4  10  20  38  57  85 128 165 199 254 304 365
#     4  11  22  38  64  90 125 172 204 249 315 373
#     4   9  18  32  57  86 117 158 199 244 307 370
#
# _framework density 22.944272999999999
#
# number of rings (size 3 to 8) (size 9 to 14) (size 15 to 20)
#    0.000    2.500    1.667    1.500    0.000    8.333 
#    6.000    0.000    0.000   25.500    0.000    9.333 
#    0.000    0.000    0.000    0.000    0.000    0.000 
#
# Total GULP energy -133646.121864 kJ/mol
# GULP energy per Si atom -5568.588411 kJ/mol
# Density = 2.289205 g / cm^3
# Si number density = 22.944273 Si / 1000 Ang^3
#
#
#
# Elastic Constant Matrix: (Units=GPa)
#
#
# Indices 1 2 3 4 5 6 
#
# 1 65.2580 -10.5994 37.8387 0.0005 4.7553 0.0005
# 2 -10.5994 38.6539 25.6050 -0.0007 -11.3547 -0.0005
# 3 37.8387 25.6050 152.4167 -0.0001 -9.3131 0.0004
# 4 0.0005 -0.0007 -0.0001 18.8469 0.0005 -19.4514
# 5 4.7553 -11.3547 -9.3131 0.0005 46.6642 0.0006
# 6 0.0005 -0.0005 0.0004 -19.4514 0.0006 3.2473
#
#
#
# Elastic Compliance Matrix: (Units=1/GPa)
#
#
# Indices 1 2 3 4 5 6 
#
# 1 0.021106 0.010107 -0.007004 0.000000 -0.001089 0.000000
# 2 0.010107 0.035826 -0.008157 -0.000001 0.006059 -0.000002
# 3 -0.007004 -0.008157 0.009711 0.000000 0.000667 0.000000
# 4 0.000000 -0.000001 0.000000 -0.010239 0.000001 -0.061331
# 5 -0.001089 0.006059 0.000667 0.000001 0.023148 0.000001
# 6 0.000000 -0.000002 0.000000 -0.061331 0.000001 -0.059425
#
#
# Mechanical properties :
#
#
# Convention : Reuss Voigt Hill
#
# Bulk Modulus (GPa) = 17.68846 40.22415 28.95631
# Shear Modulus (GPa) = 101.87236 27.31731 64.59484
#
# Velocity S-wave (km/s) = 6.67055 3.45424 5.31169
# Velocity P-wave (km/s) = 8.18868 5.78605 7.08988
#
# Compressibility (1/GPa) = 0.05653405
#
# Stress axis : x y z
#
# Youngs Moduli (GPa) = 47.37955 27.91285 102.97605
#
# Poissons Ratio (x) = -0.28212 0.72128
# Poissons Ratio (y) = -0.47888 0.84003
# Poissons Ratio (z) = 0.33186 0.22770
#
# Static dielectric constant tensor:
#      x y z
#    x 1.966420 0.000000 -0.004480 
#    y 0.000000 1.820730 0.000000 
#    z -0.004480 0.000000 1.938010 
# 
# From -- ./inp_files/330591.got.cif
#   From: 2010.05.17/outbox.cif.g08.bks.cpg/sg12_166_cif.got.tgz:330591.got - 2010.06.03 13:09:07.
