data_PCOD9202420
_publ_section_title
;
Structure prediction by ZEFSAII (Michael W. Deem and Ramdas Pophale) SiO2 
 PCOD9202420
Probable space group: C 2/M
;
_chemical_formula_sum "Si O2"
_cell_formula_units_Z 56
_cell_length_a 14.773169
_cell_length_b 8.480091
_cell_length_c 30.553736
_cell_angle_alpha 90.000000
_cell_angle_beta 52.512103
_cell_angle_gamma 90.000000
_cell_volume 3037.214983
_symmetry_space_group_name_H-M "C 2/M"
_symmetry_group_IT_number 12
_symmetry_cell_setting 'monoclinic'
loop_
_space_group_symop_operation_xyz
x,y,z
-x,y,-z
-x,-y,-z
x,-y,z
1/2+x,1/2+y,z
1/2-x,1/2+y,-z
1/2-x,1/2-y,-z
1/2+x,1/2-y,z
loop_
_atom_site_type_symbol
_atom_site_label
_atom_site_fract_x
_atom_site_fract_y
_atom_site_fract_z
Si Si1 0.641365 0.813945 0.058817
Si Si2 0.191561 0.186892 0.138716
Si Si3 0.284497 0.689444 0.354193
Si Si4 0.439987 0.686070 0.063563
Si Si5 0.827250 0.688188 0.437832
Si Si6 0.918542 0.810470 0.647377
Si Si7 0.956191 0.191487 0.734962
O O1 0.658008 0.778401 0.104798
O O2 0.531525 0.722837 0.073654
O O3 0.630155 0.000000 0.054152
O O4 0.750000 0.750000 0.000000
O O5 0.325324 0.218433 0.105488
O O6 0.120065 0.242535 0.201824
O O7 0.171749 0.000000 0.138255
O O8 0.281786 0.500000 0.356276
O O9 0.278294 0.752253 0.405670
O O10 0.183238 0.748747 0.353019
O O11 0.411042 0.739220 0.300484
O O12 0.413434 0.500000 0.069004
O O13 0.500000 0.731198 0.000000
O O14 0.829518 0.500000 0.437205
O O15 0.750000 0.750000 0.500000
O O16 0.956590 0.751882 0.404141
O O17 0.909415 0.758540 0.701086
O O18 0.918013 0.000000 0.646435
O O19 0.954493 0.000000 0.735297
#
# Coordination Sequence:
#
# PCOD9202420 Si02
#       7
#     8   8   8   8   8   8   8
#     4  12  24  39  59  84 112 147 186 230 284 345
#     4  11  22  39  62  88 117 150 189 237 291 348
#     4  10  20  38  61  87 119 157 197 241 291 343
#     4  11  23  39  59  83 113 147 187 231 282 343
#     4  11  22  38  59  88 122 159 200 244 293 343
#     4  10  20  38  61  87 119 156 197 242 290 342
#     4   8  19  38  59  84 117 152 191 240 291 343
#
# _framework density 18.437944999999999
#
# number of rings (size 3 to 8) (size 9 to 14) (size 15 to 20)
#    0.000    1.571    1.429    5.143    0.000    2.286 
#    0.000   14.286    0.000    0.000    0.000    0.000 
#    0.000    0.000    0.000    0.000    0.000    0.000 
#
# Total GULP energy -156428.665791 kJ/mol
# GULP energy per Si atom -5586.738064 kJ/mol
# Density = 1.839598 g / cm^3
# Si number density = 18.437945 Si / 1000 Ang^3
#
#
#
# Elastic Constant Matrix: (Units=GPa)
#
#
# Indices 1 2 3 4 5 6 
#
# 1 150.6732 16.0495 68.5269 0.0000 5.1787 0.0000
# 2 16.0495 68.5439 29.4666 0.0000 2.2102 -0.0001
# 3 68.5269 29.4666 163.9800 0.0000 7.7706 0.0000
# 4 0.0000 0.0000 0.0000 24.0503 0.0000 0.8222
# 5 5.1787 2.2102 7.7706 0.0000 11.5680 0.0000
# 6 0.0000 -0.0001 0.0000 0.8222 0.0000 32.9329
#
#
#
# Elastic Compliance Matrix: (Units=1/GPa)
#
#
# Indices 1 2 3 4 5 6 
#
# 1 0.008231 -0.000468 -0.003290 0.000000 -0.001385 0.000000
# 2 -0.000468 0.015852 -0.002602 0.000000 -0.001071 0.000000
# 3 -0.003290 -0.002602 0.008105 0.000000 -0.003475 0.000000
# 4 0.000000 0.000000 0.000000 0.041615 0.000000 -0.001039
# 5 -0.001385 -0.001071 -0.003475 0.000000 0.089605 0.000000
# 6 0.000000 0.000000 0.000000 -0.001039 0.000000 0.030391
#
#
# Mechanical properties :
#
#
# Convention : Reuss Voigt Hill
#
# Bulk Modulus (GPa) = 51.36721 67.92035 59.64378
# Shear Modulus (GPa) = 23.47332 31.65382 27.56357
#
# Velocity S-wave (km/s) = 3.57192 4.14789 3.87064
# Velocity P-wave (km/s) = 6.70310 7.73675 7.23840
#
# Compressibility (1/GPa) = 0.01946767
#
# Stress axis : x y z
#
# Youngs Moduli (GPa) = 121.49835 63.08349 123.37558
#
# Poissons Ratio (x) = 0.02954 0.40587
# Poissons Ratio (y) = 0.05689 0.32104
# Poissons Ratio (z) = 0.39970 0.16415
#
# Static dielectric constant tensor:
#      x y z
#    x 1.613760 0.000000 0.007850 
#    y 0.000000 1.625260 0.000000 
#    z 0.007850 0.000000 1.617780 
# 
# From -- ./inp_files/338580.got.cif
#   From: 2010.05.17/outbox.cif.g08.bks.cpg/sg12_170_cif.got.tgz:338580.got - 2010.06.03 13:09:07.
