data_PCOD9202413
_publ_section_title
;
Structure prediction by ZEFSAII (Michael W. Deem and Ramdas Pophale) SiO2 
 PCOD9202413
Probable space group: C 2/M
;
_chemical_formula_sum "Si O2"
_cell_formula_units_Z 56
_cell_length_a 14.833243
_cell_length_b 20.101751
_cell_length_c 9.184274
_cell_angle_alpha 90.000000
_cell_angle_beta 92.670391
_cell_angle_gamma 90.000000
_cell_volume 2735.539368
_symmetry_space_group_name_H-M "C 2/M"
_symmetry_group_IT_number 12
_symmetry_cell_setting 'monoclinic'
loop_
_space_group_symop_operation_xyz
x,y,z
-x,y,-z
-x,-y,-z
x,-y,z
1/2+x,1/2+y,z
1/2-x,1/2+y,-z
1/2-x,1/2-y,-z
1/2+x,1/2-y,z
loop_
_atom_site_type_symbol
_atom_site_label
_atom_site_fract_x
_atom_site_fract_y
_atom_site_fract_z
Si Si1 0.210599 0.571322 0.285066
Si Si2 0.500000 0.653755 0.000000
Si Si3 0.324343 0.193214 0.214821
Si Si4 0.099914 0.640125 0.072212
Si Si5 0.500000 0.320473 0.500000
Si Si6 0.099819 0.576984 0.572174
Si Si7 0.119497 0.845885 0.762309
Si Si8 0.383346 0.731660 0.747387
O O1 0.257523 0.500000 0.284266
O O2 0.136067 0.574807 0.152470
O O3 0.166187 0.579053 0.438978
O O4 0.281808 0.627923 0.257259
O O5 0.574889 0.621836 0.901837
O O6 0.441221 0.694199 0.876918
O O7 0.370250 0.135615 0.316235
O O8 0.374509 0.265038 0.224951
O O9 0.220224 0.206870 0.251703
O O10 0.335115 0.167588 0.050172
O O11 0.104440 0.692765 0.203975
O O12 0.000000 0.635650 0.000000
O O13 0.557837 0.361575 0.619351
O O14 0.571147 0.280136 0.405860
O O15 0.102627 0.500000 0.631654
O O16 0.000000 0.587877 0.500000
#
# Coordination Sequence:
#
# PCOD9202413 Si02
#       8
#     8   4   8   8   4   8   8   8
#     4  11  25  43  62  85 125 168 207 254 307 369
#     4  10  20  38  61  86 129 156 188 262 318 356
#     4  12  23  36  66  92 125 162 205 260 302 366
#     4  12  22  38  60  92 124 160 203 249 312 367
#     4  10  24  34  59  90 125 152 200 258 302 372
#     4  10  24  44  62  90 130 169 202 247 308 369
#     4  11  22  40  61  94 123 157 207 257 313 359
#     4  11  20  37  55  94 125 158 196 253 313 355
#
# _framework density 20.471284000000001
#
# number of rings (size 3 to 8) (size 9 to 14) (size 15 to 20)
#    0.000    1.000    3.571    3.857    3.000    2.000 
#    0.000    0.714    0.000    3.429    0.000    0.000 
#    0.000    0.000    0.000    0.000    0.000    0.000 
#
# Total GULP energy -156334.301381 kJ/mol
# GULP energy per Si atom -5583.367906 kJ/mol
# Density = 2.042469 g / cm^3
# Si number density = 20.471284 Si / 1000 Ang^3
#
#
#
# Elastic Constant Matrix: (Units=GPa)
#
#
# Indices 1 2 3 4 5 6 
#
# 1 99.4318 10.1295 25.8062 0.0000 -12.6434 0.0000
# 2 10.1295 71.0150 23.7571 0.0000 2.8270 0.0000
# 3 25.8062 23.7571 104.8269 0.0000 -17.6060 0.0000
# 4 0.0000 0.0000 0.0000 23.5878 0.0000 4.5241
# 5 -12.6434 2.8270 -17.6060 0.0000 35.0357 0.0000
# 6 0.0000 0.0000 0.0000 4.5241 0.0000 6.5652
#
#
#
# Elastic Compliance Matrix: (Units=1/GPa)
#
#
# Indices 1 2 3 4 5 6 
#
# 1 0.011067 -0.001043 -0.001970 0.000000 0.003088 0.000000
# 2 -0.001043 0.015679 -0.003902 0.000000 -0.003602 0.000000
# 3 -0.001970 -0.003902 0.011842 0.000000 0.005555 0.000000
# 4 0.000000 0.000000 0.000000 0.048851 0.000000 -0.033664
# 5 0.003088 -0.003602 0.005555 0.000000 0.032739 0.000000
# 6 0.000000 0.000000 0.000000 -0.033664 0.000000 0.175517
#
#
# Mechanical properties :
#
#
# Convention : Reuss Voigt Hill
#
# Bulk Modulus (GPa) = 40.38774 43.85104 42.11939
# Shear Modulus (GPa) = 15.73434 27.40980 21.57207
#
# Velocity S-wave (km/s) = 2.77538 3.66312 3.24971
# Velocity P-wave (km/s) = 5.48107 6.27364 5.89070
#
# Compressibility (1/GPa) = 0.02475999
#
# Stress axis : x y z
#
# Youngs Moduli (GPa) = 90.35686 63.78004 84.44850
#
# Poissons Ratio (x) = 0.06650 0.16632
# Poissons Ratio (y) = 0.09421 0.32949
# Poissons Ratio (z) = 0.17796 0.24885
#
# Static dielectric constant tensor:
#      x y z
#    x 1.793080 0.000000 0.007230 
#    y 0.000000 1.722390 0.000000 
#    z 0.007230 0.000000 1.727200 
# 
# From -- ./inp_files/64128.got.cif
#   From: 2010.05.17/outbox.cif.g08.bks.cpg/sg12_33_cif.got.tgz:64128.got - 2010.06.03 13:09:07.
