data_PCOD9202209
_publ_section_title
;
Structure prediction by ZEFSAII (Michael W. Deem and Ramdas Pophale) SiO2 
 PCOD9202209
Probable space group: C 2/M
;
_chemical_formula_sum "Si O2"
_cell_formula_units_Z 50
_cell_length_a 10.602775
_cell_length_b 14.840576
_cell_length_c 19.435787
_cell_angle_alpha 90.000000
_cell_angle_beta 49.157617
_cell_angle_gamma 90.000000
_cell_volume 2313.598356
_symmetry_space_group_name_H-M "C 2/M"
_symmetry_group_IT_number 12
_symmetry_cell_setting 'monoclinic'
loop_
_space_group_symop_operation_xyz
x,y,z
-x,y,-z
-x,-y,-z
x,-y,z
1/2+x,1/2+y,z
1/2-x,1/2+y,-z
1/2-x,1/2-y,-z
1/2+x,1/2-y,z
loop_
_atom_site_type_symbol
_atom_site_label
_atom_site_fract_x
_atom_site_fract_y
_atom_site_fract_z
Si Si1 0.000000 0.000000 0.500000
Si Si2 0.422225 0.865384 0.307808
Si Si3 0.930803 0.138223 0.622661
Si Si4 0.745479 0.605581 0.893848
Si Si5 0.561820 0.609446 0.089628
Si Si6 0.430876 0.144814 0.600158
Si Si7 0.447220 0.654972 0.274893
O O1 0.941456 0.080039 0.466682
O O2 0.247153 0.898668 0.340809
O O3 0.572941 0.886267 0.202307
O O4 0.472687 0.891805 0.367196
O O5 0.410815 0.757557 0.308791
O O6 0.942354 0.245195 0.603993
O O7 0.958451 0.117675 0.692602
O O8 0.705826 0.500000 0.912068
O O9 0.607904 0.640722 0.888832
O O10 0.707884 0.637858 0.984708
O O11 0.561144 0.500000 0.098297
O O12 0.556979 0.649598 0.167255
O O13 0.500000 0.121607 0.500000
O O14 0.236803 0.116018 0.673772
#
# Coordination Sequence:
#
# PCOD9202209 Si02
#       7
#     2   8   8   8   8   8   8
#     4  12  24  40  52  78 122 164 174 210 284 360
#     4  10  21  37  58  84 111 144 187 231 274 325
#     4  10  24  36  55  80 114 151 183 217 281 335
#     4   9  18  35  59  83 109 144 184 229 280 328
#     4   9  18  35  59  83 109 144 184 229 280 328
#     4  10  20  38  60  80 106 141 193 239 266 310
#     4  10  21  37  58  84 111 144 187 231 274 325
#
# _framework density 21.611357000000002
#
# number of rings (size 3 to 8) (size 9 to 14) (size 15 to 20)
#    0.000    2.240    2.400    0.960    4.480    2.560 
#    0.000    0.800    0.000    3.840    0.000    0.000 
#    0.000    0.000    0.000    0.000    0.000    0.000 
#
# Total GULP energy -139212.320090 kJ/mol
# GULP energy per Si atom -5568.492804 kJ/mol
# Density = 2.156217 g / cm^3
# Si number density = 21.611357 Si / 1000 Ang^3
#
#
#
# Elastic Constant Matrix: (Units=GPa)
#
#
# Indices 1 2 3 4 5 6 
#
# 1 135.6446 14.4782 78.1718 0.0000 29.0738 0.0000
# 2 14.4782 47.5306 -10.2962 0.0000 5.5697 0.0000
# 3 78.1718 -10.2962 147.9158 0.0000 31.1909 0.0000
# 4 0.0000 0.0000 0.0000 29.7987 0.0000 2.0826
# 5 29.0738 5.5697 31.1909 0.0000 47.1469 0.0000
# 6 0.0000 0.0000 0.0000 2.0826 0.0000 -7.6572
#
#
#
# Elastic Compliance Matrix: (Units=1/GPa)
#
#
# Indices 1 2 3 4 5 6 
#
# 1 0.011954 -0.004619 -0.006042 0.000000 -0.002828 0.000000
# 2 -0.004619 0.023842 0.004758 0.000000 -0.003116 0.000000
# 3 -0.006042 0.004758 0.011177 0.000000 -0.004230 0.000000
# 4 0.000000 0.000000 0.000000 0.032932 0.000000 0.008957
# 5 -0.002828 -0.003116 -0.004230 0.000000 0.026121 0.000000
# 6 0.000000 0.000000 0.000000 0.008957 0.000000 -0.128160
#
#
# Mechanical properties :
#
#
# Convention : Reuss Voigt Hill
#
# Bulk Modulus (GPa) = 28.43719 55.08874 41.76296
# Shear Modulus (GPa) = 3584.12920 30.44016 1807.28468
#
# Velocity S-wave (km/s) = 40.76822 3.75711 28.94964
# Velocity P-wave (km/s) = 47.21494 6.66086 33.71659
#
# Compressibility (1/GPa) = 0.03516522
#
# Stress axis : x y z
#
# Youngs Moduli (GPa) = 83.65628 41.94338 89.46779
#
# Poissons Ratio (x) = 0.19372 0.54061
# Poissons Ratio (y) = 0.38638 -0.42565
# Poissons Ratio (z) = 0.50549 -0.19955
#
# Static dielectric constant tensor:
#      x y z
#    x 1.816680 0.000000 -0.032710 
#    y 0.000000 1.836100 0.000000 
#    z -0.032710 0.000000 1.867450 
# 
# From -- ./inp_files/256938.got.cif
#   From: 2010.05.17/outbox.cif.g08.bks.cpg/sg12_129_cif.got.tgz:256938.got - 2010.06.03 13:09:07.
