data_PCOD9202544
_publ_section_title
;
Structure prediction by ZEFSAII (Michael W. Deem and Ramdas Pophale) SiO2 
 PCOD9202544
Probable space group: C 2/M
;
_chemical_formula_sum "Si O2"
_cell_formula_units_Z 64
_cell_length_a 16.936671
_cell_length_b 14.573196
_cell_length_c 18.630246
_cell_angle_alpha 90.000000
_cell_angle_beta 40.824520
_cell_angle_gamma 90.000000
_cell_volume 3006.142042
_symmetry_space_group_name_H-M "C 2/M"
_symmetry_group_IT_number 12
_symmetry_cell_setting 'monoclinic'
loop_
_space_group_symop_operation_xyz
x,y,z
-x,y,-z
-x,-y,-z
x,-y,z
1/2+x,1/2+y,z
1/2-x,1/2+y,-z
1/2-x,1/2-y,-z
1/2+x,1/2-y,z
loop_
_atom_site_type_symbol
_atom_site_label
_atom_site_fract_x
_atom_site_fract_y
_atom_site_fract_z
Si Si1 0.510643 0.104424 0.671735
Si Si2 0.794313 0.393729 0.332626
Si Si3 0.270058 0.195633 0.828743
Si Si4 0.511395 0.109011 0.912292
Si Si5 0.203616 0.110333 0.727449
Si Si6 0.180212 0.727500 0.474237
Si Si7 0.752567 0.161838 0.946411
Si Si8 0.424109 0.601842 0.944358
O O1 0.607336 0.105636 0.669981
O O2 0.378657 0.135296 0.787796
O O3 0.555789 0.179536 0.583082
O O4 0.506789 0.000000 0.646407
O O5 0.756861 0.500000 0.347833
O O6 0.688476 0.323012 0.425152
O O7 0.874273 0.356567 0.211170
O O8 0.266689 0.164910 0.749008
O O9 0.288687 0.299700 0.842963
O O10 0.144351 0.165214 0.951765
O O11 0.532190 0.000000 0.902989
O O12 0.500000 0.147662 0.000000
O O13 0.381759 0.122472 0.964798
O O14 0.249652 0.152019 0.621237
O O15 0.060910 0.127456 0.834322
O O16 0.224216 0.000000 0.718038
O O17 0.250000 0.750000 0.500000
O O18 0.851140 0.102086 0.919418
O O19 0.750000 0.250000 0.000000
O O20 0.421088 0.500000 0.977576
#
# Coordination Sequence:
#
# PCOD9202544 Si02
#       8
#     8   8   8   8   8   8   8   8
#     4  10  20  38  62  86 120 162 210 257 303 367
#     4   9  19  36  61  90 118 161 207 254 311 369
#     4  11  23  36  60  94 129 166 201 250 318 375
#     4  10  21  36  59  89 124 162 204 256 310 367
#     4  11  24  40  63  94 127 165 205 256 320 374
#     4  10  23  38  63  86 120 156 211 265 307 365
#     4  10  22  33  54  87 124 166 205 240 295 367
#     4  10  21  38  60  88 128 169 207 248 304 378
#
# _framework density 21.289746000000001
#
# number of rings (size 3 to 8) (size 9 to 14) (size 15 to 20)
#    0.000    1.875    0.000    3.750    8.750    3.000 
#    0.000    1.250    0.000    0.000    0.000    0.875 
#    0.000    0.000    0.000    0.000    0.000    0.000 
#
# Total GULP energy -178606.129260 kJ/mol
# GULP energy per Si atom -5581.441539 kJ/mol
# Density = 2.124129 g / cm^3
# Si number density = 21.289746 Si / 1000 Ang^3
#
#
#
# Elastic Constant Matrix: (Units=GPa)
#
#
# Indices 1 2 3 4 5 6 
#
# 1 58.8542 9.1437 20.6128 0.0000 8.9623 0.0000
# 2 9.1437 94.8504 39.6666 0.0000 5.1702 0.0000
# 3 20.6128 39.6666 80.1170 0.0000 18.2374 0.0000
# 4 0.0000 0.0000 0.0000 34.7826 0.0000 -0.9731
# 5 8.9623 5.1702 18.2374 0.0000 28.7434 0.0000
# 6 0.0000 0.0000 0.0000 -0.9731 0.0000 19.5991
#
#
#
# Elastic Compliance Matrix: (Units=1/GPa)
#
#
# Indices 1 2 3 4 5 6 
#
# 1 0.018937 0.000099 -0.004176 0.000000 -0.003273 0.000000
# 2 0.000099 0.013404 -0.007137 0.000000 0.002086 0.000000
# 3 -0.004176 -0.007137 0.019287 0.000000 -0.009651 0.000000
# 4 0.000000 0.000000 0.000000 0.028790 0.000000 0.001429
# 5 -0.003273 0.002086 -0.009651 0.000000 0.041559 0.000000
# 6 0.000000 0.000000 0.000000 0.001429 0.000000 0.051094
#
#
# Mechanical properties :
#
#
# Convention : Reuss Voigt Hill
#
# Bulk Modulus (GPa) = 34.24680 41.40756 37.82718
# Shear Modulus (GPa) = 24.36263 27.58494 25.97379
#
# Velocity S-wave (km/s) = 3.38647 3.60348 3.49666
# Velocity P-wave (km/s) = 5.60463 6.06672 5.84025
#
# Compressibility (1/GPa) = 0.02919981
#
# Stress axis : x y z
#
# Youngs Moduli (GPa) = 52.80737 74.60262 51.84876
#
# Poissons Ratio (x) = -0.00742 0.21654
# Poissons Ratio (y) = -0.00525 0.37005
# Poissons Ratio (z) = 0.22055 0.53245
#
# Static dielectric constant tensor:
#      x y z
#    x 1.478830 0.000000 0.596250 
#    y 0.000000 1.828660 0.000000 
#    z 0.596250 0.000000 0.895430 
# 
# From -- ./inp_files/278116.got.cif
#   From: 2010.05.17/outbox.cif.g08.bks.cpg/sg12_140_cif.got.tgz:278116.got - 2010.06.03 13:09:07.
