data_PCOD9202171
_publ_section_title
;
Structure prediction by ZEFSAII (Michael W. Deem and Ramdas Pophale) SiO2 
 PCOD9202171
Probable space group: C 2/M
;
_chemical_formula_sum "Si O2"
_cell_formula_units_Z 50
_cell_length_a 28.275654
_cell_length_b 7.850561
_cell_length_c 14.653553
_cell_angle_alpha 90.000000
_cell_angle_beta 134.481980
_cell_angle_gamma 90.000000
_cell_volume 2320.772278
_symmetry_space_group_name_H-M "C 2/M"
_symmetry_group_IT_number 12
_symmetry_cell_setting 'monoclinic'
loop_
_space_group_symop_operation_xyz
x,y,z
-x,y,-z
-x,-y,-z
x,-y,z
1/2+x,1/2+y,z
1/2-x,1/2+y,-z
1/2-x,1/2-y,-z
1/2+x,1/2-y,z
loop_
_atom_site_type_symbol
_atom_site_label
_atom_site_fract_x
_atom_site_fract_y
_atom_site_fract_z
Si Si1 0.796333 0.796553 0.648838
Si Si2 0.949742 0.185634 0.047360
Si Si3 0.184048 0.798539 0.809766
Si Si4 0.335559 0.198708 0.022243
Si Si5 0.584215 0.798597 0.304995
Si Si6 0.323525 0.205334 0.400729
Si Si7 0.000000 0.500000 0.000000
O O1 0.750000 0.750000 0.500000
O O2 0.866443 0.720520 0.714696
O O3 0.751260 0.736028 0.672765
O O4 0.803730 0.000000 0.664776
O O5 0.887135 0.206542 0.028535
O O6 0.017429 0.197095 0.197946
O O7 0.956992 0.348357 0.992877
O O8 0.944848 0.000000 0.995159
O O9 0.148529 0.716638 0.848558
O O10 0.156302 0.764166 0.671885
O O11 0.185731 0.000000 0.828533
O O12 0.260323 0.734185 0.910814
O O13 0.336069 0.000000 0.998455
O O14 0.625537 0.743944 0.450157
O O15 0.567471 0.000000 0.288130
O O16 0.322044 0.000000 0.400806
#
# Coordination Sequence:
#
# PCOD9202171 Si02
#       7
#     8   8   8   8   8   8   2
#     4   9  17  30  49  78 114 159 208 251 310 374
#     4  12  25  44  70  95 127 171 215 261 319 384
#     4  10  21  36  62  94 123 163 213 270 319 380
#     4  10  21  42  64  88 128 168 208 267 330 372
#     4  10  20  38  59  85 126 170 206 259 320 381
#     4   9  19  34  56  86 123 164 208 257 318 376
#     4  12  26  48  64  94 130 164 214 264 306 382
#
# _framework density 21.544554000000002
#
# number of rings (size 3 to 8) (size 9 to 14) (size 15 to 20)
#    0.000    1.920    1.600    3.120    0.000    7.040 
#    0.000    2.400    0.000    4.800    0.000    0.000 
#    0.000    0.000    0.000    0.000    0.000    0.000 
#
# Total GULP energy -139415.360318 kJ/mol
# GULP energy per Si atom -5576.614413 kJ/mol
# Density = 2.149552 g / cm^3
# Si number density = 21.544554 Si / 1000 Ang^3
#
#
#
# Elastic Constant Matrix: (Units=GPa)
#
#
# Indices 1 2 3 4 5 6 
#
# 1 102.3792 34.4564 12.1509 0.0000 -3.2162 0.0000
# 2 34.4564 103.2146 19.1293 0.0000 -4.6373 0.0000
# 3 12.1509 19.1293 70.5510 0.0000 -3.1528 0.0000
# 4 0.0000 0.0000 0.0000 -15.7527 0.0000 0.1289
# 5 -3.2162 -4.6373 -3.1528 0.0000 26.7512 0.0000
# 6 0.0000 0.0000 0.0000 0.1289 0.0000 30.2344
#
#
#
# Elastic Compliance Matrix: (Units=1/GPa)
#
#
# Indices 1 2 3 4 5 6 
#
# 1 0.011074 -0.003497 -0.000932 0.000000 0.000615 0.000000
# 2 -0.003497 0.011361 -0.002422 0.000000 0.001264 0.000000
# 3 -0.000932 -0.002422 0.015047 0.000000 0.001242 0.000000
# 4 0.000000 0.000000 0.000000 -0.063479 0.000000 0.000271
# 5 0.000615 0.001264 0.001242 0.000000 0.037821 0.000000
# 6 0.000000 0.000000 0.000000 0.000271 0.000000 0.033074
#
#
# Mechanical properties :
#
#
# Convention : Reuss Voigt Hill
#
# Bulk Modulus (GPa) = 42.04844 45.29089 43.66966
# Shear Modulus (GPa) = 75.15858 22.27380 48.71619
#
# Velocity S-wave (km/s) = 5.91278 3.21884 4.76035
# Velocity P-wave (km/s) = 8.13473 5.90611 7.10831
#
# Compressibility (1/GPa) = 0.02378210
#
# Stress axis : x y z
#
# Youngs Moduli (GPa) = 90.29877 88.01676 66.45947
#
# Poissons Ratio (x) = 0.30776 0.06192
# Poissons Ratio (y) = 0.31574 0.16096
# Poissons Ratio (z) = 0.08413 0.21317
#
# Static dielectric constant tensor:
#      x y z
#    x 1.763850 0.000000 -0.011880 
#    y 0.000000 1.784120 0.000000 
#    z -0.011880 0.000000 1.843890 
# 
# From -- ./inp_files/244363.got.cif
#   From: 2010.05.17/outbox.cif.g08.bks.cpg/sg12_123_cif.got.tgz:244363.got - 2010.06.03 13:09:07.
