data_PCOD9202363
_publ_section_title
;
Structure prediction by ZEFSAII (Michael W. Deem and Ramdas Pophale) SiO2 
 PCOD9202363
Probable space group: C 2/M
;
_chemical_formula_sum "Si O2"
_cell_formula_units_Z 48
_cell_length_a 25.104409
_cell_length_b 7.678217
_cell_length_c 20.357369
_cell_angle_alpha 90.000000
_cell_angle_beta 146.938097
_cell_angle_gamma 90.000000
_cell_volume 2140.732851
_symmetry_space_group_name_H-M "C 2/M"
_symmetry_group_IT_number 12
_symmetry_cell_setting 'monoclinic'
loop_
_space_group_symop_operation_xyz
x,y,z
-x,y,-z
-x,-y,-z
x,-y,z
1/2+x,1/2+y,z
1/2-x,1/2+y,-z
1/2-x,1/2-y,-z
1/2+x,1/2-y,z
loop_
_atom_site_type_symbol
_atom_site_label
_atom_site_fract_x
_atom_site_fract_y
_atom_site_fract_z
Si Si1 0.870427 0.794729 0.277376
Si Si2 0.304470 0.793651 0.346094
Si Si3 0.305327 0.791848 0.989439
Si Si4 0.412810 0.713984 0.862116
Si Si5 0.470070 0.702191 0.778483
Si Si6 0.939380 0.210083 0.602683
O O1 0.871837 0.773817 0.356775
O O2 0.767815 0.725961 0.142917
O O3 0.963510 0.722641 0.334578
O O4 0.869244 0.000000 0.261670
O O5 0.193921 0.727443 0.225198
O O6 0.348636 0.750904 0.462514
O O7 0.302260 0.000000 0.336850
O O8 0.318513 0.000000 0.997664
O O9 0.250000 0.750000 0.000000
O O10 0.412289 0.710674 0.098924
O O11 0.413630 0.500000 0.862823
O O12 0.431502 0.776141 0.807092
O O13 0.500000 0.769592 0.000000
O O14 0.439728 0.500000 0.747130
O O15 0.435758 0.778446 0.673330
O O16 0.947392 0.000000 0.614814
#
# Coordination Sequence:
#
# PCOD9202363 Si02
#       6
#     8   8   8   8   8   8
#     4  10  21  38  57  81 115 155 192 228 283 350
#     4  11  23  37  57  87 113 146 196 243 283 334
#     4  11  21  35  57  87 118 148 187 234 283 336
#     4   9  19  37  60  84 113 147 187 236 290 342
#     4  10  20  38  61  84 114 156 195 231 283 343
#     4  10  21  38  57  80 114 156 192 230 289 351
#
# _framework density 22.422225999999998
#
# number of rings (size 3 to 8) (size 9 to 14) (size 15 to 20)
#    0.000    1.833    1.667    2.500    0.000    6.667 
#    0.000    1.667    0.000    4.500    0.000    0.000 
#    0.000    0.000    0.000    0.000    0.000    0.000 
#
# Total GULP energy -134142.516020 kJ/mol
# GULP energy per Si atom -5589.271501 kJ/mol
# Density = 2.237119 g / cm^3
# Si number density = 22.422226 Si / 1000 Ang^3
#
#
#
# Elastic Constant Matrix: (Units=GPa)
#
#
# Indices 1 2 3 4 5 6 
#
# 1 103.3279 -6.8031 20.7523 0.0000 -7.9508 0.0000
# 2 -6.8031 37.7004 -5.1556 0.0000 -1.7196 0.0000
# 3 20.7523 -5.1556 113.4888 0.0000 -13.1652 0.0000
# 4 0.0000 0.0000 0.0000 22.6005 0.0000 0.7703
# 5 -7.9508 -1.7196 -13.1652 0.0000 18.1747 0.0000
# 6 0.0000 0.0000 0.0000 0.7703 0.0000 5.3903
#
#
#
# Elastic Compliance Matrix: (Units=1/GPa)
#
#
# Indices 1 2 3 4 5 6 
#
# 1 0.010362 0.001850 -0.001381 0.000000 0.003708 0.000000
# 2 0.001850 0.027253 0.001411 0.000000 0.004410 0.000000
# 3 -0.001381 0.001411 0.009906 0.000000 0.006705 0.000000
# 4 0.000000 0.000000 0.000000 0.044463 0.000000 -0.006354
# 5 0.003708 0.004410 0.006705 0.000000 0.061918 0.000000
# 6 0.000000 0.000000 0.000000 -0.006354 0.000000 0.186426
#
#
# Mechanical properties :
#
#
# Convention : Reuss Voigt Hill
#
# Bulk Modulus (GPa) = 19.49961 30.23382 24.86672
# Shear Modulus (GPa) = 14.13782 25.61466 19.87624
#
# Velocity S-wave (km/s) = 2.51375 3.38358 2.98057
# Velocity P-wave (km/s) = 4.14013 5.36450 4.79159
#
# Compressibility (1/GPa) = 0.05128307
#
# Stress axis : x y z
#
# Youngs Moduli (GPa) = 96.50307 36.69326 100.95064
#
# Poissons Ratio (x) = -0.06789 0.13938
# Poissons Ratio (y) = -0.17855 -0.14247
# Poissons Ratio (z) = 0.13323 -0.05179
#
# Static dielectric constant tensor:
#      x y z
#    x 1.818970 0.000000 -0.016140 
#    y 0.000000 1.850170 0.000000 
#    z -0.016140 0.000000 1.820800 
# 
# From -- ./inp_files/327331.got.cif
#   From: 2010.05.17/outbox.cif.g08.bks.cpg/sg12_164_cif.got.tgz:327331.got - 2010.06.03 13:09:07.
