data_PCOD9202349
_publ_section_title
;
Structure prediction by ZEFSAII (Michael W. Deem and Ramdas Pophale) SiO2 
 PCOD9202349
Probable space group: C 2/M
;
_chemical_formula_sum "Si O2"
_cell_formula_units_Z 48
_cell_length_a 20.892320
_cell_length_b 7.859079
_cell_length_c 21.030234
_cell_angle_alpha 90.000000
_cell_angle_beta 32.535081
_cell_angle_gamma 90.000000
_cell_volume 1857.103313
_symmetry_space_group_name_H-M "C 2/M"
_symmetry_group_IT_number 12
_symmetry_cell_setting 'monoclinic'
loop_
_space_group_symop_operation_xyz
x,y,z
-x,y,-z
-x,-y,-z
x,-y,z
1/2+x,1/2+y,z
1/2-x,1/2+y,-z
1/2-x,1/2-y,-z
1/2+x,1/2-y,z
loop_
_atom_site_type_symbol
_atom_site_label
_atom_site_fract_x
_atom_site_fract_y
_atom_site_fract_z
Si Si1 0.749374 0.804813 0.073608
Si Si2 0.672888 0.804337 0.495841
Si Si3 0.822521 0.800438 0.144723
Si Si4 0.613849 0.291388 0.772590
Si Si5 0.556321 0.306038 0.383923
Si Si6 0.498483 0.699894 0.258637
O O1 0.819522 0.726095 0.075242
O O2 0.607230 0.787573 0.203691
O O3 0.785517 0.000000 0.043536
O O4 0.750000 0.750000 0.000000
O O5 0.766783 0.733349 0.365283
O O6 0.546506 0.791117 0.566485
O O7 0.629210 0.726315 0.600032
O O8 0.702655 0.000000 0.481515
O O9 0.890675 0.731698 0.150374
O O10 0.683625 0.783633 0.280013
O O11 0.855089 0.000000 0.112463
O O12 0.615724 0.500000 0.773544
O O13 0.513711 0.242594 0.804738
O O14 0.500000 0.321589 0.500000
O O15 0.571673 0.500000 0.345392
O O16 0.523180 0.500000 0.237545
#
# Coordination Sequence:
#
# PCOD9202349 Si02
#       6
#     8   8   8   8   8   8
#     4  11  24  42  66  89 110 145 193 246 301 354
#     4  11  20  33  55  83 119 164 203 232 274 340
#     4  10  20  38  61  83 111 151 198 238 284 346
#     4   9  20  36  57  86 120 160 197 233 280 341
#     4  11  21  31  49  83 121 155 194 240 289 334
#     4  11  22  38  59  86 122 155 192 243 291 341
#
# _framework density 25.846703999999999
#
# number of rings (size 3 to 8) (size 9 to 14) (size 15 to 20)
#    0.000    1.500    3.333    2.500    0.000    1.333 
#    0.000    5.000    0.000    5.000    0.000    0.000 
#    0.000    0.000    0.000    0.000    0.000    0.000 
#
# Total GULP energy -133976.312747 kJ/mol
# GULP energy per Si atom -5582.346364 kJ/mol
# Density = 2.578788 g / cm^3
# Si number density = 25.846704 Si / 1000 Ang^3
#
#
#
# Elastic Constant Matrix: (Units=GPa)
#
#
# Indices 1 2 3 4 5 6 
#
# 1 214.2077 7.2978 41.6256 0.0001 51.6050 0.0000
# 2 7.2978 52.8581 0.6225 0.0006 7.4628 -0.0004
# 3 41.6256 0.6225 93.0932 0.0003 25.0775 -0.0002
# 4 0.0001 0.0006 0.0003 21.8582 -0.0001 4.9209
# 5 51.6050 7.4628 25.0775 -0.0001 56.6502 0.0001
# 6 0.0000 -0.0004 -0.0002 4.9209 0.0001 25.8942
#
#
#
# Elastic Compliance Matrix: (Units=1/GPa)
#
#
# Indices 1 2 3 4 5 6 
#
# 1 0.006140 -0.000132 -0.001411 0.000000 -0.004951 0.000000
# 2 -0.000132 0.019313 0.000662 -0.000001 -0.002717 0.000000
# 3 -0.001411 0.000662 0.012541 0.000000 -0.004354 0.000000
# 4 0.000000 -0.000001 0.000000 0.047794 0.000000 -0.009083
# 5 -0.004951 -0.002717 -0.004354 0.000000 0.024448 0.000000
# 6 0.000000 0.000000 0.000000 -0.009083 0.000000 0.040345
#
#
# Mechanical properties :
#
#
# Convention : Reuss Voigt Hill
#
# Bulk Modulus (GPa) = 27.60033 51.02787 39.31410
# Shear Modulus (GPa) = 30.41010 41.58806 35.99908
#
# Velocity S-wave (km/s) = 3.43382 4.01562 3.73606
# Velocity P-wave (km/s) = 5.14034 6.42539 5.81845
#
# Compressibility (1/GPa) = 0.03623145
#
# Stress axis : x y z
#
# Youngs Moduli (GPa) = 162.87236 51.77966 79.73789
#
# Poissons Ratio (x) = 0.00684 0.11249
# Poissons Ratio (y) = 0.02151 -0.05277
# Poissons Ratio (z) = 0.22977 -0.03427
#
# Static dielectric constant tensor:
#      x y z
#    x 2.150550 0.000000 0.090140 
#    y 0.000000 1.984570 0.000000 
#    z 0.090140 0.000000 2.200560 
# 
# From -- ./inp_files/244758.got.cif
#   From: 2010.05.17/outbox.cif.g08.bks.cpg/sg12_123_cif.got.tgz:244758.got - 2010.06.03 13:09:07.
