data_PCOD9202492
_publ_section_title
;
Structure prediction by ZEFSAII (Michael W. Deem and Ramdas Pophale) SiO2 
 PCOD9202492
Probable space group: C 2/M
;
_chemical_formula_sum "Si O2"
_cell_formula_units_Z 40
_cell_length_a 19.276816
_cell_length_b 7.578943
_cell_length_c 11.854493
_cell_angle_alpha 90.000000
_cell_angle_beta 108.590955
_cell_angle_gamma 90.000000
_cell_volume 1641.542849
_symmetry_space_group_name_H-M "C 2/M"
_symmetry_group_IT_number 12
_symmetry_cell_setting 'monoclinic'
loop_
_space_group_symop_operation_xyz
x,y,z
-x,y,-z
-x,-y,-z
x,-y,z
1/2+x,1/2+y,z
1/2-x,1/2+y,-z
1/2-x,1/2-y,-z
1/2+x,1/2-y,z
loop_
_atom_site_type_symbol
_atom_site_label
_atom_site_fract_x
_atom_site_fract_y
_atom_site_fract_z
Si Si1 0.351306 0.201712 0.116049
Si Si2 0.707656 0.299155 0.676774
Si Si3 0.654864 0.213544 0.133720
Si Si4 0.927853 0.215608 0.532467
Si Si5 0.482534 0.292300 0.802253
O O1 0.328782 0.301267 0.217429
O O2 0.439265 0.202342 0.150917
O O3 0.327101 0.000000 0.117256
O O4 0.325286 0.274970 0.981909
O O5 0.719942 0.500000 0.644395
O O6 0.787112 0.218831 0.743606
O O7 0.647311 0.218523 0.562630
O O8 0.573111 0.263683 0.124714
O O9 0.659311 0.000000 0.133390
O O10 0.940544 0.268197 0.667584
O O11 0.000000 0.269862 0.500000
O O12 0.925662 0.000000 0.525622
O O13 0.497688 0.500000 0.798858
#
# Coordination Sequence:
#
# PCOD9202492 Si02
#       5
#     8   8   8   8   8
#     4  11  22  37  57  83 116 149 186 232 277 324
#     4  10  20  38  62  83 110 150 188 225 279 336
#     4  10  23  39  55  82 119 151 180 228 286 329
#     4   9  17  34  59  84 109 139 184 235 277 324
#     4  11  22  37  60  85 110 148 191 229 274 333
#
# _framework density 24.367322000000001
#
# number of rings (size 3 to 8) (size 9 to 14) (size 15 to 20)
#    0.000    1.800    2.000    2.400    0.000    5.600 
#    0.000    3.000    0.000    0.000    0.000    0.000 
#    0.000    0.000    0.000    0.000    0.000    0.000 
#
# Total GULP energy -111874.822815 kJ/mol
# GULP energy per Si atom -5593.741141 kJ/mol
# Density = 2.431186 g / cm^3
# Si number density = 24.367322 Si / 1000 Ang^3
#
#
#
# Elastic Constant Matrix: (Units=GPa)
#
#
# Indices 1 2 3 4 5 6 
#
# 1 93.5591 -0.8795 -5.5001 0.0000 17.8097 0.0000
# 2 -0.8795 73.7451 5.1230 0.0000 8.6140 0.0000
# 3 -5.5001 5.1230 80.2786 0.0000 22.8355 0.0000
# 4 0.0000 0.0000 0.0000 10.3396 0.0000 -3.2546
# 5 17.8097 8.6140 22.8355 0.0000 52.8151 0.0000
# 6 0.0000 0.0000 0.0000 -3.2546 0.0000 8.2686
#
#
#
# Elastic Compliance Matrix: (Units=1/GPa)
#
#
# Indices 1 2 3 4 5 6 
#
# 1 0.011778 0.000574 0.002197 0.000000 -0.005015 0.000000
# 2 0.000574 0.013857 -0.000168 0.000000 -0.002381 0.000000
# 3 0.002197 -0.000168 0.014619 0.000000 -0.007034 0.000000
# 4 0.000000 0.000000 0.000000 0.110392 0.000000 0.043451
# 5 -0.005015 -0.002381 -0.007034 0.000000 0.024055 0.000000
# 6 0.000000 0.000000 0.000000 0.043451 0.000000 0.138042
#
#
# Mechanical properties :
#
#
# Convention : Reuss Voigt Hill
#
# Bulk Modulus (GPa) = 21.99806 27.22995 24.61400
# Shear Modulus (GPa) = 15.49476 30.87395 23.18436
#
# Velocity S-wave (km/s) = 2.52441 3.56339 3.08791
# Velocity P-wave (km/s) = 4.18857 5.30371 4.77878
#
# Compressibility (1/GPa) = 0.04545856
#
# Stress axis : x y z
#
# Youngs Moduli (GPa) = 84.90697 72.16658 68.40556
#
# Poissons Ratio (x) = -0.04140 -0.15027
# Poissons Ratio (y) = -0.04871 0.01147
# Poissons Ratio (z) = -0.18652 0.01210
#
# Static dielectric constant tensor:
#      x y z
#    x 1.917020 0.000000 0.040860 
#    y 0.000000 1.905430 0.000000 
#    z 0.040860 0.000000 1.933040 
# 
# From -- ./inp_files/151650.got.cif
#   From: 2010.05.17/outbox.cif.g08.bks.cpg/sg12_76_cif.got.tgz:151650.got - 2010.06.03 13:09:07.
