data_PCOD9202495
_publ_section_title
;
Structure prediction by ZEFSAII (Michael W. Deem and Ramdas Pophale) SiO2 
 PCOD9202495
Probable space group: C 2/M
;
_chemical_formula_sum "Si O2"
_cell_formula_units_Z 48
_cell_length_a 23.359632
_cell_length_b 15.953854
_cell_length_c 14.238573
_cell_angle_alpha 90.000000
_cell_angle_beta 153.162740
_cell_angle_gamma 90.000000
_cell_volume 2395.605689
_symmetry_space_group_name_H-M "C 2/M"
_symmetry_group_IT_number 12
_symmetry_cell_setting 'monoclinic'
loop_
_space_group_symop_operation_xyz
x,y,z
-x,y,-z
-x,-y,-z
x,-y,z
1/2+x,1/2+y,z
1/2-x,1/2+y,-z
1/2-x,1/2-y,-z
1/2+x,1/2-y,z
loop_
_atom_site_type_symbol
_atom_site_label
_atom_site_fract_x
_atom_site_fract_y
_atom_site_fract_z
Si Si1 0.540455 0.904669 0.667670
Si Si2 0.223152 0.190324 0.548525
Si Si3 0.167677 0.302772 0.090483
Si Si4 0.684464 0.404400 0.835812
Si Si5 0.560007 0.911654 0.190776
Si Si6 0.462571 0.278095 0.254768
O O1 0.500000 0.899689 0.500000
O O2 0.497692 0.814698 0.649032
O O3 0.497581 0.000000 0.634803
O O4 0.690166 0.903521 0.913534
O O5 0.250000 0.250000 0.500000
O O6 0.292575 0.220595 0.746391
O O7 0.294695 0.107743 0.617350
O O8 0.078711 0.183039 0.367005
O O9 0.263350 0.371773 0.188271
O O10 0.153829 0.233929 0.989195
O O11 0.025989 0.341796 0.887154
O O12 0.638823 0.500000 0.764018
O O13 0.584406 0.338978 0.731674
O O14 0.542066 0.000000 0.213502
O O15 0.500000 0.916272 0.000000
#
# Coordination Sequence:
#
# PCOD9202495 Si02
#       6
#     8   8   8   8   8   8
#     4   9  19  36  60  88 117 152 199 246 290 354
#     4  11  23  38  56  88 115 159 205 249 297 361
#     4  10  20  38  62  83 120 156 200 256 303 353
#     4  10  22  39  59  92 126 158 198 244 310 373
#     4   9  18  35  58  82 111 150 199 250 294 341
#     4  11  23  36  61  88 126 161 195 245 311 365
#
# _framework density 20.036684999999999
#
# number of rings (size 3 to 8) (size 9 to 14) (size 15 to 20)
#    0.000    2.000    1.667    2.500    4.667    2.000 
#    0.000    0.833    0.000    1.000    0.000    2.333 
#    0.000    0.000    0.000    0.000    0.000    0.000 
#
# Total GULP energy -133613.204799 kJ/mol
# GULP energy per Si atom -5567.216867 kJ/mol
# Density = 1.999108 g / cm^3
# Si number density = 20.036685 Si / 1000 Ang^3
#
#
#
# Elastic Constant Matrix: (Units=GPa)
#
#
# Indices 1 2 3 4 5 6 
#
# 1 124.3332 48.4037 28.6283 0.0000 -12.0070 0.0000
# 2 48.4037 85.2390 20.2779 0.0000 4.8557 0.0000
# 3 28.6283 20.2779 47.5650 0.0000 -13.6328 0.0000
# 4 0.0000 0.0000 0.0000 -3.7108 0.0000 -7.8888
# 5 -12.0070 4.8557 -13.6328 0.0000 45.9510 0.0000
# 6 0.0000 0.0000 0.0000 -7.8888 0.0000 6.1760
#
#
#
# Elastic Compliance Matrix: (Units=1/GPa)
#
#
# Indices 1 2 3 4 5 6 
#
# 1 0.011355 -0.005711 -0.003690 0.000000 0.002476 0.000000
# 2 -0.005711 0.016407 -0.004898 0.000000 -0.004679 0.000000
# 3 -0.003690 -0.004898 0.027547 0.000000 0.007726 0.000000
# 4 0.000000 0.000000 0.000000 -0.072530 0.000000 -0.092645
# 5 0.002476 -0.004679 0.007726 0.000000 0.025196 0.000000
# 6 0.000000 0.000000 0.000000 -0.092645 0.000000 0.043579
#
#
# Mechanical properties :
#
#
# Convention : Reuss Voigt Hill
#
# Bulk Modulus (GPa) = 37.43856 50.19523 43.81690
# Shear Modulus (GPa) = 56.14447 20.33841 38.24144
#
# Velocity S-wave (km/s) = 5.29921 3.18945 4.37346
# Velocity P-wave (km/s) = 7.49452 6.21848 6.88612
#
# Compressibility (1/GPa) = 0.02671043
#
# Stress axis : x y z
#
# Youngs Moduli (GPa) = 88.06647 60.95059 36.30116
#
# Poissons Ratio (x) = 0.34811 0.13395
# Poissons Ratio (y) = 0.50297 0.17781
# Poissons Ratio (z) = 0.32496 0.29855
#
# Static dielectric constant tensor:
#      x y z
#    x 1.707420 0.000000 0.006550 
#    y 0.000000 1.782090 0.000000 
#    z 0.006550 0.000000 1.755390 
# 
# From -- ./inp_files/240763.got.cif
#   From: 2010.05.17/outbox.cif.g08.bks.cpg/sg12_121_cif.got.tgz:240763.got - 2010.06.03 13:09:07.
