data_PCOD9202052
_publ_section_title
;
Structure prediction by ZEFSAII (Michael W. Deem and Ramdas Pophale) SiO2 
 PCOD9202052
Probable space group: C 2/M
;
_chemical_formula_sum "Si O2"
_cell_formula_units_Z 56
_cell_length_a 15.598732
_cell_length_b 7.604696
_cell_length_c 25.238852
_cell_angle_alpha 90.000000
_cell_angle_beta 120.658814
_cell_angle_gamma 90.000000
_cell_volume 2575.430319
_symmetry_space_group_name_H-M "C 2/M"
_symmetry_group_IT_number 12
_symmetry_cell_setting 'monoclinic'
loop_
_space_group_symop_operation_xyz
x,y,z
-x,y,-z
-x,-y,-z
x,-y,z
1/2+x,1/2+y,z
1/2-x,1/2+y,-z
1/2-x,1/2-y,-z
1/2+x,1/2-y,z
loop_
_atom_site_type_symbol
_atom_site_label
_atom_site_fract_x
_atom_site_fract_y
_atom_site_fract_z
Si Si1 0.171934 0.213755 0.409280
Si Si2 0.667035 0.708530 0.930440
Si Si3 0.527551 0.714227 0.067489
Si Si4 0.899629 0.292637 0.498725
Si Si5 0.297294 0.283411 0.802182
Si Si6 0.107853 0.798548 0.274910
Si Si7 0.387526 0.200685 0.198521
O O1 0.106153 0.271598 0.439195
O O2 0.288072 0.275271 0.448329
O O3 0.127468 0.275324 0.339300
O O4 0.172287 0.000000 0.411874
O O5 0.665789 0.500000 0.921696
O O6 0.562236 0.764387 0.922322
O O7 0.674836 0.794894 0.875718
O O8 0.750000 0.750000 0.000000
O O9 0.530492 0.500000 0.066011
O O10 0.628585 0.773459 0.127338
O O11 0.500000 0.776466 0.000000
O O12 0.897684 0.500000 0.485725
O O13 0.000000 0.223709 0.500000
O O14 0.299170 0.500000 0.803280
O O15 0.336729 0.219519 0.758226
O O16 0.185676 0.227933 0.779918
O O17 0.990948 0.798520 0.225177
O O18 0.143335 0.000000 0.289048
O O19 0.413634 0.000000 0.218850
#
# Coordination Sequence:
#
# PCOD9202052 Si02
#       7
#     8   8   8   8   8   8   8
#     4   9  19  34  55  83 113 149 187 229 277 327
#     4  11  21  35  56  79 108 142 179 227 284 342
#     4   9  16  29  52  76  97 131 178 219 262 327
#     4   9  18  34  57  85 116 148 187 232 272 319
#     4   9  18  34  55  77 103 143 185 222 270 337
#     4  10  20  38  58  77 110 152 191 224 272 339
#     4  11  22  36  57  83 109 140 185 235 281 329
#
# _framework density 21.743939000000001
#
# number of rings (size 3 to 8) (size 9 to 14) (size 15 to 20)
#    0.000    2.286    1.429    1.714    0.000    4.286 
#    0.000    4.286    0.000    1.714    0.000    0.000 
#    0.000    0.000    0.000    0.000    0.000    0.000 
#
# Total GULP energy -156228.403076 kJ/mol
# GULP energy per Si atom -5579.585824 kJ/mol
# Density = 2.169445 g / cm^3
# Si number density = 21.743939 Si / 1000 Ang^3
#
#
#
# Elastic Constant Matrix: (Units=GPa)
#
#
# Indices 1 2 3 4 5 6 
#
# 1 159.5449 4.4121 39.1198 0.0000 -26.1652 0.0000
# 2 4.4121 45.2248 -8.7482 0.0000 0.8348 0.0000
# 3 39.1198 -8.7482 109.7144 0.0000 -26.4908 0.0000
# 4 0.0000 0.0000 0.0000 13.1956 0.0000 1.4693
# 5 -26.1652 0.8348 -26.4908 0.0000 24.3576 0.0000
# 6 0.0000 0.0000 0.0000 1.4693 0.0000 2.7471
#
#
#
# Elastic Compliance Matrix: (Units=1/GPa)
#
#
# Indices 1 2 3 4 5 6 
#
# 1 0.007744 -0.001105 -0.001128 0.000000 0.007130 0.000000
# 2 -0.001105 0.022662 0.002342 0.000000 0.000583 0.000000
# 3 -0.001128 0.002342 0.012736 0.000000 0.012560 0.000000
# 4 0.000000 0.000000 0.000000 0.080582 0.000000 -0.043101
# 5 0.007130 0.000583 0.012560 0.000000 0.062354 0.000000
# 6 0.000000 0.000000 0.000000 -0.043101 0.000000 0.387079
#
#
# Mechanical properties :
#
#
# Convention : Reuss Voigt Hill
#
# Bulk Modulus (GPa) = 23.06296 42.67238 32.86767
# Shear Modulus (GPa) = 8.51219 26.70674 17.60946
#
# Velocity S-wave (km/s) = 1.98072 3.50843 2.84888
# Velocity P-wave (km/s) = 3.98254 6.00663 5.09609
#
# Compressibility (1/GPa) = 0.04335957
#
# Stress axis : x y z
#
# Youngs Moduli (GPa) = 129.12746 44.12701 78.51762
#
# Poissons Ratio (x) = 0.04877 0.08855
# Poissons Ratio (y) = 0.14273 -0.18388
# Poissons Ratio (z) = 0.14563 -0.10334
#
# Static dielectric constant tensor:
#      x y z
#    x 1.787470 0.000000 -0.004830 
#    y 0.000000 1.835960 0.000000 
#    z -0.004830 0.000000 1.776990 
# 
# From -- ./inp_files/338988.got.cif
#   From: 2010.05.17/outbox.cif.g08.bks.cpg/sg12_170_cif.got.tgz:338988.got - 2010.06.03 13:09:07.
