data_PCOD9202353
_publ_section_title
;
Structure prediction by ZEFSAII (Michael W. Deem and Ramdas Pophale) SiO2 
 PCOD9202353
Probable space group: C 2/M
;
_chemical_formula_sum "Si O2"
_cell_formula_units_Z 56
_cell_length_a 22.942685
_cell_length_b 13.054755
_cell_length_c 23.651632
_cell_angle_alpha 90.000000
_cell_angle_beta 160.033669
_cell_angle_gamma 90.000000
_cell_volume 2418.933615
_symmetry_space_group_name_H-M "C 2/M"
_symmetry_group_IT_number 12
_symmetry_cell_setting 'monoclinic'
loop_
_space_group_symop_operation_xyz
x,y,z
-x,y,-z
-x,-y,-z
x,-y,z
1/2+x,1/2+y,z
1/2-x,1/2+y,-z
1/2-x,1/2-y,-z
1/2+x,1/2-y,z
loop_
_atom_site_type_symbol
_atom_site_label
_atom_site_fract_x
_atom_site_fract_y
_atom_site_fract_z
Si Si1 0.713407 0.379605 0.391804
Si Si2 0.637481 0.382559 0.754065
Si Si3 0.221268 0.172528 0.150187
Si Si4 0.824966 0.825446 0.767530
Si Si5 0.553420 0.118725 0.750286
Si Si6 0.654954 0.384808 0.595869
Si Si7 0.349368 0.624150 0.099879
O O1 0.706320 0.500000 0.399042
O O2 0.748405 0.370792 0.356916
O O3 0.525915 0.337150 0.233620
O O4 0.868655 0.333990 0.569534
O O5 0.689109 0.500000 0.788612
O O6 0.748593 0.295004 0.826039
O O7 0.444875 0.371909 0.554564
O O8 0.648262 0.364175 0.830638
O O9 0.254289 0.140582 0.244903
O O10 0.344412 0.125343 0.215717
O O11 0.025687 0.150640 0.955680
O O12 0.789522 0.704005 0.728861
O O13 0.525371 0.000000 0.739199
O O14 0.679968 0.161503 0.913144
O O15 0.500000 0.376204 0.500000
O O16 0.724776 0.500000 0.663012
O O17 0.348345 0.500000 0.089240
#
# Coordination Sequence:
#
# PCOD9202353 Si02
#       7
#     8   8   8   8   8   8   8
#     4  10  21  39  64  91 120 159 199 243 302 357
#     4  10  21  39  63  87 116 157 198 248 304 354
#     4  11  23  38  58  87 122 159 201 248 301 355
#     4  11  23  38  58  87 123 158 200 254 295 354
#     4  10  21  39  62  87 119 160 200 244 298 355
#     4  10  20  38  61  83 114 156 200 249 301 349
#     4   9  19  40  62  86 122 156 198 248 295 356
#
# _framework density 23.150697000000001
#
# number of rings (size 3 to 8) (size 9 to 14) (size 15 to 20)
#    0.000    1.857    2.857    0.857    0.000    1.714 
#    2.571    5.714    0.000    0.000    0.000    0.000 
#    0.000    0.000    0.000    0.000    0.000    0.000 
#
# Total GULP energy -156523.397435 kJ/mol
# GULP energy per Si atom -5590.121337 kJ/mol
# Density = 2.309801 g / cm^3
# Si number density = 23.150697 Si / 1000 Ang^3
#
#
#
# Elastic Constant Matrix: (Units=GPa)
#
#
# Indices 1 2 3 4 5 6 
#
# 1 85.7406 -7.1429 59.7314 0.0019 -22.4557 0.0003
# 2 -7.1429 43.1211 10.3103 -0.0003 -2.2238 0.0002
# 3 59.7314 10.3103 142.2565 0.0014 -34.2916 -0.0007
# 4 0.0019 -0.0003 0.0014 30.1112 0.0004 -1.4895
# 5 -22.4557 -2.2238 -34.2916 0.0004 29.7478 0.0003
# 6 0.0003 0.0002 -0.0007 -1.4895 0.0003 27.5233
#
#
#
# Elastic Compliance Matrix: (Units=1/GPa)
#
#
# Indices 1 2 3 4 5 6 
#
# 1 0.018320 0.004918 -0.006407 -0.000001 0.006811 -0.000001
# 2 0.004918 0.024921 -0.003500 0.000000 0.001541 0.000000
# 3 -0.006407 -0.003500 0.012109 0.000000 0.008861 0.000000
# 4 -0.000001 0.000000 0.000000 0.033299 -0.000002 0.001802
# 5 0.006811 0.001541 0.008861 -0.000002 0.049087 0.000000
# 6 -0.000001 0.000000 0.000000 0.001802 0.000000 0.036430
#
#
# Mechanical properties :
#
#
# Convention : Reuss Voigt Hill
#
# Bulk Modulus (GPa) = 22.03936 44.10176 33.07056
# Shear Modulus (GPa) = 25.09164 31.35775 28.22470
#
# Velocity S-wave (km/s) = 3.29574 3.68435 3.49545
# Velocity P-wave (km/s) = 4.90135 6.09840 5.53235
#
# Compressibility (1/GPa) = 0.04537336
#
# Stress axis : x y z
#
# Youngs Moduli (GPa) = 54.58506 40.12624 82.58110
#
# Poissons Ratio (x) = -0.19733 0.52908
# Poissons Ratio (y) = -0.26844 0.28900
# Poissons Ratio (z) = 0.34972 0.14043
#
# Static dielectric constant tensor:
#      x y z
#    x 1.852120 0.000000 -0.018490 
#    y 0.000000 1.918780 0.000000 
#    z -0.018490 0.000000 1.859700 
# 
# From -- ./inp_files/86390.got.cif
#   From: 2010.05.17/outbox.cif.g08.bks.cpg/sg12_44_cif.got.tgz:86390.got - 2010.06.03 13:09:07.
