data_PCOD9202942
_publ_section_title
;
Structure prediction by ZEFSAII (Michael W. Deem and Ramdas Pophale) SiO2 
 PCOD9202942
Probable space group: C 2/M
;
_chemical_formula_sum "Si O2"
_cell_formula_units_Z 48
_cell_length_a 20.994956
_cell_length_b 7.618247
_cell_length_c 22.729379
_cell_angle_alpha 90.000000
_cell_angle_beta 42.119842
_cell_angle_gamma 90.000000
_cell_volume 2438.233145
_symmetry_space_group_name_H-M "C 2/M"
_symmetry_group_IT_number 12
_symmetry_cell_setting 'monoclinic'
loop_
_space_group_symop_operation_xyz
x,y,z
-x,y,-z
-x,-y,-z
x,-y,z
1/2+x,1/2+y,z
1/2-x,1/2+y,-z
1/2-x,1/2-y,-z
1/2+x,1/2-y,z
loop_
_atom_site_type_symbol
_atom_site_label
_atom_site_fract_x
_atom_site_fract_y
_atom_site_fract_z
Si Si1 0.894452 0.214010 0.055306
Si Si2 0.645315 0.289276 0.048885
Si Si3 0.044855 0.000000 0.566105
Si Si4 0.203584 0.209029 0.758267
Si Si5 0.049340 0.210690 0.763275
Si Si6 0.138714 0.698574 0.578258
Si Si7 0.145315 0.000000 0.370976
O O1 0.824839 0.260903 0.156021
O O2 0.896178 0.000000 0.052867
O O3 0.866745 0.276222 0.009628
O O4 0.000000 0.272044 0.000000
O O5 0.634715 0.500000 0.054100
O O6 0.557472 0.226348 0.149355
O O7 0.750000 0.250000 0.000000
O O8 0.078690 0.832265 0.579993
O O9 0.097639 0.000000 0.467436
O O10 0.934302 0.000000 0.625224
O O11 0.114143 0.241201 0.776392
O O12 0.289773 0.328156 0.678804
O O13 0.223464 0.000000 0.742581
O O14 0.099035 0.289814 0.671938
O O15 0.047001 0.000000 0.755292
O O16 0.129658 0.500000 0.562789
O O17 0.250000 0.750000 0.500000
#
# Coordination Sequence:
#
# PCOD9202942 Si02
#       7
#     8   8   4   8   8   8   4
#     4   9  16  35  61  86 119 164 215 259 312 380
#     4  10  21  37  58  87 130 173 213 270 326 380
#     4  11  26  48  64  96 136 168 208 266 331 390
#     4  10  21  39  68  95 123 169 218 263 319 384
#     4  10  20  38  64  94 130 170 217 272 326 387
#     4  12  24  42  70  98 130 168 213 268 326 392
#     4  11  26  44  67  94 134 166 211 272 320 388
#
# _framework density 19.686385000000001
#
# number of rings (size 3 to 8) (size 9 to 14) (size 15 to 20)
#    0.000    1.667    3.333    1.000    1.167    4.667 
#    1.500    3.750    0.000    0.000    0.000    0.000 
#    0.000    0.000    0.000    0.000    0.000    0.000 
#
# Total GULP energy -134116.085334 kJ/mol
# GULP energy per Si atom -5588.170222 kJ/mol
# Density = 1.964158 g / cm^3
# Si number density = 19.686385 Si / 1000 Ang^3
#
#
#
# Elastic Constant Matrix: (Units=GPa)
#
#
# Indices 1 2 3 4 5 6 
#
# 1 122.1907 33.4448 56.3533 0.0001 -6.9244 -0.0001
# 2 33.4448 89.5895 27.5090 0.0011 -6.5822 -0.0018
# 3 56.3533 27.5090 130.8958 0.0001 -5.9168 -0.0001
# 4 0.0001 0.0011 0.0001 11.5601 -0.0001 -3.8685
# 5 -6.9244 -6.5822 -5.9168 -0.0001 35.6729 0.0001
# 6 -0.0001 -0.0018 -0.0001 -3.8685 0.0001 16.0746
#
#
#
# Elastic Compliance Matrix: (Units=1/GPa)
#
#
# Indices 1 2 3 4 5 6 
#
# 1 0.010857 -0.002739 -0.004057 0.000000 0.000929 0.000000
# 2 -0.002739 0.012739 -0.001426 -0.000001 0.001582 0.000001
# 3 -0.004057 -0.001426 0.009711 0.000000 0.000560 0.000000
# 4 0.000000 -0.000001 0.000000 0.094082 0.000000 0.022642
# 5 0.000929 0.001582 0.000560 0.000000 0.028598 0.000000
# 6 0.000000 0.000001 0.000000 0.022642 0.000000 0.067659
#
#
# Mechanical properties :
#
#
# Convention : Reuss Voigt Hill
#
# Bulk Modulus (GPa) = 59.30194 64.14335 61.72264
# Shear Modulus (GPa) = 20.34914 27.68612 24.01763
#
# Velocity S-wave (km/s) = 3.21856 3.75421 3.49666
# Velocity P-wave (km/s) = 6.63331 7.17255 6.90820
#
# Compressibility (1/GPa) = 0.01686286
#
# Stress axis : x y z
#
# Youngs Moduli (GPa) = 92.10476 78.50011 102.97407
#
# Poissons Ratio (x) = 0.21503 0.41772
# Poissons Ratio (y) = 0.25230 0.14688
# Poissons Ratio (z) = 0.37363 0.11197
#
# Static dielectric constant tensor:
#      x y z
#    x 1.657810 0.000000 0.006670 
#    y 0.000000 1.712270 0.000000 
#    z 0.006670 0.000000 1.680500 
# 
# From -- ./inp_files/319593.got.cif
#   From: 2010.05.17/outbox.cif.g08.bks.cpg/sg12_160_cif.got.tgz:319593.got - 2010.06.03 13:09:07.
