data_PCOD9202187
_publ_section_title
;
Structure prediction by ZEFSAII (Michael W. Deem and Ramdas Pophale) SiO2 
 PCOD9202187
Probable space group: C 2/M
;
_chemical_formula_sum "Si O2"
_cell_formula_units_Z 56
_cell_length_a 19.309438
_cell_length_b 13.746235
_cell_length_c 9.130652
_cell_angle_alpha 90.000000
_cell_angle_beta 85.744177
_cell_angle_gamma 90.000000
_cell_volume 2416.885254
_symmetry_space_group_name_H-M "C 2/M"
_symmetry_group_IT_number 12
_symmetry_cell_setting 'monoclinic'
loop_
_space_group_symop_operation_xyz
x,y,z
-x,y,-z
-x,-y,-z
x,-y,z
1/2+x,1/2+y,z
1/2-x,1/2+y,-z
1/2-x,1/2-y,-z
1/2+x,1/2-y,z
loop_
_atom_site_type_symbol
_atom_site_label
_atom_site_fract_x
_atom_site_fract_y
_atom_site_fract_z
Si Si1 0.239739 0.176053 0.636067
Si Si2 0.659883 0.267803 0.921574
Si Si3 0.606552 0.111959 0.401469
Si Si4 0.878131 0.112966 0.814981
Si Si5 0.101868 0.178935 0.517719
Si Si6 0.930291 0.615078 0.923596
Si Si7 0.962911 0.887951 0.203780
O O1 0.250000 0.250000 0.500000
O O2 0.219622 0.227072 0.791680
O O3 0.310050 0.115909 0.638726
O O4 0.167411 0.130301 0.594435
O O5 0.591812 0.313379 0.853677
O O6 0.670973 0.336153 0.060179
O O7 0.635157 0.166036 0.990174
O O8 0.593839 0.202052 0.515909
O O9 0.570043 0.136126 0.251096
O O10 0.588348 0.000000 0.448000
O O11 0.880409 0.155937 0.652509
O O12 0.957796 0.124895 0.857471
O O13 0.862394 0.000000 0.807786
O O14 0.039616 0.133847 0.621524
O O15 0.923818 0.500000 0.937057
O O16 0.000000 0.644117 0.000000
O O17 0.943480 0.000000 0.176932
#
# Coordination Sequence:
#
# PCOD9202187 Si02
#       7
#     8   8   8   8   8   8   8
#     4   9  22  42  62  85 118 162 205 255 310 373
#     4  11  21  37  64  91 122 161 211 264 315 373
#     4  10  21  40  66  91 123 168 211 259 315 371
#     4  11  21  34  56  91 127 162 209 259 312 378
#     4  10  20  38  59  89 122 167 212 253 309 374
#     4  10  21  39  64  96 129 162 205 260 319 372
#     4  10  21  36  57  87 129 172 205 252 320 380
#
# _framework density 23.170317000000001
#
# number of rings (size 3 to 8) (size 9 to 14) (size 15 to 20)
#    0.000    1.857    1.429    2.571    0.000    6.286 
#    0.000    6.429    0.000    3.429    0.000    0.000 
#    0.000    0.000    0.000    0.000    0.000    0.000 
#
# Total GULP energy -156304.210073 kJ/mol
# GULP energy per Si atom -5582.293217 kJ/mol
# Density = 2.311758 g / cm^3
# Si number density = 23.170317 Si / 1000 Ang^3
#
#
#
# Elastic Constant Matrix: (Units=GPa)
#
#
# Indices 1 2 3 4 5 6 
#
# 1 40.1443 22.5519 16.6664 0.0000 4.4540 0.0000
# 2 22.5519 87.6584 25.5742 0.0000 -1.9948 0.0000
# 3 16.6664 25.5742 93.4708 0.0000 -14.3531 0.0000
# 4 0.0000 0.0000 0.0000 23.9760 0.0000 -0.0423
# 5 4.4540 -1.9948 -14.3531 0.0000 54.5840 0.0000
# 6 0.0000 0.0000 0.0000 -0.0423 0.0000 17.0978
#
#
#
# Elastic Compliance Matrix: (Units=1/GPa)
#
#
# Indices 1 2 3 4 5 6 
#
# 1 0.030930 -0.006806 -0.004250 0.000000 -0.003890 0.000000
# 2 -0.006806 0.013906 -0.002530 0.000000 0.000398 0.000000
# 3 -0.004250 -0.002530 0.012701 0.000000 0.003594 0.000000
# 4 0.000000 0.000000 0.000000 0.041709 0.000000 0.000103
# 5 -0.003890 0.000398 0.003594 0.000000 0.019597 0.000000
# 6 0.000000 0.000000 0.000000 0.000103 0.000000 0.058487
#
#
# Mechanical properties :
#
#
# Convention : Reuss Voigt Hill
#
# Bulk Modulus (GPa) = 32.93381 38.98428 35.95905
# Shear Modulus (GPa) = 23.29667 29.56362 26.43014
#
# Velocity S-wave (km/s) = 3.17433 3.57589 3.38107
# Velocity P-wave (km/s) = 5.26116 5.82331 5.54936
#
# Compressibility (1/GPa) = 0.03036393
#
# Stress axis : x y z
#
# Youngs Moduli (GPa) = 32.33157 71.91109 78.73702
#
# Poissons Ratio (x) = 0.48941 0.33465
# Poissons Ratio (y) = 0.22004 0.19921
# Poissons Ratio (z) = 0.13742 0.18194
#
# Static dielectric constant tensor:
#      x y z
#    x 2.011510 0.000000 0.035120 
#    y 0.000000 1.857480 0.000000 
#    z 0.035120 0.000000 1.927770 
# 
# From -- ./inp_files/86320.got.cif
#   From: 2010.05.17/outbox.cif.g08.bks.cpg/sg12_44_cif.got.tgz:86320.got - 2010.06.03 13:09:07.
