data_PCOD9202093
_publ_section_title
;
Structure prediction by ZEFSAII (Michael W. Deem and Ramdas Pophale) SiO2 
 PCOD9202093
Probable space group: C 2/M
;
_chemical_formula_sum "Si O2"
_cell_formula_units_Z 42
_cell_length_a 12.240502
_cell_length_b 15.033176
_cell_length_c 27.092923
_cell_angle_alpha 90.000000
_cell_angle_beta 158.948344
_cell_angle_gamma 90.000000
_cell_volume 1790.827006
_symmetry_space_group_name_H-M "C 2/M"
_symmetry_group_IT_number 12
_symmetry_cell_setting 'monoclinic'
loop_
_space_group_symop_operation_xyz
x,y,z
-x,y,-z
-x,-y,-z
x,-y,z
1/2+x,1/2+y,z
1/2-x,1/2+y,-z
1/2-x,1/2-y,-z
1/2+x,1/2-y,z
loop_
_atom_site_type_symbol
_atom_site_label
_atom_site_fract_x
_atom_site_fract_y
_atom_site_fract_z
Si Si1 0.500000 0.000000 0.000000
Si Si2 0.996370 0.600199 0.803141
Si Si3 0.224791 0.601919 0.547370
Si Si4 0.749172 0.655379 0.838180
Si Si5 0.075465 0.151010 0.106011
Si Si6 0.742322 0.297413 0.286508
O O1 0.462206 0.075942 0.941878
O O2 0.864477 0.500000 0.749790
O O3 0.171006 0.609750 0.823767
O O4 0.798623 0.690593 0.724584
O O5 0.257453 0.608833 0.955375
O O6 0.237733 0.500000 0.535329
O O7 0.543813 0.634315 0.704077
O O8 0.000000 0.602009 0.500000
O O9 0.067324 0.666542 0.441921
O O10 0.937420 0.745024 0.913737
O O11 0.504605 0.664325 0.779106
O O12 0.170585 0.158751 0.203085
#
# Coordination Sequence:
#
# PCOD9202093 Si02
#       6
#     2   8   8   8   8   8
#     4  12  20  36  58  88 114 150 178 244 314 352
#     4  10  21  39  58  84 124 159 203 255 299 352
#     4   9  18  35  56  86 121 156 194 246 299 359
#     4  10  21  37  58  86 124 148 191 247 305 354
#     4  10  20  38  58  85 116 162 199 249 300 357
#     4  10  21  37  60  86 118 164 202 242 301 362
#
# _framework density 23.452850999999999
#
# number of rings (size 3 to 8) (size 9 to 14) (size 15 to 20)
#    0.000    2.095    0.952    4.000    1.333    2.286 
#    5.143    0.000    0.000   15.429    0.000    0.000 
#    0.000    0.000    0.000    0.000    0.000    0.000 
#
# Total GULP energy -117165.455213 kJ/mol
# GULP energy per Si atom -5579.307391 kJ/mol
# Density = 2.339947 g / cm^3
# Si number density = 23.452851 Si / 1000 Ang^3
#
#
#
# Elastic Constant Matrix: (Units=GPa)
#
#
# Indices 1 2 3 4 5 6 
#
# 1 107.6670 38.6944 41.3329 -0.0143 -29.5362 -0.0061
# 2 38.6944 171.8920 67.3418 0.0084 -13.2154 -0.0069
# 3 41.3329 67.3418 127.5769 0.0245 -29.8028 -0.0159
# 4 -0.0143 0.0084 0.0245 33.8196 -0.0101 -3.7771
# 5 -29.5362 -13.2154 -29.8028 -0.0101 39.5181 -0.0085
# 6 -0.0061 -0.0069 -0.0159 -3.7771 -0.0085 9.2135
#
#
#
# Elastic Compliance Matrix: (Units=1/GPa)
#
#
# Indices 1 2 3 4 5 6 
#
# 1 0.012556 -0.001698 -0.001350 0.000011 0.007798 0.000016
# 2 -0.001698 0.007574 -0.003827 -0.000001 -0.001622 -0.000004
# 3 -0.001350 -0.003827 0.011849 -0.000004 0.006647 0.000021
# 4 0.000011 -0.000001 -0.000004 0.030987 0.000016 0.012704
# 5 0.007798 -0.001622 0.006647 0.000016 0.035604 0.000055
# 6 0.000016 -0.000004 0.000021 0.012704 0.000055 0.113745
#
#
# Mechanical properties :
#
#
# Convention : Reuss Voigt Hill
#
# Bulk Modulus (GPa) = 54.85737 77.98601 66.42169
# Shear Modulus (GPa) = 21.53862 33.82801 27.68332
#
# Velocity S-wave (km/s) = 3.03377 3.80199 3.43940
# Velocity P-wave (km/s) = 5.97603 7.25245 6.64496
#
# Compressibility (1/GPa) = 0.01822909
#
# Stress axis : x y z
#
# Youngs Moduli (GPa) = 79.64524 132.02311 84.39801
#
# Poissons Ratio (x) = 0.22418 0.11392
# Poissons Ratio (y) = 0.13524 0.32299
# Poissons Ratio (z) = 0.10750 0.50526
#
# Static dielectric constant tensor:
#      x y z
#    x 1.997730 0.000000 0.029440 
#    y 0.000000 1.827460 -0.000010 
#    z 0.029440 -0.000010 1.871310 
# 
# From -- ./inp_files/376518.got.cif
#   From: 2010.05.17/outbox.cif.g08.bks.cpg/sg12_189_cif.got.tgz:376518.got - 2010.06.03 13:09:07.
