data_PCOD9202915
_publ_section_title
;
Structure prediction by ZEFSAII (Michael W. Deem and Ramdas Pophale) SiO2 
 PCOD9202915
Probable space group: C 2/M
;
_chemical_formula_sum "Si O2"
_cell_formula_units_Z 56
_cell_length_a 12.962064
_cell_length_b 15.053579
_cell_length_c 15.344514
_cell_angle_alpha 90.000000
_cell_angle_beta 63.615591
_cell_angle_gamma 90.000000
_cell_volume 2682.217461
_symmetry_space_group_name_H-M "C 2/M"
_symmetry_group_IT_number 12
_symmetry_cell_setting 'monoclinic'
loop_
_space_group_symop_operation_xyz
x,y,z
-x,y,-z
-x,-y,-z
x,-y,z
1/2+x,1/2+y,z
1/2-x,1/2+y,-z
1/2-x,1/2-y,-z
1/2+x,1/2-y,z
loop_
_atom_site_type_symbol
_atom_site_label
_atom_site_fract_x
_atom_site_fract_y
_atom_site_fract_z
Si Si1 0.280191 0.826453 0.227353
Si Si2 0.286709 0.186075 0.886193
Si Si3 0.006954 0.399546 0.096970
Si Si4 0.052903 0.783955 0.385592
Si Si5 0.419975 0.397991 0.944015
Si Si6 0.679429 0.902407 0.306152
Si Si7 0.909736 0.835267 0.271291
O O1 0.235689 0.778679 0.155376
O O2 0.374533 0.900410 0.176536
O O3 0.166960 0.843109 0.326004
O O4 0.354489 0.751755 0.248613
O O5 0.410900 0.166102 0.880587
O O6 0.279392 0.115116 0.808866
O O7 0.188389 0.163886 0.992683
O O8 0.054385 0.500000 0.082522
O O9 0.000000 0.368468 0.000000
O O10 0.096928 0.681329 0.358047
O O11 0.000000 0.795540 0.500000
O O12 0.965498 0.809862 0.341874
O O13 0.380768 0.500000 0.949507
O O14 0.495863 0.373239 0.831442
O O15 0.500000 0.391644 0.000000
O O16 0.796323 0.896885 0.318876
O O17 0.626293 0.000000 0.333721
#
# Coordination Sequence:
#
# PCOD9202915 Si02
#       7
#     8   8   8   8   8   8   8
#     4  10  22  39  62  89 117 159 210 258 304 368
#     4  10  21  37  60  89 126 167 204 248 302 371
#     4  11  25  40  56  85 130 172 204 244 302 371
#     4  10  23  42  64  90 123 163 211 263 318 366
#     4  11  19  32  59  94 130 165 203 254 308 361
#     4  10  20  38  64  93 123 155 205 263 313 369
#     4  10  21  36  58  93 123 162 206 257 305 370
#
# _framework density 20.878246000000001
#
# number of rings (size 3 to 8) (size 9 to 14) (size 15 to 20)
#    0.000    2.000    2.857    3.429    4.000    3.143 
#    0.000    0.714    0.000    9.000    0.000    0.000 
#    0.000    0.000    0.000    0.000    0.000    0.000 
#
# Total GULP energy -156379.260275 kJ/mol
# GULP energy per Si atom -5584.973581 kJ/mol
# Density = 2.083073 g / cm^3
# Si number density = 20.878246 Si / 1000 Ang^3
#
#
#
# Elastic Constant Matrix: (Units=GPa)
#
#
# Indices 1 2 3 4 5 6 
#
# 1 129.1408 32.5605 59.1964 0.0000 6.4246 0.0000
# 2 32.5605 46.0776 16.1979 0.0000 6.9072 0.0000
# 3 59.1964 16.1979 134.3001 0.0000 13.4361 0.0000
# 4 0.0000 0.0000 0.0000 9.6560 0.0000 -6.6918
# 5 6.4246 6.9072 13.4361 0.0000 22.5760 0.0000
# 6 0.0000 0.0000 0.0000 -6.6918 0.0000 15.8344
#
#
#
# Elastic Compliance Matrix: (Units=1/GPa)
#
#
# Indices 1 2 3 4 5 6 
#
# 1 0.011352 -0.006708 -0.004335 0.000000 0.001402 0.000000
# 2 -0.006708 0.027324 0.000326 0.000000 -0.006645 0.000000
# 3 -0.004335 0.000326 0.009787 0.000000 -0.004691 0.000000
# 4 0.000000 0.000000 0.000000 0.146458 0.000000 0.061895
# 5 0.001402 -0.006645 -0.004691 0.000000 0.048721 0.000000
# 6 0.000000 0.000000 0.000000 0.061895 0.000000 0.089311
#
#
# Mechanical properties :
#
#
# Convention : Reuss Voigt Hill
#
# Bulk Modulus (GPa) = 36.99729 58.38091 47.68910
# Shear Modulus (GPa) = 13.75907 23.05086 18.40496
#
# Velocity S-wave (km/s) = 2.56991 3.32635 2.97229
# Velocity P-wave (km/s) = 5.15412 6.54034 5.88816
#
# Compressibility (1/GPa) = 0.02702901
#
# Stress axis : x y z
#
# Youngs Moduli (GPa) = 88.08887 36.59743 102.17935
#
# Poissons Ratio (x) = 0.24550 0.44294
# Poissons Ratio (y) = 0.59092 -0.03331
# Poissons Ratio (z) = 0.38186 -0.01193
#
# Static dielectric constant tensor:
#      x y z
#    x 1.776820 0.000000 -0.017910 
#    y 0.000000 1.785680 0.000000 
#    z -0.017910 0.000000 1.732890 
# 
# From -- ./inp_files/206600.got.cif
#   From: 2010.05.17/outbox.cif.g08.bks.cpg/sg12_104_cif.got.tgz:206600.got - 2010.06.03 13:09:07.
