data_PCOD9202719
_publ_section_title
;
Structure prediction by ZEFSAII (Michael W. Deem and Ramdas Pophale) SiO2 
 PCOD9202719
Probable space group: C 2/M
;
_chemical_formula_sum "Si O2"
_cell_formula_units_Z 48
_cell_length_a 17.809674
_cell_length_b 29.512387
_cell_length_c 7.885385
_cell_angle_alpha 90.000000
_cell_angle_beta 146.613733
_cell_angle_gamma 90.000000
_cell_volume 2280.696152
_symmetry_space_group_name_H-M "C 2/M"
_symmetry_group_IT_number 12
_symmetry_cell_setting 'monoclinic'
loop_
_space_group_symop_operation_xyz
x,y,z
-x,y,-z
-x,-y,-z
x,-y,z
1/2+x,1/2+y,z
1/2-x,1/2+y,-z
1/2-x,1/2-y,-z
1/2+x,1/2-y,z
loop_
_atom_site_type_symbol
_atom_site_label
_atom_site_fract_x
_atom_site_fract_y
_atom_site_fract_z
Si Si1 0.809846 0.854286 0.795320
Si Si2 0.863162 0.243752 0.855393
Si Si3 0.187040 0.656988 0.184984
Si Si4 0.115282 0.000000 0.565331
Si Si5 0.062922 0.899755 0.431484
Si Si6 0.943455 0.500000 0.203850
Si Si7 0.456366 0.903957 0.614641
O O1 0.831516 0.802227 0.897039
O O2 0.751379 0.847993 0.494616
O O3 0.698256 0.886883 0.669507
O O4 0.954870 0.877464 0.100663
O O5 0.750000 0.250000 0.500000
O O6 0.850214 0.291141 0.929598
O O7 0.000000 0.239213 0.000000
O O8 0.302999 0.631220 0.298087
O O9 0.048067 0.630152 0.895711
O O10 0.000000 0.000000 0.500000
O O11 0.093957 0.048526 0.435483
O O12 0.278709 0.000000 0.911398
O O13 0.000000 0.901660 0.500000
O O14 0.006059 0.453966 0.246350
O O15 0.000000 0.500000 0.500000
O O16 0.500000 0.902010 0.500000
#
# Coordination Sequence:
#
# PCOD9202719 Si02
#       7
#     8   8   8   4   8   4   8
#     4  11  23  39  62  94 120 165 207 253 307 367
#     4  10  20  38  63  88 120 166 211 240 299 387
#     4  11  21  41  64  90 123 162 209 257 304 366
#     4  10  22  40  65  89 122 170 210 241 304 386
#     4  11  23  40  63  90 127 161 208 255 308 366
#     4  10  22  40  65  89 122 168 212 243 300 390
#     4  11  23  40  63  90 125 159 208 254 310 363
#
# _framework density 21.046203999999999
#
# number of rings (size 3 to 8) (size 9 to 14) (size 15 to 20)
#    0.000    1.333    1.667    6.000    7.000    0.000 
#    0.000   10.000    0.000    0.000    0.000    0.000 
#    0.000    0.000    0.000    0.000    0.000    0.000 
#
# Total GULP energy -133802.963286 kJ/mol
# GULP energy per Si atom -5575.123470 kJ/mol
# Density = 2.099830 g / cm^3
# Si number density = 21.046204 Si / 1000 Ang^3
#
#
#
# Elastic Constant Matrix: (Units=GPa)
#
#
# Indices 1 2 3 4 5 6 
#
# 1 44.2207 16.4120 0.5011 0.0000 15.2930 0.0000
# 2 16.4120 212.0144 48.5666 0.0000 15.0924 0.0000
# 3 0.5011 48.5666 121.2987 0.0000 21.7266 0.0000
# 4 0.0000 0.0000 0.0000 133.2371 0.0000 -120.2557
# 5 15.2930 15.0924 21.7266 0.0000 43.0955 0.0000
# 6 0.0000 0.0000 0.0000 -120.2557 0.0000 203.4326
#
#
#
# Elastic Compliance Matrix: (Units=1/GPa)
#
#
# Indices 1 2 3 4 5 6 
#
# 1 0.026782 -0.001920 0.002462 0.000000 -0.010073 0.000000
# 2 -0.001920 0.005359 -0.002115 0.000000 -0.000129 0.000000
# 3 0.002462 -0.002115 0.010008 0.000000 -0.005179 0.000000
# 4 0.000000 0.000000 0.000000 0.016090 0.000000 0.009511
# 5 -0.010073 -0.000129 -0.005179 0.000000 0.029435 0.000000
# 6 0.000000 0.000000 0.000000 0.009511 0.000000 0.010538
#
#
# Mechanical properties :
#
#
# Convention : Reuss Voigt Hill
#
# Bulk Modulus (GPa) = 25.63801 56.49924 41.06862
# Shear Modulus (GPa) = 43.72205 96.75665 70.23935
#
# Velocity S-wave (km/s) = 4.56283 6.78773 5.78328
# Velocity P-wave (km/s) = 6.32198 9.39865 8.00943
#
# Compressibility (1/GPa) = 0.03900459
#
# Stress axis : x y z
#
# Youngs Moduli (GPa) = 37.33827 186.60580 99.91791
#
# Poissons Ratio (x) = 0.35832 -0.24604
# Poissons Ratio (y) = 0.07170 0.21128
# Poissons Ratio (z) = -0.09194 0.39459
#
# Static dielectric constant tensor:
#      x y z
#    x 1.822510 0.000000 0.052090 
#    y 0.000000 1.913800 0.000000 
#    z 0.052090 0.000000 1.754980 
# 
# From -- ./inp_files/80883.got.cif
#   From: 2010.05.17/outbox.cif.g08.bks.cpg/sg12_41_cif.got.tgz:80883.got - 2010.06.03 13:09:07.
