data_PCOD9202938
_publ_section_title
;
Structure prediction by ZEFSAII (Michael W. Deem and Ramdas Pophale) SiO2 
 PCOD9202938
Probable space group: C 2/M
;
_chemical_formula_sum "Si O2"
_cell_formula_units_Z 48
_cell_length_a 17.930375
_cell_length_b 13.960656
_cell_length_c 17.268032
_cell_angle_alpha 90.000000
_cell_angle_beta 149.344974
_cell_angle_gamma 90.000000
_cell_volume 2203.919105
_symmetry_space_group_name_H-M "C 2/M"
_symmetry_group_IT_number 12
_symmetry_cell_setting 'monoclinic'
loop_
_space_group_symop_operation_xyz
x,y,z
-x,y,-z
-x,-y,-z
x,-y,z
1/2+x,1/2+y,z
1/2-x,1/2+y,-z
1/2-x,1/2-y,-z
1/2+x,1/2-y,z
loop_
_atom_site_type_symbol
_atom_site_label
_atom_site_fract_x
_atom_site_fract_y
_atom_site_fract_z
Si Si1 0.690247 0.391707 0.471670
Si Si2 0.169771 0.683889 0.673320
Si Si3 0.461141 0.686954 0.874294
Si Si4 0.762926 0.607111 0.100301
Si Si5 0.478478 0.210717 0.743424
Si Si6 0.672975 0.396361 0.642093
O O1 0.656389 0.500000 0.418164
O O2 0.578054 0.313168 0.338952
O O3 0.856663 0.361565 0.600749
O O4 0.687638 0.385798 0.562803
O O5 0.294269 0.648579 0.724387
O O6 0.187139 0.625624 0.767115
O O7 0.214182 0.797020 0.720905
O O8 0.000000 0.680432 0.500000
O O9 0.468580 0.781282 0.827621
O O10 0.500000 0.696969 0.000000
O O11 0.589309 0.624184 0.950520
O O12 0.793994 0.500000 0.101749
O O13 0.861310 0.679883 0.139212
O O14 0.500000 0.402733 0.500000
O O15 0.738187 0.500000 0.724276
#
# Coordination Sequence:
#
# PCOD9202938 Si02
#       6
#     8   8   8   8   8   8
#     4  10  21  35  62 100 131 164 211 276 336 381
#     4  10  20  38  64  94 128 168 215 268 327 381
#     4  10  23  42  65  92 128 177 217 263 323 388
#     4  11  25  42  63  91 131 179 221 264 325 393
#     4  11  21  40  65  93 132 175 213 273 323 391
#     4   9  16  30  55  88 125 160 201 256 322 381
#
# _framework density 21.779384
#
# number of rings (size 3 to 8) (size 9 to 14) (size 15 to 20)
#    0.000    1.833    1.667    3.000    2.333    4.000 
#    0.000    0.000    0.000   17.500    0.000    0.000 
#    0.000    0.000    0.000    0.000    0.000    0.000 
#
# Total GULP energy -133802.489214 kJ/mol
# GULP energy per Si atom -5575.103717 kJ/mol
# Density = 2.172981 g / cm^3
# Si number density = 21.779384 Si / 1000 Ang^3
#
#
#
# Elastic Constant Matrix: (Units=GPa)
#
#
# Indices 1 2 3 4 5 6 
#
# 1 104.0027 15.6977 38.5642 0.0000 36.1719 0.0000
# 2 15.6977 97.9759 41.0478 0.0001 13.9417 0.0002
# 3 38.5642 41.0478 87.0030 0.0001 33.0421 0.0001
# 4 0.0000 0.0001 0.0001 22.1299 0.0001 -5.2990
# 5 36.1719 13.9417 33.0421 0.0001 36.1665 0.0001
# 6 0.0000 0.0002 0.0001 -5.2990 0.0001 -4.3141
#
#
#
# Elastic Compliance Matrix: (Units=1/GPa)
#
#
# Indices 1 2 3 4 5 6 
#
# 1 0.014864 0.000188 -0.001537 0.000000 -0.013534 0.000000
# 2 0.000188 0.012742 -0.006368 0.000000 0.000717 0.000000
# 3 -0.001537 -0.006368 0.020923 0.000000 -0.015123 0.000000
# 4 0.000000 0.000000 0.000000 0.034918 0.000000 -0.042890
# 5 -0.013534 0.000717 -0.015123 0.000000 0.054727 0.000001
# 6 0.000000 0.000000 0.000000 -0.042890 0.000001 -0.179119
#
#
# Mechanical properties :
#
#
# Convention : Reuss Voigt Hill
#
# Bulk Modulus (GPa) = 30.21495 53.28903 41.75199
# Shear Modulus (GPa) = -345.29249 23.70792 -160.79228
#
# Velocity S-wave (km/s) = -12.60497 3.30290 -8.60163
# Velocity P-wave (km/s) = 14.06924 6.25030 8.91284
#
# Compressibility (1/GPa) = 0.03309620
#
# Stress axis : x y z
#
# Youngs Moduli (GPa) = 67.27701 78.47998 47.79429
#
# Poissons Ratio (x) = -0.01479 0.07347
# Poissons Ratio (y) = -0.01268 0.30433
# Poissons Ratio (z) = 0.10343 0.49973
#
# Static dielectric constant tensor:
#      x y z
#    x 1.809890 0.000000 0.025570 
#    y 0.000000 1.840900 0.000000 
#    z 0.025570 0.000000 1.832850 
# 
# From -- ./inp_files/278250.got.cif
#   From: 2010.05.17/outbox.cif.g08.bks.cpg/sg12_140_cif.got.tgz:278250.got - 2010.06.03 13:09:07.
