data_PCOD9202560
_publ_section_title
;
Structure prediction by ZEFSAII (Michael W. Deem and Ramdas Pophale) SiO2 
 PCOD9202560
Probable space group: C 2/M
;
_chemical_formula_sum "Si O2"
_cell_formula_units_Z 40
_cell_length_a 11.786174
_cell_length_b 27.178786
_cell_length_c 8.239371
_cell_angle_alpha 90.000000
_cell_angle_beta 130.531261
_cell_angle_gamma 90.000000
_cell_volume 2006.041838
_symmetry_space_group_name_H-M "C 2/M"
_symmetry_group_IT_number 12
_symmetry_cell_setting 'monoclinic'
loop_
_space_group_symop_operation_xyz
x,y,z
-x,y,-z
-x,-y,-z
x,-y,z
1/2+x,1/2+y,z
1/2-x,1/2+y,-z
1/2-x,1/2-y,-z
1/2+x,1/2-y,z
loop_
_atom_site_type_symbol
_atom_site_label
_atom_site_fract_x
_atom_site_fract_y
_atom_site_fract_z
Si Si1 0.665593 0.198168 0.724221
Si Si2 0.323822 0.000000 0.384475
Si Si3 0.817727 0.000000 0.373104
Si Si4 0.667055 0.599505 0.221309
Si Si5 0.170402 0.703936 0.116561
Si Si6 0.171772 0.893085 0.613253
O O1 0.500000 0.193022 0.500000
O O2 0.758917 0.150226 0.764522
O O3 0.734426 0.249970 0.730093
O O4 0.674160 0.200957 0.926086
O O5 0.500000 0.000000 0.500000
O O6 0.255579 0.949481 0.250949
O O7 0.258227 0.000000 0.513300
O O8 0.774305 0.053948 0.266565
O O9 0.000000 0.000000 0.500000
O O10 0.669953 0.601322 0.418402
O O11 0.500000 0.596175 0.000000
O O12 0.229847 0.652725 0.242106
O O13 0.000000 0.712609 0.000000
O O14 0.000000 0.884058 0.500000
#
# Coordination Sequence:
#
# PCOD9202560 Si02
#       6
#     8   4   4   8   8   8
#     4  11  24  41  61  87 120 156 199 253 307 363
#     4  10  21  37  60  93 128 164 207 258 310 363
#     4   8  18  37  61  87 119 162 204 246 299 361
#     4  11  22  38  62  91 124 163 205 251 305 366
#     4  11  24  40  60  87 118 156 200 247 306 370
#     4  10  20  38  62  87 119 157 202 250 298 361
#
# _framework density 19.939764
#
# number of rings (size 3 to 8) (size 9 to 14) (size 15 to 20)
#    0.000    1.600    0.000    4.500    0.000    8.000 
#    0.000    3.500    0.000    0.000    0.000    0.000 
#    0.000    0.000    0.000    0.000    0.000    0.000 
#
# Total GULP energy -111540.673743 kJ/mol
# GULP energy per Si atom -5577.033687 kJ/mol
# Density = 1.989438 g / cm^3
# Si number density = 19.939764 Si / 1000 Ang^3
#
#
#
# Elastic Constant Matrix: (Units=GPa)
#
#
# Indices 1 2 3 4 5 6 
#
# 1 100.4924 53.0358 28.9086 0.0000 20.0490 0.0000
# 2 53.0358 187.1181 64.5697 0.0000 27.4916 0.0000
# 3 28.9086 64.5697 93.3800 0.0000 25.9595 0.0000
# 4 0.0000 0.0000 0.0000 41.4976 0.0000 19.4308
# 5 20.0490 27.4916 25.9595 0.0000 34.9231 0.0000
# 6 0.0000 0.0000 0.0000 19.4308 0.0000 33.6781
#
#
#
# Elastic Compliance Matrix: (Units=1/GPa)
#
#
# Indices 1 2 3 4 5 6 
#
# 1 0.012449 -0.002586 -0.000813 0.000000 -0.004507 0.000000
# 2 -0.002586 0.007722 -0.004111 0.000000 -0.001538 0.000000
# 3 -0.000813 -0.004111 0.016101 0.000000 -0.008265 0.000000
# 4 0.000000 0.000000 0.000000 0.033018 0.000000 -0.019050
# 5 -0.004507 -0.001538 -0.008265 0.000000 0.038576 0.000000
# 6 0.000000 0.000000 0.000000 -0.019050 0.000000 0.040684
#
#
# Mechanical properties :
#
#
# Convention : Reuss Voigt Hill
#
# Bulk Modulus (GPa) = 47.05523 74.89094 60.97309
# Shear Modulus (GPa) = 29.29913 37.65152 33.47532
#
# Velocity S-wave (km/s) = 3.83741 4.35013 4.10179
# Velocity P-wave (km/s) = 6.57907 7.92916 7.28546
#
# Compressibility (1/GPa) = 0.02125162
#
# Stress axis : x y z
#
# Youngs Moduli (GPa) = 80.33002 129.50364 62.10687
#
# Poissons Ratio (x) = 0.33485 0.05050
# Poissons Ratio (y) = 0.20771 0.25534
# Poissons Ratio (z) = 0.06531 0.53243
#
# Static dielectric constant tensor:
#      x y z
#    x 1.705300 0.000000 -0.020240 
#    y 0.000000 1.716870 0.000000 
#    z -0.020240 0.000000 1.656640 
# 
# From -- ./inp_files/52893.got.cif
#   From: 2010.05.17/outbox.cif.g08.bks.cpg/sg12_27_cif.got.tgz:52893.got - 2010.06.03 13:09:07.
