data_PCOD9202149
_publ_section_title
;
Structure prediction by ZEFSAII (Michael W. Deem and Ramdas Pophale) SiO2 
 PCOD9202149
Probable space group: C 2/M
;
_chemical_formula_sum "Si O2"
_cell_formula_units_Z 44
_cell_length_a 28.309824
_cell_length_b 14.177144
_cell_length_c 5.095945
_cell_angle_alpha 90.000000
_cell_angle_beta 100.036463
_cell_angle_gamma 90.000000
_cell_volume 2013.971341
_symmetry_space_group_name_H-M "C 2/M"
_symmetry_group_IT_number 12
_symmetry_cell_setting 'monoclinic'
loop_
_space_group_symop_operation_xyz
x,y,z
-x,y,-z
-x,-y,-z
x,-y,z
1/2+x,1/2+y,z
1/2-x,1/2+y,-z
1/2-x,1/2-y,-z
1/2+x,1/2-y,z
loop_
_atom_site_type_symbol
_atom_site_label
_atom_site_fract_x
_atom_site_fract_y
_atom_site_fract_z
Si Si1 0.056619 0.198664 0.624464
Si Si2 0.301088 0.203712 0.083156
Si Si3 0.811567 0.500000 0.024517
Si Si4 0.873591 0.500000 0.587695
Si Si5 0.370058 0.212029 0.650492
Si Si6 0.964659 0.000000 0.216353
Si Si7 0.534133 0.893849 0.786940
O O1 0.089331 0.213317 0.397895
O O2 0.064560 0.297644 0.788956
O O3 0.000000 0.199358 0.500000
O O4 0.064180 0.099189 0.781408
O O5 0.339178 0.223161 0.885172
O O6 0.250000 0.250000 0.000000
O O7 0.330145 0.218299 0.380226
O O8 0.285705 0.095046 0.055728
O O9 0.855095 0.500000 0.274095
O O10 0.829203 0.500000 0.744527
O O11 0.894055 0.605403 0.660613
O O12 0.000000 0.000000 0.500000
O O13 0.000000 0.000000 0.000000
O O14 0.500000 0.898080 0.500000
O O15 0.555405 0.000000 0.830206
O O16 0.500000 0.880948 0.000000
#
# Coordination Sequence:
#
# PCOD9202149 Si02
#       7
#     8   8   4   4   8   4   8
#     4  10  22  39  60  84 118 155 199 237 288 340
#     4  10  20  38  59  83 113 147 188 236 291 344
#     4   8  16  32  54  79 107 146 179 216 283 356
#     4   8  16  32  51  77 114 146 179 218 279 350
#     4  10  21  35  58  85 113 148 190 235 285 349
#     4  10  22  40  60  78 110 162 201 234 287 352
#     4   9  18  32  50  76 109 143 181 228 278 319
#
# _framework density 21.847382
#
# number of rings (size 3 to 8) (size 9 to 14) (size 15 to 20)
#    0.000    2.545    0.000    1.091    1.273    5.818 
#    0.000    1.818    0.000    0.000    0.000    0.000 
#    0.000    0.000    0.000    0.000    0.000    0.000 
#
# Total GULP energy -122722.000704 kJ/mol
# GULP energy per Si atom -5578.272759 kJ/mol
# Density = 2.179766 g / cm^3
# Si number density = 21.847382 Si / 1000 Ang^3
#
#
#
# Elastic Constant Matrix: (Units=GPa)
#
#
# Indices 1 2 3 4 5 6 
#
# 1 101.2884 19.2302 30.2739 0.0000 -0.9410 0.0000
# 2 19.2302 119.1353 9.1847 0.0000 -11.8280 0.0000
# 3 30.2739 9.1847 132.1418 0.0000 -5.1714 0.0000
# 4 0.0000 0.0000 0.0000 24.0583 0.0000 -5.3402
# 5 -0.9410 -11.8280 -5.1714 0.0000 15.6180 0.0000
# 6 0.0000 0.0000 0.0000 -5.3402 0.0000 -3.6356
#
#
#
# Elastic Compliance Matrix: (Units=1/GPa)
#
#
# Indices 1 2 3 4 5 6 
#
# 1 0.010914 -0.001718 -0.002438 0.000000 -0.001451 0.000000
# 2 -0.001718 0.009364 0.000016 0.000000 0.006994 0.000000
# 3 -0.002438 0.000016 0.008226 0.000000 0.002589 0.000000
# 4 0.000000 0.000000 0.000000 0.031346 0.000000 -0.046043
# 5 -0.001451 0.006994 0.002589 0.000000 0.070095 0.000000
# 6 0.000000 0.000000 0.000000 -0.046043 0.000000 -0.207429
#
#
# Mechanical properties :
#
#
# Convention : Reuss Voigt Hill
#
# Bulk Modulus (GPa) = 49.44081 52.21588 50.82834
# Shear Modulus (GPa) = -80.04792 26.79993 -26.62399
#
# Velocity S-wave (km/s) = -6.05963 3.50621 -3.49468
# Velocity P-wave (km/s) = 5.12637 6.35166 2.65178
#
# Compressibility (1/GPa) = 0.02022621
#
# Stress axis : x y z
#
# Youngs Moduli (GPa) = 91.62474 106.78993 121.56094
#
# Poissons Ratio (x) = 0.18344 0.29634
# Poissons Ratio (y) = 0.15739 -0.00199
# Poissons Ratio (z) = 0.22336 -0.00175
#
# Static dielectric constant tensor:
#      x y z
#    x 1.753960 0.000000 0.014200 
#    y 0.000000 1.997750 0.000000 
#    z 0.014200 0.000000 1.885130 
# 
# From -- ./inp_files/27925.got.cif
#   From: 2010.05.17/outbox.cif.g08.bks.cpg/sg12_14_cif.got.tgz:27925.got - 2010.06.03 13:09:07.
