data_PCOD9202279
_publ_section_title
;
Structure prediction by ZEFSAII (Michael W. Deem and Ramdas Pophale) SiO2 
 PCOD9202279
Probable space group: C 2/M
;
_chemical_formula_sum "Si O2"
_cell_formula_units_Z 56
_cell_length_a 14.491467
_cell_length_b 13.818932
_cell_length_c 17.949719
_cell_angle_alpha 90.000000
_cell_angle_beta 136.655216
_cell_angle_gamma 90.000000
_cell_volume 2467.252115
_symmetry_space_group_name_H-M "C 2/M"
_symmetry_group_IT_number 12
_symmetry_cell_setting 'monoclinic'
loop_
_space_group_symop_operation_xyz
x,y,z
-x,y,-z
-x,-y,-z
x,-y,z
1/2+x,1/2+y,z
1/2-x,1/2+y,-z
1/2-x,1/2-y,-z
1/2+x,1/2-y,z
loop_
_atom_site_type_symbol
_atom_site_label
_atom_site_fract_x
_atom_site_fract_y
_atom_site_fract_z
Si Si1 0.491814 0.710923 0.411651
Si Si2 0.374997 0.385712 0.208361
Si Si3 0.997227 0.387752 0.780372
Si Si4 0.401510 0.802856 0.007102
Si Si5 0.647667 0.285300 0.363157
Si Si6 0.706691 0.609348 0.116361
Si Si7 0.315367 0.114175 0.337963
O O1 0.500000 0.672135 0.500000
O O2 0.379769 0.656682 0.295607
O O3 0.625954 0.702314 0.439743
O O4 0.443104 0.821683 0.389298
O O5 0.383896 0.500000 0.214781
O O6 0.243816 0.351403 0.088640
O O7 0.510083 0.339703 0.254489
O O8 0.962766 0.500000 0.770385
O O9 0.136072 0.383515 0.814825
O O10 0.880575 0.325585 0.673999
O O11 0.033745 0.335843 0.878700
O O12 0.374132 0.689413 0.976510
O O13 0.500000 0.837373 0.000000
O O14 0.760963 0.337461 0.381748
O O15 0.662216 0.500000 0.074335
O O16 0.709931 0.626319 0.207408
O O17 0.341798 0.000000 0.361074
#
# Coordination Sequence:
#
# PCOD9202279 Si02
#       7
#     8   8   8   8   8   8   8
#     4  10  23  43  68  99 131 173 216 278 331 397
#     4  10  22  42  61  89 128 173 213 267 330 383
#     4  11  22  37  62  89 128 173 215 263 324 389
#     4  12  23  39  60  91 129 171 221 270 320 395
#     4  10  22  41  66  95 130 172 216 273 329 390
#     4  10  20  38  60  86 123 169 213 265 325 382
#     4  11  21  41  69  98 130 171 220 274 328 391
#
# _framework density 22.697316000000001
#
# number of rings (size 3 to 8) (size 9 to 14) (size 15 to 20)
#    0.857    0.571    4.286    2.143    0.000    2.571 
#    0.000    0.714    0.000    0.000    0.000    0.000 
#    0.000    0.000    0.000    0.000    0.000    0.000 
#
# Total GULP energy -156500.399787 kJ/mol
# GULP energy per Si atom -5589.299992 kJ/mol
# Density = 2.264566 g / cm^3
# Si number density = 22.697316 Si / 1000 Ang^3
#
#
#
# Elastic Constant Matrix: (Units=GPa)
#
#
# Indices 1 2 3 4 5 6 
#
# 1 112.3013 30.5992 27.7354 0.0000 -13.3354 0.0000
# 2 30.5992 161.8319 39.9184 0.0000 -7.5441 0.0000
# 3 27.7354 39.9184 97.1412 0.0000 -19.2881 0.0000
# 4 0.0000 0.0000 0.0000 12.3235 0.0000 -3.3141
# 5 -13.3354 -7.5441 -19.2881 0.0000 40.4975 0.0000
# 6 0.0000 0.0000 0.0000 -3.3141 0.0000 18.2125
#
#
#
# Elastic Compliance Matrix: (Units=1/GPa)
#
#
# Indices 1 2 3 4 5 6 
#
# 1 0.009985 -0.001324 -0.001881 0.000000 0.002145 0.000000
# 2 -0.001324 0.007052 -0.002591 0.000000 -0.000356 0.000000
# 3 -0.001881 -0.002591 0.012897 0.000000 0.005041 0.000000
# 4 0.000000 0.000000 0.000000 0.085321 0.000000 0.015526
# 5 0.002145 -0.000356 0.005041 0.000000 0.027734 0.000000
# 6 0.000000 0.000000 0.000000 0.015526 0.000000 0.057732
#
#
# Mechanical properties :
#
#
# Convention : Reuss Voigt Hill
#
# Bulk Modulus (GPa) = 54.51752 63.08670 58.80211
# Shear Modulus (GPa) = 22.89110 32.40813 27.64962
#
# Velocity S-wave (km/s) = 3.17919 3.78278 3.49404
# Velocity P-wave (km/s) = 6.12763 6.85086 6.49932
#
# Compressibility (1/GPa) = 0.01834273
#
# Stress axis : x y z
#
# Youngs Moduli (GPa) = 100.15405 141.80385 77.53943
#
# Poissons Ratio (x) = 0.18774 0.14583
# Poissons Ratio (y) = 0.13260 0.20087
# Poissons Ratio (z) = 0.18836 0.36736
#
# Static dielectric constant tensor:
#      x y z
#    x 1.876930 0.000000 0.021120 
#    y 0.000000 1.802480 0.000000 
#    z 0.021120 0.000000 1.955740 
# 
# From -- ./inp_files/270408.got.cif
#   From: 2010.05.17/outbox.cif.g08.bks.cpg/sg12_136_cif.got.tgz:270408.got - 2010.06.03 13:09:07.
