data_PCOD9202924
_publ_section_title
;
Structure prediction by ZEFSAII (Michael W. Deem and Ramdas Pophale) SiO2 
 PCOD9202924
Probable space group: C 2/M
;
_chemical_formula_sum "Si O2"
_cell_formula_units_Z 32
_cell_length_a 16.593175
_cell_length_b 13.155386
_cell_length_c 7.346709
_cell_angle_alpha 90.000000
_cell_angle_beta 50.873100
_cell_angle_gamma 90.000000
_cell_volume 1244.078648
_symmetry_space_group_name_H-M "C 2/M"
_symmetry_group_IT_number 12
_symmetry_cell_setting 'monoclinic'
loop_
_space_group_symop_operation_xyz
x,y,z
-x,y,-z
-x,-y,-z
x,-y,z
1/2+x,1/2+y,z
1/2-x,1/2+y,-z
1/2-x,1/2-y,-z
1/2+x,1/2-y,z
loop_
_atom_site_type_symbol
_atom_site_label
_atom_site_fract_x
_atom_site_fract_y
_atom_site_fract_z
Si Si1 0.761069 0.827112 0.699718
Si Si2 0.071404 0.609587 0.722030
Si Si3 0.786646 0.111771 0.050543
Si Si4 0.986125 0.821283 0.240031
O O1 0.821576 0.646955 0.337340
O O2 0.735110 0.883233 0.925393
O O3 0.874075 0.859745 0.464100
O O4 0.751208 0.708407 0.777888
O O5 0.077572 0.500000 0.621521
O O6 0.020224 0.703440 0.690997
O O7 0.000000 0.598772 0.000000
O O8 0.909613 0.128485 0.837043
O O9 0.774520 0.000000 0.150101
O O10 0.000000 0.826426 0.000000
#
# Coordination Sequence:
#
# PCOD9202924 Si02
#       4
#     8   8   8   8
#     4  11  23  44  67  93 133 171 216 267 320 384
#     4  10  20  38  64  93 126 169 214 260 322 381
#     4  11  25  44  68  96 129 172 218 266 323 384
#     4  11  23  43  63 100 131 167 213 271 321 380
#
# _framework density 25.721847
#
# number of rings (size 3 to 8) (size 9 to 14) (size 15 to 20)
#    0.000    1.250    5.000    2.250    0.000    4.500 
#    0.000    0.000    0.000    4.500    0.000    0.000 
#    0.000    0.000    0.000    0.000    0.000    0.000 
#
# Total GULP energy -89487.481157 kJ/mol
# GULP energy per Si atom -5592.967572 kJ/mol
# Density = 2.566330 g / cm^3
# Si number density = 25.721847 Si / 1000 Ang^3
#
#
#
# Elastic Constant Matrix: (Units=GPa)
#
#
# Indices 1 2 3 4 5 6 
#
# 1 56.8204 6.4358 32.3938 0.0000 6.6651 0.0000
# 2 6.4358 131.2939 -5.9096 0.0000 4.1039 0.0000
# 3 32.3938 -5.9096 147.4097 0.0000 -34.6698 0.0000
# 4 0.0000 0.0000 0.0000 -31.1640 0.0000 14.0790
# 5 6.6651 4.1039 -34.6698 0.0000 31.6151 0.0000
# 6 0.0000 0.0000 0.0000 14.0790 0.0000 15.5490
#
#
#
# Elastic Compliance Matrix: (Units=1/GPa)
#
#
# Indices 1 2 3 4 5 6 
#
# 1 0.024557 -0.001142 -0.008928 0.000000 -0.014819 0.000000
# 2 -0.001142 0.007702 0.000514 0.000000 -0.000195 0.000000
# 3 -0.008928 0.000514 0.012388 0.000000 0.015401 0.000000
# 4 0.000000 0.000000 0.000000 -0.022773 0.000000 0.020620
# 5 -0.014819 -0.000195 0.015401 0.000000 0.051669 0.000000
# 6 0.000000 0.000000 0.000000 0.020620 0.000000 0.045642
#
#
# Mechanical properties :
#
#
# Convention : Reuss Voigt Hill
#
# Bulk Modulus (GPa) = 39.16232 44.59600 41.87916
# Shear Modulus (GPa) = 34.05782 23.37361 28.71571
#
# Velocity S-wave (km/s) = 3.64274 3.01775 3.34487
# Velocity P-wave (km/s) = 5.74031 5.43303 5.58878
#
# Compressibility (1/GPa) = 0.02553475
#
# Stress axis : x y z
#
# Youngs Moduli (GPa) = 40.72213 129.84085 80.72022
#
# Poissons Ratio (x) = 0.14833 0.72063
# Poissons Ratio (y) = 0.04652 -0.04148
# Poissons Ratio (z) = 0.36355 -0.06672
#
# Static dielectric constant tensor:
#      x y z
#    x 2.019990 0.000000 0.023930 
#    y 0.000000 2.113250 0.000000 
#    z 0.023930 0.000000 2.038020 
# 
# From -- ./inp_files/85457.got.cif
#   From: 2010.05.17/outbox.cif.g08.bks.cpg/sg12_43_cif.got.tgz:85457.got - 2010.06.03 13:09:07.
