data_PCOD9202189
_publ_section_title
;
Structure prediction by ZEFSAII (Michael W. Deem and Ramdas Pophale) SiO2 
 PCOD9202189
Probable space group: C 2/M
;
_chemical_formula_sum "Si O2"
_cell_formula_units_Z 48
_cell_length_a 14.227072
_cell_length_b 26.354199
_cell_length_c 6.694434
_cell_angle_alpha 90.000000
_cell_angle_beta 62.735742
_cell_angle_gamma 90.000000
_cell_volume 2231.175183
_symmetry_space_group_name_H-M "C 2/M"
_symmetry_group_IT_number 12
_symmetry_cell_setting 'monoclinic'
loop_
_space_group_symop_operation_xyz
x,y,z
-x,y,-z
-x,-y,-z
x,-y,z
1/2+x,1/2+y,z
1/2-x,1/2+y,-z
1/2-x,1/2-y,-z
1/2+x,1/2-y,z
loop_
_atom_site_type_symbol
_atom_site_label
_atom_site_fract_x
_atom_site_fract_y
_atom_site_fract_z
Si Si1 0.878502 0.909904 0.637386
Si Si2 0.759690 0.200303 0.158400
Si Si3 0.113240 0.211887 0.319029
Si Si4 0.610408 0.150023 0.957131
Si Si5 0.183625 0.558805 0.103820
Si Si6 0.766599 0.391710 0.543624
O O1 0.878637 0.847849 0.638501
O O2 0.800686 0.927611 0.893166
O O3 0.818735 0.924269 0.492816
O O4 0.000000 0.926509 0.500000
O O5 0.701866 0.248754 0.310033
O O6 0.780932 0.155303 0.287492
O O7 0.866092 0.213831 0.938400
O O8 0.680877 0.179445 0.055933
O O9 0.000000 0.230257 0.500000
O O10 0.600525 0.095119 0.073222
O O11 0.664670 0.135158 0.694976
O O12 0.500000 0.174183 0.000000
O O13 0.164553 0.500000 0.091226
O O14 0.180046 0.574252 0.339277
#
# Coordination Sequence:
#
# PCOD9202189 Si02
#       6
#     8   8   8   8   8   8
#     4  10  21  41  59  87 124 157 195 248 299 354
#     4  10  21  39  57  89 126 161 207 244 290 362
#     4  10  20  38  59  89 128 161 203 248 292 351
#     4  10  22  40  62  89 121 159 198 251 302 352
#     4  10  22  41  62  89 117 153 202 253 305 363
#     4  10  20  39  61  83 116 161 193 252 299 356
#
# _framework density 21.513325999999999
#
# number of rings (size 3 to 8) (size 9 to 14) (size 15 to 20)
#    0.000    2.000    5.000    0.000    2.333    6.667 
#    0.000    1.667    0.000    0.000    0.000    0.000 
#    0.000    0.000    0.000    0.000    0.000    0.000 
#
# Total GULP energy -133669.689334 kJ/mol
# GULP energy per Si atom -5569.570389 kJ/mol
# Density = 2.146436 g / cm^3
# Si number density = 21.513326 Si / 1000 Ang^3
#
#
#
# Elastic Constant Matrix: (Units=GPa)
#
#
# Indices 1 2 3 4 5 6 
#
# 1 53.9515 -26.0765 43.3890 0.0000 -1.5391 0.0000
# 2 -26.0765 73.2067 1.8789 0.0000 8.0188 0.0000
# 3 43.3890 1.8789 86.5452 0.0000 18.1726 0.0000
# 4 0.0000 0.0000 0.0000 7.5445 0.0000 -6.8899
# 5 -1.5391 8.0188 18.1726 0.0000 27.0367 0.0000
# 6 0.0000 0.0000 0.0000 -6.8899 0.0000 12.6118
#
#
#
# Elastic Compliance Matrix: (Units=1/GPa)
#
#
# Indices 1 2 3 4 5 6 
#
# 1 0.051323 0.017084 -0.029866 0.000000 0.017929 0.000000
# 2 0.017084 0.019839 -0.009273 0.000000 0.001322 0.000000
# 3 -0.029866 -0.009273 0.030865 0.000000 -0.019695 0.000000
# 4 0.000000 0.000000 0.000000 0.264518 0.000000 0.144508
# 5 0.017929 0.001322 -0.019695 0.000000 0.050854 0.000000
# 6 0.000000 0.000000 0.000000 0.144508 0.000000 0.158237
#
#
# Mechanical properties :
#
#
# Convention : Reuss Voigt Hill
#
# Bulk Modulus (GPa) = 17.26644 28.00958 22.63801
# Shear Modulus (GPa) = 7.82412 22.40606 15.11509
#
# Velocity S-wave (km/s) = 1.90913 3.23072 2.65352
# Velocity P-wave (km/s) = 3.59208 5.19275 4.46473
#
# Compressibility (1/GPa) = 0.05791581
#
# Stress axis : x y z
#
# Youngs Moduli (GPa) = 19.48453 50.40684 32.39943
#
# Poissons Ratio (x) = -0.86115 0.96764
# Poissons Ratio (y) = -0.33287 0.30045
# Poissons Ratio (z) = 0.58192 0.46743
#
# Static dielectric constant tensor:
#      x y z
#    x 1.841650 0.000000 -0.030290 
#    y 0.000000 1.824160 0.000000 
#    z -0.030290 0.000000 1.797080 
# 
# From -- ./inp_files/12781.got.cif
#   From: 2010.05.17/outbox.cif.g08.bks.cpg/sg12_7_cif.got.tgz:12781.got - 2010.06.03 13:09:07.
