data_PCOD9202195
_publ_section_title
;
Structure prediction by ZEFSAII (Michael W. Deem and Ramdas Pophale) SiO2 
 PCOD9202195
Probable space group: C 2/M
;
_chemical_formula_sum "Si O2"
_cell_formula_units_Z 50
_cell_length_a 12.255469
_cell_length_b 24.667809
_cell_length_c 14.059113
_cell_angle_alpha 90.000000
_cell_angle_beta 36.479448
_cell_angle_gamma 90.000000
_cell_volume 2526.942887
_symmetry_space_group_name_H-M "C 2/M"
_symmetry_group_IT_number 12
_symmetry_cell_setting 'monoclinic'
loop_
_space_group_symop_operation_xyz
x,y,z
-x,y,-z
-x,-y,-z
x,-y,z
1/2+x,1/2+y,z
1/2-x,1/2+y,-z
1/2-x,1/2-y,-z
1/2+x,1/2-y,z
loop_
_atom_site_type_symbol
_atom_site_label
_atom_site_fract_x
_atom_site_fract_y
_atom_site_fract_z
Si Si1 0.673277 0.686226 0.443532
Si Si2 0.777932 0.088817 0.262336
Si Si3 0.289197 0.564037 0.032778
Si Si4 0.311709 0.693288 0.348926
Si Si5 0.500000 0.000000 0.500000
Si Si6 0.585382 0.164265 0.107226
Si Si7 0.370853 0.726545 0.006524
O O1 0.500000 0.671053 0.500000
O O2 0.663942 0.671447 0.561467
O O3 0.693990 0.751812 0.429267
O O4 0.866827 0.663612 0.268830
O O5 0.738455 0.076994 0.178639
O O6 0.737055 0.148218 0.329952
O O7 0.656375 0.046862 0.404630
O O8 0.994644 0.077503 0.125757
O O9 0.258998 0.500000 0.037530
O O10 0.175716 0.605158 0.045611
O O11 0.510108 0.710220 0.168945
O O12 0.638015 0.208179 0.988664
O O13 0.681216 0.194807 0.131054
O O14 0.500000 0.707578 0.000000
#
# Coordination Sequence:
#
# PCOD9202195 Si02
#       7
#     8   8   8   8   2   8   8
#     4  10  24  41  56  88 126 163 206 254 311 372
#     4  11  22  37  58  89 128 157 195 248 305 372
#     4  11  21  41  59  87 126 164 202 255 307 364
#     4  10  22  37  61  87 123 164 199 249 318 371
#     4  12  24  34  56 100 118 164 200 232 316 386
#     4  10  22  36  60  87 115 165 206 246 311 362
#     4  10  20  38  59  91 122 154 206 254 307 373
#
# _framework density 19.786753000000001
#
# number of rings (size 3 to 8) (size 9 to 14) (size 15 to 20)
#    0.000    1.600    3.200    1.440    3.360   12.800 
#    0.000    0.000    0.000    0.960    0.000    0.000 
#    0.000    0.000    0.000    0.000    0.000    0.000 
#
# Total GULP energy -139215.257015 kJ/mol
# GULP energy per Si atom -5568.610281 kJ/mol
# Density = 1.974172 g / cm^3
# Si number density = 19.786753 Si / 1000 Ang^3
#
#
#
# Elastic Constant Matrix: (Units=GPa)
#
#
# Indices 1 2 3 4 5 6 
#
# 1 66.5339 -0.9741 22.2364 -0.0001 -26.5212 0.0000
# 2 -0.9741 113.4035 5.9105 0.0000 -3.2981 0.0000
# 3 22.2364 5.9105 45.5717 -0.0001 -15.3471 0.0000
# 4 -0.0001 0.0000 -0.0001 16.4231 0.0001 -7.3067
# 5 -26.5212 -3.2981 -15.3471 0.0001 27.1001 0.0001
# 6 0.0000 0.0000 0.0000 -7.3067 0.0001 36.8906
#
#
#
# Elastic Compliance Matrix: (Units=1/GPa)
#
#
# Indices 1 2 3 4 5 6 
#
# 1 0.025677 0.001139 -0.005150 0.000000 0.022351 0.000000
# 2 0.001139 0.008935 -0.001202 0.000000 0.001521 0.000000
# 3 -0.005150 -0.001202 0.028254 0.000000 0.010815 0.000000
# 4 0.000000 0.000000 0.000000 0.066774 0.000000 0.013226
# 5 0.022351 0.001521 0.010815 0.000000 0.065083 0.000000
# 6 0.000000 0.000000 0.000000 0.013226 0.000000 0.029727
#
#
# Mechanical properties :
#
#
# Convention : Reuss Voigt Hill
#
# Bulk Modulus (GPa) = 19.06938 31.09496 25.08217
# Shear Modulus (GPa) = 19.81330 29.30517 24.55924
#
# Velocity S-wave (km/s) = 3.16783 3.85262 3.52688
# Velocity P-wave (km/s) = 4.79985 5.96149 5.41193
#
# Compressibility (1/GPa) = 0.05244008
#
# Stress axis : x y z
#
# Youngs Moduli (GPa) = 38.94548 111.92252 35.39304
#
# Poissons Ratio (x) = -0.12748 0.18226
# Poissons Ratio (y) = -0.04436 0.04255
# Poissons Ratio (z) = 0.20055 0.13456
#
# Static dielectric constant tensor:
#      x y z
#    x 1.726510 0.000000 0.016870 
#    y 0.000000 1.717960 0.000000 
#    z 0.016870 0.000000 1.754720 
# 
# From -- ./inp_files/208948.got.cif
#   From: 2010.05.17/outbox.cif.g08.bks.cpg/sg12_105_cif.got.tgz:208948.got - 2010.06.03 13:09:07.
