data_PCOD9202445
_publ_section_title
;
Structure prediction by ZEFSAII (Michael W. Deem and Ramdas Pophale) SiO2 
 PCOD9202445
Probable space group: C 2/M
;
_chemical_formula_sum "Si O2"
_cell_formula_units_Z 40
_cell_length_a 20.271076
_cell_length_b 12.282881
_cell_length_c 7.160052
_cell_angle_alpha 90.000000
_cell_angle_beta 81.211392
_cell_angle_gamma 90.000000
_cell_volume 1761.829607
_symmetry_space_group_name_H-M "C 2/M"
_symmetry_group_IT_number 12
_symmetry_cell_setting 'monoclinic'
loop_
_space_group_symop_operation_xyz
x,y,z
-x,y,-z
-x,-y,-z
x,-y,z
1/2+x,1/2+y,z
1/2-x,1/2+y,-z
1/2-x,1/2-y,-z
1/2+x,1/2-y,z
loop_
_atom_site_type_symbol
_atom_site_label
_atom_site_fract_x
_atom_site_fract_y
_atom_site_fract_z
Si Si1 0.280560 0.128496 0.055852
Si Si2 0.924781 0.279410 0.013520
Si Si3 0.283819 0.116049 0.500198
Si Si4 0.643371 0.318927 0.599756
Si Si5 0.052951 0.879809 0.335755
O O1 0.361159 0.143317 0.002653
O O2 0.268141 0.125320 0.285393
O O3 0.262864 0.000000 0.001891
O O4 0.250000 0.250000 0.000000
O O5 0.904157 0.212070 0.209186
O O6 0.930050 0.192214 0.846220
O O7 0.000000 0.327236 0.000000
O O8 0.336967 0.207833 0.513747
O O9 0.214244 0.133833 0.635460
O O10 0.312625 0.000000 0.529788
O O11 0.614005 0.391083 0.450651
O O12 0.000000 0.826251 0.500000
O O13 0.028557 0.000000 0.289634
#
# Coordination Sequence:
#
# PCOD9202445 Si02
#       5
#     8   8   8   8   8
#     4  10  22  42  69 100 136 178 224 276 333 396
#     4  11  23  41  64  95 132 170 219 276 333 400
#     4   9  19  37  62  89 122 167 215 269 328 388
#     4  10  20  38  61  88 123 163 206 266 327 394
#     4  11  23  38  58  86 126 172 217 269 326 391
#
# _framework density 22.703671
#
# number of rings (size 3 to 8) (size 9 to 14) (size 15 to 20)
#    0.000    1.800    2.000    1.800    0.000    4.800 
#    0.000   18.000    0.000    1.200    0.000    0.000 
#    0.000    0.000    0.000    0.000    0.000    0.000 
#
# Total GULP energy -111361.121806 kJ/mol
# GULP energy per Si atom -5568.056090 kJ/mol
# Density = 2.265200 g / cm^3
# Si number density = 22.703671 Si / 1000 Ang^3
#
#
#
# Elastic Constant Matrix: (Units=GPa)
#
#
# Indices 1 2 3 4 5 6 
#
# 1 82.6761 41.8569 42.4894 0.0000 -22.7410 0.0000
# 2 41.8569 145.4402 5.6942 0.0000 -0.4221 0.0000
# 3 42.4894 5.6942 69.7331 0.0000 -23.3895 0.0000
# 4 0.0000 0.0000 0.0000 4.0818 0.0000 13.9325
# 5 -22.7410 -0.4221 -23.3895 0.0000 38.6089 0.0000
# 6 0.0000 0.0000 0.0000 13.9325 0.0000 29.4612
#
#
#
# Elastic Compliance Matrix: (Units=1/GPa)
#
#
# Indices 1 2 3 4 5 6 
#
# 1 0.022699 -0.006078 -0.011135 0.000000 0.006558 0.000000
# 2 -0.006078 0.008528 0.002306 0.000000 -0.002090 0.000000
# 3 -0.011135 0.002306 0.023526 0.000000 0.007719 0.000000
# 4 0.000000 0.000000 0.000000 -0.398875 0.000000 0.188632
# 5 0.006558 -0.002090 0.007719 0.000000 0.034417 0.000000
# 6 0.000000 0.000000 0.000000 0.188632 0.000000 -0.055263
#
#
# Mechanical properties :
#
#
# Convention : Reuss Voigt Hill
#
# Bulk Modulus (GPa) = 40.09663 53.10339 46.60001
# Shear Modulus (GPa) = -15.29786 28.28429 6.49321
#
# Velocity S-wave (km/s) = -2.59859 3.53342 1.69298
# Velocity P-wave (km/s) = 2.94883 6.33145 4.93877
#
# Compressibility (1/GPa) = 0.02493975
#
# Stress axis : x y z
#
# Youngs Moduli (GPa) = 44.05574 117.25496 42.50678
#
# Poissons Ratio (x) = 0.71262 0.47330
# Poissons Ratio (y) = 0.26775 -0.09801
# Poissons Ratio (z) = 0.49055 -0.27037
#
# Static dielectric constant tensor:
#      x y z
#    x 1.985840 0.000000 -0.006640 
#    y 0.000000 1.894170 0.000000 
#    z -0.006640 0.000000 1.847570 
# 
# From -- ./inp_files/94144.got.cif
#   From: 2010.05.17/outbox.cif.g08.bks.cpg/sg12_48_cif.got.tgz:94144.got - 2010.06.03 13:09:07.
