data_PCOD9202305
_publ_section_title
;
Structure prediction by ZEFSAII (Michael W. Deem and Ramdas Pophale) SiO2 
 PCOD9202305
Probable space group: C 2/M
;
_chemical_formula_sum "Si O2"
_cell_formula_units_Z 44
_cell_length_a 9.836969
_cell_length_b 9.778084
_cell_length_c 28.774825
_cell_angle_alpha 90.000000
_cell_angle_beta 126.594240
_cell_angle_gamma 90.000000
_cell_volume 2222.168548
_symmetry_space_group_name_H-M "C 2/M"
_symmetry_group_IT_number 12
_symmetry_cell_setting 'monoclinic'
loop_
_space_group_symop_operation_xyz
x,y,z
-x,y,-z
-x,-y,-z
x,-y,z
1/2+x,1/2+y,z
1/2-x,1/2+y,-z
1/2-x,1/2-y,-z
1/2+x,1/2-y,z
loop_
_atom_site_type_symbol
_atom_site_label
_atom_site_fract_x
_atom_site_fract_y
_atom_site_fract_z
Si Si1 0.225645 0.500000 0.793021
Si Si2 0.000000 0.253266 0.000000
Si Si3 0.085040 0.341630 0.467049
Si Si4 0.895041 0.000000 0.923717
Si Si5 0.266853 0.000000 0.957260
Si Si6 0.309961 0.836502 0.332276
Si Si7 0.575521 0.718017 0.736766
Si Si8 0.605962 0.500000 0.822835
O O1 0.271522 0.500000 0.856049
O O2 0.111923 0.370102 0.760350
O O3 0.410250 0.500000 0.803212
O O4 0.868499 0.364685 0.993687
O O5 0.886227 0.144559 0.948422
O O6 0.132338 0.500000 0.469442
O O7 0.250000 0.250000 0.500000
O O8 0.000000 0.329472 0.500000
O O9 0.948652 0.305854 0.399619
O O10 0.086085 0.000000 0.943755
O O11 0.228343 0.000000 0.893235
O O12 0.331376 0.728748 0.294212
O O13 0.119126 0.820189 0.311431
O O14 0.331621 0.000000 0.324021
O O15 0.631761 0.624986 0.791991
#
# Coordination Sequence:
#
# PCOD9202305 Si02
#       8
#     4   4   8   4   4   8   8   4
#     4  11  23  40  58  88 125 159 197 259 301 352
#     4  10  20  38  60  90 112 154 202 238 290 368
#     4  10  22  42  64  91 123 158 200 248 301 361
#     4  10  21  37  61  84 120 156 192 244 304 351
#     4  10  21  37  61  86 120 154 193 249 298 348
#     4  11  23  41  63  89 126 159 198 253 304 351
#     4  12  20  42  60  86 123 161 203 249 304 357
#     4  11  23  40  60  88 125 160 200 253 303 357
#
# _framework density 19.800478999999999
#
# number of rings (size 3 to 8) (size 9 to 14) (size 15 to 20)
#    0.000    1.273    3.636    2.727    0.000    1.091 
#    3.273    0.000    8.000    0.000    0.000    0.000 
#    0.000    0.000    0.000    0.000    0.000    0.000 
#
# Total GULP energy -122537.024378 kJ/mol
# GULP energy per Si atom -5569.864744 kJ/mol
# Density = 1.975541 g / cm^3
# Si number density = 19.800479 Si / 1000 Ang^3
#
#
#
# Elastic Constant Matrix: (Units=GPa)
#
#
# Indices 1 2 3 4 5 6 
#
# 1 29.5500 18.2423 -17.2315 0.0000 3.3637 0.0000
# 2 18.2423 124.3415 15.5881 0.0000 -4.7970 0.0000
# 3 -17.2315 15.5881 63.5485 0.0000 -1.5299 0.0000
# 4 0.0000 0.0000 0.0000 22.8873 0.0000 1.3486
# 5 3.3637 -4.7970 -1.5299 0.0000 30.8213 0.0000
# 6 0.0000 0.0000 0.0000 1.3486 0.0000 30.8924
#
#
#
# Elastic Compliance Matrix: (Units=1/GPa)
#
#
# Indices 1 2 3 4 5 6 
#
# 1 0.049447 -0.009442 0.015577 0.000000 -0.006093 0.000000
# 2 -0.009442 0.010145 -0.004992 0.000000 0.002362 0.000000
# 3 0.015577 -0.004992 0.021150 0.000000 -0.001427 0.000000
# 4 0.000000 0.000000 0.000000 0.043805 0.000000 -0.001912
# 5 -0.006093 0.002362 -0.001427 0.000000 0.033407 0.000000
# 6 0.000000 0.000000 0.000000 -0.001912 0.000000 0.032454
#
#
# Mechanical properties :
#
#
# Convention : Reuss Voigt Hill
#
# Bulk Modulus (GPa) = 12.04414 27.84864 19.94639
# Shear Modulus (GPa) = 23.16988 30.30961 26.73975
#
# Velocity S-wave (km/s) = 3.42448 3.91673 3.67885
# Velocity P-wave (km/s) = 4.66177 5.87788 5.30479
#
# Compressibility (1/GPa) = 0.08302792
#
# Stress axis : x y z
#
# Youngs Moduli (GPa) = 20.22357 98.57474 47.28137
#
# Poissons Ratio (x) = 0.93078 -0.73652
# Poissons Ratio (y) = 0.19096 0.23602
# Poissons Ratio (z) = -0.31503 0.49207
#
# Static dielectric constant tensor:
#      x y z
#    x 1.695020 0.000000 -0.053080 
#    y 0.000000 1.659020 0.000000 
#    z -0.053080 0.000000 1.732570 
# 
# From -- ./inp_files/371890.got.cif
#   From: 2010.05.17/outbox.cif.g08.bks.cpg/sg12_186_cif.got.tgz:371890.got - 2010.06.03 13:09:07.
