data_PCOD9202468
_publ_section_title
;
Structure prediction by ZEFSAII (Michael W. Deem and Ramdas Pophale) SiO2 
 PCOD9202468
Probable space group: C 2/M
;
_chemical_formula_sum "Si O2"
_cell_formula_units_Z 42
_cell_length_a 15.981465
_cell_length_b 12.448920
_cell_length_c 20.512914
_cell_angle_alpha 90.000000
_cell_angle_beta 154.306427
_cell_angle_gamma 90.000000
_cell_volume 1769.387006
_symmetry_space_group_name_H-M "C 2/M"
_symmetry_group_IT_number 12
_symmetry_cell_setting 'monoclinic'
loop_
_space_group_symop_operation_xyz
x,y,z
-x,y,-z
-x,-y,-z
x,-y,z
1/2+x,1/2+y,z
1/2-x,1/2+y,-z
1/2-x,1/2-y,-z
1/2+x,1/2-y,z
loop_
_atom_site_type_symbol
_atom_site_label
_atom_site_fract_x
_atom_site_fract_y
_atom_site_fract_z
Si Si1 0.327823 0.115075 0.014395
Si Si2 0.605592 0.378710 0.342948
Si Si3 0.404284 0.293928 0.515725
Si Si4 0.859333 0.165335 0.985598
Si Si5 0.722187 0.882356 0.742838
Si Si6 0.500000 0.500000 0.500000
O O1 0.414531 0.209951 0.033211
O O2 0.107425 0.113028 0.835403
O O3 0.422274 0.000000 0.070459
O O4 0.299642 0.139442 0.071078
O O5 0.688338 0.500000 0.401211
O O6 0.584922 0.334716 0.401879
O O7 0.729163 0.290786 0.390919
O O8 0.590839 0.218732 0.631723
O O9 0.392408 0.402513 0.466151
O O10 0.773837 0.135020 0.855798
O O11 0.066822 0.112341 0.141524
O O12 0.630120 0.000000 0.668996
#
# Coordination Sequence:
#
# PCOD9202468 Si02
#       6
#     8   8   8   8   8   2
#     4  10  20  38  61  91 127 169 213 269 317 395
#     4  10  21  43  68  92 128 172 221 270 323 401
#     4  11  24  43  66  97 127 175 215 272 347 379
#     4  10  21  38  60  95 129 170 217 260 326 379
#     4  11  22  41  65  92 132 171 217 271 322 393
#     4  12  28  48  66  98 144 162 222 292 326 406
#
# _framework density 23.737034999999999
#
# number of rings (size 3 to 8) (size 9 to 14) (size 15 to 20)
#    0.000    1.524    2.857    2.857    2.667    0.000 
#    1.714    1.905    0.000    0.000    0.000    0.000 
#    0.000    0.000    0.000    0.000    0.000    0.000 
#
# Total GULP energy -117133.674993 kJ/mol
# GULP energy per Si atom -5577.794047 kJ/mol
# Density = 2.368301 g / cm^3
# Si number density = 23.737035 Si / 1000 Ang^3
#
#
#
# Elastic Constant Matrix: (Units=GPa)
#
#
# Indices 1 2 3 4 5 6 
#
# 1 59.1444 31.2675 0.0548 -0.0003 -2.5584 -0.0007
# 2 31.2675 268.8589 24.4500 0.0011 14.0439 -0.0002
# 3 0.0548 24.4500 45.4853 0.0030 3.9956 -0.0016
# 4 -0.0003 0.0011 0.0030 6.3580 0.0011 23.6410
# 5 -2.5584 14.0439 3.9956 0.0011 29.4719 -0.0006
# 6 -0.0007 -0.0002 -0.0016 23.6410 -0.0006 31.8855
#
#
#
# Elastic Compliance Matrix: (Units=1/GPa)
#
#
# Indices 1 2 3 4 5 6 
#
# 1 0.018260 -0.002350 0.001016 0.000001 0.002567 0.000000
# 2 -0.002350 0.004289 -0.002130 -0.000001 -0.001959 0.000000
# 3 0.001016 -0.002130 0.023310 0.000008 -0.002057 -0.000005
# 4 0.000001 -0.000001 0.000008 -0.089523 0.000004 0.066376
# 5 0.002567 -0.001959 -0.002057 0.000004 0.035366 -0.000002
# 6 0.000000 0.000000 -0.000005 0.066376 -0.000002 -0.017851
#
#
# Mechanical properties :
#
#
# Convention : Reuss Voigt Hill
#
# Bulk Modulus (GPa) = 25.68764 53.89258 39.79011
# Shear Modulus (GPa) = -800.79121 34.72417 -383.03352
#
# Velocity S-wave (km/s) = -18.38727 3.82890 -12.71675
# Velocity P-wave (km/s) = 20.97484 6.50389 14.10041
#
# Compressibility (1/GPa) = 0.03892922
#
# Stress axis : x y z
#
# Youngs Moduli (GPa) = 54.76363 233.16553 42.90044
#
# Poissons Ratio (x) = 0.54796 -0.04358
# Poissons Ratio (y) = 0.12870 0.09140
# Poissons Ratio (z) = -0.05563 0.49675
#
# Static dielectric constant tensor:
#      x y z
#    x 1.912230 0.000000 -0.002040 
#    y 0.000000 1.919710 0.000000 
#    z -0.002040 0.000000 1.882130 
# 
# From -- ./inp_files/343180.got.cif
#   From: 2010.05.17/outbox.cif.g08.bks.cpg/sg12_172_cif.got.tgz:343180.got - 2010.06.03 13:09:07.
