data_PCOD9202842
_publ_section_title
;
Structure prediction by ZEFSAII (Michael W. Deem and Ramdas Pophale) SiO2 
 PCOD9202842
Probable space group: C 2/M
;
_chemical_formula_sum "Si O2"
_cell_formula_units_Z 40
_cell_length_a 21.925582
_cell_length_b 13.528509
_cell_length_c 9.447875
_cell_angle_alpha 90.000000
_cell_angle_beta 127.452136
_cell_angle_gamma 90.000000
_cell_volume 2224.743806
_symmetry_space_group_name_H-M "C 2/M"
_symmetry_group_IT_number 12
_symmetry_cell_setting 'monoclinic'
loop_
_space_group_symop_operation_xyz
x,y,z
-x,y,-z
-x,-y,-z
x,-y,z
1/2+x,1/2+y,z
1/2-x,1/2+y,-z
1/2-x,1/2-y,-z
1/2+x,1/2-y,z
loop_
_atom_site_type_symbol
_atom_site_label
_atom_site_fract_x
_atom_site_fract_y
_atom_site_fract_z
Si Si1 0.074135 0.809228 0.690253
Si Si2 0.346780 0.887395 0.278364
Si Si3 0.073960 0.117265 0.005765
Si Si4 0.740385 0.610966 0.851700
Si Si5 0.231632 0.211900 0.318174
O O1 0.090960 0.695230 0.672974
O O2 0.064778 0.826570 0.843835
O O3 0.150998 0.866740 0.752150
O O4 0.000000 0.844223 0.500000
O O5 0.300629 0.855151 0.353403
O O6 0.374576 0.000000 0.326082
O O7 0.284126 0.881303 0.063008
O O8 0.080712 0.000000 0.986031
O O9 0.151512 0.154296 0.190974
O O10 0.000000 0.133318 0.000000
O O11 0.750950 0.500000 0.811986
O O12 0.771675 0.693529 0.790498
O O13 0.250000 0.250000 0.500000
#
# Coordination Sequence:
#
# PCOD9202842 Si02
#       5
#     8   8   8   8   8
#     4  11  22  38  61  89 120 153 193 246 291 348
#     4  10  20  40  66  85 110 157 205 247 294 341
#     4  11  24  40  59  86 124 159 190 238 301 356
#     4  10  20  38  64  86 110 152 203 248 291 342
#     4  11  22  38  60  88 121 155 193 246 294 352
#
# _framework density 17.979599
#
# number of rings (size 3 to 8) (size 9 to 14) (size 15 to 20)
#    0.000    1.400    4.000    2.400    5.600    3.600 
#    0.000    0.000    0.000    1.200    0.000    0.000 
#    0.000    0.000    0.000    0.000    0.000    0.000 
#
# Total GULP energy -111715.112421 kJ/mol
# GULP energy per Si atom -5585.755621 kJ/mol
# Density = 1.793868 g / cm^3
# Si number density = 17.979599 Si / 1000 Ang^3
#
#
#
# Elastic Constant Matrix: (Units=GPa)
#
#
# Indices 1 2 3 4 5 6 
#
# 1 99.4910 38.8615 35.7333 0.0000 -6.7524 0.0000
# 2 38.8615 77.9333 -3.6135 0.0000 -10.2896 0.0000
# 3 35.7333 -3.6135 76.5955 0.0000 -6.0922 0.0000
# 4 0.0000 0.0000 0.0000 11.5531 0.0000 -1.2283
# 5 -6.7524 -10.2896 -6.0922 0.0000 30.6518 0.0000
# 6 0.0000 0.0000 0.0000 -1.2283 0.0000 16.4256
#
#
#
# Elastic Compliance Matrix: (Units=1/GPa)
#
#
# Indices 1 2 3 4 5 6 
#
# 1 0.016237 -0.008590 -0.008052 0.000000 -0.000907 0.000000
# 2 -0.008590 0.018048 0.005273 0.000000 0.005214 0.000000
# 3 -0.008052 0.005273 0.017335 0.000000 0.003442 0.000000
# 4 0.000000 0.000000 0.000000 0.087251 0.000000 0.006525
# 5 -0.000907 0.005214 0.003442 0.000000 0.034859 0.000000
# 6 0.000000 0.000000 0.000000 0.006525 0.000000 0.061368
#
#
# Mechanical properties :
#
#
# Convention : Reuss Voigt Hill
#
# Bulk Modulus (GPa) = 34.62322 43.99804 39.31063
# Shear Modulus (GPa) = 18.69428 23.92867 21.31147
#
# Velocity S-wave (km/s) = 3.22801 3.65208 3.44657
# Velocity P-wave (km/s) = 5.76127 6.50444 6.14410
#
# Compressibility (1/GPa) = 0.02888235
#
# Stress axis : x y z
#
# Youngs Moduli (GPa) = 61.58871 55.40881 57.68806
#
# Poissons Ratio (x) = 0.47594 0.46451
# Poissons Ratio (y) = 0.52902 -0.30421
# Poissons Ratio (z) = 0.49592 -0.29219
#
# Static dielectric constant tensor:
#      x y z
#    x 1.600410 0.000000 -0.001990 
#    y 0.000000 1.633130 0.000000 
#    z -0.001990 0.000000 1.589260 
# 
# From -- ./inp_files/58947.got.cif
#   From: 2010.05.17/outbox.cif.g08.bks.cpg/sg12_30_cif.got.tgz:58947.got - 2010.06.03 13:09:07.
