data_PCOD9202365
_publ_section_title
;
Structure prediction by ZEFSAII (Michael W. Deem and Ramdas Pophale) SiO2 
 PCOD9202365
Probable space group: C 2/M
;
_chemical_formula_sum "Si O2"
_cell_formula_units_Z 56
_cell_length_a 11.362573
_cell_length_b 27.785879
_cell_length_c 9.681186
_cell_angle_alpha 90.000000
_cell_angle_beta 69.887104
_cell_angle_gamma 90.000000
_cell_volume 2870.138069
_symmetry_space_group_name_H-M "C 2/M"
_symmetry_group_IT_number 12
_symmetry_cell_setting 'monoclinic'
loop_
_space_group_symop_operation_xyz
x,y,z
-x,y,-z
-x,-y,-z
x,-y,z
1/2+x,1/2+y,z
1/2-x,1/2+y,-z
1/2-x,1/2-y,-z
1/2+x,1/2-y,z
loop_
_atom_site_type_symbol
_atom_site_label
_atom_site_fract_x
_atom_site_fract_y
_atom_site_fract_z
Si Si1 0.865385 0.944404 0.879113
Si Si2 0.397028 0.391551 0.279894
Si Si3 0.813423 0.385902 0.850710
Si Si4 0.180344 0.945759 0.428327
Si Si5 0.549984 0.717070 0.819766
Si Si6 0.690708 0.228333 0.162074
Si Si7 0.024045 0.444425 0.648219
O O1 0.846112 0.940353 0.722073
O O2 0.006924 0.926231 0.838446
O O3 0.847732 0.000000 0.927453
O O4 0.769488 0.909450 0.995604
O O5 0.263966 0.396192 0.258234
O O6 0.382536 0.408237 0.442938
O O7 0.444242 0.337202 0.239878
O O8 0.824610 0.328658 0.854904
O O9 0.946214 0.411438 0.782800
O O10 0.329218 0.942271 0.384454
O O11 0.142032 0.000000 0.487827
O O12 0.447353 0.747413 0.773900
O O13 0.695904 0.734868 0.771473
O O14 0.500000 0.715378 0.000000
O O15 0.750000 0.250000 0.000000
O O16 0.981684 0.500000 0.679733
O O17 0.000000 0.429631 0.500000
#
# Coordination Sequence:
#
# PCOD9202365 Si02
#       7
#     8   8   8   8   8   8   8
#     4  11  23  36  54  89 126 153 191 242 291 341
#     4  11  20  36  61  86 115 156 198 237 288 352
#     4  11  22  37  62  90 114 150 200 247 287 341
#     4  10  22  39  57  82 122 164 194 231 289 351
#     4   9  18  35  59  86 115 149 195 248 299 352
#     4   9  18  36  57  85 118 150 190 244 305 356
#     4  10  20  38  61  84 115 157 199 236 285 349
#
# _framework density 19.511257000000001
#
# number of rings (size 3 to 8) (size 9 to 14) (size 15 to 20)
#    0.000    1.857    1.429    4.286    0.000    4.000 
#   10.286    2.143    0.000    4.286    0.000    0.000 
#    0.000    0.000    0.000    0.000    0.000    0.000 
#
# Total GULP energy -156245.721543 kJ/mol
# GULP energy per Si atom -5580.204341 kJ/mol
# Density = 1.946685 g / cm^3
# Si number density = 19.511257 Si / 1000 Ang^3
#
#
#
# Elastic Constant Matrix: (Units=GPa)
#
#
# Indices 1 2 3 4 5 6 
#
# 1 103.4264 55.6232 19.6319 0.0000 -14.5088 0.0000
# 2 55.6232 80.0440 41.3172 0.0000 -7.0259 0.0000
# 3 19.6319 41.3172 44.7390 0.0000 -11.2379 0.0000
# 4 0.0000 0.0000 0.0000 -7.0812 0.0000 -10.4048
# 5 -14.5088 -7.0259 -11.2379 0.0000 24.9330 0.0000
# 6 0.0000 0.0000 0.0000 -10.4048 0.0000 29.1142
#
#
#
# Elastic Compliance Matrix: (Units=1/GPa)
#
#
# Indices 1 2 3 4 5 6 
#
# 1 0.018516 -0.017427 0.010647 0.000000 0.010663 0.000000
# 2 -0.017427 0.040569 -0.033260 0.000000 -0.013700 0.000000
# 3 0.010647 -0.033260 0.053675 0.000000 0.021016 0.000000
# 4 0.000000 0.000000 0.000000 -0.092595 0.000000 -0.033092
# 5 0.010663 -0.013700 0.021016 0.000000 0.051924 0.000000
# 6 0.000000 0.000000 0.000000 -0.033092 0.000000 0.022521
#
#
# Mechanical properties :
#
#
# Convention : Reuss Voigt Hill
#
# Bulk Modulus (GPa) = 30.59948 51.26157 40.93053
# Shear Modulus (GPa) = 26.94224 16.83566 21.88895
#
# Velocity S-wave (km/s) = 3.72002 2.94065 3.35306
# Velocity P-wave (km/s) = 5.84538 6.15303 6.00117
#
# Compressibility (1/GPa) = 0.03268029
#
# Stress axis : x y z
#
# Youngs Moduli (GPa) = 54.00855 24.64948 18.63063
#
# Poissons Ratio (x) = 0.42956 -0.19837
# Poissons Ratio (y) = 0.94119 0.61966
# Poissons Ratio (z) = -0.57504 0.81985
#
# Static dielectric constant tensor:
#      x y z
#    x 1.732740 0.000000 0.004500 
#    y 0.000000 1.667690 0.000000 
#    z 0.004500 0.000000 1.663090 
# 
# From -- ./inp_files/53314.got.cif
#   From: 2010.05.17/outbox.cif.g08.bks.cpg/sg12_27_cif.got.tgz:53314.got - 2010.06.03 13:09:07.
