data_PCOD9202104
_publ_section_title
;
Structure prediction by ZEFSAII (Michael W. Deem and Ramdas Pophale) SiO2 
 PCOD9202104
Probable space group: C 2/M
;
_chemical_formula_sum "Si O2"
_cell_formula_units_Z 56
_cell_length_a 14.147302
_cell_length_b 26.876968
_cell_length_c 9.322764
_cell_angle_alpha 90.000000
_cell_angle_beta 50.098061
_cell_angle_gamma 90.000000
_cell_volume 2719.412984
_symmetry_space_group_name_H-M "C 2/M"
_symmetry_group_IT_number 12
_symmetry_cell_setting 'monoclinic'
loop_
_space_group_symop_operation_xyz
x,y,z
-x,y,-z
-x,-y,-z
x,-y,z
1/2+x,1/2+y,z
1/2-x,1/2+y,-z
1/2-x,1/2-y,-z
1/2+x,1/2-y,z
loop_
_atom_site_type_symbol
_atom_site_label
_atom_site_fract_x
_atom_site_fract_y
_atom_site_fract_z
Si Si1 0.136768 0.444016 0.938654
Si Si2 0.710054 0.882649 0.603192
Si Si3 0.333272 0.284442 0.566410
Si Si4 0.251373 0.685568 0.201344
Si Si5 0.922965 0.107484 0.201931
Si Si6 0.548308 0.894100 0.305151
Si Si7 0.072504 0.186572 0.221648
O O1 0.186688 0.500000 0.886205
O O2 0.206000 0.406905 0.764332
O O3 0.126373 0.425210 0.112497
O O4 0.000000 0.445772 0.000000
O O5 0.746646 0.824882 0.578147
O O6 0.811170 0.912490 0.408702
O O7 0.577121 0.882830 0.658205
O O8 0.281783 0.232523 0.669794
O O9 0.374606 0.312828 0.671183
O O10 0.453517 0.277692 0.350089
O O11 0.349225 0.650285 0.186270
O O12 0.132033 0.652830 0.273028
O O13 0.323788 0.702928 0.989563
O O14 0.017450 0.134202 0.219620
O O15 0.000000 0.080240 0.000000
O O16 0.500000 0.918968 0.500000
#
# Coordination Sequence:
#
# PCOD9202104 Si02
#       7
#     8   8   8   8   8   8   8
#     4   9  20  39  62  87 117 149 188 238 303 362
#     4  10  20  38  58  87 118 155 195 241 291 345
#     4  10  21  34  52  79 111 157 199 241 280 334
#     4  11  21  35  52  80 118 157 194 239 284 340
#     4   9  19  35  54  77 109 153 196 235 279 334
#     4  11  22  36  59  90 120 155 190 242 291 348
#     4   9  20  34  49  71 104 151 200 233 277 324
#
# _framework density 20.592679
#
# number of rings (size 3 to 8) (size 9 to 14) (size 15 to 20)
#    0.000    2.143    1.429    1.286    2.000    3.714 
#    0.000    6.429    0.000    0.429    0.000   49.000 
#    0.000    0.000    0.000    0.000    0.000    0.000 
#
# Total GULP energy -156035.208805 kJ/mol
# GULP energy per Si atom -5572.686029 kJ/mol
# Density = 2.054581 g / cm^3
# Si number density = 20.592679 Si / 1000 Ang^3
#
#
#
# Elastic Constant Matrix: (Units=GPa)
#
#
# Indices 1 2 3 4 5 6 
#
# 1 67.0528 20.3099 13.1843 0.0000 11.1023 0.0000
# 2 20.3099 56.7793 33.4378 0.0000 3.1584 0.0000
# 3 13.1843 33.4378 158.0169 0.0000 11.4769 0.0000
# 4 0.0000 0.0000 0.0000 8.2752 0.0000 2.3085
# 5 11.1023 3.1584 11.4769 0.0000 32.8210 0.0000
# 6 0.0000 0.0000 0.0000 2.3085 0.0000 11.5113
#
#
#
# Elastic Compliance Matrix: (Units=1/GPa)
#
#
# Indices 1 2 3 4 5 6 
#
# 1 0.017631 -0.006135 0.000223 0.000000 -0.005452 0.000000
# 2 -0.006135 0.022261 -0.004303 0.000000 0.001438 0.000000
# 3 0.000223 -0.004303 0.007383 0.000000 -0.002243 0.000000
# 4 0.000000 0.000000 0.000000 0.128004 0.000000 -0.025670
# 5 -0.005452 0.001438 -0.002243 0.000000 0.032958 0.000000
# 6 0.000000 0.000000 0.000000 -0.025670 0.000000 0.092019
#
#
# Mechanical properties :
#
#
# Convention : Reuss Voigt Hill
#
# Bulk Modulus (GPa) = 37.25061 46.19032 41.72046
# Shear Modulus (GPa) = 15.16834 24.84929 20.00881
#
# Velocity S-wave (km/s) = 2.71696 3.47753 3.12051
# Velocity P-wave (km/s) = 5.28876 6.21317 5.76951
#
# Compressibility (1/GPa) = 0.02684520
#
# Stress axis : x y z
#
# Youngs Moduli (GPa) = 56.71986 44.92260 135.44035
#
# Poissons Ratio (x) = 0.27558 -0.03021
# Poissons Ratio (y) = 0.34795 0.58281
# Poissons Ratio (z) = -0.01265 0.19331
#
# Static dielectric constant tensor:
#      x y z
#    x 1.757300 0.000000 -0.001980 
#    y 0.000000 1.702350 0.000000 
#    z -0.001980 0.000000 1.819300 
# 
# From -- ./inp_files/68102.got.cif
#   From: 2010.05.17/outbox.cif.g08.bks.cpg/sg12_35_cif.got.tgz:68102.got - 2010.06.03 13:09:07.
