data_PCOD9202114
_publ_section_title
;
Structure prediction by ZEFSAII (Michael W. Deem and Ramdas Pophale) SiO2 
 PCOD9202114
Probable space group: C 2/M
;
_chemical_formula_sum "Si O2"
_cell_formula_units_Z 40
_cell_length_a 15.101055
_cell_length_b 14.426529
_cell_length_c 11.271208
_cell_angle_alpha 90.000000
_cell_angle_beta 50.424734
_cell_angle_gamma 90.000000
_cell_volume 1892.669324
_symmetry_space_group_name_H-M "C 2/M"
_symmetry_group_IT_number 12
_symmetry_cell_setting 'monoclinic'
loop_
_space_group_symop_operation_xyz
x,y,z
-x,y,-z
-x,-y,-z
x,-y,z
1/2+x,1/2+y,z
1/2-x,1/2+y,-z
1/2-x,1/2-y,-z
1/2+x,1/2-y,z
loop_
_atom_site_type_symbol
_atom_site_label
_atom_site_fract_x
_atom_site_fract_y
_atom_site_fract_z
Si Si1 0.028439 0.202720 0.300404
Si Si2 0.609648 0.353125 0.971180
Si Si3 0.870210 0.640946 0.096993
Si Si4 0.140507 0.398665 0.169087
Si Si5 0.846548 0.106345 0.583818
O O1 0.068377 0.165995 0.140042
O O2 0.062851 0.311125 0.274305
O O3 0.098576 0.147539 0.341754
O O4 0.897358 0.174093 0.440118
O O5 0.500000 0.397464 0.000000
O O6 0.628710 0.252233 0.896725
O O7 0.735982 0.396071 0.871233
O O8 0.787406 0.606938 0.271011
O O9 0.834235 0.614625 0.993612
O O10 0.000000 0.608169 0.000000
O O11 0.087356 0.500000 0.232251
O O12 0.881746 0.000000 0.530813
#
# Coordination Sequence:
#
# PCOD9202114 Si02
#       5
#     8   8   8   8   8
#     4  10  20  38  58  91 123 152 198 250 305 352
#     4  10  20  38  61  88 121 166 205 245 294 353
#     4  10  20  38  65  93 120 152 199 260 309 346
#     4  11  21  37  60  88 124 164 204 244 293 361
#     4  11  21  36  65  92 118 153 198 259 311 349
#
# _framework density 21.134173000000001
#
# number of rings (size 3 to 8) (size 9 to 14) (size 15 to 20)
#    0.000    1.600    4.000    3.000    0.000    2.800 
#    0.000   11.000    0.000    0.000    0.000    0.000 
#    0.000    0.000    0.000    0.000    0.000    0.000 
#
# Total GULP energy -111584.520779 kJ/mol
# GULP energy per Si atom -5579.226039 kJ/mol
# Density = 2.108607 g / cm^3
# Si number density = 21.134173 Si / 1000 Ang^3
#
#
#
# Elastic Constant Matrix: (Units=GPa)
#
#
# Indices 1 2 3 4 5 6 
#
# 1 63.3703 24.3907 9.5565 0.0000 -19.4989 0.0000
# 2 24.3907 165.4959 59.7397 0.0000 -11.0476 0.0000
# 3 9.5565 59.7397 115.9949 0.0000 -29.4706 0.0000
# 4 0.0000 0.0000 0.0000 -7.6133 0.0000 -18.0456
# 5 -19.4989 -11.0476 -29.4706 0.0000 30.9445 0.0000
# 6 0.0000 0.0000 0.0000 -18.0456 0.0000 -26.9071
#
#
#
# Elastic Compliance Matrix: (Units=1/GPa)
#
#
# Indices 1 2 3 4 5 6 
#
# 1 0.021556 -0.003615 0.004234 0.000000 0.016324 0.000000
# 2 -0.003615 0.008069 -0.004887 0.000000 -0.004052 0.000000
# 3 0.004234 -0.004887 0.014543 0.000000 0.014773 0.000000
# 4 0.000000 0.000000 0.000000 0.222756 0.000000 -0.149394
# 5 0.016324 -0.004052 0.014773 0.000000 0.055225 0.000000
# 6 0.000000 0.000000 0.000000 -0.149394 0.000000 0.063028
#
#
# Mechanical properties :
#
#
# Convention : Reuss Voigt Hill
#
# Bulk Modulus (GPa) = 28.06657 59.13725 43.60191
# Shear Modulus (GPa) = 12.32766 16.02976 14.17871
#
# Velocity S-wave (km/s) = 2.41779 2.75703 2.59296
# Velocity P-wave (km/s) = 4.59383 6.17880 5.44430
#
# Compressibility (1/GPa) = 0.03562958
#
# Stress axis : x y z
#
# Youngs Moduli (GPa) = 46.39007 123.93129 68.76337
#
# Poissons Ratio (x) = 0.44807 -0.29111
# Poissons Ratio (y) = 0.16772 0.33607
# Poissons Ratio (z) = -0.19639 0.60569
#
# Static dielectric constant tensor:
#      x y z
#    x 1.826150 0.000000 -0.059480 
#    y 0.000000 1.788470 0.000000 
#    z -0.059480 0.000000 1.775540 
# 
# From -- ./inp_files/142535.got.cif
#   From: 2010.05.17/outbox.cif.g08.bks.cpg/sg12_72_cif.got.tgz:142535.got - 2010.06.03 13:09:07.
