data_PCOD9202034
_publ_section_title
;
Structure prediction by ZEFSAII (Michael W. Deem and Ramdas Pophale) SiO2 
 PCOD9202034
Probable space group: C 2/M
;
_chemical_formula_sum "Si O2"
_cell_formula_units_Z 56
_cell_length_a 19.401728
_cell_length_b 17.893298
_cell_length_c 14.768670
_cell_angle_alpha 90.000000
_cell_angle_beta 33.775260
_cell_angle_gamma 90.000000
_cell_volume 2850.345965
_symmetry_space_group_name_H-M "C 2/M"
_symmetry_group_IT_number 12
_symmetry_cell_setting 'monoclinic'
loop_
_space_group_symop_operation_xyz
x,y,z
-x,y,-z
-x,-y,-z
x,-y,z
1/2+x,1/2+y,z
1/2-x,1/2+y,-z
1/2-x,1/2-y,-z
1/2+x,1/2-y,z
loop_
_atom_site_type_symbol
_atom_site_label
_atom_site_fract_x
_atom_site_fract_y
_atom_site_fract_z
Si Si1 0.856406 0.914650 0.126853
Si Si2 0.745462 0.314639 0.610212
Si Si3 0.498032 0.775273 0.111791
Si Si4 0.217537 0.178736 0.952906
Si Si5 0.148328 0.162629 0.434102
Si Si6 0.362999 0.310528 0.759873
Si Si7 0.347810 0.912092 0.334326
O O1 0.775490 0.860682 0.276191
O O2 0.826649 0.000000 0.177103
O O3 0.824379 0.891786 0.059866
O O4 0.000000 0.903757 0.000000
O O5 0.611955 0.278690 0.731656
O O6 0.823032 0.241640 0.549280
O O7 0.800156 0.370518 0.476925
O O8 0.620243 0.742491 0.024346
O O9 0.461500 0.860022 0.176347
O O10 0.500000 0.769066 0.000000
O O11 0.201553 0.163444 0.076509
O O12 0.347560 0.219720 0.787039
O O13 0.184036 0.168670 0.289117
O O14 0.235192 0.101715 0.386559
O O15 0.001599 0.156198 0.607253
O O16 0.373342 0.000000 0.317144
#
# Coordination Sequence:
#
# PCOD9202034 Si02
#       7
#     8   8   8   8   8   8   8
#     4  11  21  33  56  91 124 145 178 241 310 348
#     4  11  18  37  60  86 116 146 189 237 292 348
#     4  11  19  36  63  87 113 147 194 243 293 338
#     4  11  18  36  56  86 112 149 194 240 269 343
#     4  10  20  38  57  84 108 151 198 238 268 342
#     4  10  21  33  59  80 106 151 205 226 268 319
#     4  11  24  37  58  89 120 150 183 243 308 347
#
# _framework density 19.646737000000002
#
# number of rings (size 3 to 8) (size 9 to 14) (size 15 to 20)
#    0.000    1.286    4.286    4.714    0.000    0.286 
#    0.000    2.143    0.000   10.286    0.000    0.000 
#    0.000    0.000    0.000    0.000    0.000    0.000 
#
# Total GULP energy -156136.776960 kJ/mol
# GULP energy per Si atom -5576.313463 kJ/mol
# Density = 1.960202 g / cm^3
# Si number density = 19.646737 Si / 1000 Ang^3
#
#
#
# Elastic Constant Matrix: (Units=GPa)
#
#
# Indices 1 2 3 4 5 6 
#
# 1 57.7352 -3.3330 13.4210 0.0000 24.2726 0.0000
# 2 -3.3330 108.0345 10.7950 0.0000 7.9395 0.0000
# 3 13.4210 10.7950 43.1284 0.0000 20.9349 0.0000
# 4 0.0000 0.0000 0.0000 13.9006 0.0000 4.4898
# 5 24.2726 7.9395 20.9349 0.0000 37.3736 0.0000
# 6 0.0000 0.0000 0.0000 4.4898 0.0000 14.9817
#
#
#
# Elastic Compliance Matrix: (Units=1/GPa)
#
#
# Indices 1 2 3 4 5 6 
#
# 1 0.024219 0.001949 -0.000259 0.000000 -0.015998 0.000000
# 2 0.001949 0.009675 -0.001945 0.000000 -0.002232 0.000000
# 3 -0.000259 -0.001945 0.032237 0.000000 -0.017476 0.000000
# 4 0.000000 0.000000 0.000000 0.079649 0.000000 -0.023869
# 5 -0.015998 -0.002232 -0.017476 0.000000 0.047411 0.000000
# 6 0.000000 0.000000 0.000000 -0.023869 0.000000 0.073902
#
#
# Mechanical properties :
#
#
# Convention : Reuss Voigt Hill
#
# Bulk Modulus (GPa) = 15.23895 27.85157 21.54526
# Shear Modulus (GPa) = 17.27264 25.78551 21.52907
#
# Velocity S-wave (km/s) = 2.96828 3.62672 3.31389
# Velocity P-wave (km/s) = 4.41825 5.63422 5.06287
#
# Compressibility (1/GPa) = 0.06562133
#
# Stress axis : x y z
#
# Youngs Moduli (GPa) = 41.28986 103.36181 31.02023
#
# Poissons Ratio (x) = -0.20143 0.00802
# Poissons Ratio (y) = -0.08046 0.06033
# Poissons Ratio (z) = 0.01068 0.20102
#
# Static dielectric constant tensor:
#      x y z
#    x 1.757990 0.000000 -0.027710 
#    y 0.000000 1.659460 0.000000 
#    z -0.027710 0.000000 1.765760 
# 
# From -- ./inp_files/234633.got.cif
#   From: 2010.05.17/outbox.cif.g08.bks.cpg/sg12_118_cif.got.tgz:234633.got - 2010.06.03 13:09:07.
