data_PCOD9202117
_publ_section_title
;
Structure prediction by ZEFSAII (Michael W. Deem and Ramdas Pophale) SiO2 
 PCOD9202117
Probable space group: C 2/M
;
_chemical_formula_sum "Si O2"
_cell_formula_units_Z 48
_cell_length_a 20.796192
_cell_length_b 23.969921
_cell_length_c 5.310717
_cell_angle_alpha 90.000000
_cell_angle_beta 63.301994
_cell_angle_gamma 90.000000
_cell_volume 2365.065761
_symmetry_space_group_name_H-M "C 2/M"
_symmetry_group_IT_number 12
_symmetry_cell_setting 'monoclinic'
loop_
_space_group_symop_operation_xyz
x,y,z
-x,y,-z
-x,-y,-z
x,-y,z
1/2+x,1/2+y,z
1/2-x,1/2+y,-z
1/2-x,1/2-y,-z
1/2+x,1/2-y,z
loop_
_atom_site_type_symbol
_atom_site_label
_atom_site_fract_x
_atom_site_fract_y
_atom_site_fract_z
Si Si1 0.082347 0.592925 0.885640
Si Si2 0.064230 0.698125 0.220594
Si Si3 0.282121 0.337926 0.085836
Si Si4 0.178044 0.746488 0.384202
Si Si5 0.926388 0.189373 0.052029
Si Si6 0.671452 0.936056 0.228452
O O1 0.124637 0.579071 0.557710
O O2 0.078732 0.658997 0.957095
O O3 0.123157 0.569958 0.061144
O O4 0.000000 0.573293 0.000000
O O5 0.134228 0.706457 0.266881
O O6 0.000000 0.672926 0.500000
O O7 0.045295 0.760801 0.176106
O O8 0.239793 0.297329 0.360224
O O9 0.363809 0.346835 0.034615
O O10 0.238022 0.393296 0.108848
O O11 0.288947 0.297485 0.833058
O O12 0.118522 0.774742 0.664424
O O13 0.000000 0.159345 0.000000
O O14 0.695158 0.000000 0.207023
#
# Coordination Sequence:
#
# PCOD9202117 Si02
#       6
#     8   8   8   8   8   8
#     4  12  26  43  67  97 130 174 223 272 316 373
#     4  11  20  34  58  93 133 171 208 254 317 389
#     4  10  23  37  60  90 128 169 212 268 326 384
#     4  10  20  38  58  92 129 167 212 258 318 403
#     4  11  21  34  60  91 132 169 210 261 323 398
#     4  12  27  47  68  91 126 174 230 277 325 382
#
# _framework density 20.29542
#
# number of rings (size 3 to 8) (size 9 to 14) (size 15 to 20)
#    0.000    1.000    3.333    4.000    2.333    2.000 
#    0.000    0.000    0.000    0.500    0.000    1.167 
#    0.000    0.000    0.000    0.000    0.000    0.000 
#
# Total GULP energy -134075.399294 kJ/mol
# GULP energy per Si atom -5586.474971 kJ/mol
# Density = 2.024923 g / cm^3
# Si number density = 20.295420 Si / 1000 Ang^3
#
#
#
# Elastic Constant Matrix: (Units=GPa)
#
#
# Indices 1 2 3 4 5 6 
#
# 1 174.6273 60.4602 51.7930 0.0000 -20.7169 0.0000
# 2 60.4602 119.8262 33.3947 0.0000 -11.8808 0.0000
# 3 51.7930 33.3947 99.4218 0.0000 -1.9303 0.0000
# 4 0.0000 0.0000 0.0000 11.7742 0.0000 0.5547
# 5 -20.7169 -11.8808 -1.9303 0.0000 32.1820 0.0000
# 6 0.0000 0.0000 0.0000 0.5547 0.0000 9.2408
#
#
#
# Elastic Compliance Matrix: (Units=1/GPa)
#
#
# Indices 1 2 3 4 5 6 
#
# 1 0.008126 -0.002808 -0.003212 0.000000 0.004002 0.000000
# 2 -0.002808 0.010523 -0.002034 0.000000 0.001955 0.000000
# 3 -0.003212 -0.002034 0.012374 0.000000 -0.002076 0.000000
# 4 0.000000 0.000000 0.000000 0.085172 0.000000 -0.005113
# 5 0.004002 0.001955 -0.002076 0.000000 0.034247 0.000000
# 6 0.000000 0.000000 0.000000 -0.005113 0.000000 0.108522
#
#
# Mechanical properties :
#
#
# Convention : Reuss Voigt Hill
#
# Bulk Modulus (GPa) = 67.04607 76.13012 71.58810
# Shear Modulus (GPa) = 17.85429 27.18791 22.52110
#
# Velocity S-wave (km/s) = 2.96923 3.66404 3.33478
# Velocity P-wave (km/s) = 6.69790 7.44934 7.08359
#
# Compressibility (1/GPa) = 0.01491512
#
# Stress axis : x y z
#
# Youngs Moduli (GPa) = 123.05777 95.03029 80.81207
#
# Poissons Ratio (x) = 0.26686 0.25960
# Poissons Ratio (y) = 0.34557 0.16435
# Poissons Ratio (z) = 0.39531 0.19326
#
# Static dielectric constant tensor:
#      x y z
#    x 1.879780 0.000000 0.040830 
#    y 0.000000 1.701020 0.000000 
#    z 0.040830 0.000000 1.793870 
# 
# From -- ./inp_files/21561.got.cif
#   From: 2010.05.17/outbox.cif.g08.bks.cpg/sg12_11_cif.got.tgz:21561.got - 2010.06.03 13:09:07.
