data_PCOD9202880
_publ_section_title
;
Structure prediction by ZEFSAII (Michael W. Deem and Ramdas Pophale) SiO2 
 PCOD9202880
Probable space group: C 2/M
;
_chemical_formula_sum "Si O2"
_cell_formula_units_Z 58
_cell_length_a 19.392186
_cell_length_b 17.521051
_cell_length_c 11.893199
_cell_angle_alpha 90.000000
_cell_angle_beta 143.175548
_cell_angle_gamma 90.000000
_cell_volume 2422.016972
_symmetry_space_group_name_H-M "C 2/M"
_symmetry_group_IT_number 12
_symmetry_cell_setting 'monoclinic'
loop_
_space_group_symop_operation_xyz
x,y,z
-x,y,-z
-x,-y,-z
x,-y,z
1/2+x,1/2+y,z
1/2-x,1/2+y,-z
1/2-x,1/2-y,-z
1/2+x,1/2-y,z
loop_
_atom_site_type_symbol
_atom_site_label
_atom_site_fract_x
_atom_site_fract_y
_atom_site_fract_z
Si Si1 0.790403 0.165999 0.024476
Si Si2 0.374336 0.372369 0.776565
Si Si3 0.791423 0.587856 0.867535
Si Si4 0.000000 0.000000 0.500000
Si Si5 0.130191 0.305969 0.219066
Si Si6 0.450508 0.911797 0.697894
Si Si7 0.330805 0.085251 0.330687
Si Si8 0.492687 0.417857 0.718347
O O1 0.704419 0.137460 0.817184
O O2 0.750000 0.250000 0.000000
O O3 0.785067 0.112455 0.127238
O O4 0.920055 0.152561 0.151086
O O5 0.343067 0.282594 0.732491
O O6 0.277843 0.412341 0.725478
O O7 0.390237 0.404593 0.671685
O O8 0.500000 0.381043 0.000000
O O9 0.768932 0.500000 0.805420
O O10 0.791168 0.648525 0.766951
O O11 0.920184 0.590903 0.087729
O O12 0.967502 0.934291 0.554845
O O13 0.122805 0.353653 0.323740
O O14 0.000000 0.308674 0.000000
O O15 0.436608 0.892508 0.548823
O O16 0.412377 0.000000 0.662458
O O17 0.349157 0.000000 0.311597
O O18 0.550719 0.500000 0.828066
#
# Coordination Sequence:
#
# PCOD9202880 Si02
#       8
#     8   8   8   2   8   8   8   8
#     4  12  25  40  63  92 125 165 213 265 322 388
#     4  11  21  36  68  95 122 164 204 260 323 371
#     4  10  20  38  64  90 120 177 213 250 319 373
#     4   8  24  48  66  92 132 160 218 264 322 372
#     4   9  19  36  60  88 127 155 208 254 309 365
#     4   9  20  38  58  87 126 159 209 257 300 372
#     4  11  23  40  60  93 123 159 209 259 309 373
#     4  10  22  45  65  92 128 164 211 265 312 388
#
# _framework density 23.946984
#
# number of rings (size 3 to 8) (size 9 to 14) (size 15 to 20)
#    0.414    1.379    1.379    2.897    3.862    3.310 
#    4.966    2.069    0.000    0.000    0.000    0.000 
#    0.000    0.000    0.000    0.000    0.000    0.000 
#
# Total GULP energy -162011.021914 kJ/mol
# GULP energy per Si atom -5586.586963 kJ/mol
# Density = 2.389248 g / cm^3
# Si number density = 23.946984 Si / 1000 Ang^3
#
#
#
# Elastic Constant Matrix: (Units=GPa)
#
#
# Indices 1 2 3 4 5 6 
#
# 1 95.3615 38.6230 18.3556 0.0000 -16.1201 0.0000
# 2 38.6230 90.6453 34.1335 0.0000 -18.7893 0.0000
# 3 18.3556 34.1335 93.0699 0.0000 -17.7936 0.0000
# 4 0.0000 0.0000 0.0000 13.8003 0.0000 -4.7807
# 5 -16.1201 -18.7893 -17.7936 0.0000 47.8601 0.0000
# 6 0.0000 0.0000 0.0000 -4.7807 0.0000 35.9888
#
#
#
# Elastic Compliance Matrix: (Units=1/GPa)
#
#
# Indices 1 2 3 4 5 6 
#
# 1 0.012926 -0.004914 -0.000305 0.000000 0.002311 0.000000
# 2 -0.004914 0.015247 -0.004085 0.000000 0.002812 0.000000
# 3 -0.000305 -0.004085 0.012893 0.000000 0.003087 0.000000
# 4 0.000000 0.000000 0.000000 0.075957 0.000000 0.010090
# 5 0.002311 0.002812 0.003087 0.000000 0.023924 0.000000
# 6 0.000000 0.000000 0.000000 0.010090 0.000000 0.029127
#
#
# Mechanical properties :
#
#
# Convention : Reuss Voigt Hill
#
# Bulk Modulus (GPa) = 44.52783 51.25566 47.89174
# Shear Modulus (GPa) = 25.48829 32.06082 28.77456
#
# Velocity S-wave (km/s) = 3.26600 3.66297 3.47016
# Velocity P-wave (km/s) = 5.73210 6.27216 6.00820
#
# Compressibility (1/GPa) = 0.02245787
#
# Stress axis : x y z
#
# Youngs Moduli (GPa) = 77.36376 65.58757 77.56008
#
# Poissons Ratio (x) = 0.32227 0.02369
# Poissons Ratio (y) = 0.38013 0.31684
# Poissons Ratio (z) = 0.02363 0.26793
#
# Static dielectric constant tensor:
#      x y z
#    x 1.738980 0.000000 -1.104670 
#    y 0.000000 1.852620 0.000000 
#    z -1.104670 0.000000 -5.004830 
# 
# From -- ./inp_files/169007.got.cif
#   From: 2010.05.17/outbox.cif.g08.bks.cpg/sg12_85_cif.got.tgz:169007.got - 2010.06.03 13:09:07.
