data_PCOD9202599
_publ_section_title
;
Structure prediction by ZEFSAII (Michael W. Deem and Ramdas Pophale) SiO2 
 PCOD9202599
Probable space group: C 2/M
;
_chemical_formula_sum "Si O2"
_cell_formula_units_Z 38
_cell_length_a 12.349353
_cell_length_b 15.176429
_cell_length_c 8.807052
_cell_angle_alpha 90.000000
_cell_angle_beta 109.406459
_cell_angle_gamma 90.000000
_cell_volume 1556.830534
_symmetry_space_group_name_H-M "C 2/M"
_symmetry_group_IT_number 12
_symmetry_cell_setting 'monoclinic'
loop_
_space_group_symop_operation_xyz
x,y,z
-x,y,-z
-x,-y,-z
x,-y,z
1/2+x,1/2+y,z
1/2-x,1/2+y,-z
1/2-x,1/2-y,-z
1/2+x,1/2-y,z
loop_
_atom_site_type_symbol
_atom_site_label
_atom_site_fract_x
_atom_site_fract_y
_atom_site_fract_z
Si Si1 0.930667 0.902337 0.698297
Si Si2 0.000000 0.805788 0.000000
Si Si3 0.845439 0.225370 0.418711
Si Si4 0.824527 0.350559 0.896141
Si Si5 0.500000 0.000000 0.000000
Si Si6 0.315069 0.099624 0.244216
O O1 0.925986 0.830137 0.566996
O O2 0.807082 0.905129 0.726958
O O3 0.956776 0.000000 0.656525
O O4 0.016966 0.868266 0.865272
O O5 0.108297 0.742199 0.072858
O O6 0.750000 0.250000 0.500000
O O7 0.782720 0.163654 0.264545
O O8 0.879446 0.317097 0.351235
O O9 0.916671 0.422965 0.886515
O O10 0.800381 0.378978 0.058807
O O11 0.367076 0.000000 0.276194
#
# Coordination Sequence:
#
# PCOD9202599 Si02
#       6
#     8   4   8   8   2   8
#     4  10  22  39  65  87 119 160 212 247 308 355
#     4  11  21  37  61  86 122 162 194 256 302 360
#     4  10  20  38  62  89 118 162 205 248 297 367
#     4  11  21  39  62  88 126 158 203 245 310 363
#     4  10  24  36  62  94 122 158 194 250 312 358
#     4  10  20  38  62  92 117 161 208 248 294 376
#
# _framework density 24.408567000000001
#
# number of rings (size 3 to 8) (size 9 to 14) (size 15 to 20)
#    0.000    1.684    5.263    0.947    1.474    0.000 
#    0.000    1.053    0.000    7.579    0.000    0.000 
#    0.000    0.000    0.000    0.000    0.000    0.000 
#
# Total GULP energy -105975.332264 kJ/mol
# GULP energy per Si atom -5577.649067 kJ/mol
# Density = 2.435301 g / cm^3
# Si number density = 24.408567 Si / 1000 Ang^3
#
#
#
# Elastic Constant Matrix: (Units=GPa)
#
#
# Indices 1 2 3 4 5 6 
#
# 1 29.3739 -10.0044 7.7356 0.0000 -23.1863 0.0000
# 2 -10.0044 204.1606 72.0755 0.0000 -1.8296 0.0000
# 3 7.7356 72.0755 164.5758 0.0000 -6.6207 0.0000
# 4 0.0000 0.0000 0.0000 18.9697 0.0000 13.3498
# 5 -23.1863 -1.8296 -6.6207 0.0000 36.3665 0.0000
# 6 0.0000 0.0000 0.0000 13.3498 0.0000 -34.2274
#
#
#
# Elastic Compliance Matrix: (Units=1/GPa)
#
#
# Indices 1 2 3 4 5 6 
#
# 1 0.073646 0.005426 -0.003967 0.000000 0.046505 0.000000
# 2 0.005426 0.006195 -0.002837 0.000000 0.003255 0.000000
# 3 -0.003967 -0.002837 0.007452 0.000000 -0.001315 0.000000
# 4 0.000000 0.000000 0.000000 0.041362 0.000000 0.016133
# 5 0.046505 0.003255 -0.001315 0.000000 0.057073 0.000000
# 6 0.000000 0.000000 0.000000 0.016133 0.000000 -0.022924
#
#
# Mechanical properties :
#
#
# Convention : Reuss Voigt Hill
#
# Bulk Modulus (GPa) = 11.82920 59.74711 35.78815
# Shear Modulus (GPa) = 25.80794 26.10867 25.95830
#
# Velocity S-wave (km/s) = 3.25519 3.27410 3.26466
# Velocity P-wave (km/s) = 4.35720 6.23089 5.37630
#
# Compressibility (1/GPa) = 0.08453658
#
# Stress axis : x y z
#
# Youngs Moduli (GPa) = 13.57852 161.42704 134.18721
#
# Poissons Ratio (x) = -0.87592 0.53233
# Poissons Ratio (y) = -0.07368 0.38070
# Poissons Ratio (z) = 0.05387 0.45798
#
# Static dielectric constant tensor:
#      x y z
#    x 2.104910 0.000000 -0.010300 
#    y 0.000000 1.929800 0.000000 
#    z -0.010300 0.000000 1.897620 
# 
# From -- ./inp_files/59274.got.cif
#   From: 2010.05.17/outbox.cif.g08.bks.cpg/sg12_30_cif.got.tgz:59274.got - 2010.06.03 13:09:07.
