data_PCOD9202386
_publ_section_title
;
Structure prediction by ZEFSAII (Michael W. Deem and Ramdas Pophale) SiO2 
 PCOD9202386
Probable space group: C 2/M
;
_chemical_formula_sum "Si O2"
_cell_formula_units_Z 40
_cell_length_a 13.891266
_cell_length_b 11.116033
_cell_length_c 24.118530
_cell_angle_alpha 90.000000
_cell_angle_beta 147.351984
_cell_angle_gamma 90.000000
_cell_volume 2009.162682
_symmetry_space_group_name_H-M "C 2/M"
_symmetry_group_IT_number 12
_symmetry_cell_setting 'monoclinic'
loop_
_space_group_symop_operation_xyz
x,y,z
-x,y,-z
-x,-y,-z
x,-y,z
1/2+x,1/2+y,z
1/2-x,1/2+y,-z
1/2-x,1/2-y,-z
1/2+x,1/2-y,z
loop_
_atom_site_type_symbol
_atom_site_label
_atom_site_fract_x
_atom_site_fract_y
_atom_site_fract_z
Si Si1 0.488161 0.206610 0.663513
Si Si2 0.631155 0.632054 0.178406
Si Si3 0.417325 0.638389 0.519325
Si Si4 0.566676 0.862407 0.969152
Si Si5 0.052565 0.137315 0.802891
O O1 0.665292 0.129391 0.741779
O O2 0.474088 0.282910 0.599769
O O3 0.298515 0.144875 0.583723
O O4 0.527018 0.287405 0.735929
O O5 0.548057 0.500000 0.123807
O O6 0.539238 0.752329 0.109799
O O7 0.613599 0.643435 0.236221
O O8 0.500000 0.678443 0.500000
O O9 0.474412 0.500000 0.554849
O O10 0.546856 0.000000 0.936158
O O11 0.500000 0.868560 0.000000
O O12 0.775548 0.830130 0.076353
O O13 0.083380 0.000000 0.800740
#
# Coordination Sequence:
#
# PCOD9202386 Si02
#       5
#     8   8   8   8   8
#     4  11  21  38  60  84 115 152 192 239 298 350
#     4  11  23  38  59  90 123 152 195 248 295 337
#     4  10  22  39  59  84 113 147 192 243 293 350
#     4  10  20  38  61  85 119 161 204 235 276 349
#     4  10  21  38  59  85 118 160 201 237 284 351
#
# _framework density 19.908791999999998
#
# number of rings (size 3 to 8) (size 9 to 14) (size 15 to 20)
#    0.000    1.600    2.000    3.000    0.000    1.200 
#    0.000    2.000    0.000    9.600    0.000    0.000 
#    0.000    0.000    0.000    0.000    0.000    0.000 
#
# Total GULP energy -111497.797692 kJ/mol
# GULP energy per Si atom -5574.889885 kJ/mol
# Density = 1.986348 g / cm^3
# Si number density = 19.908792 Si / 1000 Ang^3
#
#
#
# Elastic Constant Matrix: (Units=GPa)
#
#
# Indices 1 2 3 4 5 6 
#
# 1 125.4299 39.5163 24.9296 0.0000 -3.7532 0.0000
# 2 39.5163 122.2897 60.1530 0.0000 -19.9828 0.0000
# 3 24.9296 60.1530 60.8452 -0.0001 -2.0941 0.0000
# 4 0.0000 0.0000 -0.0001 12.2208 0.0000 3.0136
# 5 -3.7532 -19.9828 -2.0941 0.0000 25.3277 0.0000
# 6 0.0000 0.0000 0.0000 3.0136 0.0000 27.3356
#
#
#
# Elastic Compliance Matrix: (Units=1/GPa)
#
#
# Indices 1 2 3 4 5 6 
#
# 1 0.008960 -0.002291 -0.001426 0.000000 -0.000598 0.000000
# 2 -0.002291 0.020539 -0.018875 0.000000 0.014305 0.000000
# 3 -0.001426 -0.018875 0.035260 0.000000 -0.012187 0.000000
# 4 0.000000 0.000000 0.000000 0.084115 0.000000 -0.009273
# 5 -0.000598 0.014305 -0.012187 0.000000 0.049672 0.000000
# 6 0.000000 0.000000 0.000000 -0.009273 0.000000 0.037605
#
#
# Mechanical properties :
#
#
# Convention : Reuss Voigt Hill
#
# Bulk Modulus (GPa) = 51.08626 61.97362 56.52994
# Shear Modulus (GPa) = 17.36951 25.24120 21.30536
#
# Velocity S-wave (km/s) = 2.95694 3.56454 3.27486
# Velocity P-wave (km/s) = 6.11341 6.93813 6.53879
#
# Compressibility (1/GPa) = 0.01957474
#
# Stress axis : x y z
#
# Youngs Moduli (GPa) = 111.60593 48.68675 28.36076
#
# Poissons Ratio (x) = 0.11156 0.04045
# Poissons Ratio (y) = 0.25574 0.53530
# Poissons Ratio (z) = 0.15919 0.91894
#
# Static dielectric constant tensor:
#      x y z
#    x 1.717050 0.000000 0.058860 
#    y 0.000000 1.712740 0.000000 
#    z 0.058860 0.000000 1.736780 
# 
# From -- ./inp_files/140820.got.cif
#   From: 2010.05.17/outbox.cif.g08.bks.cpg/sg12_71_cif.got.tgz:140820.got - 2010.06.03 13:09:07.
