data_PCOD9202694
_publ_section_title
;
Structure prediction by ZEFSAII (Michael W. Deem and Ramdas Pophale) SiO2 
 PCOD9202694
Probable space group: C 2/M
;
_chemical_formula_sum "Si O2"
_cell_formula_units_Z 44
_cell_length_a 9.836598
_cell_length_b 27.388230
_cell_length_c 9.296553
_cell_angle_alpha 90.000000
_cell_angle_beta 49.116061
_cell_angle_gamma 90.000000
_cell_volume 1893.537344
_symmetry_space_group_name_H-M "C 2/M"
_symmetry_group_IT_number 12
_symmetry_cell_setting 'monoclinic'
loop_
_space_group_symop_operation_xyz
x,y,z
-x,y,-z
-x,-y,-z
x,-y,z
1/2+x,1/2+y,z
1/2-x,1/2+y,-z
1/2-x,1/2-y,-z
1/2+x,1/2-y,z
loop_
_atom_site_type_symbol
_atom_site_label
_atom_site_fract_x
_atom_site_fract_y
_atom_site_fract_z
Si Si1 0.306850 0.052927 0.708398
Si Si2 0.685277 0.947998 0.957553
Si Si3 0.384478 0.644405 0.705375
Si Si4 0.000000 0.232814 0.000000
Si Si5 0.206808 0.159021 0.687668
Si Si6 0.643576 0.791733 0.662232
O O1 0.500000 0.053975 0.500000
O O2 0.208458 0.102908 0.734583
O O3 0.218851 0.000000 0.732835
O O4 0.340249 0.053112 0.854722
O O5 0.775702 0.897662 0.854961
O O6 0.779509 0.000000 0.857447
O O7 0.500000 0.948572 0.000000
O O8 0.500000 0.619242 0.500000
O O9 0.526139 0.666194 0.718056
O O10 0.266320 0.683848 0.701631
O O11 0.169969 0.197416 0.842356
O O12 0.987621 0.267486 0.866557
O O13 0.370103 0.169501 0.460258
O O14 0.750000 0.750000 0.500000
#
# Coordination Sequence:
#
# PCOD9202694 Si02
#       6
#     8   8   8   4   8   8
#     4  10  23  42  67  98 134 176 217 270 335 397
#     4  10  23  41  64  97 133 171 220 268 324 402
#     4  10  22  38  64  94 131 173 218 272 328 390
#     4  10  20  38  63  86 127 170 216 266 330 374
#     4  10  21  40  63  96 129 165 221 272 324 395
#     4   9  21  39  59  89 128 168 216 267 327 386
#
# _framework density 23.236931999999999
#
# number of rings (size 3 to 8) (size 9 to 14) (size 15 to 20)
#    0.000    2.182    0.000    1.091    6.364    1.818 
#    0.000   16.818    0.000    0.000    0.000    0.000 
#    0.000    0.000    0.000    0.000    0.000    0.000 
#
# Total GULP energy -122688.248374 kJ/mol
# GULP energy per Si atom -5576.738562 kJ/mol
# Density = 2.318404 g / cm^3
# Si number density = 23.236932 Si / 1000 Ang^3
#
#
#
# Elastic Constant Matrix: (Units=GPa)
#
#
# Indices 1 2 3 4 5 6 
#
# 1 60.0984 48.0575 26.2933 0.0000 20.1551 0.0000
# 2 48.0575 163.5388 77.5907 0.0000 18.2047 0.0000
# 3 26.2933 77.5907 150.1418 0.0000 12.4044 0.0000
# 4 0.0000 0.0000 0.0000 74.7485 0.0000 -21.6230
# 5 20.1551 18.2047 12.4044 0.0000 23.1469 0.0000
# 6 0.0000 0.0000 0.0000 -21.6230 0.0000 54.4326
#
#
#
# Elastic Compliance Matrix: (Units=1/GPa)
#
#
# Indices 1 2 3 4 5 6 
#
# 1 0.028097 -0.005967 -0.000212 0.000000 -0.019658 0.000000
# 2 -0.005967 0.009803 -0.003990 0.000000 -0.000376 0.000000
# 3 -0.000212 -0.003990 0.008878 0.000000 -0.001435 0.000000
# 4 0.000000 0.000000 0.000000 0.015115 0.000000 0.006004
# 5 -0.019658 -0.000376 -0.001435 0.000000 0.061384 0.000000
# 6 0.000000 0.000000 0.000000 0.006004 0.000000 0.020757
#
#
# Mechanical properties :
#
#
# Convention : Reuss Voigt Hill
#
# Bulk Modulus (GPa) = 37.82390 75.29577 56.55983
# Shear Modulus (GPa) = 28.87063 45.25477 37.06270
#
# Velocity S-wave (km/s) = 3.52866 4.41788 3.99807
# Velocity P-wave (km/s) = 5.73714 7.64836 6.76062
#
# Compressibility (1/GPa) = 0.02643831
#
# Stress axis : x y z
#
# Youngs Moduli (GPa) = 35.59113 102.00685 112.63670
#
# Poissons Ratio (x) = 0.60872 0.02393
# Poissons Ratio (y) = 0.21239 0.44943
# Poissons Ratio (z) = 0.00756 0.40702
#
# Static dielectric constant tensor:
#      x y z
#    x 1.848120 0.000000 -0.036580 
#    y 0.000000 1.959800 0.000000 
#    z -0.036580 0.000000 1.917050 
# 
# From -- ./inp_files/51206.got.cif
#   From: 2010.05.17/outbox.cif.g08.bks.cpg/sg12_26_cif.got.tgz:51206.got - 2010.06.03 13:09:07.
