data_PCOD9202442
_publ_section_title
;
Structure prediction by ZEFSAII (Michael W. Deem and Ramdas Pophale) SiO2 
 PCOD9202442
Probable space group: C 2/M
;
_chemical_formula_sum "Si O2"
_cell_formula_units_Z 48
_cell_length_a 14.243575
_cell_length_b 17.179411
_cell_length_c 17.459643
_cell_angle_alpha 90.000000
_cell_angle_beta 144.316667
_cell_angle_gamma 90.000000
_cell_volume 2492.058900
_symmetry_space_group_name_H-M "C 2/M"
_symmetry_group_IT_number 12
_symmetry_cell_setting 'monoclinic'
loop_
_space_group_symop_operation_xyz
x,y,z
-x,y,-z
-x,-y,-z
x,-y,z
1/2+x,1/2+y,z
1/2-x,1/2+y,-z
1/2-x,1/2-y,-z
1/2+x,1/2-y,z
loop_
_atom_site_type_symbol
_atom_site_label
_atom_site_fract_x
_atom_site_fract_y
_atom_site_fract_z
Si Si1 0.680623 0.407579 0.101986
Si Si2 0.876585 0.191932 0.544974
Si Si3 0.689672 0.161594 0.968452
Si Si4 0.308118 0.827392 0.724661
Si Si5 0.342405 0.593244 0.223443
Si Si6 0.623334 0.181795 0.642365
O O1 0.678655 0.500000 0.107193
O O2 0.736944 0.383598 0.055086
O O3 0.803184 0.372976 0.245254
O O4 0.500000 0.377701 0.000000
O O5 0.750000 0.250000 0.500000
O O6 0.791971 0.149624 0.417267
O O7 0.976856 0.129158 0.659518
O O8 0.011893 0.251352 0.604812
O O9 0.496464 0.160011 0.838765
O O10 0.750000 0.250000 0.000000
O O11 0.749716 0.125204 0.087852
O O12 0.244006 0.872958 0.757047
O O13 0.267935 0.734571 0.704082
O O14 0.343668 0.500000 0.225923
O O15 0.500000 0.143455 0.500000
#
# Coordination Sequence:
#
# PCOD9202442 Si02
#       6
#     8   8   8   8   8   8
#     4  11  24  40  57  83 121 158 195 248 312 369
#     4  10  20  38  61  88 120 160 207 246 290 359
#     4  12  23  39  64  88 117 161 211 256 304 370
#     4  10  21  38  63  89 118 157 201 252 304 362
#     4  11  24  40  60  92 129 161 201 258 321 375
#     4   9  19  37  60  85 112 148 200 248 292 356
#
# _framework density 19.261181000000001
#
# number of rings (size 3 to 8) (size 9 to 14) (size 15 to 20)
#    0.000    1.500    0.000    7.500    0.000    5.000 
#    0.000    2.500    0.000    0.000    0.000    0.000 
#    0.000    0.000    0.000    0.000    0.000    0.000 
#
# Total GULP energy -133973.932381 kJ/mol
# GULP energy per Si atom -5582.247183 kJ/mol
# Density = 1.921734 g / cm^3
# Si number density = 19.261181 Si / 1000 Ang^3
#
#
#
# Elastic Constant Matrix: (Units=GPa)
#
#
# Indices 1 2 3 4 5 6 
#
# 1 104.6565 32.2356 75.7977 0.0001 8.6931 0.0000
# 2 32.2356 75.3473 68.4252 0.0004 -3.3734 0.0000
# 3 75.7977 68.4252 182.6398 0.0004 -2.8571 -0.0002
# 4 0.0001 0.0004 0.0004 17.0426 -0.0003 0.7752
# 5 8.6931 -3.3734 -2.8571 -0.0003 36.3195 -0.0002
# 6 0.0000 0.0000 -0.0002 0.7752 -0.0002 22.6670
#
#
#
# Elastic Compliance Matrix: (Units=1/GPa)
#
#
# Indices 1 2 3 4 5 6 
#
# 1 0.014264 -0.001285 -0.005500 0.000000 -0.003966 0.000000
# 2 -0.001285 0.020291 -0.007043 0.000000 0.001638 0.000000
# 3 -0.005500 -0.007043 0.010420 0.000000 0.001482 0.000000
# 4 0.000000 0.000000 0.000000 0.058768 0.000001 -0.002010
# 5 -0.003966 0.001638 0.001482 0.000001 0.028751 0.000000
# 6 0.000000 0.000000 0.000000 -0.002010 0.000000 0.044186
#
#
# Mechanical properties :
#
#
# Convention : Reuss Voigt Hill
#
# Bulk Modulus (GPa) = 57.74360 79.50672 68.62516
# Shear Modulus (GPa) = 23.79716 27.61815 25.70766
#
# Velocity S-wave (km/s) = 3.51878 3.79076 3.65730
# Velocity P-wave (km/s) = 6.82301 7.77995 7.31714
#
# Compressibility (1/GPa) = 0.01731794
#
# Stress axis : x y z
#
# Youngs Moduli (GPa) = 70.10690 49.28309 95.97178
#
# Poissons Ratio (x) = 0.06333 0.52787
# Poissons Ratio (y) = 0.09009 0.67592
# Poissons Ratio (z) = 0.38561 0.34710
#
# Static dielectric constant tensor:
#      x y z
#    x 1.690680 0.000000 0.008920 
#    y 0.000000 1.730840 0.000000 
#    z 0.008920 0.000000 1.688180 
# 
# From -- ./inp_files/271781.got.cif
#   From: 2010.05.17/outbox.cif.g08.bks.cpg/sg12_136_cif.got.tgz:271781.got - 2010.06.03 13:09:07.
