data_PCOD9202258
_publ_section_title
;
Structure prediction by ZEFSAII (Michael W. Deem and Ramdas Pophale) SiO2 
 PCOD9202258
Probable space group: C 2/M
;
_chemical_formula_sum "Si O2"
_cell_formula_units_Z 38
_cell_length_a 11.708902
_cell_length_b 25.659640
_cell_length_c 7.955439
_cell_angle_alpha 90.000000
_cell_angle_beta 37.523702
_cell_angle_gamma 90.000000
_cell_volume 1455.834620
_symmetry_space_group_name_H-M "C 2/M"
_symmetry_group_IT_number 12
_symmetry_cell_setting 'monoclinic'
loop_
_space_group_symop_operation_xyz
x,y,z
-x,y,-z
-x,-y,-z
x,-y,z
1/2+x,1/2+y,z
1/2-x,1/2+y,-z
1/2-x,1/2-y,-z
1/2+x,1/2-y,z
loop_
_atom_site_type_symbol
_atom_site_label
_atom_site_fract_x
_atom_site_fract_y
_atom_site_fract_z
Si Si1 0.775411 0.667581 0.087767
Si Si2 0.283871 0.445112 0.402715
Si Si3 0.769818 0.944056 0.795464
Si Si4 0.500000 0.000000 0.500000
Si Si5 0.907488 0.831281 0.326664
Si Si6 0.500000 0.753030 0.000000
O O1 0.810564 0.606312 0.021029
O O2 0.692704 0.669533 0.375419
O O3 0.621057 0.680776 0.131008
O O4 0.937695 0.708928 0.921065
O O5 0.401736 0.500000 0.270784
O O6 0.194433 0.444954 0.693812
O O7 0.134751 0.455441 0.433637
O O8 0.383908 0.389560 0.282381
O O9 0.000000 0.938961 0.500000
O O10 0.729857 0.000000 0.926601
O O11 0.854008 0.787534 0.254768
#
# Coordination Sequence:
#
# PCOD9202258 Si02
#       6
#     8   8   8   2   8   4
#     4  10  20  38  60  85 116 153 203 250 289 347
#     4   8  15  30  56  86 117 143 186 238 294 362
#     4   9  14  28  60  89 103 142 196 241 285 356
#     4   8  16  28  50  90 128 136 176 240 302 346
#     4  10  20  39  61  83 112 164 201 234 301 358
#     4  12  24  36  54  88 124 156 202 256 282 332
#
# _framework density 26.101865
#
# number of rings (size 3 to 8) (size 9 to 14) (size 15 to 20)
#    0.632    1.895    4.211    1.263    0.000    0.000 
#    0.000   11.579    0.000    0.000    0.000    0.000 
#    0.000    0.000    0.000    0.000    0.000    0.000 
#
# Total GULP energy -105817.413187 kJ/mol
# GULP energy per Si atom -5569.337536 kJ/mol
# Density = 2.604246 g / cm^3
# Si number density = 26.101865 Si / 1000 Ang^3
#
#
#
# Elastic Constant Matrix: (Units=GPa)
#
#
# Indices 1 2 3 4 5 6 
#
# 1 150.7067 41.9175 16.9483 0.0000 -16.4546 0.0000
# 2 41.9175 233.1716 27.2086 0.0000 -18.2556 0.0000
# 3 16.9483 27.2086 58.3831 0.0000 10.1102 0.0000
# 4 0.0000 0.0000 0.0000 -190.2765 0.0000 -295.3691
# 5 -16.4546 -18.2556 10.1102 0.0000 32.4878 0.0000
# 6 0.0000 0.0000 0.0000 -295.3691 0.0000 -356.0853
#
#
#
# Elastic Compliance Matrix: (Units=1/GPa)
#
#
# Indices 1 2 3 4 5 6 
#
# 1 0.007594 -0.000729 -0.002600 0.000000 0.004246 0.000000
# 2 -0.000729 0.004988 -0.002679 0.000000 0.003267 0.000000
# 3 -0.002600 -0.002679 0.020738 0.000000 -0.009275 0.000000
# 4 0.000000 0.000000 0.000000 0.018272 0.000000 -0.015156
# 5 0.004246 0.003267 -0.009275 0.000000 0.037653 0.000000
# 6 0.000000 0.000000 0.000000 -0.015156 0.000000 0.009764
#
#
# Mechanical properties :
#
#
# Convention : Reuss Voigt Hill
#
# Bulk Modulus (GPa) = 46.93940 68.26780 57.60360
# Shear Modulus (GPa) = 42.32769 -79.02899 -18.35065
#
# Velocity S-wave (km/s) = 4.03132 -5.50844 -2.65437
# Velocity P-wave (km/s) = 6.30007 3.77439 3.56686
#
# Compressibility (1/GPa) = 0.02130406
#
# Stress axis : x y z
#
# Youngs Moduli (GPa) = 131.67941 200.47369 48.22176
#
# Poissons Ratio (x) = 0.14624 0.12537
# Poissons Ratio (y) = 0.09606 0.12917
# Poissons Ratio (z) = 0.34234 0.53700
#
# Static dielectric constant tensor:
#      x y z
#    x 2.033440 0.000000 -0.037940 
#    y 0.000000 2.098300 0.000000 
#    z -0.037940 0.000000 2.301140 
# 
# From -- ./inp_files/148263.got.cif
#   From: 2010.05.17/outbox.cif.g08.bks.cpg/sg12_75_cif.got.tgz:148263.got - 2010.06.03 13:09:07.
