data_PCOD9202387
_publ_section_title
;
Structure prediction by ZEFSAII (Michael W. Deem and Ramdas Pophale) SiO2 
 PCOD9202387
Probable space group: C 2/M
;
_chemical_formula_sum "Si O2"
_cell_formula_units_Z 64
_cell_length_a 11.018279
_cell_length_b 23.067841
_cell_length_c 12.688485
_cell_angle_alpha 90.000000
_cell_angle_beta 72.449930
_cell_angle_gamma 90.000000
_cell_volume 3074.893942
_symmetry_space_group_name_H-M "C 2/M"
_symmetry_group_IT_number 12
_symmetry_cell_setting 'monoclinic'
loop_
_space_group_symop_operation_xyz
x,y,z
-x,y,-z
-x,-y,-z
x,-y,z
1/2+x,1/2+y,z
1/2-x,1/2+y,-z
1/2-x,1/2-y,-z
1/2+x,1/2-y,z
loop_
_atom_site_type_symbol
_atom_site_label
_atom_site_fract_x
_atom_site_fract_y
_atom_site_fract_z
Si Si1 0.002723 0.433381 0.819790
Si Si2 0.218986 0.816679 0.534087
Si Si3 0.588948 0.676210 0.881797
Si Si4 0.953941 0.628040 0.390973
Si Si5 0.782860 0.068057 0.059109
Si Si6 0.046396 0.166890 0.307933
Si Si7 0.278974 0.431614 0.812457
Si Si8 0.165318 0.287344 0.279476
O O1 0.999419 0.500000 0.855009
O O2 0.018020 0.426208 0.690231
O O3 0.133450 0.409473 0.834350
O O4 0.863420 0.411044 0.886803
O O5 0.250000 0.750000 0.500000
O O6 0.305870 0.856374 0.438093
O O7 0.271609 0.821431 0.639483
O O8 0.072316 0.832195 0.581668
O O9 0.627197 0.609560 0.897018
O O10 0.511971 0.680670 0.792998
O O11 0.725984 0.707958 0.837127
O O12 0.500000 0.697341 0.000000
O O13 0.000000 0.622911 0.500000
O O14 0.028871 0.680311 0.310753
O O15 0.792462 0.000000 0.086441
O O16 0.811419 0.073106 0.927744
O O17 0.123728 0.107714 0.277669
O O18 0.136717 0.220823 0.311632
O O19 0.283202 0.500000 0.782735
#
# Coordination Sequence:
#
# PCOD9202387 Si02
#       8
#     8   8   8   8   8   8   8   8
#     4  10  21  38  63  91 120 157 201 247 295 355
#     4  10  21  37  60  88 110 151 205 249 285 353
#     4  11  22  39  58  88 127 154 195 245 297 363
#     4  10  20  38  61  85 120 152 199 256 291 341
#     4  10  20  39  66  88 115 160 206 247 294 352
#     4  11  23  38  61  88 120 162 197 245 305 355
#     4  10  22  40  61  90 123 156 199 247 298 362
#     4  10  22  38  58  86 119 155 200 242 295 352
#
# _framework density 20.813727
#
# number of rings (size 3 to 8) (size 9 to 14) (size 15 to 20)
#    0.000    1.750    3.750    0.375    1.750    3.000 
#    0.000    0.625    0.000    1.500    0.000    0.000 
#    0.000    0.000    0.000    0.000    0.000    0.000 
#
# Total GULP energy -178510.419903 kJ/mol
# GULP energy per Si atom -5578.450622 kJ/mol
# Density = 2.076635 g / cm^3
# Si number density = 20.813727 Si / 1000 Ang^3
#
#
#
# Elastic Constant Matrix: (Units=GPa)
#
#
# Indices 1 2 3 4 5 6 
#
# 1 87.8462 23.0137 47.1088 0.0000 -25.5808 0.0000
# 2 23.0137 40.2480 7.2398 0.0000 -15.4819 0.0000
# 3 47.1088 7.2398 78.5030 0.0000 -27.5269 0.0000
# 4 0.0000 0.0000 0.0000 30.8727 0.0000 -3.1272
# 5 -25.5808 -15.4819 -27.5269 0.0000 48.9649 0.0000
# 6 0.0000 0.0000 0.0000 -3.1272 0.0000 29.9399
#
#
#
# Elastic Compliance Matrix: (Units=1/GPa)
#
#
# Indices 1 2 3 4 5 6 
#
# 1 0.019794 -0.008791 -0.010482 0.000000 0.001668 0.000000
# 2 -0.008791 0.032217 0.005313 0.000000 0.008581 0.000000
# 3 -0.010482 0.005313 0.021432 0.000000 0.008252 0.000000
# 4 0.000000 0.000000 0.000000 0.032737 0.000000 0.003419
# 5 0.001668 0.008581 0.008252 0.000000 0.028647 0.000000
# 6 0.000000 0.000000 0.000000 0.003419 0.000000 0.033757
#
#
# Mechanical properties :
#
#
# Convention : Reuss Voigt Hill
#
# Bulk Modulus (GPa) = 21.96666 40.14689 31.05677
# Shear Modulus (GPa) = 23.62062 30.57115 27.09589
#
# Velocity S-wave (km/s) = 3.37242 3.83665 3.61200
# Velocity P-wave (km/s) = 5.07357 6.24156 5.68762
#
# Compressibility (1/GPa) = 0.04552353
#
# Stress axis : x y z
#
# Youngs Moduli (GPa) = 50.52153 31.03904 46.65849
#
# Poissons Ratio (x) = 0.27285 0.48908
# Poissons Ratio (y) = 0.44411 -0.24789
# Poissons Ratio (z) = 0.52957 -0.16490
#
# Static dielectric constant tensor:
#      x y z
#    x 1.808600 0.000000 0.007340 
#    y 0.000000 1.735550 0.000000 
#    z 0.007340 0.000000 1.768860 
# 
# From -- ./inp_files/135931.got.cif
#   From: 2010.05.17/outbox.cif.g08.bks.cpg/sg12_68_cif.got.tgz:135931.got - 2010.06.03 13:09:07.
