data_PCOD9202344
_publ_section_title
;
Structure prediction by ZEFSAII (Michael W. Deem and Ramdas Pophale) SiO2 
 PCOD9202344
Probable space group: C 2/M
;
_chemical_formula_sum "Si O2"
_cell_formula_units_Z 56
_cell_length_a 21.193409
_cell_length_b 18.193694
_cell_length_c 9.329949
_cell_angle_alpha 90.000000
_cell_angle_beta 126.811939
_cell_angle_gamma 90.000000
_cell_volume 2880.183144
_symmetry_space_group_name_H-M "C 2/M"
_symmetry_group_IT_number 12
_symmetry_cell_setting 'monoclinic'
loop_
_space_group_symop_operation_xyz
x,y,z
-x,y,-z
-x,-y,-z
x,-y,z
1/2+x,1/2+y,z
1/2-x,1/2+y,-z
1/2-x,1/2-y,-z
1/2+x,1/2-y,z
loop_
_atom_site_type_symbol
_atom_site_label
_atom_site_fract_x
_atom_site_fract_y
_atom_site_fract_z
Si Si1 0.145632 0.416603 0.123119
Si Si2 0.677909 0.807357 0.421880
Si Si3 0.073283 0.084707 0.491497
Si Si4 0.472534 0.700439 0.800081
Si Si5 0.267801 0.813445 0.193661
Si Si6 0.702609 0.582064 0.873640
Si Si7 0.124263 0.717472 0.925321
O O1 0.115644 0.500000 0.106054
O O2 0.173011 0.375342 0.304831
O O3 0.218330 0.422884 0.111508
O O4 0.094569 0.356172 0.966577
O O5 0.750000 0.750000 0.500000
O O6 0.596954 0.761013 0.297478
O O7 0.694367 0.834943 0.605365
O O8 0.057947 0.130188 0.328158
O O9 0.142219 0.119357 0.682140
O O10 0.000000 0.084120 0.500000
O O11 0.093886 0.000000 0.484225
O O12 0.550732 0.728823 0.826495
O O13 0.500000 0.685792 0.000000
O O14 0.338127 0.793259 0.179787
O O15 0.220172 0.876012 0.043055
O O16 0.200928 0.749769 0.115110
O O17 0.672785 0.500000 0.864865
#
# Coordination Sequence:
#
# PCOD9202344 Si02
#       7
#     8   8   8   8   8   8   8
#     4  10  20  38  61  82 116 155 199 242 299 358
#     4  12  23  38  58  90 122 154 199 251 299 353
#     4  10  22  37  58  88 123 160 198 236 291 366
#     4  12  24  38  60  87 124 158 198 252 296 352
#     4  10  21  36  63  84 122 155 194 254 287 355
#     4   9  19  37  60  88 119 158 196 239 297 359
#     4  10  21  39  57  89 114 156 203 236 304 347
#
# _framework density 19.443207999999998
#
# number of rings (size 3 to 8) (size 9 to 14) (size 15 to 20)
#    0.000    1.571    2.857    1.714    6.000    0.857 
#    0.000    1.429    0.000    8.571    0.000    5.000 
#    0.000    0.000    0.000    0.000    0.000    0.000 
#
# Total GULP energy -156155.765786 kJ/mol
# GULP energy per Si atom -5576.991635 kJ/mol
# Density = 1.939895 g / cm^3
# Si number density = 19.443208 Si / 1000 Ang^3
#
#
#
# Elastic Constant Matrix: (Units=GPa)
#
#
# Indices 1 2 3 4 5 6 
#
# 1 40.8367 13.0599 19.5990 0.0000 2.6528 0.0000
# 2 13.0599 118.3146 59.3865 0.0000 -17.1909 0.0000
# 3 19.5990 59.3865 143.2695 0.0000 -18.2528 0.0000
# 4 0.0000 0.0000 0.0000 22.2409 0.0000 6.0682
# 5 2.6528 -17.1909 -18.2528 0.0000 19.9259 0.0000
# 6 0.0000 0.0000 0.0000 6.0682 0.0000 5.2730
#
#
#
# Elastic Compliance Matrix: (Units=1/GPa)
#
#
# Indices 1 2 3 4 5 6 
#
# 1 0.027802 -0.002437 -0.003999 0.000000 -0.009467 0.000000
# 2 -0.002437 0.011521 -0.003549 0.000000 0.007014 0.000000
# 3 -0.003999 -0.003549 0.009822 0.000000 0.006468 0.000000
# 4 0.000000 0.000000 0.000000 0.065542 0.000000 -0.075426
# 5 -0.009467 0.007014 0.006468 0.000000 0.063422 0.000000
# 6 0.000000 0.000000 0.000000 -0.075426 0.000000 0.276447
#
#
# Mechanical properties :
#
#
# Convention : Reuss Voigt Hill
#
# Bulk Modulus (GPa) = 34.27605 54.05684 44.16645
# Shear Modulus (GPa) = 10.32523 23.51299 16.91911
#
# Velocity S-wave (km/s) = 2.30694 3.48130 2.95308
# Velocity P-wave (km/s) = 4.97625 6.63491 5.86451
#
# Compressibility (1/GPa) = 0.02917489
#
# Stress axis : x y z
#
# Youngs Moduli (GPa) = 35.96923 86.79507 101.81264
#
# Poissons Ratio (x) = 0.21152 0.40716
# Poissons Ratio (y) = 0.08766 0.36131
# Poissons Ratio (z) = 0.14385 0.30802
#
# Static dielectric constant tensor:
#      x y z
#    x 1.692790 0.000000 -0.000820 
#    y 0.000000 1.783810 0.000000 
#    z -0.000820 0.000000 1.684780 
# 
# From -- ./inp_files/98190.got.cif
#   From: 2010.05.17/outbox.cif.g08.bks.cpg/sg12_50_cif.got.tgz:98190.got - 2010.06.03 13:09:07.
