data_PCOD9202776
_publ_section_title
;
Structure prediction by ZEFSAII (Michael W. Deem and Ramdas Pophale) SiO2 
 PCOD9202776
Probable space group: C 2/M
;
_chemical_formula_sum "Si O2"
_cell_formula_units_Z 64
_cell_length_a 25.883178
_cell_length_b 9.022822
_cell_length_c 14.296268
_cell_angle_alpha 90.000000
_cell_angle_beta 85.092785
_cell_angle_gamma 90.000000
_cell_volume 3326.502488
_symmetry_space_group_name_H-M "C 2/M"
_symmetry_group_IT_number 12
_symmetry_cell_setting 'monoclinic'
loop_
_space_group_symop_operation_xyz
x,y,z
-x,y,-z
-x,-y,-z
x,-y,z
1/2+x,1/2+y,z
1/2-x,1/2+y,-z
1/2-x,1/2-y,-z
1/2+x,1/2-y,z
loop_
_atom_site_type_symbol
_atom_site_label
_atom_site_fract_x
_atom_site_fract_y
_atom_site_fract_z
Si Si1 0.019629 0.175522 0.393773
Si Si2 0.127672 0.672563 0.392777
Si Si3 0.496831 0.176116 0.791112
Si Si4 0.087739 0.176022 0.890734
Si Si5 0.604587 0.324125 0.107625
Si Si6 0.300226 0.176137 0.445372
Si Si7 0.803750 0.674906 0.800908
Si Si8 0.690888 0.678121 0.757765
O O1 0.079709 0.221687 0.380732
O O2 0.000000 0.216818 0.500000
O O3 0.991580 0.260151 0.313837
O O4 0.013138 0.000000 0.382111
O O5 0.110508 0.500000 0.390520
O O6 0.152639 0.700881 0.489815
O O7 0.171316 0.691628 0.306468
O O8 0.539777 0.234350 0.856459
O O9 0.441141 0.240115 0.830804
O O10 0.495054 0.000000 0.789435
O O11 0.139852 0.211646 0.825372
O O12 0.077030 0.000000 0.881179
O O13 0.096867 0.203857 0.998741
O O14 0.600096 0.500000 0.125043
O O15 0.659798 0.265812 0.135270
O O16 0.250000 0.250000 0.500000
O O17 0.310326 0.244854 0.342629
O O18 0.292072 0.000000 0.439347
O O19 0.806348 0.500000 0.824310
O O20 0.743868 0.720905 0.803085
O O21 0.693579 0.500000 0.743478
#
# Coordination Sequence:
#
# PCOD9202776 Si02
#       8
#     8   8   8   8   8   8   8   8
#     4  11  25  42  62  91 123 160 203 247 303 366
#     4  10  21  38  59  87 123 160 200 247 304 361
#     4  12  25  42  66  93 124 163 205 254 310 369
#     4  10  24  44  65  90 124 164 205 256 315 368
#     4  11  23  41  66  94 121 157 208 261 311 368
#     4  11  22  37  59  88 121 160 204 246 293 355
#     4  10  20  38  63  91 124 163 203 250 305 364
#     4  10  22  42  63  88 126 167 204 250 309 368
#
# _framework density 19.239426000000002
#
# number of rings (size 3 to 8) (size 9 to 14) (size 15 to 20)
#    0.000    1.375    2.500    2.625    1.750    6.000 
#    0.000    0.000    0.000    0.000    0.000    0.000 
#    0.000    0.000    0.000    0.000    0.000    0.000 
#
# Total GULP energy -178927.815448 kJ/mol
# GULP energy per Si atom -5591.494233 kJ/mol
# Density = 1.919564 g / cm^3
# Si number density = 19.239426 Si / 1000 Ang^3
#
#
#
# Elastic Constant Matrix: (Units=GPa)
#
#
# Indices 1 2 3 4 5 6 
#
# 1 52.3035 30.2614 21.1073 0.0000 14.6093 0.0000
# 2 30.2614 61.8820 59.5229 0.0000 12.5495 0.0000
# 3 21.1073 59.5229 109.7091 0.0000 14.2088 0.0000
# 4 0.0000 0.0000 0.0000 22.8094 0.0000 12.8810
# 5 14.6093 12.5495 14.2088 0.0000 32.4111 0.0000
# 6 0.0000 0.0000 0.0000 12.8810 0.0000 25.2417
#
#
#
# Elastic Compliance Matrix: (Units=1/GPa)
#
#
# Indices 1 2 3 4 5 6 
#
# 1 0.029686 -0.017437 0.004885 0.000000 -0.008771 0.000000
# 2 -0.017437 0.044939 -0.020983 0.000000 -0.000342 0.000000
# 3 0.004885 -0.020983 0.019924 0.000000 -0.002812 0.000000
# 4 0.000000 0.000000 0.000000 0.061591 0.000000 -0.031430
# 5 -0.008771 -0.000342 -0.002812 0.000000 0.036172 0.000000
# 6 0.000000 0.000000 0.000000 -0.031430 0.000000 0.055656
#
#
# Mechanical properties :
#
#
# Convention : Reuss Voigt Hill
#
# Bulk Modulus (GPa) = 36.39108 49.51974 42.95541
# Shear Modulus (GPa) = 15.42266 23.62596 19.52431
#
# Velocity S-wave (km/s) = 2.83436 3.50808 3.18906
# Velocity P-wave (km/s) = 5.44677 6.49641 5.99461
#
# Compressibility (1/GPa) = 0.02747926
#
# Stress axis : x y z
#
# Youngs Moduli (GPa) = 33.68535 22.25229 50.19178
#
# Poissons Ratio (x) = 0.38802 -0.24520
# Poissons Ratio (y) = 0.58739 1.05316
# Poissons Ratio (z) = -0.16456 0.46692
#
# Static dielectric constant tensor:
#      x y z
#    x 1.653050 0.000000 0.002680 
#    y 0.000000 1.647850 0.000000 
#    z 0.002680 0.000000 1.661180 
# 
# From -- ./inp_files/238738.got.cif
#   From: 2010.05.17/outbox.cif.g08.bks.cpg/sg12_120_cif.got.tgz:238738.got - 2010.06.03 13:09:07.
