data_PCOD9202663
_publ_section_title
;
Structure prediction by ZEFSAII (Michael W. Deem and Ramdas Pophale) SiO2 
 PCOD9202663
Probable space group: C 2/M
;
_chemical_formula_sum "Si O2"
_cell_formula_units_Z 40
_cell_length_a 20.386532
_cell_length_b 14.166292
_cell_length_c 9.678149
_cell_angle_alpha 90.000000
_cell_angle_beta 146.120728
_cell_angle_gamma 90.000000
_cell_volume 1558.094208
_symmetry_space_group_name_H-M "C 2/M"
_symmetry_group_IT_number 12
_symmetry_cell_setting 'monoclinic'
loop_
_space_group_symop_operation_xyz
x,y,z
-x,y,-z
-x,-y,-z
x,-y,z
1/2+x,1/2+y,z
1/2-x,1/2+y,-z
1/2-x,1/2-y,-z
1/2+x,1/2-y,z
loop_
_atom_site_type_symbol
_atom_site_label
_atom_site_fract_x
_atom_site_fract_y
_atom_site_fract_z
Si Si1 0.895392 0.633007 0.226591
Si Si2 0.307864 0.683688 0.432593
Si Si3 0.931488 0.000000 0.112845
Si Si4 0.645838 0.644250 0.807461
Si Si5 0.173929 0.000000 0.365506
Si Si6 0.955000 0.302182 0.063357
O O1 0.884449 0.747729 0.214040
O O2 0.000000 0.600548 0.500000
O O3 0.772405 0.604911 0.072076
O O4 0.928044 0.617384 0.126892
O O5 0.335637 0.644578 0.326165
O O6 0.279033 0.598617 0.488659
O O7 0.180411 0.739592 0.196191
O O8 0.429281 0.738750 0.688450
O O9 0.933127 0.915351 0.227323
O O10 0.046879 0.000000 0.220595
O O11 0.836255 0.000000 0.819877
O O12 0.000000 0.341974 0.000000
#
# Coordination Sequence:
#
# PCOD9202663 Si02
#       6
#     8   8   4   8   4   8
#     4  10  20  38  62  97 131 171 232 281 342 408
#     4  11  24  45  70 105 143 185 237 290 353 421
#     4  11  25  43  68  97 142 179 234 282 356 403
#     4  10  22  39  65  95 133 179 225 289 339 409
#     4  11  27  43  68 103 145 184 238 286 351 431
#     4  11  24  40  68 104 144 185 231 290 354 416
#
# _framework density 25.672388000000002
#
# number of rings (size 3 to 8) (size 9 to 14) (size 15 to 20)
#    0.000    1.400    2.000    2.400    5.600    2.400 
#    0.000    1.000    0.000    1.200    0.000    0.000 
#    0.000    0.000    0.000    0.000    0.000    0.000 
#
# Total GULP energy -111352.644977 kJ/mol
# GULP energy per Si atom -5567.632249 kJ/mol
# Density = 2.561396 g / cm^3
# Si number density = 25.672388 Si / 1000 Ang^3
#
#
#
# Elastic Constant Matrix: (Units=GPa)
#
#
# Indices 1 2 3 4 5 6 
#
# 1 180.4218 14.6013 63.0240 0.0000 -5.9221 0.0000
# 2 14.6013 103.5222 21.9104 0.0000 -1.5823 0.0000
# 3 63.0240 21.9104 129.0452 0.0000 40.4346 0.0000
# 4 0.0000 0.0000 0.0000 -8.8939 0.0000 26.9587
# 5 -5.9221 -1.5823 40.4346 0.0000 70.9963 0.0000
# 6 0.0000 0.0000 0.0000 26.9587 0.0000 -75.0225
#
#
#
# Elastic Compliance Matrix: (Units=1/GPa)
#
#
# Indices 1 2 3 4 5 6 
#
# 1 0.007228 -0.000013 -0.004524 0.000000 0.003179 0.000000
# 2 -0.000013 0.010144 -0.002174 0.000000 0.001463 0.000000
# 3 -0.004524 -0.002174 0.012734 0.000000 -0.007678 0.000000
# 4 0.000000 0.000000 0.000000 1.260337 0.000000 0.452892
# 5 0.003179 0.001463 -0.007678 0.000000 0.018756 0.000000
# 6 0.000000 0.000000 0.000000 0.452892 0.000000 0.149413
#
#
# Mechanical properties :
#
#
# Convention : Reuss Voigt Hill
#
# Bulk Modulus (GPa) = 59.94281 68.00675 63.97478
# Shear Modulus (GPa) = 3.38387 18.31286 10.84837
#
# Velocity S-wave (km/s) = 1.14933 2.67372 2.05788
# Velocity P-wave (km/s) = 5.01608 6.00662 5.53356
#
# Compressibility (1/GPa) = 0.01668257
#
# Stress axis : x y z
#
# Youngs Moduli (GPa) = 138.34391 98.57828 78.53125
#
# Poissons Ratio (x) = 0.00132 0.35529
# Poissons Ratio (y) = 0.00185 0.17075
# Poissons Ratio (z) = 0.62589 0.21434
#
# Static dielectric constant tensor:
#      x y z
#    x 2.002490 0.000000 0.030170 
#    y 0.000000 2.164010 0.000000 
#    z 0.030170 0.000000 2.290450 
# 
# From -- ./inp_files/88269.got.cif
#   From: 2010.05.17/outbox.cif.g08.bks.cpg/sg12_45_cif.got.tgz:88269.got - 2010.06.03 13:09:07.
