data_PCOD9202140
_publ_section_title
;
Structure prediction by ZEFSAII (Michael W. Deem and Ramdas Pophale) SiO2 
 PCOD9202140
Probable space group: C 2/M
;
_chemical_formula_sum "Si O2"
_cell_formula_units_Z 42
_cell_length_a 14.841245
_cell_length_b 17.342740
_cell_length_c 9.723065
_cell_angle_alpha 90.000000
_cell_angle_beta 57.552478
_cell_angle_gamma 90.000000
_cell_volume 2111.901138
_symmetry_space_group_name_H-M "C 2/M"
_symmetry_group_IT_number 12
_symmetry_cell_setting 'monoclinic'
loop_
_space_group_symop_operation_xyz
x,y,z
-x,y,-z
-x,-y,-z
x,-y,z
1/2+x,1/2+y,z
1/2-x,1/2+y,-z
1/2-x,1/2-y,-z
1/2+x,1/2-y,z
loop_
_atom_site_type_symbol
_atom_site_label
_atom_site_fract_x
_atom_site_fract_y
_atom_site_fract_z
Si Si1 0.832835 0.876591 0.202095
Si Si2 0.500000 0.500000 0.000000
Si Si3 0.157904 0.188994 0.092250
Si Si4 0.618776 0.632587 0.423944
Si Si5 0.816321 0.584086 0.441384
Si Si6 0.576433 0.754109 0.692892
O O1 0.729092 0.906365 0.366510
O O2 0.856463 0.792745 0.247596
O O3 0.826257 0.871231 0.043885
O O4 0.933385 0.932801 0.141190
O O5 0.160647 0.150259 0.238450
O O6 0.045670 0.234376 0.173512
O O7 0.250000 0.250000 0.000000
O O8 0.500000 0.597809 0.500000
O O9 0.708626 0.588707 0.436779
O O10 0.600915 0.710803 0.528307
O O11 0.866587 0.500000 0.382813
O O12 0.889152 0.657402 0.344614
#
# Coordination Sequence:
#
# PCOD9202140 Si02
#       6
#     8   2   8   8   8   8
#     4  11  21  37  62  88 117 147 194 242 296 348
#     4  12  20  36  60  98 116 136 196 254 300 324
#     4  11  20  35  61  85 111 151 191 242 294 351
#     4   9  20  35  56  84 115 148 189 242 298 345
#     4  11  22  38  59  85 119 159 199 236 282 355
#     4  10  20  38  59  82 113 160 198 231 286 360
#
# _framework density 19.887294000000001
#
# number of rings (size 3 to 8) (size 9 to 14) (size 15 to 20)
#    0.000    1.524    2.857    4.571    0.000    0.381 
#    1.714    0.000    2.095   12.000    0.000    0.000 
#    0.000    0.000    0.000    0.000    0.000    0.000 
#
# Total GULP energy -116946.458884 kJ/mol
# GULP energy per Si atom -5568.878994 kJ/mol
# Density = 1.984203 g / cm^3
# Si number density = 19.887294 Si / 1000 Ang^3
#
#
#
# Elastic Constant Matrix: (Units=GPa)
#
#
# Indices 1 2 3 4 5 6 
#
# 1 33.1360 2.2272 11.9952 0.0000 9.5776 0.0000
# 2 2.2272 122.6842 16.0047 0.0000 -3.7540 0.0000
# 3 11.9952 16.0047 106.1724 0.0000 24.1421 0.0000
# 4 0.0000 0.0000 0.0000 21.6469 0.0000 -13.8843
# 5 9.5776 -3.7540 24.1421 0.0000 28.9278 0.0000
# 6 0.0000 0.0000 0.0000 -13.8843 0.0000 1.4370
#
#
#
# Elastic Compliance Matrix: (Units=1/GPa)
#
#
# Indices 1 2 3 4 5 6 
#
# 1 0.033645 -0.000736 -0.001401 0.000000 -0.010065 0.000000
# 2 -0.000736 0.008495 -0.001856 0.000000 0.002895 0.000000
# 3 -0.001401 -0.001856 0.012103 0.000000 -0.009877 0.000000
# 4 0.000000 0.000000 0.000000 -0.008888 0.000000 -0.085881
# 5 -0.010065 0.002895 -0.009877 0.000000 0.046520 0.000000
# 6 0.000000 0.000000 0.000000 -0.085881 0.000000 -0.133897
#
#
# Mechanical properties :
#
#
# Convention : Reuss Voigt Hill
#
# Bulk Modulus (GPa) = 21.61869 35.82742 28.72305
# Shear Modulus (GPa) = -268.56590 25.85337 -121.35627
#
# Velocity S-wave (km/s) = -11.63345 3.60945 -7.82013
# Velocity P-wave (km/s) = 13.02134 5.95191 8.18932
#
# Compressibility (1/GPa) = 0.04625628
#
# Stress axis : x y z
#
# Youngs Moduli (GPa) = 29.72232 117.71600 82.62651
#
# Poissons Ratio (x) = 0.08663 0.11580
# Poissons Ratio (y) = 0.02187 0.15332
# Poissons Ratio (z) = 0.04166 0.21844
#
# Static dielectric constant tensor:
#      x y z
#    x 1.721890 0.000000 0.009750 
#    y 0.000000 1.716360 0.000000 
#    z 0.009750 0.000000 1.702310 
# 
# From -- ./inp_files/61610.got.cif
#   From: 2010.05.17/outbox.cif.g08.bks.cpg/sg12_31_cif.got.tgz:61610.got - 2010.06.03 13:09:07.
