data_PCOD9202525
_publ_section_title
;
Structure prediction by ZEFSAII (Michael W. Deem and Ramdas Pophale) SiO2 
 PCOD9202525
Probable space group: C 2/M
;
_chemical_formula_sum "Si O2"
_cell_formula_units_Z 24
_cell_length_a 18.077578
_cell_length_b 11.977887
_cell_length_c 11.383584
_cell_angle_alpha 90.000000
_cell_angle_beta 23.190568
_cell_angle_gamma 90.000000
_cell_volume 970.654816
_symmetry_space_group_name_H-M "C 2/M"
_symmetry_group_IT_number 12
_symmetry_cell_setting 'monoclinic'
loop_
_space_group_symop_operation_xyz
x,y,z
-x,y,-z
-x,-y,-z
x,-y,z
1/2+x,1/2+y,z
1/2-x,1/2+y,-z
1/2-x,1/2-y,-z
1/2+x,1/2-y,z
loop_
_atom_site_type_symbol
_atom_site_label
_atom_site_fract_x
_atom_site_fract_y
_atom_site_fract_z
Si Si1 0.034212 0.830559 0.199689
Si Si2 0.113822 0.633057 0.450794
Si Si3 0.289841 0.000000 0.265136
Si Si4 0.692591 0.500000 0.149546
O O1 0.169991 0.892798 0.098076
O O2 0.974873 0.705885 0.316848
O O3 0.165275 0.842386 0.894189
O O4 0.839507 0.898174 0.497890
O O5 0.086839 0.500000 0.501279
O O6 0.000000 0.670745 0.500000
O O7 0.315340 0.000000 0.086459
O O8 0.500000 0.000000 0.000000
O O9 0.500000 0.500000 0.500000
#
# Coordination Sequence:
#
# PCOD9202525 Si02
#       4
#     8   8   4   4
#     4  10  20  40  61  91 128 153 202 255 299 361
#     4  11  21  35  60  97 128 153 195 253 309 356
#     4  10  20  38  62  85 120 169 204 243 305 359
#     4   8  16  34  58  85 118 153 196 245 296 355
#
# _framework density 24.725577000000001
#
# number of rings (size 3 to 8) (size 9 to 14) (size 15 to 20)
#    0.000    2.333    3.333    4.000    0.000    0.000 
#    6.000    1.667    0.000    1.000    0.000    0.000 
#    0.000    0.000    0.000    0.000    0.000    0.000 
#
# Total GULP energy -66991.740647 kJ/mol
# GULP energy per Si atom -5582.645054 kJ/mol
# Density = 2.466930 g / cm^3
# Si number density = 24.725577 Si / 1000 Ang^3
#
#
#
# Elastic Constant Matrix: (Units=GPa)
#
#
# Indices 1 2 3 4 5 6 
#
# 1 51.4172 7.7199 41.5870 -0.0001 -31.2285 0.0000
# 2 7.7199 154.8549 38.4520 -0.0003 0.6349 0.0000
# 3 41.5870 38.4520 146.9909 -0.0007 -18.2396 -0.0001
# 4 -0.0001 -0.0003 -0.0007 30.3414 0.0003 18.1537
# 5 -31.2285 0.6349 -18.2396 0.0003 41.7622 -0.0001
# 6 0.0000 0.0000 -0.0001 18.1537 -0.0001 4.9259
#
#
#
# Elastic Compliance Matrix: (Units=1/GPa)
#
#
# Indices 1 2 3 4 5 6 
#
# 1 0.044551 -0.000126 -0.008921 0.000001 0.029420 -0.000001
# 2 -0.000126 0.006942 -0.001908 0.000000 -0.001034 0.000000
# 3 -0.008921 -0.001908 0.009518 0.000000 -0.002485 0.000000
# 4 0.000001 0.000000 0.000000 -0.027352 0.000001 0.100800
# 5 0.029420 -0.001034 -0.002485 0.000001 0.044875 -0.000002
# 6 -0.000001 0.000000 0.000000 0.100800 -0.000002 -0.168473
#
#
# Mechanical properties :
#
#
# Convention : Reuss Voigt Hill
#
# Bulk Modulus (GPa) = 25.57555 58.75341 42.16448
# Shear Modulus (GPa) = -90.92074 33.10616 -28.90729
#
# Velocity S-wave (km/s) = -6.07057 3.66313 -3.42296
# Velocity P-wave (km/s) = 6.22651 6.45795 1.21154
#
# Compressibility (1/GPa) = 0.03909985
#
# Stress axis : x y z
#
# Youngs Moduli (GPa) = 22.44596 144.04861 105.06428
#
# Poissons Ratio (x) = 0.01822 0.93727
# Poissons Ratio (y) = 0.00284 0.20051
# Poissons Ratio (z) = 0.20024 0.27492
#
# Static dielectric constant tensor:
#      x y z
#    x 2.217830 0.000000 0.026200 
#    y 0.000000 2.033640 0.000000 
#    z 0.026200 0.000000 2.036690 
# 
# From -- ./inp_files/239455.got.cif
#   From: 2010.05.17/outbox.cif.g08.bks.cpg/sg12_120_cif.got.tgz:239455.got - 2010.06.03 13:09:07.
