data_PCOD9202862
_publ_section_title
;
Structure prediction by ZEFSAII (Michael W. Deem and Ramdas Pophale) SiO2 
 PCOD9202862
Probable space group: C 2/M
;
_chemical_formula_sum "Si O2"
_cell_formula_units_Z 48
_cell_length_a 10.548599
_cell_length_b 24.860018
_cell_length_c 10.391074
_cell_angle_alpha 90.000000
_cell_angle_beta 115.754181
_cell_angle_gamma 90.000000
_cell_volume 2454.260659
_symmetry_space_group_name_H-M "C 2/M"
_symmetry_group_IT_number 12
_symmetry_cell_setting 'monoclinic'
loop_
_space_group_symop_operation_xyz
x,y,z
-x,y,-z
-x,-y,-z
x,-y,z
1/2+x,1/2+y,z
1/2-x,1/2+y,-z
1/2-x,1/2-y,-z
1/2+x,1/2-y,z
loop_
_atom_site_type_symbol
_atom_site_label
_atom_site_fract_x
_atom_site_fract_y
_atom_site_fract_z
Si Si1 0.190044 0.237958 0.210824
Si Si2 0.398639 0.062997 0.340222
Si Si3 0.259848 0.348402 0.143588
Si Si4 0.654465 0.622248 0.094537
Si Si5 0.089954 0.560141 0.171206
Si Si6 0.986429 0.775140 0.344351
O O1 0.170029 0.293178 0.121497
O O2 0.132806 0.184191 0.124329
O O3 0.359348 0.231967 0.284983
O O4 0.119798 0.243056 0.320413
O O5 0.500000 0.083540 0.500000
O O6 0.253476 0.093617 0.243481
O O7 0.490662 0.065133 0.250719
O O8 0.367355 0.000000 0.354116
O O9 0.202822 0.392529 0.216065
O O10 0.415602 0.327196 0.246393
O O11 0.263232 0.373697 0.004455
O O12 0.500000 0.597510 0.000000
O O13 0.152543 0.500000 0.199650
O O14 0.000000 0.565070 0.000000
O O15 0.000000 0.787242 0.500000
#
# Coordination Sequence:
#
# PCOD9202862 Si02
#       6
#     8   8   8   8   8   8
#     4  10  23  37  59  89 127 167 214 258 316 383
#     4  10  24  44  67  96 126 161 214 269 318 379
#     4  10  23  36  61  89 122 166 212 260 321 368
#     4  12  22  40  62  93 129 167 207 260 320 386
#     4  10  20  38  64  89 116 157 215 265 309 375
#     4  10  22  39  57  85 128 168 216 259 316 383
#
# _framework density 19.557825000000001
#
# number of rings (size 3 to 8) (size 9 to 14) (size 15 to 20)
#    1.000    0.667    3.333    1.000    2.333    3.000 
#    0.000    0.000    0.000    0.500    0.000    0.000 
#    0.000    0.000    0.000    0.000    0.000    0.000 
#
# Total GULP energy -133662.873165 kJ/mol
# GULP energy per Si atom -5569.286382 kJ/mol
# Density = 1.951331 g / cm^3
# Si number density = 19.557825 Si / 1000 Ang^3
#
#
#
# Elastic Constant Matrix: (Units=GPa)
#
#
# Indices 1 2 3 4 5 6 
#
# 1 82.1316 27.8996 12.9280 0.0000 -2.2710 0.0000
# 2 27.8996 69.4403 23.7514 0.0000 18.5710 0.0000
# 3 12.9280 23.7514 102.1501 0.0000 6.7447 0.0000
# 4 0.0000 0.0000 0.0000 24.9875 0.0000 -0.0070
# 5 -2.2710 18.5710 6.7447 0.0000 23.9949 0.0000
# 6 0.0000 0.0000 0.0000 -0.0070 0.0000 20.1659
#
#
#
# Elastic Compliance Matrix: (Units=1/GPa)
#
#
# Indices 1 2 3 4 5 6 
#
# 1 0.015196 -0.007989 -0.000580 0.000000 0.007784 0.000000
# 2 -0.007989 0.023564 -0.003275 0.000000 -0.018073 0.000000
# 3 -0.000580 -0.003275 0.010658 0.000000 -0.000516 0.000000
# 4 0.000000 0.000000 0.000000 0.040020 0.000000 0.000014
# 5 0.007784 -0.018073 -0.000516 0.000000 0.056545 0.000000
# 6 0.000000 0.000000 0.000000 0.000014 0.000000 0.049589
#
#
# Mechanical properties :
#
#
# Convention : Reuss Voigt Hill
#
# Bulk Modulus (GPa) = 38.86194 42.54223 40.70208
# Shear Modulus (GPa) = 21.94562 26.43920 24.19241
#
# Velocity S-wave (km/s) = 3.35339 3.68074 3.52087
# Velocity P-wave (km/s) = 5.90822 6.31372 6.11433
#
# Compressibility (1/GPa) = 0.02573212
#
# Stress axis : x y z
#
# Youngs Moduli (GPa) = 65.80753 42.43729 93.82304
#
# Poissons Ratio (x) = 0.33903 0.05438
# Poissons Ratio (y) = 0.52573 0.30724
# Poissons Ratio (z) = 0.03814 0.13897
#
# Static dielectric constant tensor:
#      x y z
#    x 1.704980 0.000000 0.020060 
#    y 0.000000 1.694560 0.000000 
#    z 0.020060 0.000000 1.750880 
# 
# From -- ./inp_files/135545.got.cif
#   From: 2010.05.17/outbox.cif.g08.bks.cpg/sg12_68_cif.got.tgz:135545.got - 2010.06.03 13:09:07.
