data_PCOD9202094
_publ_section_title
;
Structure prediction by ZEFSAII (Michael W. Deem and Ramdas Pophale) SiO2 
 PCOD9202094
Probable space group: C 2/M
;
_chemical_formula_sum "Si O2"
_cell_formula_units_Z 32
_cell_length_a 24.102221
_cell_length_b 11.188037
_cell_length_c 14.481045
_cell_angle_alpha 90.000000
_cell_angle_beta 21.792122
_cell_angle_gamma 90.000000
_cell_volume 1449.658886
_symmetry_space_group_name_H-M "C 2/M"
_symmetry_group_IT_number 12
_symmetry_cell_setting 'monoclinic'
loop_
_space_group_symop_operation_xyz
x,y,z
-x,y,-z
-x,-y,-z
x,-y,z
1/2+x,1/2+y,z
1/2-x,1/2+y,-z
1/2-x,1/2-y,-z
1/2+x,1/2-y,z
loop_
_atom_site_type_symbol
_atom_site_label
_atom_site_fract_x
_atom_site_fract_y
_atom_site_fract_z
Si Si1 0.398402 0.250711 0.333806
Si Si2 0.929775 0.500000 0.211870
Si Si3 0.564213 0.500000 0.796754
Si Si4 0.640137 0.631483 0.421334
Si Si5 0.700862 0.370534 0.121158
O O1 0.250000 0.250000 0.500000
O O2 0.474735 0.124947 0.191075
O O3 0.484062 0.374038 0.175216
O O4 0.350296 0.269793 0.514303
O O5 0.746730 0.500000 0.505561
O O6 0.000000 0.500000 0.000000
O O7 0.500000 0.500000 0.000000
O O8 0.682323 0.500000 0.394673
O O9 0.470096 0.622461 0.648483
O O10 0.720499 0.648169 0.200021
O O11 0.770122 0.500000 0.990030
O O12 0.750000 0.250000 0.000000
#
# Coordination Sequence:
#
# PCOD9202094 Si02
#       5
#     8   4   4   8   8
#     4  10  20  38  58  85 119 157 201 247 300 363
#     4  10  22  40  54  83 130 159 192 252 313 354
#     4  10  20  38  62  81 112 163 214 242 281 368
#     4   9  18  39  63  80 116 158 195 238 296 366
#     4   9  19  39  61  86 112 150 199 246 297 352
#
# _framework density 22.074158000000001
#
# number of rings (size 3 to 8) (size 9 to 14) (size 15 to 20)
#    0.000    2.500    1.250    2.250    0.000    0.000 
#   22.500    1.250    0.000    0.000    0.000    0.000 
#    0.000    0.000    0.000    0.000    0.000    0.000 
#
# Total GULP energy -89169.777719 kJ/mol
# GULP energy per Si atom -5573.111107 kJ/mol
# Density = 2.202392 g / cm^3
# Si number density = 22.074158 Si / 1000 Ang^3
#
#
#
# Elastic Constant Matrix: (Units=GPa)
#
#
# Indices 1 2 3 4 5 6 
#
# 1 113.0450 39.3034 31.9077 0.0000 14.7113 0.0000
# 2 39.3034 256.0457 70.1879 0.0000 40.9072 0.0000
# 3 31.9077 70.1879 83.0305 0.0000 17.5466 0.0000
# 4 0.0000 0.0000 0.0000 28.1522 0.0000 18.6636
# 5 14.7113 40.9072 17.5466 0.0000 35.0261 0.0000
# 6 0.0000 0.0000 0.0000 18.6636 0.0000 33.6091
#
#
#
# Elastic Compliance Matrix: (Units=1/GPa)
#
#
# Indices 1 2 3 4 5 6 
#
# 1 0.010145 -0.000330 -0.003132 0.000000 -0.002306 0.000000
# 2 -0.000330 0.005725 -0.003723 0.000000 -0.004682 0.000000
# 3 -0.003132 -0.003723 0.016997 0.000000 -0.002851 0.000000
# 4 0.000000 0.000000 0.000000 0.056218 0.000000 -0.031218
# 5 -0.002306 -0.004682 -0.002851 0.000000 0.036416 0.000000
# 6 0.000000 0.000000 0.000000 -0.031218 0.000000 0.047090
#
#
# Mechanical properties :
#
#
# Convention : Reuss Voigt Hill
#
# Bulk Modulus (GPa) = 54.06464 81.65769 67.86116
# Shear Modulus (GPa) = 25.88981 40.07229 32.98105
#
# Velocity S-wave (km/s) = 3.42841 4.26531 3.86956
# Velocity P-wave (km/s) = 6.34172 7.83134 7.12557
#
# Compressibility (1/GPa) = 0.01849638
#
# Stress axis : x y z
#
# Youngs Moduli (GPa) = 98.57040 174.67641 58.83372
#
# Poissons Ratio (x) = 0.05768 0.18427
# Poissons Ratio (y) = 0.03255 0.21904
# Poissons Ratio (z) = 0.30873 0.65032
#
# Static dielectric constant tensor:
#      x y z
#    x 1.835060 0.000000 -0.025340 
#    y 0.000000 1.817070 0.000000 
#    z -0.025340 0.000000 1.903230 
# 
# From -- ./inp_files/127691.got.cif
#   From: 2010.05.17/outbox.cif.g08.bks.cpg/sg12_64_cif.got.tgz:127691.got - 2010.06.03 13:09:07.
