data_PCOD9202120
_publ_section_title
;
Structure prediction by ZEFSAII (Michael W. Deem and Ramdas Pophale) SiO2 
 PCOD9202120
Probable space group: C 2/M
;
_chemical_formula_sum "Si O2"
_cell_formula_units_Z 64
_cell_length_a 24.795357
_cell_length_b 16.730667
_cell_length_c 28.526525
_cell_angle_alpha 90.000000
_cell_angle_beta 164.101933
_cell_angle_gamma 90.000000
_cell_volume 3241.656337
_symmetry_space_group_name_H-M "C 2/M"
_symmetry_group_IT_number 12
_symmetry_cell_setting 'monoclinic'
loop_
_space_group_symop_operation_xyz
x,y,z
-x,y,-z
-x,-y,-z
x,-y,z
1/2+x,1/2+y,z
1/2-x,1/2+y,-z
1/2-x,1/2-y,-z
1/2+x,1/2-y,z
loop_
_atom_site_type_symbol
_atom_site_label
_atom_site_fract_x
_atom_site_fract_y
_atom_site_fract_z
Si Si1 0.947225 0.159119 0.005822
Si Si2 0.033989 0.407430 0.140632
Si Si3 0.840248 0.269255 0.497463
Si Si4 0.789220 0.810676 0.172803
Si Si5 0.585818 0.718590 0.826803
Si Si6 0.084299 0.593668 0.755523
Si Si7 0.785386 0.252657 0.343439
Si Si8 0.191757 0.592508 0.950646
O O1 0.828172 0.242637 0.897321
O O2 0.799952 0.105260 0.912818
O O3 0.000000 0.122734 0.000000
O O4 0.138559 0.187841 0.193670
O O5 0.095013 0.500000 0.185799
O O6 0.190138 0.336700 0.262264
O O7 0.958347 0.396380 0.131169
O O8 0.848138 0.386981 0.950791
O O9 0.635219 0.253956 0.351921
O O10 0.797163 0.281348 0.406904
O O11 0.988647 0.192746 0.622945
O O12 0.943926 0.345519 0.609211
O O13 0.823801 0.778152 0.148968
O O14 0.750000 0.750000 0.000000
O O15 0.601156 0.627000 0.857656
O O16 0.025139 0.500000 0.703794
O O17 0.107928 0.619561 0.830009
O O18 0.000000 0.252041 0.500000
O O19 0.219486 0.500000 0.966829
#
# Coordination Sequence:
#
# PCOD9202120 Si02
#       8
#     8   8   8   8   8   8   8   8
#     4  10  20  38  59  78 106 144 186 227 273 322
#     4   9  19  37  59  80 108 146 186 225 269 324
#     4  11  21  34  54  82 114 143 179 226 276 328
#     4   9  19  33  53  79 107 140 177 221 269 319
#     4  11  19  31  53  80 107 140 182 218 260 322
#     4  10  21  37  57  81 110 145 186 229 274 324
#     4  11  22  36  57  83 112 145 181 227 277 325
#     4   9  18  34  54  78 110 146 180 220 273 324
#
# _framework density 19.742993999999999
#
# number of rings (size 3 to 8) (size 9 to 14) (size 15 to 20)
#    0.000    2.000    0.000    6.375    0.000    2.000 
#    0.000    1.250    0.000   15.000    0.000    0.000 
#    0.000    0.000    0.000    0.000    0.000    0.000 
#
# Total GULP energy -178301.379326 kJ/mol
# GULP energy per Si atom -5571.918104 kJ/mol
# Density = 1.969806 g / cm^3
# Si number density = 19.742994 Si / 1000 Ang^3
#
#
#
# Elastic Constant Matrix: (Units=GPa)
#
#
# Indices 1 2 3 4 5 6 
#
# 1 44.0050 -0.0092 13.3864 -0.0040 2.5507 -0.0091
# 2 -0.0092 54.1257 19.6386 -0.0168 -1.9630 -0.0152
# 3 13.3864 19.6386 97.3684 -0.0307 7.1264 -0.0214
# 4 -0.0040 -0.0168 -0.0307 17.0400 -0.0090 -4.6088
# 5 2.5507 -1.9630 7.1264 -0.0090 32.5987 0.0056
# 6 -0.0091 -0.0152 -0.0214 -4.6088 0.0056 21.8272
#
#
#
# Elastic Compliance Matrix: (Units=1/GPa)
#
#
# Indices 1 2 3 4 5 6 
#
# 1 0.023833 0.001217 -0.003446 0.000002 -0.001038 0.000008
# 2 0.001217 0.020141 -0.004381 0.000017 0.002075 0.000013
# 3 -0.003446 -0.004381 0.011816 0.000018 -0.002577 0.000012
# 4 0.000002 0.000017 0.000018 0.062240 0.000012 0.013142
# 5 -0.001038 0.002075 -0.002577 0.000012 0.031446 -0.000007
# 6 0.000008 0.000013 0.000012 0.013142 -0.000007 0.048589
#
#
# Mechanical properties :
#
#
# Convention : Reuss Voigt Hill
#
# Bulk Modulus (GPa) = 23.49125 29.05897 26.27511
# Shear Modulus (GPa) = 22.17520 25.12540 23.65030
#
# Velocity S-wave (km/s) = 3.35504 3.57126 3.46484
# Velocity P-wave (km/s) = 5.18968 5.63522 5.41703
#
# Compressibility (1/GPa) = 0.04256903
#
# Stress axis : x y z
#
# Youngs Moduli (GPa) = 41.95786 49.65062 84.62812
#
# Poissons Ratio (x) = -0.06041 0.29164
# Poissons Ratio (y) = -0.05105 0.37079
# Poissons Ratio (z) = 0.14459 0.21754
#
# Static dielectric constant tensor:
#      x y z
#    x 1.720790 0.000050 0.005650 
#    y 0.000050 1.923250 -0.000040 
#    z 0.005650 -0.000040 1.740340 
# 
# From -- ./inp_files/347919.got.cif
#   From: 2010.05.17/outbox.cif.g08.bks.cpg/sg12_174_cif.got.tgz:347919.got - 2010.06.03 13:09:07.
