data_PCOD9202890
_publ_section_title
;
Structure prediction by ZEFSAII (Michael W. Deem and Ramdas Pophale) SiO2 
 PCOD9202890
Probable space group: C 2/M
;
_chemical_formula_sum "Si O2"
_cell_formula_units_Z 64
_cell_length_a 19.994843
_cell_length_b 8.367489
_cell_length_c 30.785281
_cell_angle_alpha 90.000000
_cell_angle_beta 38.139822
_cell_angle_gamma 90.000000
_cell_volume 3180.909903
_symmetry_space_group_name_H-M "C 2/M"
_symmetry_group_IT_number 12
_symmetry_cell_setting 'monoclinic'
loop_
_space_group_symop_operation_xyz
x,y,z
-x,y,-z
-x,-y,-z
x,-y,z
1/2+x,1/2+y,z
1/2-x,1/2+y,-z
1/2-x,1/2-y,-z
1/2+x,1/2-y,z
loop_
_atom_site_type_symbol
_atom_site_label
_atom_site_fract_x
_atom_site_fract_y
_atom_site_fract_z
Si Si1 0.051542 0.191153 0.267720
Si Si2 0.344050 0.185470 0.326533
Si Si3 0.018557 0.811533 0.385040
Si Si4 0.750246 0.187377 0.287400
Si Si5 0.793982 0.312819 0.523633
Si Si6 0.421584 0.305256 0.127494
Si Si7 0.666587 0.693329 0.006193
Si Si8 0.215893 0.806650 0.882880
O O1 0.024661 0.237137 0.331160
O O2 0.171892 0.243733 0.193842
O O3 0.964147 0.270424 0.280881
O O4 0.042404 0.000000 0.269354
O O5 0.307552 0.288135 0.304092
O O6 0.265498 0.222616 0.407083
O O7 0.337650 0.000000 0.318082
O O8 0.136309 0.777417 0.344265
O O9 0.922228 0.718450 0.457699
O O10 0.994052 0.000000 0.399486
O O11 0.831643 0.246558 0.208242
O O12 0.728822 0.000000 0.290496
O O13 0.769371 0.500000 0.540076
O O14 0.750000 0.250000 0.500000
O O15 0.423359 0.500000 0.127682
O O16 0.380695 0.258585 0.100440
O O17 0.542726 0.251577 0.076737
O O18 0.666550 0.500000 0.006542
O O19 0.699904 0.745897 0.940617
O O20 0.750000 0.750000 0.000000
O O21 0.219151 0.000000 0.881088
#
# Coordination Sequence:
#
# PCOD9202890 Si02
#       8
#     8   8   8   8   8   8   8   8
#     4  11  23  39  63  93 127 164 210 262 313 373
#     4  12  26  43  64  92 129 167 210 262 317 377
#     4  11  23  41  65  94 128 166 209 261 316 375
#     4  11  23  41  65  94 128 166 210 262 319 379
#     4  12  24  41  66  95 126 165 212 261 316 377
#     4   9  19  38  64  89 120 162 208 254 306 368
#     4  10  22  39  60  91 126 164 206 256 311 372
#     4  10  20  38  64  91 120 163 215 258 306 371
#
# _framework density 20.120028999999999
#
# number of rings (size 3 to 8) (size 9 to 14) (size 15 to 20)
#    0.000    1.250    2.500    3.750    1.750    3.500 
#    0.000    3.750    0.000    1.500    0.000    0.000 
#    0.000    0.000    0.000    0.000    0.000    0.000 
#
# Total GULP energy -178961.238128 kJ/mol
# GULP energy per Si atom -5592.538691 kJ/mol
# Density = 2.007423 g / cm^3
# Si number density = 20.120029 Si / 1000 Ang^3
#
#
#
# Elastic Constant Matrix: (Units=GPa)
#
#
# Indices 1 2 3 4 5 6 
#
# 1 115.1639 -6.8466 37.3675 -0.0031 -10.2074 0.0181
# 2 -6.8466 25.0965 -1.5526 0.0001 -3.1188 0.0009
# 3 37.3675 -1.5526 85.7676 0.0004 -17.6414 0.0003
# 4 -0.0031 0.0001 0.0004 23.3627 -0.0001 -3.2162
# 5 -10.2074 -3.1188 -17.6414 -0.0001 36.9284 -0.0005
# 6 0.0181 0.0009 0.0003 -3.2162 -0.0005 32.3263
#
#
#
# Elastic Compliance Matrix: (Units=1/GPa)
#
#
# Indices 1 2 3 4 5 6 
#
# 1 0.010307 0.002682 -0.004225 0.000001 0.001057 -0.000006
# 2 0.002682 0.041162 0.000493 0.000000 0.004453 -0.000003
# 3 -0.004225 0.000493 0.014724 -0.000001 0.005908 0.000002
# 4 0.000001 0.000000 -0.000001 0.043398 0.000000 0.004318
# 5 0.001057 0.004453 0.005908 0.000000 0.030570 0.000000
# 6 -0.000006 -0.000003 0.000002 0.004318 0.000000 0.031364
#
#
# Mechanical properties :
#
#
# Convention : Reuss Voigt Hill
#
# Bulk Modulus (GPa) = 15.60238 31.55161 23.57699
# Shear Modulus (GPa) = 25.64242 31.66080 28.65161
#
# Velocity S-wave (km/s) = 3.57385 3.97116 3.77773
# Velocity P-wave (km/s) = 4.98009 6.06156 5.54725
#
# Compressibility (1/GPa) = 0.06409278
#
# Stress axis : x y z
#
# Youngs Moduli (GPa) = 97.01941 24.29444 67.91582
#
# Poissons Ratio (x) = -0.06516 0.28692
# Poissons Ratio (y) = -0.26020 -0.03345
# Poissons Ratio (z) = 0.40987 -0.01197
#
# Static dielectric constant tensor:
#      x y z
#    x 1.690560 0.000000 -0.004770 
#    y 0.000000 1.694450 0.000000 
#    z -0.004770 0.000000 1.691310 
# 
# From -- ./inp_files/378048.got.cif
#   From: 2010.05.17/outbox.cif.g08.bks.cpg/sg12_190_cif.got.tgz:378048.got - 2010.06.03 13:09:07.
