data_PCOD9202655
_publ_section_title
;
Structure prediction by ZEFSAII (Michael W. Deem and Ramdas Pophale) SiO2 
 PCOD9202655
Probable space group: C 2/M
;
_chemical_formula_sum "Si O2"
_cell_formula_units_Z 38
_cell_length_a 13.741841
_cell_length_b 13.844913
_cell_length_c 12.072090
_cell_angle_alpha 90.000000
_cell_angle_beta 125.863267
_cell_angle_gamma 90.000000
_cell_volume 1861.342844
_symmetry_space_group_name_H-M "C 2/M"
_symmetry_group_IT_number 12
_symmetry_cell_setting 'monoclinic'
loop_
_space_group_symop_operation_xyz
x,y,z
-x,y,-z
-x,-y,-z
x,-y,z
1/2+x,1/2+y,z
1/2-x,1/2+y,-z
1/2-x,1/2-y,-z
1/2+x,1/2-y,z
loop_
_atom_site_type_symbol
_atom_site_label
_atom_site_fract_x
_atom_site_fract_y
_atom_site_fract_z
Si Si1 0.180690 0.211015 0.346345
Si Si2 0.302541 0.000000 0.730947
Si Si3 0.434062 0.000000 0.196004
Si Si4 0.273672 0.500000 0.574997
Si Si5 0.000000 0.500000 0.500000
Si Si6 0.419263 0.212809 0.126650
Si Si7 0.755811 0.300649 0.822704
O O1 0.250000 0.250000 0.500000
O O2 0.159330 0.098046 0.347483
O O3 0.261318 0.229380 0.292150
O O4 0.059482 0.271467 0.243821
O O5 0.268314 0.906085 0.778504
O O6 0.443621 0.000000 0.795747
O O7 0.242588 0.000000 0.569316
O O8 0.377869 0.103371 0.128134
O O9 0.455251 0.000000 0.341131
O O10 0.142972 0.500000 0.547183
O O11 0.350750 0.286026 0.161870
O O12 0.374061 0.227091 0.971822
#
# Coordination Sequence:
#
# PCOD9202655 Si02
#       7
#     8   4   4   4   2   8   8
#     4  12  23  42  65  97 136 170 225 280 340 402
#     4  11  21  42  71  98 128 176 233 285 331 398
#     4  11  20  40  68  97 126 179 234 279 321 398
#     4  11  23  40  65 102 134 182 221 278 354 407
#     4  10  20  38  62  94 132 168 228 274 328 390
#     4  11  25  41  67  98 134 181 224 283 341 400
#     4  11  24  43  65  99 135 175 231 280 339 405
#
# _framework density 20.415368999999998
#
# number of rings (size 3 to 8) (size 9 to 14) (size 15 to 20)
#    0.000    0.842    4.211    3.789    0.000    2.526 
#    0.000    5.263    0.000    0.000    0.000    0.000 
#    0.000    0.000    0.000    0.000    0.000    0.000 
#
# Total GULP energy -105859.531946 kJ/mol
# GULP energy per Si atom -5571.554313 kJ/mol
# Density = 2.036890 g / cm^3
# Si number density = 20.415369 Si / 1000 Ang^3
#
#
#
# Elastic Constant Matrix: (Units=GPa)
#
#
# Indices 1 2 3 4 5 6 
#
# 1 56.9756 22.8028 9.5442 0.0000 -17.2600 0.0000
# 2 22.8028 135.3867 27.3709 0.0000 -21.1549 0.0000
# 3 9.5442 27.3709 103.1547 0.0000 -24.6146 0.0000
# 4 0.0000 0.0000 0.0000 10.5995 0.0000 -1.5642
# 5 -17.2600 -21.1549 -24.6146 0.0000 39.4685 0.0000
# 6 0.0000 0.0000 0.0000 -1.5642 0.0000 23.0190
#
#
#
# Elastic Compliance Matrix: (Units=1/GPa)
#
#
# Indices 1 2 3 4 5 6 
#
# 1 0.020895 -0.002359 0.000671 0.000000 0.008292 0.000000
# 2 -0.002359 0.008479 -0.001402 0.000000 0.002639 0.000000
# 3 0.000671 -0.001402 0.011625 0.000000 0.006792 0.000000
# 4 0.000000 0.000000 0.000000 0.095299 0.000000 0.006476
# 5 0.008292 0.002639 0.006792 0.000000 0.034613 0.000000
# 6 0.000000 0.000000 0.000000 0.006476 0.000000 0.043882
#
#
# Mechanical properties :
#
#
# Convention : Reuss Voigt Hill
#
# Bulk Modulus (GPa) = 28.71989 46.10587 37.41288
# Shear Modulus (GPa) = 21.49796 30.33734 25.91765
#
# Velocity S-wave (km/s) = 3.24856 3.85906 3.56689
# Velocity P-wave (km/s) = 5.30746 6.51839 5.94384
#
# Compressibility (1/GPa) = 0.03481908
#
# Stress axis : x y z
#
# Youngs Moduli (GPa) = 47.85823 117.93301 86.02353
#
# Poissons Ratio (x) = 0.27825 -0.05775
# Poissons Ratio (y) = 0.11292 0.12060
# Poissons Ratio (z) = -0.03213 0.16534
#
# Static dielectric constant tensor:
#      x y z
#    x 1.736560 0.000000 0.017020 
#    y 0.000000 1.742870 0.000000 
#    z 0.017020 0.000000 1.713760 
# 
# From -- ./inp_files/142251.got.cif
#   From: 2010.05.17/outbox.cif.g08.bks.cpg/sg12_72_cif.got.tgz:142251.got - 2010.06.03 13:09:07.
