data_PCOD9202779
_publ_section_title
;
Structure prediction by ZEFSAII (Michael W. Deem and Ramdas Pophale) SiO2 
 PCOD9202779
Probable space group: C 2/M
;
_chemical_formula_sum "Si O2"
_cell_formula_units_Z 56
_cell_length_a 21.568908
_cell_length_b 16.708826
_cell_length_c 9.141083
_cell_angle_alpha 90.000000
_cell_angle_beta 55.673822
_cell_angle_gamma 90.000000
_cell_volume 2720.621019
_symmetry_space_group_name_H-M "C 2/M"
_symmetry_group_IT_number 12
_symmetry_cell_setting 'monoclinic'
loop_
_space_group_symop_operation_xyz
x,y,z
-x,y,-z
-x,-y,-z
x,-y,z
1/2+x,1/2+y,z
1/2-x,1/2+y,-z
1/2-x,1/2-y,-z
1/2+x,1/2-y,z
loop_
_atom_site_type_symbol
_atom_site_label
_atom_site_fract_x
_atom_site_fract_y
_atom_site_fract_z
Si Si1 0.189588 0.788088 0.966977
Si Si2 0.082101 0.593058 0.711626
Si Si3 0.646934 0.117022 0.934868
Si Si4 0.915837 0.189664 0.648755
Si Si5 0.048542 0.368964 0.308266
Si Si6 0.757902 0.335051 0.576641
Si Si7 0.188083 0.088256 0.405766
O O1 0.148644 0.712962 0.945499
O O2 0.231877 0.830385 0.778132
O O3 0.250000 0.750000 0.000000
O O4 0.128357 0.835864 0.144392
O O5 0.074174 0.500000 0.678625
O O6 0.094563 0.593274 0.869523
O O7 0.157616 0.632697 0.548105
O O8 0.012132 0.642010 0.741292
O O9 0.731171 0.091614 0.783291
O O10 0.616540 0.089744 0.132659
O O11 0.922447 0.285632 0.661267
O O12 0.863066 0.158419 0.590052
O O13 0.000000 0.161607 0.500000
O O14 0.000000 0.409225 0.500000
O O15 0.750000 0.250000 0.500000
O O16 0.706978 0.394850 0.548915
O O17 0.155269 0.000000 0.427050
#
# Coordination Sequence:
#
# PCOD9202779 Si02
#       7
#     8   8   8   8   8   8   8
#     4  11  20  36  65  98 121 156 215 260 304 361
#     4  11  24  41  60  93 132 170 204 254 322 383
#     4  10  20  38  63  91 125 166 212 254 306 377
#     4  10  23  40  64  91 126 166 213 262 308 374
#     4  10  24  36  62  90 131 168 213 252 309 369
#     4  11  21  37  70  92 123 164 213 261 303 367
#     4  11  23  42  66  93 125 168 211 263 323 375
#
# _framework density 20.583535999999999
#
# number of rings (size 3 to 8) (size 9 to 14) (size 15 to 20)
#    0.000    1.429    4.286    2.143   10.000    2.286 
#    0.000    3.571    0.000    0.857    0.000    0.000 
#    0.000    0.000    0.000    0.000    0.000    0.000 
#
# Total GULP energy -156233.138831 kJ/mol
# GULP energy per Si atom -5579.754958 kJ/mol
# Density = 2.053669 g / cm^3
# Si number density = 20.583536 Si / 1000 Ang^3
#
#
#
# Elastic Constant Matrix: (Units=GPa)
#
#
# Indices 1 2 3 4 5 6 
#
# 1 115.7348 40.2138 34.9589 0.0000 0.7398 0.0000
# 2 40.2138 71.2238 11.7171 0.0000 6.3925 0.0000
# 3 34.9589 11.7171 188.6282 0.0000 1.4783 0.0000
# 4 0.0000 0.0000 0.0000 -1.4898 0.0000 13.3730
# 5 0.7398 6.3925 1.4783 0.0000 21.5365 0.0000
# 6 0.0000 0.0000 0.0000 13.3730 0.0000 -0.0521
#
#
#
# Elastic Compliance Matrix: (Units=1/GPa)
#
#
# Indices 1 2 3 4 5 6 
#
# 1 0.011323 -0.006252 -0.001723 0.000000 0.001585 0.000000
# 2 -0.006252 0.018018 0.000080 0.000000 -0.005139 0.000000
# 3 -0.001723 0.000080 0.005618 0.000000 -0.000350 0.000000
# 4 0.000000 0.000000 0.000000 0.000291 0.000000 0.074810
# 5 0.001585 -0.005139 -0.000350 0.000000 0.047928 0.000000
# 6 0.000000 0.000000 0.000000 0.074810 0.000000 0.008334
#
#
# Mechanical properties :
#
#
# Convention : Reuss Voigt Hill
#
# Bulk Modulus (GPa) = 52.16455 61.04069 56.60262
# Shear Modulus (GPa) = 43.97827 23.24540 33.61183
#
# Velocity S-wave (km/s) = 4.62732 3.36418 4.04536
# Velocity P-wave (km/s) = 7.34489 6.69401 7.02699
#
# Compressibility (1/GPa) = 0.01917011
#
# Stress axis : x y z
#
# Youngs Moduli (GPa) = 88.31597 55.49909 177.98420
#
# Poissons Ratio (x) = 0.34698 0.30659
# Poissons Ratio (y) = 0.55215 -0.01419
# Poissons Ratio (z) = 0.15213 -0.00442
#
# Static dielectric constant tensor:
#      x y z
#    x 1.734100 0.000000 -0.009540 
#    y 0.000000 1.762400 0.000000 
#    z -0.009540 0.000000 1.812210 
# 
# From -- ./inp_files/87824.got.cif
#   From: 2010.05.17/outbox.cif.g08.bks.cpg/sg12_44_cif.got.tgz:87824.got - 2010.06.03 13:09:07.
