data_PCOD9202086
_publ_section_title
;
Structure prediction by ZEFSAII (Michael W. Deem and Ramdas Pophale) SiO2 
 PCOD9202086
Probable space group: C 2/M
;
_chemical_formula_sum "Si O2"
_cell_formula_units_Z 40
_cell_length_a 7.686661
_cell_length_b 25.066017
_cell_length_c 18.910488
_cell_angle_alpha 90.000000
_cell_angle_beta 34.268529
_cell_angle_gamma 90.000000
_cell_volume 2051.586764
_symmetry_space_group_name_H-M "C 2/M"
_symmetry_group_IT_number 12
_symmetry_cell_setting 'monoclinic'
loop_
_space_group_symop_operation_xyz
x,y,z
-x,y,-z
-x,-y,-z
x,-y,z
1/2+x,1/2+y,z
1/2-x,1/2+y,-z
1/2-x,1/2-y,-z
1/2+x,1/2-y,z
loop_
_atom_site_type_symbol
_atom_site_label
_atom_site_fract_x
_atom_site_fract_y
_atom_site_fract_z
Si Si1 0.298779 0.232939 0.861818
Si Si2 0.743589 0.817740 0.361336
Si Si3 0.841596 0.365374 0.214677
Si Si4 0.683477 0.561301 0.013903
Si Si5 0.187338 0.364432 0.236720
O O1 0.546636 0.271194 0.742542
O O2 0.485105 0.192056 0.850514
O O3 0.180613 0.190048 0.843109
O O4 0.000000 0.256886 0.000000
O O5 0.500000 0.797038 0.500000
O O6 0.587890 0.848824 0.348343
O O7 0.986028 0.856618 0.318425
O O8 0.005502 0.406349 0.106784
O O9 0.923687 0.380512 0.268549
O O10 0.734445 0.500000 0.015674
O O11 0.500000 0.563338 0.000000
O O12 0.459318 0.592356 0.142639
#
# Coordination Sequence:
#
# PCOD9202086 Si02
#       5
#     8   8   8   8   8
#     4  10  20  38  58  84 117 152 191 232 284 338
#     4  12  26  36  54  83 118 165 196 222 272 338
#     4   9  20  38  55  84 117 144 189 239 285 330
#     4   9  16  35  64  92 114 138 185 243 301 344
#     4   9  20  38  55  84 117 144 189 239 285 330
#
# _framework density 19.497102999999999
#
# number of rings (size 3 to 8) (size 9 to 14) (size 15 to 20)
#    1.200    1.000    2.000    1.200    2.800    5.600 
#    0.000    2.000    0.000    2.400    0.000    5.600 
#    0.000    0.000    0.000    0.000    0.000    0.000 
#
# Total GULP energy -111442.473049 kJ/mol
# GULP energy per Si atom -5572.123652 kJ/mol
# Density = 1.945273 g / cm^3
# Si number density = 19.497103 Si / 1000 Ang^3
#
#
#
# Elastic Constant Matrix: (Units=GPa)
#
#
# Indices 1 2 3 4 5 6 
#
# 1 42.9565 1.1618 -3.4753 -0.0004 11.4250 0.0000
# 2 1.1618 89.5053 28.9265 0.0000 5.1254 -0.0001
# 3 -3.4753 28.9265 66.8327 -0.0015 20.4708 0.0002
# 4 -0.0004 0.0000 -0.0015 2.7058 0.0006 -1.6058
# 5 11.4250 5.1254 20.4708 0.0006 19.6115 -0.0001
# 6 0.0000 -0.0001 0.0002 -1.6058 -0.0001 0.8143
#
#
#
# Elastic Compliance Matrix: (Units=1/GPa)
#
#
# Indices 1 2 3 4 5 6 
#
# 1 0.032697 -0.002653 0.012452 -0.000082 -0.031352 -0.000168
# 2 -0.002653 0.013384 -0.007839 0.000019 0.006230 0.000042
# 3 0.012452 -0.007839 0.030278 -0.000110 -0.036810 -0.000229
# 4 -0.000082 0.000019 -0.000110 -2.170042 0.000203 -4.279466
# 5 -0.031352 0.006230 -0.036810 0.000203 0.106050 0.000421
# 6 -0.000168 0.000042 -0.000229 -4.279466 0.000421 -7.211267
#
#
# Mechanical properties :
#
#
# Convention : Reuss Voigt Hill
#
# Bulk Modulus (GPa) = 12.45679 28.05783 20.25731
# Shear Modulus (GPa) = -0.54490 16.13842 7.79676
#
# Velocity S-wave (km/s) = -0.52923 2.88016 2.00190
# Velocity P-wave (km/s) = 2.45550 5.04801 3.96938
#
# Compressibility (1/GPa) = 0.08027750
#
# Stress axis : x y z
#
# Youngs Moduli (GPa) = 30.58377 74.71824 33.02736
#
# Poissons Ratio (x) = 0.19825 -0.41125
# Poissons Ratio (y) = 0.08115 0.25890
# Poissons Ratio (z) = -0.38082 0.58572
#
# Static dielectric constant tensor:
#      x y z
#    x 1.789110 0.000000 0.034040 
#    y 0.000000 1.686380 0.000000 
#    z 0.034040 0.000000 1.644750 
# 
# From -- ./inp_files/259633.got.cif
#   From: 2010.05.17/outbox.cif.g08.bks.cpg/sg12_130_cif.got.tgz:259633.got - 2010.06.03 13:09:07.
