data_PCOD9202453
_publ_section_title
;
Structure prediction by ZEFSAII (Michael W. Deem and Ramdas Pophale) SiO2 
 PCOD9202453
Probable space group: C 2/M
;
_chemical_formula_sum "Si O2"
_cell_formula_units_Z 30
_cell_length_a 7.017921
_cell_length_b 13.413811
_cell_length_c 14.177755
_cell_angle_alpha 90.000000
_cell_angle_beta 119.362240
_cell_angle_gamma 90.000000
_cell_volume 1163.199018
_symmetry_space_group_name_H-M "C 2/M"
_symmetry_group_IT_number 12
_symmetry_cell_setting 'monoclinic'
loop_
_space_group_symop_operation_xyz
x,y,z
-x,y,-z
-x,-y,-z
x,-y,z
1/2+x,1/2+y,z
1/2-x,1/2+y,-z
1/2-x,1/2-y,-z
1/2+x,1/2-y,z
loop_
_atom_site_type_symbol
_atom_site_label
_atom_site_fract_x
_atom_site_fract_y
_atom_site_fract_z
Si Si1 0.500000 0.000000 0.000000
Si Si2 0.502338 0.833087 0.358063
Si Si3 0.478886 0.846313 0.133361
Si Si4 0.000000 0.166432 0.000000
Si Si5 0.128077 0.889118 0.403746
O O1 0.611812 0.085816 0.095117
O O2 0.525501 0.852828 0.253800
O O3 0.285804 0.880120 0.350834
O O4 0.705588 0.874510 0.467711
O O5 0.490153 0.712913 0.369377
O O6 0.230510 0.887384 0.060082
O O7 0.493654 0.736851 0.091721
O O8 0.029442 0.000000 0.383714
#
# Coordination Sequence:
#
# PCOD9202453 Si02
#       5
#     2   8   8   4   8
#     4  10  24  34  60  96 122 160 230 248 328 392
#     4  10  20  38  65  89 133 164 209 266 322 372
#     4  10  20  38  61  89 123 170 202 271 314 380
#     4   9  20  38  62  81 124 162 213 254 316 371
#     4  10  22  39  63  98 125 169 213 258 317 408
#
# _framework density 25.790945000000001
#
# number of rings (size 3 to 8) (size 9 to 14) (size 15 to 20)
#    0.000    2.133    0.000    3.200    3.733    0.533 
#    0.000   12.000   49.867    0.000    0.000    0.000 
#    0.000    0.000    0.000    0.000    0.000    0.000 
#
# Total GULP energy -83727.271107 kJ/mol
# GULP energy per Si atom -5581.818074 kJ/mol
# Density = 2.573224 g / cm^3
# Si number density = 25.790945 Si / 1000 Ang^3
#
#
#
# Elastic Constant Matrix: (Units=GPa)
#
#
# Indices 1 2 3 4 5 6 
#
# 1 66.0523 8.5282 27.2744 0.0000 -7.2447 0.0000
# 2 8.5282 169.6991 19.8549 0.0000 -7.0850 0.0000
# 3 27.2744 19.8549 175.5850 0.0000 -51.3759 0.0000
# 4 0.0000 0.0000 0.0000 256.4277 0.0000 -181.9307
# 5 -7.2447 -7.0850 -51.3759 0.0000 38.4547 0.0000
# 6 0.0000 0.0000 0.0000 -181.9307 0.0000 134.6234
#
#
#
# Elastic Compliance Matrix: (Units=1/GPa)
#
#
# Indices 1 2 3 4 5 6 
#
# 1 0.016230 -0.000532 -0.002619 0.000000 -0.000539 0.000000
# 2 -0.000532 0.005992 -0.000495 0.000000 0.000343 0.000000
# 3 -0.002619 -0.000495 0.009829 0.000000 0.012548 0.000000
# 4 0.000000 0.000000 0.000000 0.094645 0.000000 0.127904
# 5 -0.000539 0.000343 0.012548 0.000000 0.042730 0.000000
# 6 0.000000 0.000000 0.000000 0.127904 0.000000 0.180278
#
#
# Mechanical properties :
#
#
# Convention : Reuss Voigt Hill
#
# Bulk Modulus (GPa) = 40.38535 58.07239 49.22887
# Shear Modulus (GPa) = 13.68932 109.61311 61.65121
#
# Velocity S-wave (km/s) = 2.30637 6.52632 4.89450
# Velocity P-wave (km/s) = 4.77338 8.90820 7.14637
#
# Compressibility (1/GPa) = 0.02476145
#
# Stress axis : x y z
#
# Youngs Moduli (GPa) = 61.61290 166.89781 101.73591
#
# Poissons Ratio (x) = 0.08875 0.26641
# Poissons Ratio (y) = 0.03276 0.05032
# Poissons Ratio (z) = 0.16134 0.08254
#
# Static dielectric constant tensor:
#      x y z
#    x 2.277820 0.000000 -0.073150 
#    y 0.000000 2.067960 0.000000 
#    z -0.073150 0.000000 2.057850 
# 
# From -- ./inp_files/193802.got.cif
#   From: 2010.05.17/outbox.cif.g08.bks.cpg/sg12_97_cif.got.tgz:193802.got - 2010.06.03 13:09:07.
