data_PCOD9202448
_publ_section_title
;
Structure prediction by ZEFSAII (Michael W. Deem and Ramdas Pophale) SiO2 
 PCOD9202448
Probable space group: C 2/M
;
_chemical_formula_sum "Si O2"
_cell_formula_units_Z 64
_cell_length_a 25.728483
_cell_length_b 27.080483
_cell_length_c 9.150005
_cell_angle_alpha 90.000000
_cell_angle_beta 146.855804
_cell_angle_gamma 90.000000
_cell_volume 3485.612541
_symmetry_space_group_name_H-M "C 2/M"
_symmetry_group_IT_number 12
_symmetry_cell_setting 'monoclinic'
loop_
_space_group_symop_operation_xyz
x,y,z
-x,y,-z
-x,-y,-z
x,-y,z
1/2+x,1/2+y,z
1/2-x,1/2+y,-z
1/2-x,1/2-y,-z
1/2+x,1/2-y,z
loop_
_atom_site_type_symbol
_atom_site_label
_atom_site_fract_x
_atom_site_fract_y
_atom_site_fract_z
Si Si1 0.217405 0.365236 0.926743
Si Si2 0.417402 0.225478 0.401035
Si Si3 0.900056 0.831548 0.202548
Si Si4 0.710246 0.136556 0.258486
Si Si5 0.552809 0.214374 0.985763
Si Si6 0.434832 0.055748 0.471458
Si Si7 0.598360 0.322524 0.145215
Si Si8 0.921866 0.555711 0.925408
O O1 0.316239 0.362754 0.075904
O O2 0.223572 0.372455 0.116524
O O3 0.168164 0.312060 0.785215
O O4 0.151700 0.408040 0.705543
O O5 0.500000 0.200146 0.500000
O O6 0.391861 0.275590 0.252861
O O7 0.471124 0.233226 0.681186
O O8 0.000000 0.849700 0.500000
O O9 0.901573 0.832652 0.029872
O O10 0.809843 0.153502 0.562899
O O11 0.629027 0.178509 0.090754
O O12 0.666901 0.089295 0.240997
O O13 0.500000 0.190656 0.000000
O O14 0.605038 0.263038 0.168384
O O15 0.500000 0.078834 0.500000
O O16 0.511055 0.051163 0.777075
O O17 0.403348 0.000000 0.356006
O O18 0.500000 0.335811 0.000000
O O19 0.894730 0.500000 0.811804
O O20 0.000000 0.577700 0.000000
#
# Coordination Sequence:
#
# PCOD9202448 Si02
#       8
#     8   8   8   8   8   8   8   8
#     4  12  23  34  61  86 114 152 193 235 279 338
#     4  11  20  38  55  82 118 154 192 228 283 340
#     4  11  23  41  57  78 112 155 197 239 279 328
#     4  12  23  36  57  88 115 151 195 232 282 341
#     4  11  23  36  56  82 119 155 189 236 282 336
#     4  10  20  38  61  89 121 150 182 224 282 344
#     4  11  24  41  56  77 115 155 194 239 282 327
#     4  10  22  39  60  88 124 154 180 227 286 344
#
# _framework density 18.361191000000002
#
# number of rings (size 3 to 8) (size 9 to 14) (size 15 to 20)
#    0.000    1.000    5.000    3.000    5.250    0.000 
#    0.000    0.000    0.000    0.750    0.000    0.000 
#    0.000    0.000    0.000    0.000    0.000    0.000 
#
# Total GULP energy -178477.883169 kJ/mol
# GULP energy per Si atom -5577.433849 kJ/mol
# Density = 1.831940 g / cm^3
# Si number density = 18.361191 Si / 1000 Ang^3
#
#
#
# Elastic Constant Matrix: (Units=GPa)
#
#
# Indices 1 2 3 4 5 6 
#
# 1 91.5610 13.0166 9.6727 0.0000 16.8275 0.0000
# 2 13.0166 68.9565 22.7712 0.0000 18.5093 0.0000
# 3 9.6727 22.7712 65.3869 0.0000 13.5248 0.0000
# 4 0.0000 0.0000 0.0000 32.8874 0.0000 7.9874
# 5 16.8275 18.5093 13.5248 0.0000 38.5002 0.0000
# 6 0.0000 0.0000 0.0000 7.9874 0.0000 10.4872
#
#
#
# Elastic Compliance Matrix: (Units=1/GPa)
#
#
# Indices 1 2 3 4 5 6 
#
# 1 0.011948 -0.000840 -0.000516 0.000000 -0.004637 0.000000
# 2 -0.000840 0.018015 -0.004781 0.000000 -0.006614 0.000000
# 3 -0.000516 -0.004781 0.017807 0.000000 -0.003731 0.000000
# 4 0.000000 0.000000 0.000000 0.037308 0.000000 -0.028415
# 5 -0.004637 -0.006614 -0.003731 0.000000 0.032491 0.000000
# 6 0.000000 0.000000 0.000000 -0.028415 0.000000 0.116996
#
#
# Mechanical properties :
#
#
# Convention : Reuss Voigt Hill
#
# Bulk Modulus (GPa) = 28.17343 35.20283 31.68813
# Shear Modulus (GPa) = 19.32962 28.40456 23.86709
#
# Velocity S-wave (km/s) = 3.24812 3.93744 3.60928
# Velocity P-wave (km/s) = 5.42627 6.31548 5.88769
#
# Compressibility (1/GPa) = 0.03549443
#
# Stress axis : x y z
#
# Youngs Moduli (GPa) = 83.69727 55.51013 56.15838
#
# Poissons Ratio (x) = 0.04665 0.02896
# Poissons Ratio (y) = 0.07034 0.26851
# Poissons Ratio (z) = 0.04316 0.26541
#
# Static dielectric constant tensor:
#      x y z
#    x 1.659490 0.000000 -0.010670 
#    y 0.000000 1.657710 0.000000 
#    z -0.010670 0.000000 1.638020 
# 
# From -- ./inp_files/100257.got.cif
#   From: 2010.05.17/outbox.cif.g08.bks.cpg/sg12_51_cif.got.tgz:100257.got - 2010.06.03 13:09:07.
