data_PCOD9202284
_publ_section_title
;
Structure prediction by ZEFSAII (Michael W. Deem and Ramdas Pophale) SiO2 
 PCOD9202284
Probable space group: C 2/M
;
_chemical_formula_sum "Si O2"
_cell_formula_units_Z 56
_cell_length_a 12.373155
_cell_length_b 14.443454
_cell_length_c 16.986205
_cell_angle_alpha 90.000000
_cell_angle_beta 61.183216
_cell_angle_gamma 90.000000
_cell_volume 2659.708463
_symmetry_space_group_name_H-M "C 2/M"
_symmetry_group_IT_number 12
_symmetry_cell_setting 'monoclinic'
loop_
_space_group_symop_operation_xyz
x,y,z
-x,y,-z
-x,-y,-z
x,-y,z
1/2+x,1/2+y,z
1/2-x,1/2+y,-z
1/2-x,1/2-y,-z
1/2+x,1/2-y,z
loop_
_atom_site_type_symbol
_atom_site_label
_atom_site_fract_x
_atom_site_fract_y
_atom_site_fract_z
Si Si1 0.159783 0.609304 0.284062
Si Si2 0.701371 0.889586 0.084153
Si Si3 0.051386 0.102424 0.354045
Si Si4 0.422269 0.612023 0.242576
Si Si5 0.074004 0.651811 0.548918
Si Si6 0.437765 0.720972 0.939527
Si Si7 0.675927 0.649014 0.461698
O O1 0.130887 0.500000 0.304372
O O2 0.155255 0.858444 0.375489
O O3 0.276324 0.632417 0.298634
O O4 0.037272 0.663759 0.350484
O O5 0.700850 0.878900 0.179191
O O6 0.600126 0.817853 0.087103
O O7 0.686869 0.000000 0.072730
O O8 0.824038 0.847415 0.001015
O O9 0.001185 0.143310 0.290266
O O10 0.929905 0.097422 0.451678
O O11 0.094606 0.000000 0.317996
O O12 0.430824 0.500000 0.231561
O O13 0.475018 0.663500 0.148726
O O14 0.192380 0.613029 0.553860
O O15 0.135444 0.745945 0.495582
O O16 0.000000 0.608805 0.500000
O O17 0.500000 0.743054 0.000000
#
# Coordination Sequence:
#
# PCOD9202284 Si02
#       7
#     8   8   8   8   8   8   8
#     4  10  22  40  61  90 125 163 211 270 326 384
#     4  10  23  42  64  96 135 169 214 271 328 391
#     4  10  20  38  60  87 122 157 205 264 315 372
#     4  10  21  38  66  98 127 166 219 272 321 390
#     4  11  22  37  58  84 120 161 209 260 314 377
#     4  11  22  40  69  99 127 176 218 263 329 395
#     4  10  21  37  57  84 117 165 211 251 315 384
#
# _framework density 21.054938
#
# number of rings (size 3 to 8) (size 9 to 14) (size 15 to 20)
#    0.000    1.714    2.857    2.143    2.000    2.286 
#    0.000    2.857    0.000    3.429    0.000    0.000 
#    0.000    0.000    0.000    0.000    0.000    0.000 
#
# Total GULP energy -156101.745176 kJ/mol
# GULP energy per Si atom -5575.062328 kJ/mol
# Density = 2.100702 g / cm^3
# Si number density = 21.054938 Si / 1000 Ang^3
#
#
#
# Elastic Constant Matrix: (Units=GPa)
#
#
# Indices 1 2 3 4 5 6 
#
# 1 161.0998 44.1440 44.6988 0.0000 15.4020 0.0000
# 2 44.1440 98.1830 30.0891 0.0000 9.3365 0.0000
# 3 44.6988 30.0891 71.9506 0.0000 11.4446 0.0000
# 4 0.0000 0.0000 0.0000 17.1320 0.0000 0.5257
# 5 15.4020 9.3365 11.4446 0.0000 37.1570 0.0000
# 6 0.0000 0.0000 0.0000 0.5257 0.0000 30.3616
#
#
#
# Elastic Compliance Matrix: (Units=1/GPa)
#
#
# Indices 1 2 3 4 5 6 
#
# 1 0.008039 -0.002306 -0.003777 0.000000 -0.001590 0.000000
# 2 -0.002306 0.012424 -0.003595 0.000000 -0.001059 0.000000
# 3 -0.003777 -0.003595 0.018250 0.000000 -0.003152 0.000000
# 4 0.000000 0.000000 0.000000 0.058401 0.000000 -0.001011
# 5 -0.001590 -0.001059 -0.003152 0.000000 0.028809 0.000000
# 6 0.000000 0.000000 0.000000 -0.001011 0.000000 0.032954
#
#
# Mechanical properties :
#
#
# Convention : Reuss Voigt Hill
#
# Bulk Modulus (GPa) = 51.65976 63.23303 57.44639
# Shear Modulus (GPa) = 27.07320 31.08356 29.07838
#
# Velocity S-wave (km/s) = 3.58975 3.84644 3.72031
# Velocity P-wave (km/s) = 6.46302 7.05864 6.76739
#
# Compressibility (1/GPa) = 0.01935743
#
# Stress axis : x y z
#
# Youngs Moduli (GPa) = 124.39145 80.48876 54.79557
#
# Poissons Ratio (x) = 0.18559 0.20697
# Poissons Ratio (y) = 0.28682 0.19698
# Poissons Ratio (z) = 0.46985 0.28934
#
# Static dielectric constant tensor:
#      x y z
#    x 1.808890 0.000000 0.019790 
#    y 0.000000 1.824820 0.000000 
#    z 0.019790 0.000000 1.730470 
# 
# From -- ./inp_files/304710.got.cif
#   From: 2010.05.17/outbox.cif.g08.bks.cpg/sg12_153_cif.got.tgz:304710.got - 2010.06.03 13:09:07.
