data_PCOD9202441
_publ_section_title
;
Structure prediction by ZEFSAII (Michael W. Deem and Ramdas Pophale) SiO2 
 PCOD9202441
Probable space group: C 2/M
;
_chemical_formula_sum "Si O2"
_cell_formula_units_Z 28
_cell_length_a 9.792438
_cell_length_b 22.936429
_cell_length_c 12.342493
_cell_angle_alpha 90.000000
_cell_angle_beta 34.075087
_cell_angle_gamma 90.000000
_cell_volume 1553.187126
_symmetry_space_group_name_H-M "C 2/M"
_symmetry_group_IT_number 12
_symmetry_cell_setting 'monoclinic'
loop_
_space_group_symop_operation_xyz
x,y,z
-x,y,-z
-x,-y,-z
x,-y,z
1/2+x,1/2+y,z
1/2-x,1/2+y,-z
1/2-x,1/2-y,-z
1/2+x,1/2-y,z
loop_
_atom_site_type_symbol
_atom_site_label
_atom_site_fract_x
_atom_site_fract_y
_atom_site_fract_z
Si Si1 0.539675 0.931038 0.844488
Si Si2 0.794242 0.843199 0.048429
Si Si3 0.200677 0.224130 0.176072
Si Si4 0.500000 0.352075 0.500000
O O1 0.323662 0.901647 0.918972
O O2 0.770832 0.895396 0.649555
O O3 0.562218 0.000000 0.814001
O O4 0.500000 0.920682 0.000000
O O5 0.633576 0.792487 0.211981
O O6 0.866194 0.807466 0.892608
O O7 0.000000 0.856657 0.000000
O O8 0.058534 0.190134 0.361686
O O9 0.500000 0.220816 0.000000
#
# Coordination Sequence:
#
# PCOD9202441 Si02
#       4
#     8   8   8   4
#     4  11  23  41  62  84 117 162 203 237 280 350
#     4  10  20  39  59  87 124 153 188 241 303 349
#     4  10  20  38  61  88 120 153 194 243 291 350
#     4  12  19  38  66  90 109 154 206 246 278 346
#
# _framework density 18.027448
#
# number of rings (size 3 to 8) (size 9 to 14) (size 15 to 20)
#    0.000    1.429    5.714    0.429    0.000    1.714 
#    0.000    0.000    0.000    1.714    0.000    0.000 
#    0.000    0.000    0.000    0.000    0.000    0.000 
#
# Total GULP energy -77996.206139 kJ/mol
# GULP energy per Si atom -5571.157581 kJ/mol
# Density = 1.798642 g / cm^3
# Si number density = 18.027448 Si / 1000 Ang^3
#
#
#
# Elastic Constant Matrix: (Units=GPa)
#
#
# Indices 1 2 3 4 5 6 
#
# 1 146.1912 52.0231 43.5037 0.0000 14.1096 0.0000
# 2 52.0231 136.4612 47.5578 0.0000 21.9266 0.0000
# 3 43.5037 47.5578 75.4897 0.0000 14.0023 0.0000
# 4 0.0000 0.0000 0.0000 102.0140 0.0000 23.5553
# 5 14.1096 21.9266 14.0023 0.0000 8.6952 0.0000
# 6 0.0000 0.0000 0.0000 23.5553 0.0000 29.8987
#
#
#
# Elastic Compliance Matrix: (Units=1/GPa)
#
#
# Indices 1 2 3 4 5 6 
#
# 1 0.008818 -0.001310 -0.003158 0.000000 -0.005920 0.000000
# 2 -0.001310 0.012960 -0.002484 0.000000 -0.026555 0.000000
# 3 -0.003158 -0.002484 0.020704 0.000000 -0.021950 0.000000
# 4 0.000000 0.000000 0.000000 0.011982 0.000000 -0.009440
# 5 -0.005920 -0.026555 -0.021950 0.000000 0.226922 0.000000
# 6 0.000000 0.000000 0.000000 -0.009440 0.000000 0.040884
#
#
# Mechanical properties :
#
#
# Convention : Reuss Voigt Hill
#
# Bulk Modulus (GPa) = 34.99388 71.59013 53.29201
# Shear Modulus (GPa) = 14.46342 42.45875 28.46108
#
# Velocity S-wave (km/s) = 2.83556 4.85833 3.97768
# Velocity P-wave (km/s) = 5.49310 8.44211 7.12191
#
# Compressibility (1/GPa) = 0.02857642
#
# Stress axis : x y z
#
# Youngs Moduli (GPa) = 113.40940 77.15979 48.30101
#
# Poissons Ratio (x) = 0.10105 0.15255
# Poissons Ratio (y) = 0.14853 0.12000
# Poissons Ratio (z) = 0.35819 0.19169
#
# Static dielectric constant tensor:
#      x y z
#    x 1.661450 0.000000 -0.051710 
#    y 0.000000 1.625690 0.000000 
#    z -0.051710 0.000000 1.701210 
# 
# From -- ./inp_files/121157.got.cif
#   From: 2010.05.17/outbox.cif.g08.bks.cpg/sg12_61_cif.got.tgz:121157.got - 2010.06.03 13:09:07.
