data_PCOD9202110
_publ_section_title
;
Structure prediction by ZEFSAII (Michael W. Deem and Ramdas Pophale) SiO2 
 PCOD9202110
Probable space group: C 2/M
;
_chemical_formula_sum "Si O2"
_cell_formula_units_Z 32
_cell_length_a 10.086104
_cell_length_b 10.343102
_cell_length_c 18.794847
_cell_angle_alpha 90.000000
_cell_angle_beta 133.120246
_cell_angle_gamma 90.000000
_cell_volume 1431.161939
_symmetry_space_group_name_H-M "C 2/M"
_symmetry_group_IT_number 12
_symmetry_cell_setting 'monoclinic'
loop_
_space_group_symop_operation_xyz
x,y,z
-x,y,-z
-x,-y,-z
x,-y,z
1/2+x,1/2+y,z
1/2-x,1/2+y,-z
1/2-x,1/2-y,-z
1/2+x,1/2-y,z
loop_
_atom_site_type_symbol
_atom_site_label
_atom_site_fract_x
_atom_site_fract_y
_atom_site_fract_z
Si Si1 0.215851 0.263637 0.190171
Si Si2 0.141660 0.000000 0.342997
Si Si3 0.000555 0.000000 0.085074
Si Si4 0.248831 0.000000 0.882843
Si Si5 0.814335 0.000000 0.473692
Si Si6 0.641761 0.781689 0.320218
O O1 0.158884 0.369693 0.110959
O O2 0.425344 0.229489 0.251072
O O3 0.190655 0.327157 0.258764
O O4 0.102025 0.131395 0.145817
O O5 0.227264 0.137428 0.354490
O O6 0.139014 0.000000 0.426795
O O7 0.945427 0.000000 0.231938
O O8 0.808417 0.000000 0.055919
O O9 0.000000 0.000000 0.000000
O O10 0.710273 0.873775 0.407520
O O11 0.000000 0.000000 0.500000
#
# Coordination Sequence:
#
# PCOD9202110 Si02
#       6
#     8   4   4   4   4   8
#     4  11  21  45  70  94 134 176 221 266 340 399
#     4  10  20  38  58  88 134 165 217 271 308 375
#     4  12  25  44  71 103 133 165 219 283 331 402
#     4  10  22  44  65  96 136 175 214 269 331 393
#     4  12  23  36  57  99 130 172 233 270 311 378
#     4  11  22  40  67  92 129 183 215 266 331 387
#
# _framework density 22.359455000000001
#
# number of rings (size 3 to 8) (size 9 to 14) (size 15 to 20)
#    0.000    1.000    5.000    5.250    0.000    1.000 
#    0.000    2.500    0.000    0.000    0.000    0.000 
#    0.000    0.000    0.000    0.000    0.000    0.000 
#
# Total GULP energy -89423.050127 kJ/mol
# GULP energy per Si atom -5588.940633 kJ/mol
# Density = 2.230856 g / cm^3
# Si number density = 22.359455 Si / 1000 Ang^3
#
#
#
# Elastic Constant Matrix: (Units=GPa)
#
#
# Indices 1 2 3 4 5 6 
#
# 1 109.0564 -8.5144 19.4707 0.0000 -28.8268 0.0000
# 2 -8.5144 119.0559 -2.1426 0.0000 3.1482 0.0000
# 3 19.4707 -2.1426 86.0666 0.0000 -30.9843 0.0000
# 4 0.0000 0.0000 0.0000 -11.9171 0.0000 -7.6470
# 5 -28.8268 3.1482 -30.9843 0.0000 46.1776 0.0000
# 6 0.0000 0.0000 0.0000 -7.6470 0.0000 63.7555
#
#
#
# Elastic Compliance Matrix: (Units=1/GPa)
#
#
# Indices 1 2 3 4 5 6 
#
# 1 0.011025 0.000608 -0.000021 0.000000 0.006827 0.000000
# 2 0.000608 0.008448 0.000003 0.000000 -0.000195 0.000000
# 3 -0.000021 0.000003 0.015319 0.000000 0.010266 0.000000
# 4 0.000000 0.000000 0.000000 -0.077916 0.000000 -0.009346
# 5 0.006827 -0.000195 0.010266 0.000000 0.032818 0.000000
# 6 0.000000 0.000000 0.000000 -0.009346 0.000000 0.014564
#
#
# Mechanical properties :
#
#
# Convention : Reuss Voigt Hill
#
# Bulk Modulus (GPa) = 27.80044 36.86736 32.33390
# Shear Modulus (GPa) = 331.75155 39.96089 185.85622
#
# Velocity S-wave (km/s) = 12.19402 4.23212 9.12702
# Velocity P-wave (km/s) = 14.51617 6.35652 11.20546
#
# Compressibility (1/GPa) = 0.03597066
#
# Stress axis : x y z
#
# Youngs Moduli (GPa) = 90.69981 118.37025 65.27648
#
# Poissons Ratio (x) = -0.07192 0.00140
# Poissons Ratio (y) = -0.05511 -0.00018
# Poissons Ratio (z) = 0.00194 -0.00032
#
# Static dielectric constant tensor:
#      x y z
#    x 1.788770 0.000000 0.005260 
#    y 0.000000 1.839340 0.000000 
#    z 0.005260 0.000000 1.902000 
# 
# From -- ./inp_files/254385.got.cif
#   From: 2010.05.17/outbox.cif.g08.bks.cpg/sg12_128_cif.got.tgz:254385.got - 2010.06.03 13:09:07.
