data_PCOD9202788
_publ_section_title
;
Structure prediction by ZEFSAII (Michael W. Deem and Ramdas Pophale) SiO2 
 PCOD9202788
Probable space group: C 2/M
;
_chemical_formula_sum "Si O2"
_cell_formula_units_Z 56
_cell_length_a 9.151404
_cell_length_b 18.531889
_cell_length_c 16.077031
_cell_angle_alpha 90.000000
_cell_angle_beta 115.582694
_cell_angle_gamma 90.000000
_cell_volume 2459.246080
_symmetry_space_group_name_H-M "C 2/M"
_symmetry_group_IT_number 12
_symmetry_cell_setting 'monoclinic'
loop_
_space_group_symop_operation_xyz
x,y,z
-x,y,-z
-x,-y,-z
x,-y,z
1/2+x,1/2+y,z
1/2-x,1/2+y,-z
1/2-x,1/2-y,-z
1/2+x,1/2-y,z
loop_
_atom_site_type_symbol
_atom_site_label
_atom_site_fract_x
_atom_site_fract_y
_atom_site_fract_z
Si Si1 0.827269 0.828070 0.502821
Si Si2 0.813490 0.693760 0.951326
Si Si3 0.663922 0.810482 0.228700
Si Si4 0.128105 0.584983 0.902872
Si Si5 0.520834 0.913927 0.406697
Si Si6 0.518027 0.675838 0.293492
Si Si7 0.795965 0.085220 0.775560
O O1 0.750000 0.750000 0.500000
O O2 0.689700 0.876132 0.425240
O O3 0.862277 0.854129 0.605520
O O4 0.000000 0.823229 0.500000
O O5 0.770962 0.714282 0.847460
O O6 0.750000 0.750000 0.000000
O O7 0.804643 0.615209 0.992777
O O8 0.000000 0.708017 0.000000
O O9 0.532222 0.871325 0.169312
O O10 0.582022 0.752420 0.270400
O O11 0.846677 0.829055 0.299616
O O12 0.091955 0.500000 0.898476
O O13 0.261232 0.597329 0.863899
O O14 0.500000 0.899124 0.500000
O O15 0.367436 0.889211 0.313781
O O16 0.534045 0.000000 0.398624
O O17 0.546301 0.624241 0.221335
O O18 0.809160 0.000000 0.764255
#
# Coordination Sequence:
#
# PCOD9202788 Si02
#       7
#     8   8   8   8   8   8   8
#     4  12  27  40  61  93 129 166 213 266 324 374
#     4  10  20  38  63  92 123 162 212 254 314 378
#     4  11  24  38  63  92 124 169 203 263 320 373
#     4  10  23  42  66  95 129 169 213 260 317 382
#     4  10  21  42  66  89 122 168 213 258 318 385
#     4  12  24  41  62  92 130 164 216 266 316 384
#     4  10  22  41  66  91 124 169 213 260 318 380
#
# _framework density 22.771205999999999
#
# number of rings (size 3 to 8) (size 9 to 14) (size 15 to 20)
#    0.000    1.286    1.429    4.714    6.000    3.429 
#    0.000    0.000    0.000    2.143    0.000    0.000 
#    0.000    0.000    0.000    0.000    0.000    0.000 
#
# Total GULP energy -156078.144895 kJ/mol
# GULP energy per Si atom -5574.219461 kJ/mol
# Density = 2.271938 g / cm^3
# Si number density = 22.771206 Si / 1000 Ang^3
#
#
#
# Elastic Constant Matrix: (Units=GPa)
#
#
# Indices 1 2 3 4 5 6 
#
# 1 125.4279 43.1137 0.0337 0.0000 -24.8117 0.0000
# 2 43.1137 52.2999 -9.9270 0.0000 -6.1281 0.0000
# 3 0.0337 -9.9270 59.0906 0.0000 -7.5616 0.0000
# 4 0.0000 0.0000 0.0000 30.0905 0.0000 -0.2628
# 5 -24.8117 -6.1281 -7.5616 0.0000 29.2914 0.0000
# 6 0.0000 0.0000 0.0000 -0.2628 0.0000 33.7381
#
#
#
# Elastic Compliance Matrix: (Units=1/GPa)
#
#
# Indices 1 2 3 4 5 6 
#
# 1 0.013135 -0.009882 -0.000526 0.000000 0.008923 0.000000
# 2 -0.009882 0.027969 0.004532 0.000000 -0.001349 0.000000
# 3 -0.000526 0.004532 0.018355 0.000000 0.005241 0.000000
# 4 0.000000 0.000000 0.000000 0.033235 0.000000 0.000259
# 5 0.008923 -0.001349 0.005241 0.000000 0.042769 0.000000
# 6 0.000000 0.000000 0.000000 0.000259 0.000000 0.029642
#
#
# Mechanical properties :
#
#
# Convention : Reuss Voigt Hill
#
# Bulk Modulus (GPa) = 20.96147 33.69546 27.32846
# Shear Modulus (GPa) = 25.93907 32.19719 29.06813
#
# Velocity S-wave (km/s) = 3.37874 3.76432 3.57673
# Velocity P-wave (km/s) = 4.94433 5.80715 5.39303
#
# Compressibility (1/GPa) = 0.04770658
#
# Stress axis : x y z
#
# Youngs Moduli (GPa) = 76.13439 35.75420 54.47971
#
# Poissons Ratio (x) = 0.35332 0.02865
# Poissons Ratio (y) = 0.75236 -0.24688
# Poissons Ratio (z) = 0.04003 -0.16202
#
# Static dielectric constant tensor:
#      x y z
#    x 2.031750 0.000000 0.422650 
#    y 0.000000 1.830780 0.000000 
#    z 0.422650 0.000000 2.802430 
# 
# From -- ./inp_files/257190.got.cif
#   From: 2010.05.17/outbox.cif.g08.bks.cpg/sg12_129_cif.got.tgz:257190.got - 2010.06.03 13:09:07.
