data_PCOD9202350
_publ_section_title
;
Structure prediction by ZEFSAII (Michael W. Deem and Ramdas Pophale) SiO2 
 PCOD9202350
Probable space group: C 2/M
;
_chemical_formula_sum "Si O2"
_cell_formula_units_Z 32
_cell_length_a 22.796055
_cell_length_b 11.910107
_cell_length_c 4.967874
_cell_angle_alpha 90.000000
_cell_angle_beta 116.020401
_cell_angle_gamma 90.000000
_cell_volume 1212.078264
_symmetry_space_group_name_H-M "C 2/M"
_symmetry_group_IT_number 12
_symmetry_cell_setting 'monoclinic'
loop_
_space_group_symop_operation_xyz
x,y,z
-x,y,-z
-x,-y,-z
x,-y,z
1/2+x,1/2+y,z
1/2-x,1/2+y,-z
1/2-x,1/2-y,-z
1/2+x,1/2-y,z
loop_
_atom_site_type_symbol
_atom_site_label
_atom_site_fract_x
_atom_site_fract_y
_atom_site_fract_z
Si Si1 0.230667 0.382184 0.771589
Si Si2 0.425544 0.375471 0.256978
Si Si3 0.450935 0.127467 0.149946
Si Si4 0.317391 0.340667 0.455925
O O1 0.197639 0.500000 0.685743
O O2 0.293528 0.377572 0.699527
O O3 0.181630 0.292350 0.560550
O O4 0.257704 0.366621 0.126338
O O5 0.500000 0.372036 0.500000
O O6 0.417446 0.500000 0.102254
O O7 0.413839 0.250473 0.099713
O O8 0.380842 0.381378 0.433670
O O9 0.500000 0.124059 0.500000
O O10 0.418987 0.000000 0.073659
O O11 0.500000 0.137420 0.000000
#
# Coordination Sequence:
#
# PCOD9202350 Si02
#       4
#     8   8   8   8
#     4  10  20  38  61  83 112 150 194 245 293 338
#     4  10  21  37  59  88 122 158 194 235 289 353
#     4   9  19  36  55  76 107 148 191 232 274 326
#     4  10  22  37  58  88 116 149 194 240 290 346
#
# _framework density 26.400932999999998
#
# number of rings (size 3 to 8) (size 9 to 14) (size 15 to 20)
#    0.000    2.250    0.000    2.250    0.000    5.500 
#    0.000    5.000    0.000   12.000    0.000    0.000 
#    0.000    0.000    0.000    0.000    0.000    0.000 
#
# Total GULP energy -89320.962378 kJ/mol
# GULP energy per Si atom -5582.560149 kJ/mol
# Density = 2.634084 g / cm^3
# Si number density = 26.400933 Si / 1000 Ang^3
#
#
#
# Elastic Constant Matrix: (Units=GPa)
#
#
# Indices 1 2 3 4 5 6 
#
# 1 95.6002 19.1684 14.3329 0.0000 -14.2601 0.0000
# 2 19.1684 287.4652 9.6542 0.0000 -3.4451 0.0000
# 3 14.3329 9.6542 107.0376 0.0000 -23.8638 0.0000
# 4 0.0000 0.0000 0.0000 2.3755 0.0000 -19.6387
# 5 -14.2601 -3.4451 -23.8638 0.0000 46.1188 0.0000
# 6 0.0000 0.0000 0.0000 -19.6387 0.0000 156.1617
#
#
#
# Elastic Compliance Matrix: (Units=1/GPa)
#
#
# Indices 1 2 3 4 5 6 
#
# 1 0.011160 -0.000683 -0.000763 0.000000 0.003005 0.000000
# 2 -0.000683 0.003531 -0.000243 0.000000 -0.000073 0.000000
# 3 -0.000763 -0.000243 0.010637 0.000000 0.005250 0.000000
# 4 0.000000 0.000000 0.000000-10.615188 0.000000 -1.334950
# 5 0.003005 -0.000073 0.005250 0.000000 0.025323 0.000000
# 6 0.000000 0.000000 0.000000 -1.334950 0.000000 -0.161478
#
#
# Mechanical properties :
#
#
# Convention : Reuss Voigt Hill
#
# Bulk Modulus (GPa) = 45.55674 64.04601 54.80137
# Shear Modulus (GPa) = -0.46662 70.72770 35.13054
#
# Velocity S-wave (km/s) = -0.42087 5.18151 3.65177
# Velocity P-wave (km/s) = 4.13001 7.75300 6.21152
#
# Compressibility (1/GPa) = 0.02195065
#
# Stress axis : x y z
#
# Youngs Moduli (GPa) = 89.60843 283.16660 94.01065
#
# Poissons Ratio (x) = 0.19326 0.07172
# Poissons Ratio (y) = 0.06116 0.02289
# Poissons Ratio (z) = 0.06836 0.06894
#
# Static dielectric constant tensor:
#      x y z
#    x 1.998140 0.000000 0.015700 
#    y 0.000000 2.234110 0.000000 
#    z 0.015700 0.000000 1.991420 
# 
# From -- ./inp_files/23407.got.cif
#   From: 2010.05.17/outbox.cif.g08.bks.cpg/sg12_12_cif.got.tgz:23407.got - 2010.06.03 13:09:07.
