data_PCOD9202214
_publ_section_title
;
Structure prediction by ZEFSAII (Michael W. Deem and Ramdas Pophale) SiO2 
 PCOD9202214
Probable space group: C 2/M
;
_chemical_formula_sum "Si O2"
_cell_formula_units_Z 40
_cell_length_a 7.820751
_cell_length_b 14.835910
_cell_length_c 17.684963
_cell_angle_alpha 90.000000
_cell_angle_beta 121.218958
_cell_angle_gamma 90.000000
_cell_volume 1754.813007
_symmetry_space_group_name_H-M "C 2/M"
_symmetry_group_IT_number 12
_symmetry_cell_setting 'monoclinic'
loop_
_space_group_symop_operation_xyz
x,y,z
-x,y,-z
-x,-y,-z
x,-y,z
1/2+x,1/2+y,z
1/2-x,1/2+y,-z
1/2-x,1/2-y,-z
1/2+x,1/2-y,z
loop_
_atom_site_type_symbol
_atom_site_label
_atom_site_fract_x
_atom_site_fract_y
_atom_site_fract_z
Si Si1 0.940613 0.601950 0.849762
Si Si2 0.784698 0.166829 0.735116
Si Si3 0.911231 0.857240 0.331608
Si Si4 0.330162 0.272201 0.101592
Si Si5 0.174694 0.000000 0.457937
Si Si6 0.063118 0.500000 0.639328
O O1 0.998136 0.500000 0.886815
O O2 0.782806 0.594324 0.745825
O O3 0.820746 0.660160 0.888117
O O4 0.112857 0.669748 0.859710
O O5 0.663590 0.254802 0.679850
O O6 0.934210 0.144502 0.701677
O O7 0.948678 0.183068 0.838822
O O8 0.630659 0.085861 0.702682
O O9 0.030856 0.912652 0.421535
O O10 0.250000 0.250000 0.000000
O O11 0.334214 0.000000 0.561454
O O12 0.309523 0.000000 0.411086
#
# Coordination Sequence:
#
# PCOD9202214 Si02
#       6
#     8   8   8   8   4   4
#     4  10  20  38  60  81 113 151 184 230 290 331
#     4   9  19  33  53  74 106 137 175 220 271 318
#     4   9  17  33  55  78 103 140 174 219 265 322
#     4  10  21  34  55  84 109 142 192 235 271 337
#     4   9  16  30  55  78 106 132 181 213 251 337
#     4   9  18  32  51  80 103 140 174 213 265 324
#
# _framework density 22.794450999999999
#
# number of rings (size 3 to 8) (size 9 to 14) (size 15 to 20)
#    0.000    2.600    1.000    0.600    4.200    2.400 
#    0.000    2.000   15.400    3.600    0.000    0.000 
#    0.000    0.000    0.000    0.000    0.000    0.000 
#
# Total GULP energy -111357.039506 kJ/mol
# GULP energy per Si atom -5567.851975 kJ/mol
# Density = 2.274257 g / cm^3
# Si number density = 22.794451 Si / 1000 Ang^3
#
#
#
# Elastic Constant Matrix: (Units=GPa)
#
#
# Indices 1 2 3 4 5 6 
#
# 1 101.1378 27.8922 34.3189 0.0000 8.7506 0.0000
# 2 27.8922 179.5521 60.4761 0.0000 20.1502 0.0000
# 3 34.3189 60.4761 170.8993 0.0000 25.9771 0.0000
# 4 0.0000 0.0000 0.0000 32.4683 0.0000 1.1923
# 5 8.7506 20.1502 25.9771 0.0000 23.4650 0.0000
# 6 0.0000 0.0000 0.0000 1.1923 0.0000 -150.1462
#
#
#
# Elastic Compliance Matrix: (Units=1/GPa)
#
#
# Indices 1 2 3 4 5 6 
#
# 1 0.010827 -0.000980 -0.001613 0.000000 -0.001410 0.000000
# 2 -0.000980 0.006668 -0.001621 0.000000 -0.003566 0.000000
# 3 -0.001613 -0.001621 0.007750 0.000000 -0.006586 0.000000
# 4 0.000000 0.000000 0.000000 0.030790 0.000000 0.000245
# 5 -0.001410 -0.003566 -0.006586 0.000000 0.053497 0.000000
# 6 0.000000 0.000000 0.000000 0.000245 0.000000 -0.006658
#
#
# Mechanical properties :
#
#
# Convention : Reuss Voigt Hill
#
# Bulk Modulus (GPa) = 59.46360 77.44038 68.45199
# Shear Modulus (GPa) = 42.76901 3.08420 22.92661
#
# Velocity S-wave (km/s) = 4.33632 1.16447 3.17487
# Velocity P-wave (km/s) = 7.15647 5.98791 6.59811
#
# Compressibility (1/GPa) = 0.01681701
#
# Stress axis : x y z
#
# Youngs Moduli (GPa) = 92.35985 149.97538 129.03332
#
# Poissons Ratio (x) = 0.14704 0.20813
# Poissons Ratio (y) = 0.09055 0.20911
# Poissons Ratio (z) = 0.14897 0.24305
#
# Static dielectric constant tensor:
#      x y z
#    x 1.921450 0.000000 -0.064230 
#    y 0.000000 1.933090 0.000000 
#    z -0.064230 0.000000 1.951680 
# 
# From -- ./inp_files/261332.got.cif
#   From: 2010.05.17/outbox.cif.g08.bks.cpg/sg12_131_cif.got.tgz:261332.got - 2010.06.03 13:09:07.
