data_PCOD9202320
_publ_section_title
;
Structure prediction by ZEFSAII (Michael W. Deem and Ramdas Pophale) SiO2 
 PCOD9202320
Probable space group: C 2/M
;
_chemical_formula_sum "Si O2"
_cell_formula_units_Z 48
_cell_length_a 20.067812
_cell_length_b 14.006335
_cell_length_c 19.238268
_cell_angle_alpha 90.000000
_cell_angle_beta 23.418537
_cell_angle_gamma 90.000000
_cell_volume 2149.152903
_symmetry_space_group_name_H-M "C 2/M"
_symmetry_group_IT_number 12
_symmetry_cell_setting 'monoclinic'
loop_
_space_group_symop_operation_xyz
x,y,z
-x,y,-z
-x,-y,-z
x,-y,z
1/2+x,1/2+y,z
1/2-x,1/2+y,-z
1/2-x,1/2-y,-z
1/2+x,1/2-y,z
loop_
_atom_site_type_symbol
_atom_site_label
_atom_site_fract_x
_atom_site_fract_y
_atom_site_fract_z
Si Si1 0.325911 0.000000 0.439376
Si Si2 0.417890 0.790909 0.374192
Si Si3 0.209689 0.000000 0.174651
Si Si4 0.078669 0.791288 0.088053
Si Si5 0.609130 0.000000 0.786855
Si Si6 0.875994 0.208813 0.708272
Si Si7 0.657125 0.792631 0.795610
Si Si8 0.928053 0.000000 0.848448
O O1 0.401919 0.903684 0.397383
O O2 0.125906 0.000000 0.640817
O O3 0.364788 0.000000 0.320460
O O4 0.250000 0.750000 0.500000
O O5 0.552793 0.763229 0.185670
O O6 0.461500 0.743303 0.405758
O O7 0.131758 0.905278 0.281491
O O8 0.171824 0.000000 0.128449
O O9 0.409818 0.000000 0.993518
O O10 0.912142 0.772215 0.200793
O O11 0.105954 0.902550 0.077697
O O12 0.228148 0.746701 0.900704
O O13 0.681197 0.098765 0.746929
O O14 0.815982 0.239647 0.689261
O O15 0.500000 0.795910 0.000000
#
# Coordination Sequence:
#
# PCOD9202320 Si02
#       8
#     4   8   4   8   4   8   8   4
#     4  12  24  40  64  92 127 166 217 258 316 370
#     4  12  23  41  64  90 130 168 211 260 314 370
#     4  12  19  36  66  97 130 153 207 258 327 370
#     4  11  22  40  62  90 123 166 208 257 312 366
#     4  12  20  34  70  95 127 166 199 254 329 396
#     4  11  23  38  65  95 127 163 209 259 316 379
#     4  10  20  38  60  95 127 160 203 259 318 375
#     4  12  26  39  62  91 129 166 215 269 306 361
#
# _framework density 22.334381
#
# number of rings (size 3 to 8) (size 9 to 14) (size 15 to 20)
#    0.000    0.667    8.333    1.250    2.333    0.000 
#    0.000    5.417    0.000    3.000    0.000    0.000 
#    0.000    0.000    0.000    0.000    0.000    0.000 
#
# Total GULP energy -134417.093166 kJ/mol
# GULP energy per Si atom -5600.712215 kJ/mol
# Density = 2.228355 g / cm^3
# Si number density = 22.334381 Si / 1000 Ang^3
#
#
#
# Elastic Constant Matrix: (Units=GPa)
#
#
# Indices 1 2 3 4 5 6 
#
# 1 188.7375 38.5162 8.0450 -0.0003 -19.4172 0.0005
# 2 38.5162 141.7719 -0.3809 0.0001 -10.4674 0.0027
# 3 8.0450 -0.3809 52.1322 -0.0006 -13.4063 0.0052
# 4 -0.0003 0.0001 -0.0006 -1.7846 0.0009 -18.5263
# 5 -19.4172 -10.4674 -13.4063 0.0009 37.8983 -0.0009
# 6 0.0005 0.0027 0.0052 -18.5263 -0.0009 15.6964
#
#
#
# Elastic Compliance Matrix: (Units=1/GPa)
#
#
# Indices 1 2 3 4 5 6 
#
# 1 0.005856 -0.001406 -0.000266 0.000000 0.002518 0.000000
# 2 -0.001406 0.007556 0.000686 0.000001 0.001609 0.000000
# 3 -0.000266 0.000686 0.021167 0.000005 0.007541 -0.000001
# 4 0.000000 0.000001 0.000005 -0.042282 0.000002 -0.049904
# 5 0.002518 0.001609 0.007541 0.000002 0.030788 0.000001
# 6 0.000000 0.000000 -0.000001 -0.049904 0.000001 0.004807
#
#
# Mechanical properties :
#
#
# Convention : Reuss Voigt Hill
#
# Bulk Modulus (GPa) = 30.66845 52.77802 41.72323
# Shear Modulus (GPa) = 122.74695 32.79277 77.76986
#
# Velocity S-wave (km/s) = 7.42146 3.83595 5.90731
# Velocity P-wave (km/s) = 9.33802 6.58039 8.07775
#
# Compressibility (1/GPa) = 0.03260680
#
# Stress axis : x y z
#
# Youngs Moduli (GPa) = 170.77697 132.34261 47.24264
#
# Poissons Ratio (x) = 0.18603 0.01259
# Poissons Ratio (y) = 0.24006 -0.03241
# Poissons Ratio (z) = 0.04551 -0.09079
#
# Static dielectric constant tensor:
#      x y z
#    x 1.831430 0.000000 -0.044850 
#    y 0.000000 1.757510 0.000000 
#    z -0.044850 0.000000 1.899800 
# 
# From -- ./inp_files/278111.got.cif
#   From: 2010.05.17/outbox.cif.g08.bks.cpg/sg12_140_cif.got.tgz:278111.got - 2010.06.03 13:09:07.
