data_PCOD9202946
_publ_section_title
;
Structure prediction by ZEFSAII (Michael W. Deem and Ramdas Pophale) SiO2 
 PCOD9202946
Probable space group: C 2/M
;
_chemical_formula_sum "Si O2"
_cell_formula_units_Z 58
_cell_length_a 31.444418
_cell_length_b 11.204228
_cell_length_c 8.958068
_cell_angle_alpha 90.000000
_cell_angle_beta 79.700547
_cell_angle_gamma 90.000000
_cell_volume 3105.167009
_symmetry_space_group_name_H-M "C 2/M"
_symmetry_group_IT_number 12
_symmetry_cell_setting 'monoclinic'
loop_
_space_group_symop_operation_xyz
x,y,z
-x,y,-z
-x,-y,-z
x,-y,z
1/2+x,1/2+y,z
1/2-x,1/2+y,-z
1/2-x,1/2-y,-z
1/2+x,1/2-y,z
loop_
_atom_site_type_symbol
_atom_site_label
_atom_site_fract_x
_atom_site_fract_y
_atom_site_fract_z
Si Si1 0.283044 0.802829 0.601709
Si Si2 0.162691 0.630737 0.704319
Si Si3 0.492653 0.638425 0.329429
Si Si4 0.082577 0.141683 0.101994
Si Si5 0.000000 0.500000 0.000000
Si Si6 0.296400 0.633918 0.163200
Si Si7 0.327321 0.639359 0.814248
Si Si8 0.066764 0.302216 0.825508
O O1 0.250000 0.750000 0.500000
O O2 0.317964 0.866368 0.474944
O O3 0.251518 0.868948 0.737361
O O4 0.307381 0.706678 0.687446
O O5 0.175320 0.500000 0.762511
O O6 0.180639 0.749574 0.777832
O O7 0.111105 0.640928 0.739646
O O8 0.500000 0.654028 0.500000
O O9 0.480431 0.500000 0.309320
O O10 0.538127 0.660367 0.218327
O O11 0.457097 0.726234 0.286494
O O12 0.124549 0.180691 0.169666
O O13 0.087179 0.000000 0.071556
O O14 0.079723 0.212653 0.950725
O O15 0.033106 0.396575 0.913386
O O16 0.315835 0.500000 0.180706
O O17 0.299070 0.651103 0.983326
O O18 0.329950 0.500000 0.775541
#
# Coordination Sequence:
#
# PCOD9202946 Si02
#       8
#     8   8   8   8   2   8   8   8
#     4  10  23  40  60  88 127 168 204 249 315 381
#     4  11  24  40  62  93 129 165 209 259 314 379
#     4  10  22  38  62  95 127 160 199 257 318 374
#     4  10  20  38  64  95 125 155 206 264 317 371
#     4  12  24  40  64  88 120 180 222 258 296 380
#     4  10  21  41  68  94 124 159 211 263 318 377
#     4  10  21  38  65  98 125 161 208 264 318 375
#     4  12  22  40  65  87 126 168 217 253 309 370
#
# _framework density 18.678543000000001
#
# number of rings (size 3 to 8) (size 9 to 14) (size 15 to 20)
#    0.000    1.517    3.448    1.241    1.931    6.069 
#    0.000    1.724    6.069    0.000    0.000    0.000 
#    0.000    0.000    0.000    0.000    0.000    0.000 
#
# Total GULP energy -161448.108642 kJ/mol
# GULP energy per Si atom -5567.176160 kJ/mol
# Density = 1.863603 g / cm^3
# Si number density = 18.678543 Si / 1000 Ang^3
#
#
#
# Elastic Constant Matrix: (Units=GPa)
#
#
# Indices 1 2 3 4 5 6 
#
# 1 83.6180 46.4213 34.3336 0.0000 -13.1924 0.0000
# 2 46.4213 107.2158 47.2537 0.0000 9.3444 0.0000
# 3 34.3336 47.2537 64.0371 0.0000 -1.9048 0.0000
# 4 0.0000 0.0000 0.0000 45.6779 0.0000 38.5350
# 5 -13.1924 9.3444 -1.9048 0.0000 39.3322 0.0000
# 6 0.0000 0.0000 0.0000 38.5350 0.0000 57.6372
#
#
#
# Elastic Compliance Matrix: (Units=1/GPa)
#
#
# Indices 1 2 3 4 5 6 
#
# 1 0.018922 -0.006657 -0.005004 0.000000 0.007686 0.000000
# 2 -0.006657 0.016750 -0.008989 0.000000 -0.006648 0.000000
# 3 -0.005004 -0.008989 0.024982 0.000000 0.001667 0.000000
# 4 0.000000 0.000000 0.000000 0.050215 0.000000 -0.033573
# 5 0.007686 -0.006648 0.001667 0.000000 0.029662 0.000000
# 6 0.000000 0.000000 0.000000 -0.033573 0.000000 0.039796
#
#
# Mechanical properties :
#
#
# Convention : Reuss Voigt Hill
#
# Bulk Modulus (GPa) = 51.66935 56.76534 54.21734
# Shear Modulus (GPa) = 21.92216 36.98695 29.45455
#
# Velocity S-wave (km/s) = 3.42958 4.45475 3.97535
# Velocity P-wave (km/s) = 6.58826 7.54430 7.08243
#
# Compressibility (1/GPa) = 0.01935384
#
# Stress axis : x y z
#
# Youngs Moduli (GPa) = 52.84784 59.70020 40.02961
#
# Poissons Ratio (x) = 0.39743 0.20032
# Poissons Ratio (y) = 0.35181 0.35982
# Poissons Ratio (z) = 0.26446 0.53663
#
# Static dielectric constant tensor:
#      x y z
#    x 1.657230 0.000000 -0.020830 
#    y 0.000000 1.666410 0.000000 
#    z -0.020830 0.000000 1.624360 
# 
# From -- ./inp_files/103218.got.cif
#   From: 2010.05.17/outbox.cif.g08.bks.cpg/sg12_52_cif.got.tgz:103218.got - 2010.06.03 13:09:07.
