data_PCOD9202927
_publ_section_title
;
Structure prediction by ZEFSAII (Michael W. Deem and Ramdas Pophale) SiO2 
 PCOD9202927
Probable space group: C 2/M
;
_chemical_formula_sum "Si O2"
_cell_formula_units_Z 64
_cell_length_a 14.360690
_cell_length_b 19.303565
_cell_length_c 22.164028
_cell_angle_alpha 90.000000
_cell_angle_beta 32.628009
_cell_angle_gamma 90.000000
_cell_volume 3312.816270
_symmetry_space_group_name_H-M "C 2/M"
_symmetry_group_IT_number 12
_symmetry_cell_setting 'monoclinic'
loop_
_space_group_symop_operation_xyz
x,y,z
-x,y,-z
-x,-y,-z
x,-y,z
1/2+x,1/2+y,z
1/2-x,1/2+y,-z
1/2-x,1/2-y,-z
1/2+x,1/2-y,z
loop_
_atom_site_type_symbol
_atom_site_label
_atom_site_fract_x
_atom_site_fract_y
_atom_site_fract_z
Si Si1 0.860710 0.205684 0.228616
Si Si2 0.336686 0.317638 0.381148
Si Si3 0.614696 0.418002 0.258050
Si Si4 0.364481 0.682488 0.018656
Si Si5 0.560977 0.919979 0.223998
Si Si6 0.339301 0.160156 0.041167
Si Si7 0.000503 0.687150 0.642225
Si Si8 0.398419 0.870367 0.198881
O O1 0.839438 0.177636 0.307547
O O2 0.689008 0.194760 0.282487
O O3 0.883006 0.288648 0.219905
O O4 0.022984 0.174225 0.103487
O O5 0.428485 0.382784 0.362628
O O6 0.143958 0.311036 0.511777
O O7 0.448212 0.251012 0.341973
O O8 0.609644 0.500000 0.257588
O O9 0.698871 0.384971 0.151829
O O10 0.739055 0.394759 0.244915
O O11 0.500000 0.681715 0.000000
O O12 0.221806 0.625670 0.111584
O O13 0.285083 0.760382 0.059026
O O14 0.497707 0.882106 0.318917
O O15 0.418240 0.911746 0.249589
O O16 0.605467 0.000000 0.208868
O O17 0.500000 0.166094 0.000000
O O18 0.425682 0.124111 0.936473
#
# Coordination Sequence:
#
# PCOD9202927 Si02
#       8
#     8   8   8   8   8   8   8   8
#     4  11  21  41  70  96 124 155 213 271 312 358
#     4  11  24  40  70  93 119 162 216 267 306 365
#     4  11  22  39  59  90 134 167 205 251 309 379
#     4  10  20  38  64  93 127 165 209 259 308 369
#     4  12  25  40  61  93 135 170 204 249 318 389
#     4   8  18  33  58  86 121 165 200 252 303 358
#     4  11  23  45  65  92 123 161 215 266 312 361
#     4  10  21  37  62  93 127 163 204 253 320 373
#
# _framework density 19.318909999999999
#
# number of rings (size 3 to 8) (size 9 to 14) (size 15 to 20)
#    0.000    1.500    3.750    2.250    1.750    4.500 
#    0.000    1.250    0.000    3.000    0.000    0.000 
#    0.000    0.000    0.000    0.000    0.000    0.000 
#
# Total GULP energy -178844.427044 kJ/mol
# GULP energy per Si atom -5588.888345 kJ/mol
# Density = 1.927494 g / cm^3
# Si number density = 19.318910 Si / 1000 Ang^3
#
#
#
# Elastic Constant Matrix: (Units=GPa)
#
#
# Indices 1 2 3 4 5 6 
#
# 1 79.0419 9.1208 15.8581 -0.0025 12.9097 0.0007
# 2 9.1208 88.3105 8.5604 0.0004 1.1445 0.0008
# 3 15.8581 8.5604 60.2608 -0.0039 8.1034 -0.0005
# 4 -0.0025 0.0004 -0.0039 2.8949 -0.0021 -3.2717
# 5 12.9097 1.1445 8.1034 -0.0021 30.6771 0.0001
# 6 0.0007 0.0008 -0.0005 -3.2717 0.0001 10.2288
#
#
#
# Elastic Compliance Matrix: (Units=1/GPa)
#
#
# Indices 1 2 3 4 5 6 
#
# 1 0.014204 -0.001121 -0.002883 0.000005 -0.005174 0.000001
# 2 -0.001121 0.011570 -0.001404 -0.000008 0.000411 -0.000003
# 3 -0.002883 -0.001404 0.018023 0.000033 -0.003495 0.000012
# 4 0.000005 -0.000008 0.000033 0.540994 0.000026 0.173038
# 5 -0.005174 0.000411 -0.003495 0.000026 0.035683 0.000008
# 6 0.000001 -0.000003 0.000012 0.173038 0.000008 0.153110
#
#
# Mechanical properties :
#
#
# Convention : Reuss Voigt Hill
#
# Bulk Modulus (GPa) = 30.31944 32.74352 31.53148
# Shear Modulus (GPa) = 6.28620 21.69844 13.99232
#
# Velocity S-wave (km/s) = 1.80582 3.35501 2.69417
# Velocity P-wave (km/s) = 4.48065 5.65631 5.10245
#
# Compressibility (1/GPa) = 0.03298214
#
# Stress axis : x y z
#
# Youngs Moduli (GPa) = 70.40120 86.42911 55.48576
#
# Poissons Ratio (x) = 0.09684 0.15997
# Poissons Ratio (y) = 0.07889 0.07790
# Poissons Ratio (z) = 0.20297 0.12134
#
# Static dielectric constant tensor:
#      x y z
#    x 1.704060 0.000000 0.005620 
#    y 0.000000 1.639210 0.000000 
#    z 0.005620 0.000000 1.685650 
# 
# From -- ./inp_files/340827.got.cif
#   From: 2010.05.17/outbox.cif.g08.bks.cpg/sg12_171_cif.got.tgz:340827.got - 2010.06.03 13:09:07.
