data_PCOD9202049
_publ_section_title
;
Structure prediction by ZEFSAII (Michael W. Deem and Ramdas Pophale) SiO2 
 PCOD9202049
Probable space group: C 2/M
;
_chemical_formula_sum "Si O2"
_cell_formula_units_Z 58
_cell_length_a 14.766436
_cell_length_b 7.588489
_cell_length_c 23.423942
_cell_angle_alpha 90.000000
_cell_angle_beta 89.257668
_cell_angle_gamma 90.000000
_cell_volume 2624.548053
_symmetry_space_group_name_H-M "C 2/M"
_symmetry_group_IT_number 12
_symmetry_cell_setting 'monoclinic'
loop_
_space_group_symop_operation_xyz
x,y,z
-x,y,-z
-x,-y,-z
x,-y,z
1/2+x,1/2+y,z
1/2-x,1/2+y,-z
1/2-x,1/2-y,-z
1/2+x,1/2-y,z
loop_
_atom_site_type_symbol
_atom_site_label
_atom_site_fract_x
_atom_site_fract_y
_atom_site_fract_z
Si Si1 0.765101 0.713963 0.626336
Si Si2 0.987427 0.702158 0.937533
Si Si3 0.214948 0.209996 0.064047
Si Si4 0.968910 0.295599 0.637476
Si Si5 0.385008 0.792011 0.458132
Si Si6 0.615397 0.294578 0.717365
Si Si7 0.867964 0.713058 0.151452
Si Si8 0.500000 0.500000 0.500000
O O1 0.767304 0.500000 0.627804
O O2 0.867801 0.778576 0.634807
O O3 0.714172 0.765932 0.568240
O O4 0.698148 0.776584 0.677883
O O5 0.021156 0.500000 0.943205
O O6 0.882046 0.705015 0.926237
O O7 0.044592 0.776644 0.884862
O O8 0.000000 0.786330 0.000000
O O9 0.284669 0.267699 0.112057
O O10 0.204902 0.000000 0.068272
O O11 0.250000 0.250000 0.000000
O O12 0.960664 0.500000 0.622202
O O13 0.045807 0.227135 0.593392
O O14 0.019364 0.283961 0.697926
O O15 0.419971 0.656877 0.504840
O O16 0.396292 0.000000 0.471689
O O17 0.608035 0.500000 0.704105
O O18 0.633994 0.274542 0.783817
O O19 0.868457 0.500000 0.154657
#
# Coordination Sequence:
#
# PCOD9202049 Si02
#       8
#     8   8   8   8   8   8   8   2
#     4   9  18  38  63  87 119 158 200 251 300 356
#     4  10  20  38  58  77 104 146 189 228 284 349
#     4  11  22  37  57  81 107 145 188 233 284 351
#     4   9  19  37  64  88 117 157 206 245 299 364
#     4  10  21  38  63  91 122 171 210 249 306 356
#     4  10  21  35  57  88 116 149 193 247 302 349
#     4  10  22  39  56  76 116 149 184 238 297 354
#     4  12  22  40  64  86 140 166 206 264 294 348
#
# _framework density 22.099042000000001
#
# number of rings (size 3 to 8) (size 9 to 14) (size 15 to 20)
#    0.000    2.069    2.069    1.034    0.966    4.138 
#    0.000    4.828    0.000    0.000    0.000    0.000 
#    0.000    0.000    0.000    0.000    0.000    0.000 
#
# Total GULP energy -161664.176390 kJ/mol
# GULP energy per Si atom -5574.626772 kJ/mol
# Density = 2.204874 g / cm^3
# Si number density = 22.099042 Si / 1000 Ang^3
#
#
#
# Elastic Constant Matrix: (Units=GPa)
#
#
# Indices 1 2 3 4 5 6 
#
# 1 149.3705 4.7135 44.2127 0.0000 23.2436 0.0000
# 2 4.7135 80.9429 -2.8736 0.0000 1.8830 0.0000
# 3 44.2127 -2.8736 109.1411 0.0000 12.9407 0.0000
# 4 0.0000 0.0000 0.0000 -33.5528 0.0000 31.4074
# 5 23.2436 1.8830 12.9407 0.0000 30.8447 0.0000
# 6 0.0000 0.0000 0.0000 31.4074 0.0000 11.7710
#
#
#
# Elastic Compliance Matrix: (Units=1/GPa)
#
#
# Indices 1 2 3 4 5 6 
#
# 1 0.008323 -0.000465 -0.002782 0.000000 -0.005076 0.000000
# 2 -0.000465 0.012418 0.000593 0.000000 -0.000656 0.000000
# 3 -0.002782 0.000593 0.010587 0.000000 -0.002382 0.000000
# 4 0.000000 0.000000 0.000000 -0.008521 0.000000 0.022736
# 5 -0.005076 -0.000656 -0.002382 0.000000 0.037285 0.000000
# 6 0.000000 0.000000 0.000000 0.022736 0.000000 0.024289
#
#
# Mechanical properties :
#
#
# Convention : Reuss Voigt Hill
#
# Bulk Modulus (GPa) = 38.43182 47.95107 43.19144
# Shear Modulus (GPa) = 50.83235 21.37271 36.10253
#
# Velocity S-wave (km/s) = 4.80125 3.11325 4.04625
# Velocity P-wave (km/s) = 6.94006 5.88799 6.43556
#
# Compressibility (1/GPa) = 0.02602011
#
# Stress axis : x y z
#
# Youngs Moduli (GPa) = 120.15200 80.52949 94.45177
#
# Poissons Ratio (x) = 0.03747 0.26276
# Poissons Ratio (y) = 0.05591 -0.05604
# Poissons Ratio (z) = 0.33425 -0.04778
#
# Static dielectric constant tensor:
#      x y z
#    x 1.828640 0.000000 -0.010190 
#    y 0.000000 1.869260 0.000000 
#    z -0.010190 0.000000 1.847390 
# 
# From -- ./inp_files/338140.got.cif
#   From: 2010.05.17/outbox.cif.g08.bks.cpg/sg12_170_cif.got.tgz:338140.got - 2010.06.03 13:09:07.
