data_PCOD9202602
_publ_section_title
;
Structure prediction by ZEFSAII (Michael W. Deem and Ramdas Pophale) SiO2 
 PCOD9202602
Probable space group: C 2/M
;
_chemical_formula_sum "Si O2"
_cell_formula_units_Z 56
_cell_length_a 20.176861
_cell_length_b 9.213954
_cell_length_c 27.089339
_cell_angle_alpha 90.000000
_cell_angle_beta 34.941260
_cell_angle_gamma 90.000000
_cell_volume 2884.382063
_symmetry_space_group_name_H-M "C 2/M"
_symmetry_group_IT_number 12
_symmetry_cell_setting 'monoclinic'
loop_
_space_group_symop_operation_xyz
x,y,z
-x,y,-z
-x,-y,-z
x,-y,z
1/2+x,1/2+y,z
1/2-x,1/2+y,-z
1/2-x,1/2-y,-z
1/2+x,1/2-y,z
loop_
_atom_site_type_symbol
_atom_site_label
_atom_site_fract_x
_atom_site_fract_y
_atom_site_fract_z
Si Si1 0.652795 0.672299 0.279764
Si Si2 0.443157 0.327528 0.481953
Si Si3 0.975346 0.829357 0.240885
Si Si4 0.689444 0.827133 0.153056
Si Si5 0.765421 0.171102 0.438742
Si Si6 0.379749 0.168855 0.206562
Si Si7 0.072943 0.330771 0.004707
O O1 0.655897 0.500000 0.265349
O O2 0.536538 0.700264 0.381720
O O3 0.664417 0.763723 0.222999
O O4 0.762165 0.701214 0.248666
O O5 0.500000 0.293067 0.500000
O O6 0.416933 0.500000 0.497779
O O7 0.328416 0.238024 0.541155
O O8 0.892976 0.807974 0.338624
O O9 0.904600 0.771619 0.237213
O O10 0.091593 0.738677 0.177298
O O11 0.000562 0.000000 0.220867
O O12 0.815113 0.768896 0.060620
O O13 0.685507 0.000000 0.155617
O O14 0.750000 0.250000 0.500000
O O15 0.746124 0.000000 0.456272
O O16 0.372639 0.000000 0.227145
O O17 0.486093 0.182437 0.103495
O O18 0.109524 0.500000 0.978204
O O19 0.000000 0.296259 0.000000
#
# Coordination Sequence:
#
# PCOD9202602 Si02
#       7
#     8   8   8   8   8   8   8
#     4  10  20  38  62  89 121 158 200 246 300 359
#     4  10  21  37  61  90 120 156 199 248 300 358
#     4  11  25  43  61  86 123 163 202 248 305 360
#     4  12  25  39  61  91 122 157 202 251 295 353
#     4  11  24  41  62  87 119 161 205 252 303 357
#     4  10  21  39  66  93 120 158 201 246 298 357
#     4  10  20  40  67  92 121 159 198 242 299 357
#
# _framework density 19.414904
#
# number of rings (size 3 to 8) (size 9 to 14) (size 15 to 20)
#    0.000    1.429    1.429    3.857    0.000    9.714 
#    0.000    0.000    0.000    0.000    0.000    0.000 
#    0.000    0.000    0.000    0.000    0.000    0.000 
#
# Total GULP energy -156625.182564 kJ/mol
# GULP energy per Si atom -5593.756520 kJ/mol
# Density = 1.937072 g / cm^3
# Si number density = 19.414904 Si / 1000 Ang^3
#
#
#
# Elastic Constant Matrix: (Units=GPa)
#
#
# Indices 1 2 3 4 5 6 
#
# 1 46.7901 28.3541 2.7001 0.0000 -12.3715 0.0000
# 2 28.3541 69.5333 33.8959 0.0001 -17.8524 -0.0001
# 3 2.7001 33.8959 48.5633 0.0000 -15.6723 0.0000
# 4 0.0000 0.0001 0.0000 27.3920 0.0000 -0.5257
# 5 -12.3715 -17.8524 -15.6723 0.0000 31.9752 0.0000
# 6 0.0000 -0.0001 0.0000 -0.5257 0.0000 32.1274
#
#
#
# Elastic Compliance Matrix: (Units=1/GPa)
#
#
# Indices 1 2 3 4 5 6 
#
# 1 0.034262 -0.018270 0.014057 0.000000 0.009945 0.000000
# 2 -0.018270 0.032419 -0.021443 0.000000 0.000521 0.000000
# 3 0.014057 -0.021443 0.038807 0.000000 0.012487 0.000000
# 4 0.000000 0.000000 0.000000 0.036519 0.000000 0.000598
# 5 0.009945 0.000521 0.012487 0.000000 0.041533 0.000000
# 6 0.000000 0.000000 0.000000 0.000598 0.000000 0.031136
#
#
# Mechanical properties :
#
#
# Convention : Reuss Voigt Hill
#
# Bulk Modulus (GPa) = 18.45915 32.75410 25.60663
# Shear Modulus (GPa) = 17.60274 24.96135 21.28204
#
# Velocity S-wave (km/s) = 3.01435 3.58953 3.31444
# Velocity P-wave (km/s) = 4.65225 5.83839 5.27874
#
# Compressibility (1/GPa) = 0.05417366
#
# Stress axis : x y z
#
# Youngs Moduli (GPa) = 29.18696 30.84648 25.76864
#
# Poissons Ratio (x) = 0.56357 -0.36222
# Poissons Ratio (y) = 0.53325 0.55257
# Poissons Ratio (z) = -0.41027 0.66145
#
# Static dielectric constant tensor:
#      x y z
#    x 1.671580 0.000000 0.007890 
#    y 0.000000 1.642660 0.000000 
#    z 0.007890 0.000000 1.669230 
# 
# From -- ./inp_files/363002.got.cif
#   From: 2010.05.17/outbox.cif.g08.bks.cpg/sg12_182_cif.got.tgz:363002.got - 2010.06.03 13:09:07.
