data_PCOD9202488
_publ_section_title
;
Structure prediction by ZEFSAII (Michael W. Deem and Ramdas Pophale) SiO2 
 PCOD9202488
Probable space group: C 2/M
;
_chemical_formula_sum "Si O2"
_cell_formula_units_Z 56
_cell_length_a 26.071564
_cell_length_b 9.115447
_cell_length_c 12.860254
_cell_angle_alpha 90.000000
_cell_angle_beta 106.195262
_cell_angle_gamma 90.000000
_cell_volume 2935.006766
_symmetry_space_group_name_H-M "C 2/M"
_symmetry_group_IT_number 12
_symmetry_cell_setting 'monoclinic'
loop_
_space_group_symop_operation_xyz
x,y,z
-x,y,-z
-x,-y,-z
x,-y,z
1/2+x,1/2+y,z
1/2-x,1/2+y,-z
1/2-x,1/2-y,-z
1/2+x,1/2-y,z
loop_
_atom_site_type_symbol
_atom_site_label
_atom_site_fract_x
_atom_site_fract_y
_atom_site_fract_z
Si Si1 0.893882 0.174166 0.847749
Si Si2 0.140773 0.174724 0.750501
Si Si3 0.674877 0.671193 0.391390
Si Si4 0.797871 0.670159 0.389732
Si Si5 0.005597 0.331078 0.170812
Si Si6 0.469124 0.825267 0.376868
Si Si7 0.879798 0.328538 0.049003
O O1 0.864098 0.213753 0.723859
O O2 0.954725 0.225288 0.866610
O O3 0.890267 0.000000 0.860350
O O4 0.868666 0.255615 0.932045
O O5 0.186444 0.234077 0.700280
O O6 0.085084 0.235423 0.670825
O O7 0.145348 0.244094 0.867753
O O8 0.139888 0.000000 0.755222
O O9 0.665485 0.500000 0.413334
O O10 0.735351 0.682052 0.382370
O O11 0.671045 0.769415 0.491680
O O12 0.810831 0.500000 0.378190
O O13 0.022267 0.500000 0.161479
O O14 0.005039 0.301414 0.294326
O O15 0.944074 0.317652 0.102011
O O16 0.500000 0.788638 0.500000
O O17 0.456151 0.000000 0.370782
O O18 0.865745 0.500000 0.043378
#
# Coordination Sequence:
#
# PCOD9202488 Si02
#       7
#     8   8   8   8   8   8   8
#     4  11  22  35  55  83 115 144 180 231 283 327
#     4  11  22  36  57  83 112 144 182 228 284 331
#     4   9  21  39  57  84 115 143 181 232 281 330
#     4  10  20  38  62  82 109 148 187 225 276 337
#     4   9  19  34  52  77 110 149 188 224 264 321
#     4   9  19  35  53  78 112 148 188 226 265 326
#     4  10  21  39  58  79 109 148 193 229 266 327
#
# _framework density 19.080023000000001
#
# number of rings (size 3 to 8) (size 9 to 14) (size 15 to 20)
#    0.000    2.143    0.000    3.857    2.000    6.571 
#    0.000    0.714    0.000    0.000    0.000    0.000 
#    0.000    0.000    0.000    0.000    0.000    0.000 
#
# Total GULP energy -156406.962253 kJ/mol
# GULP energy per Si atom -5585.962938 kJ/mol
# Density = 1.903660 g / cm^3
# Si number density = 19.080023 Si / 1000 Ang^3
#
#
#
# Elastic Constant Matrix: (Units=GPa)
#
#
# Indices 1 2 3 4 5 6 
#
# 1 16.8329 19.2329 6.0233 0.0000 -13.8053 0.0000
# 2 19.2329 81.9227 26.5838 0.0000 -15.1753 0.0000
# 3 6.0233 26.5838 52.6015 0.0000 -12.7857 0.0000
# 4 0.0000 0.0000 0.0000 31.6008 0.0000 -7.4646
# 5 -13.8053 -15.1753 -12.7857 0.0000 19.8910 0.0000
# 6 0.0000 0.0000 0.0000 -7.4646 0.0000 23.7069
#
#
#
# Elastic Compliance Matrix: (Units=1/GPa)
#
#
# Indices 1 2 3 4 5 6 
#
# 1 0.179452 -0.027442 0.021931 0.000000 0.117710 0.000000
# 2 -0.027442 0.019830 -0.009282 0.000000 -0.009883 0.000000
# 3 0.021931 -0.009282 0.027459 0.000000 0.025791 0.000000
# 4 0.000000 0.000000 0.000000 0.034188 0.000000 0.010765
# 5 0.117710 -0.009883 0.025791 0.000000 0.141008 0.000000
# 6 0.000000 0.000000 0.000000 0.010765 0.000000 0.045571
#
#
# Mechanical properties :
#
#
# Convention : Reuss Voigt Hill
#
# Bulk Modulus (GPa) = 5.07211 28.33746 16.70479
# Shear Modulus (GPa) = 9.21129 21.67420 15.44274
#
# Velocity S-wave (km/s) = 2.19959 3.37406 2.84802
# Velocity P-wave (km/s) = 3.01911 5.48299 4.42596
#
# Compressibility (1/GPa) = 0.19715656
#
# Stress axis : x y z
#
# Youngs Moduli (GPa) = 5.57252 50.42786 36.41753
#
# Poissons Ratio (x) = 1.38384 -0.79868
# Poissons Ratio (y) = 0.15292 0.33802
# Poissons Ratio (z) = -0.12221 0.46806
#
# Static dielectric constant tensor:
#      x y z
#    x 1.657040 0.000000 -0.003030 
#    y 0.000000 1.637360 0.000000 
#    z -0.003030 0.000000 1.666570 
# 
# From -- ./inp_files/181061.got.cif
#   From: 2010.05.17/outbox.cif.g08.bks.cpg/sg12_91_cif.got.tgz:181061.got - 2010.06.03 13:09:07.
