data_PCOD9202480
_publ_section_title
;
Structure prediction by ZEFSAII (Michael W. Deem and Ramdas Pophale) SiO2 
 PCOD9202480
Probable space group: C 2/M
;
_chemical_formula_sum "Si O2"
_cell_formula_units_Z 36
_cell_length_a 24.451143
_cell_length_b 14.218676
_cell_length_c 5.316933
_cell_angle_alpha 90.000000
_cell_angle_beta 118.670267
_cell_angle_gamma 90.000000
_cell_volume 1621.865334
_symmetry_space_group_name_H-M "C 2/M"
_symmetry_group_IT_number 12
_symmetry_cell_setting 'monoclinic'
loop_
_space_group_symop_operation_xyz
x,y,z
-x,y,-z
-x,-y,-z
x,-y,z
1/2+x,1/2+y,z
1/2-x,1/2+y,-z
1/2-x,1/2-y,-z
1/2+x,1/2-y,z
loop_
_atom_site_type_symbol
_atom_site_label
_atom_site_fract_x
_atom_site_fract_y
_atom_site_fract_z
Si Si1 0.869814 0.702073 0.826424
Si Si2 0.500000 0.761858 0.000000
Si Si3 0.941413 0.900312 0.556342
Si Si4 0.686515 0.888076 0.796620
Si Si5 0.326235 0.393056 0.926871
O O1 0.849839 0.655473 0.520742
O O2 0.846832 0.811021 0.783596
O O3 0.944665 0.687567 0.027480
O O4 0.835250 0.655945 0.988777
O O5 0.542138 0.692315 0.257787
O O6 0.000000 0.907379 0.500000
O O7 0.938677 0.000000 0.696837
O O8 0.879386 0.892003 0.256898
O O9 0.759566 0.871490 0.901779
O O10 0.676702 0.000000 0.783320
O O11 0.323036 0.500000 0.815078
#
# Coordination Sequence:
#
# PCOD9202480 Si02
#       5
#     8   4   8   8   8
#     4  12  25  45  71 100 137 182 227 281 342 403
#     4  12  25  38  65  96 138 180 230 280 336 402
#     4  10  20  38  61  94 140 181 215 262 333 418
#     4  11  26  48  71  99 134 178 236 293 337 389
#     4  10  22  42  71 105 141 177 217 272 346 422
#
# _framework density 22.196663999999998
#
# number of rings (size 3 to 8) (size 9 to 14) (size 15 to 20)
#    0.000    1.111    2.222    3.667    0.000    2.667 
#    0.000   11.111    0.000    0.000    0.000    0.000 
#    0.000    0.000    0.000    0.000    0.000    0.000 
#
# Total GULP energy -100654.225958 kJ/mol
# GULP energy per Si atom -5591.901442 kJ/mol
# Density = 2.214614 g / cm^3
# Si number density = 22.196664 Si / 1000 Ang^3
#
#
#
# Elastic Constant Matrix: (Units=GPa)
#
#
# Indices 1 2 3 4 5 6 
#
# 1 159.5687 36.8973 7.1523 0.0000 18.7720 0.0000
# 2 36.8973 82.7450 19.2553 0.0000 8.2752 0.0000
# 3 7.1523 19.2553 45.1305 0.0000 8.8044 0.0000
# 4 0.0000 0.0000 0.0000 45.9724 0.0000 -6.5395
# 5 18.7720 8.2752 8.8044 0.0000 39.9146 0.0000
# 6 0.0000 0.0000 0.0000 -6.5395 0.0000 46.5805
#
#
#
# Elastic Compliance Matrix: (Units=1/GPa)
#
#
# Indices 1 2 3 4 5 6 
#
# 1 0.007306 -0.003139 0.000757 0.000000 -0.002952 0.000000
# 2 -0.003139 0.014863 -0.005779 0.000000 -0.000330 0.000000
# 3 0.000757 -0.005779 0.025434 0.000000 -0.004768 0.000000
# 4 0.000000 0.000000 0.000000 0.022195 0.000000 0.003116
# 5 -0.002952 -0.000330 -0.004768 0.000000 0.027562 0.000000
# 6 0.000000 0.000000 0.000000 0.003116 0.000000 0.021906
#
#
# Mechanical properties :
#
#
# Convention : Reuss Voigt Hill
#
# Bulk Modulus (GPa) = 31.96831 46.00600 38.98715
# Shear Modulus (GPa) = 34.24294 41.43612 37.83953
#
# Velocity S-wave (km/s) = 3.93199 4.32530 4.13333
# Velocity P-wave (km/s) = 5.92011 6.76135 6.35466
#
# Compressibility (1/GPa) = 0.03128098
#
# Stress axis : x y z
#
# Youngs Moduli (GPa) = 136.87241 67.28136 39.31740
#
# Poissons Ratio (x) = 0.21119 -0.02978
# Poissons Ratio (y) = 0.42962 0.22723
# Poissons Ratio (z) = -0.10366 0.38885
#
# Static dielectric constant tensor:
#      x y z
#    x 1.882860 0.000000 -0.019910 
#    y 0.000000 1.913200 0.000000 
#    z -0.019910 0.000000 1.793730 
# 
# From -- ./inp_files/24173.got.cif
#   From: 2010.05.17/outbox.cif.g08.bks.cpg/sg12_13_cif.got.tgz:24173.got - 2010.06.03 13:09:07.
