data_PCOD9202246
_publ_section_title
;
Structure prediction by ZEFSAII (Michael W. Deem and Ramdas Pophale) SiO2 
 PCOD9202246
Probable space group: C 2/M
;
_chemical_formula_sum "Si O2"
_cell_formula_units_Z 44
_cell_length_a 10.157296
_cell_length_b 11.308232
_cell_length_c 21.752163
_cell_angle_alpha 90.000000
_cell_angle_beta 43.459092
_cell_angle_gamma 90.000000
_cell_volume 1718.543321
_symmetry_space_group_name_H-M "C 2/M"
_symmetry_group_IT_number 12
_symmetry_cell_setting 'monoclinic'
loop_
_space_group_symop_operation_xyz
x,y,z
-x,y,-z
-x,-y,-z
x,-y,z
1/2+x,1/2+y,z
1/2-x,1/2+y,-z
1/2-x,1/2-y,-z
1/2+x,1/2-y,z
loop_
_atom_site_type_symbol
_atom_site_label
_atom_site_fract_x
_atom_site_fract_y
_atom_site_fract_z
Si Si1 0.982340 0.750584 0.742590
Si Si2 0.980760 0.873955 0.433280
Si Si3 0.429323 0.000000 0.091522
Si Si4 0.453671 0.128856 0.395083
Si Si5 0.979312 0.000000 0.929454
Si Si6 0.030172 0.748050 0.869987
Si Si7 0.532444 0.500000 0.758677
O O1 0.758926 0.739949 0.801380
O O2 0.077168 0.880844 0.705098
O O3 0.079822 0.653388 0.666122
O O4 0.985271 0.737482 0.813985
O O5 0.750419 0.874980 0.501600
O O6 0.054094 0.750375 0.381819
O O7 0.000000 0.871916 0.500000
O O8 0.060422 0.000000 0.383097
O O9 0.511807 0.118440 0.091417
O O10 0.200477 0.000000 0.166575
O O11 0.500000 0.000000 0.000000
O O12 0.546620 0.000000 0.372523
O O13 0.933697 0.139385 0.935699
O O14 0.074471 0.000000 0.819264
O O15 0.000000 0.000000 0.000000
#
# Coordination Sequence:
#
# PCOD9202246 Si02
#       7
#     8   8   4   8   4   8   4
#     4  10  22  39  58  86 119 156 194 240 293 346
#     4   9  20  40  59  85 114 148 199 236 283 351
#     4  10  20  38  60  86 113 154 196 243 291 341
#     4  10  22  36  58  85 116 151 191 243 291 337
#     4  10  20  38  60  84 115 156 190 239 299 351
#     4  10  23  38  59  85 121 149 198 243 287 350
#     4   8  20  40  54  86 120 154 196 234 296 364
#
# _framework density 25.603081
#
# number of rings (size 3 to 8) (size 9 to 14) (size 15 to 20)
#    0.000    2.364    0.000    0.545    6.364    1.818 
#    0.000    5.455    0.000    0.000    0.000    0.000 
#    0.000    0.000    0.000    0.000    0.000    0.000 
#
# Total GULP energy -122495.777454 kJ/mol
# GULP energy per Si atom -5567.989884 kJ/mol
# Density = 2.554481 g / cm^3
# Si number density = 25.603081 Si / 1000 Ang^3
#
#
#
# Elastic Constant Matrix: (Units=GPa)
#
#
# Indices 1 2 3 4 5 6 
#
# 1 88.5753 30.4335 37.9161 0.0000 6.1650 0.0000
# 2 30.4335 284.9879 58.0079 0.0000 22.8788 0.0000
# 3 37.9161 58.0079 91.4047 0.0001 17.2809 0.0000
# 4 0.0000 0.0000 0.0001 70.6755 0.0000 -22.6590
# 5 6.1650 22.8788 17.2809 0.0000 45.3303 0.0000
# 6 0.0000 0.0000 0.0000 -22.6590 0.0000 46.2269
#
#
#
# Elastic Compliance Matrix: (Units=1/GPa)
#
#
# Indices 1 2 3 4 5 6 
#
# 1 0.013766 -0.000374 -0.005555 0.000000 0.000434 0.000000
# 2 -0.000374 0.004095 -0.002223 0.000000 -0.001169 0.000000
# 3 -0.005555 -0.002223 0.015411 0.000000 -0.003998 0.000000
# 4 0.000000 0.000000 0.000000 0.016787 0.000000 0.008229
# 5 0.000434 -0.001169 -0.003998 0.000000 0.024115 0.000000
# 6 0.000000 0.000000 0.000000 0.008229 0.000000 0.025666
#
#
# Mechanical properties :
#
#
# Convention : Reuss Voigt Hill
#
# Bulk Modulus (GPa) = 58.93317 79.74257 69.33787
# Shear Modulus (GPa) = 41.05071 55.02055 48.03563
#
# Velocity S-wave (km/s) = 4.00853 4.64074 4.33617
# Velocity P-wave (km/s) = 6.67026 7.74136 7.22568
#
# Compressibility (1/GPa) = 0.01696837
#
# Stress axis : x y z
#
# Youngs Moduli (GPa) = 72.64221 244.19300 64.88849
#
# Poissons Ratio (x) = 0.09139 0.36046
# Poissons Ratio (y) = 0.02719 0.14423
# Poissons Ratio (z) = 0.40353 0.54277
#
# Static dielectric constant tensor:
#      x y z
#    x 2.078320 0.000000 -0.096270 
#    y 0.000000 2.087800 0.000000 
#    z -0.096270 0.000000 2.182230 
# 
# From -- ./inp_files/262067.got.cif
#   From: 2010.05.17/outbox.cif.g08.bks.cpg/sg12_132_cif.got.tgz:262067.got - 2010.06.03 13:09:07.
