data_PCOD9202123
_publ_section_title
;
Structure prediction by ZEFSAII (Michael W. Deem and Ramdas Pophale) SiO2 
 PCOD9202123
Probable space group: C 2/M
;
_chemical_formula_sum "Si O2"
_cell_formula_units_Z 64
_cell_length_a 9.860318
_cell_length_b 26.494259
_cell_length_c 14.787579
_cell_angle_alpha 90.000000
_cell_angle_beta 106.385469
_cell_angle_gamma 90.000000
_cell_volume 3706.234969
_symmetry_space_group_name_H-M "C 2/M"
_symmetry_group_IT_number 12
_symmetry_cell_setting 'monoclinic'
loop_
_space_group_symop_operation_xyz
x,y,z
-x,y,-z
-x,-y,-z
x,-y,z
1/2+x,1/2+y,z
1/2-x,1/2+y,-z
1/2-x,1/2-y,-z
1/2+x,1/2-y,z
loop_
_atom_site_type_symbol
_atom_site_label
_atom_site_fract_x
_atom_site_fract_y
_atom_site_fract_z
Si Si1 0.091198 0.942161 0.932476
Si Si2 0.125308 0.651670 0.826000
Si Si3 0.201787 0.817338 0.310041
Si Si4 0.654692 0.200076 0.487338
Si Si5 0.091146 0.557644 0.932214
Si Si6 0.393417 0.354995 0.201864
Si Si7 0.160895 0.696665 0.279957
Si Si8 0.158614 0.799440 0.995140
O O1 0.089553 0.910761 0.838950
O O2 0.042862 0.000000 0.908508
O O3 0.249358 0.943406 0.001038
O O4 0.000000 0.920286 0.000000
O O5 0.197992 0.655735 0.742965
O O6 0.077338 0.596223 0.847514
O O7 0.248126 0.667684 0.918561
O O8 0.989163 0.688381 0.798171
O O9 0.260888 0.830296 0.420341
O O10 0.204141 0.756333 0.289458
O O11 0.042636 0.835727 0.267294
O O12 0.500000 0.210563 0.500000
O O13 0.750000 0.250000 0.500000
O O14 0.642980 0.181490 0.382240
O O15 0.048268 0.500000 0.902840
O O16 0.000000 0.576477 0.000000
O O17 0.275036 0.339196 0.252524
O O18 0.353551 0.324681 0.104210
O O19 0.250000 0.750000 0.000000
O O20 0.000000 0.790239 0.000000
#
# Coordination Sequence:
#
# PCOD9202123 Si02
#       8
#     8   8   8   8   8   8   8   8
#     4  10  20  38  59  79 109 149 194 244 281 322
#     4  12  22  36  55  79 112 154 186 230 281 332
#     4  11  22  38  57  79 116 148 188 233 276 340
#     4  10  22  39  59  82 109 148 193 240 281 323
#     4  10  21  37  56  79 109 149 196 241 280 324
#     4  12  23  36  54  84 114 149 190 228 281 337
#     4  11  24  37  56  83 114 151 190 231 280 338
#     4  12  25  36  50  76 118 158 188 215 266 340
#
# _framework density 17.268197000000001
#
# number of rings (size 3 to 8) (size 9 to 14) (size 15 to 20)
#    0.000    1.000    3.750    4.125    7.000    0.000 
#    0.000    0.000    0.000    0.000    0.000    5.250 
#    0.000    0.000    0.000    0.000    0.000    0.000 
#
# Total GULP energy -178536.677829 kJ/mol
# GULP energy per Si atom -5579.271182 kJ/mol
# Density = 1.722889 g / cm^3
# Si number density = 17.268197 Si / 1000 Ang^3
#
#
#
# Elastic Constant Matrix: (Units=GPa)
#
#
# Indices 1 2 3 4 5 6 
#
# 1 112.9045 24.0254 49.4676 0.0000 -19.5638 0.0000
# 2 24.0254 67.3137 35.3371 0.0000 -7.7900 0.0000
# 3 49.4676 35.3371 110.5242 0.0000 -10.3117 0.0000
# 4 0.0000 0.0000 0.0000 6.7037 0.0000 -9.9061
# 5 -19.5638 -7.7900 -10.3117 0.0000 36.2638 0.0000
# 6 0.0000 0.0000 0.0000 -9.9061 0.0000 33.0583
#
#
#
# Elastic Compliance Matrix: (Units=1/GPa)
#
#
# Indices 1 2 3 4 5 6 
#
# 1 0.011945 -0.001359 -0.004456 0.000000 0.004885 0.000000
# 2 -0.001359 0.018191 -0.005046 0.000000 0.001740 0.000000
# 3 -0.004456 -0.005046 0.012666 0.000000 0.000114 0.000000
# 4 0.000000 0.000000 0.000000 0.267712 0.000000 0.080221
# 5 0.004885 0.001740 0.000114 0.000000 0.030617 0.000000
# 6 0.000000 0.000000 0.000000 0.080221 0.000000 0.054288
#
#
# Mechanical properties :
#
#
# Convention : Reuss Voigt Hill
#
# Bulk Modulus (GPa) = 47.43581 56.48919 51.96250
# Shear Modulus (GPa) = 11.78779 27.33267 19.56023
#
# Velocity S-wave (km/s) = 2.61555 3.98280 3.36926
# Velocity P-wave (km/s) = 6.05402 7.34399 6.72998
#
# Compressibility (1/GPa) = 0.02108112
#
# Stress axis : x y z
#
# Youngs Moduli (GPa) = 83.71676 54.97265 78.95150
#
# Poissons Ratio (x) = 0.07470 0.35181
# Poissons Ratio (y) = 0.11375 0.39835
# Poissons Ratio (z) = 0.37305 0.27737
#
# Static dielectric constant tensor:
#      x y z
#    x 1.695000 0.000000 -0.044000 
#    y 0.000000 1.557960 0.000000 
#    z -0.044000 0.000000 1.572990 
# 
# From -- ./inp_files/199849.got.cif
#   From: 2010.05.17/outbox.cif.g08.bks.cpg/sg12_100_cif.got.tgz:199849.got - 2010.06.03 13:09:07.
