data_PCOD9202650
_publ_section_title
;
Structure prediction by ZEFSAII (Michael W. Deem and Ramdas Pophale) SiO2 
 PCOD9202650
Probable space group: C 2/M
;
_chemical_formula_sum "Si O2"
_cell_formula_units_Z 44
_cell_length_a 10.762397
_cell_length_b 23.962860
_cell_length_c 9.939045
_cell_angle_alpha 90.000000
_cell_angle_beta 125.284014
_cell_angle_gamma 90.000000
_cell_volume 2092.384363
_symmetry_space_group_name_H-M "C 2/M"
_symmetry_group_IT_number 12
_symmetry_cell_setting 'monoclinic'
loop_
_space_group_symop_operation_xyz
x,y,z
-x,y,-z
-x,-y,-z
x,-y,z
1/2+x,1/2+y,z
1/2-x,1/2+y,-z
1/2-x,1/2-y,-z
1/2+x,1/2-y,z
loop_
_atom_site_type_symbol
_atom_site_label
_atom_site_fract_x
_atom_site_fract_y
_atom_site_fract_z
Si Si1 0.598550 0.000000 0.348078
Si Si2 0.381003 0.820656 0.109925
Si Si3 0.000000 0.822602 0.500000
Si Si4 0.277364 0.000000 0.268191
Si Si5 0.814707 0.619932 0.637889
Si Si6 0.226459 0.872930 0.273025
Si Si7 0.433518 0.695851 0.171989
O O1 0.659983 0.055193 0.319022
O O2 0.416788 0.000000 0.250340
O O3 0.658141 0.000000 0.539197
O O4 0.544684 0.849098 0.204587
O O5 0.321716 0.838209 0.222599
O O6 0.409834 0.755935 0.091578
O O7 0.229008 0.835368 0.930760
O O8 0.150917 0.859256 0.581340
O O9 0.015432 0.788608 0.645554
O O10 0.203801 0.937915 0.213508
O O11 0.810968 0.627360 0.471628
O O12 0.065211 0.842143 0.192627
#
# Coordination Sequence:
#
# PCOD9202650 Si02
#       7
#     4   8   4   4   8   8   8
#     4   9  16  33  57  94 115 150 193 239 304 349
#     4  11  22  38  60  87 120 157 192 254 294 349
#     4  10  24  41  56  84 114 163 200 236 284 364
#     4   9  16  32  62  92 121 145 195 251 299 349
#     4  10  21  36  63  88 120 155 195 242 294 356
#     4  10  20  38  62  94 120 153 198 249 301 355
#     4  10  25  39  57  86 123 158 200 240 298 348
#
# _framework density 21.028639999999999
#
# number of rings (size 3 to 8) (size 9 to 14) (size 15 to 20)
#    0.000    2.000    1.818    1.091    5.091    2.545 
#    0.000    3.636    0.000    1.091    0.000    0.000 
#    0.000    0.000    0.000    0.000    0.000    0.000 
#
# Total GULP energy -122659.592750 kJ/mol
# GULP energy per Si atom -5575.436034 kJ/mol
# Density = 2.098078 g / cm^3
# Si number density = 21.028640 Si / 1000 Ang^3
#
#
#
# Elastic Constant Matrix: (Units=GPa)
#
#
# Indices 1 2 3 4 5 6 
#
# 1 70.5361 14.6071 20.4595 0.0000 26.6401 0.0000
# 2 14.6071 87.1518 22.7618 0.0000 23.6323 0.0000
# 3 20.4595 22.7618 80.6252 0.0000 30.4843 0.0000
# 4 0.0000 0.0000 0.0000 -21.2450 0.0000 3.1272
# 5 26.6401 23.6323 30.4843 0.0000 42.9737 0.0000
# 6 0.0000 0.0000 0.0000 3.1272 0.0000 12.6358
#
#
#
# Elastic Compliance Matrix: (Units=1/GPa)
#
#
# Indices 1 2 3 4 5 6 
#
# 1 0.018526 0.000051 -0.000496 0.000000 -0.011161 0.000000
# 2 0.000051 0.013597 -0.001384 0.000000 -0.006527 0.000000
# 3 -0.000496 -0.001384 0.017103 0.000000 -0.011064 0.000000
# 4 0.000000 0.000000 0.000000 -0.045415 0.000000 0.011240
# 5 -0.011161 -0.006527 -0.011064 0.000000 0.041627 0.000000
# 6 0.000000 0.000000 0.000000 0.011240 0.000000 0.076358
#
#
# Mechanical properties :
#
#
# Convention : Reuss Voigt Hill
#
# Bulk Modulus (GPa) = 21.94486 39.32999 30.63743
# Shear Modulus (GPa) = 35.55141 18.90523 27.22832
#
# Velocity S-wave (km/s) = 4.11617 3.00162 3.60227
# Velocity P-wave (km/s) = 5.74881 5.54587 5.64825
#
# Compressibility (1/GPa) = 0.04556877
#
# Stress axis : x y z
#
# Youngs Moduli (GPa) = 53.97956 73.54539 58.47012
#
# Poissons Ratio (x) = -0.00374 0.02897
# Poissons Ratio (y) = -0.00274 0.08090
# Poissons Ratio (z) = 0.02675 0.10175
#
# Static dielectric constant tensor:
#      x y z
#    x 1.781980 0.000000 -0.017480 
#    y 0.000000 1.731620 0.000000 
#    z -0.017480 0.000000 1.783090 
# 
# From -- ./inp_files/51246.got.cif
#   From: 2010.05.17/outbox.cif.g08.bks.cpg/sg12_26_cif.got.tgz:51246.got - 2010.06.03 13:09:07.
