data_PCOD9202302
_publ_section_title
;
Structure prediction by ZEFSAII (Michael W. Deem and Ramdas Pophale) SiO2 
 PCOD9202302
Probable space group: C 2/M
;
_chemical_formula_sum "Si O2"
_cell_formula_units_Z 58
_cell_length_a 14.927368
_cell_length_b 7.405235
_cell_length_c 20.483863
_cell_angle_alpha 90.000000
_cell_angle_beta 87.019483
_cell_angle_gamma 90.000000
_cell_volume 2261.236920
_symmetry_space_group_name_H-M "C 2/M"
_symmetry_group_IT_number 12
_symmetry_cell_setting 'monoclinic'
loop_
_space_group_symop_operation_xyz
x,y,z
-x,y,-z
-x,-y,-z
x,-y,z
1/2+x,1/2+y,z
1/2-x,1/2+y,-z
1/2-x,1/2-y,-z
1/2+x,1/2-y,z
loop_
_atom_site_type_symbol
_atom_site_label
_atom_site_fract_x
_atom_site_fract_y
_atom_site_fract_z
Si Si1 0.645221 0.799982 0.508882
Si Si2 0.500000 0.500000 0.500000
Si Si3 0.938485 0.778292 0.351500
Si Si4 0.378047 0.281030 0.706687
Si Si5 0.572872 0.720858 0.945024
Si Si6 0.244070 0.718559 0.107074
Si Si7 0.443414 0.291808 0.844014
Si Si8 0.190232 0.207315 0.753737
O O1 0.750000 0.750000 0.500000
O O2 0.576575 0.655688 0.482552
O O3 0.616465 0.796204 0.586229
O O4 0.632222 0.000000 0.482383
O O5 0.892127 0.722581 0.285249
O O6 0.042445 0.727071 0.344054
O O7 0.935387 0.000000 0.358422
O O8 0.373536 0.500000 0.707276
O O9 0.410341 0.213633 0.777162
O O10 0.277132 0.214914 0.703288
O O11 0.572461 0.500000 0.946194
O O12 0.676430 0.776917 0.944325
O O13 0.529723 0.780400 0.877638
O O14 0.500000 0.782724 0.000000
O O15 0.239249 0.500000 0.107007
O O16 0.142683 0.785370 0.104439
O O17 0.277474 0.782789 0.178023
O O18 0.463379 0.500000 0.829125
O O19 0.167861 0.000000 0.768937
#
# Coordination Sequence:
#
# PCOD9202302 Si02
#       8
#     8   2   8   8   8   8   8   8
#     4  12  26  49  77 107 143 188 241 291 346 414
#     4  12  26  52  80 104 144 192 238 292 350 404
#     4  10  20  38  60  89 127 160 205 260 318 382
#     4   9  18  32  53  80 115 150 191 240 303 376
#     4   9  17  29  47  70  97 135 188 238 285 351
#     4   9  17  31  50  74 102 141 189 229 294 364
#     4   9  17  31  50  73 102 143 187 234 294 361
#     4   9  18  32  54  80 113 152 187 240 303 369
#
# _framework density 25.649678999999999
#
# number of rings (size 3 to 8) (size 9 to 14) (size 15 to 20)
#    0.000    2.345    1.379    1.034    0.000    6.069 
#    0.000    2.069    0.000    7.448    0.000    0.000 
#    0.000    0.000    0.000    0.000    0.000    0.000 
#
# Total GULP energy -161902.665911 kJ/mol
# GULP energy per Si atom -5582.850549 kJ/mol
# Density = 2.559130 g / cm^3
# Si number density = 25.649679 Si / 1000 Ang^3
#
#
#
# Elastic Constant Matrix: (Units=GPa)
#
#
# Indices 1 2 3 4 5 6 
#
# 1 184.9532 24.9129 22.9103 0.0000 -40.3150 0.0000
# 2 24.9129 136.3833 -3.1974 0.0000 -1.9889 0.0000
# 3 22.9103 -3.1974 55.3731 0.0000 -16.7330 0.0000
# 4 0.0000 0.0000 0.0000 7.4299 0.0000 -4.4735
# 5 -40.3150 -1.9889 -16.7330 0.0000 45.7673 0.0000
# 6 0.0000 0.0000 0.0000 -4.4735 0.0000 34.7103
#
#
#
# Elastic Compliance Matrix: (Units=1/GPa)
#
#
# Indices 1 2 3 4 5 6 
#
# 1 0.006949 -0.001217 -0.001250 0.000000 0.005611 0.000000
# 2 -0.001217 0.007567 0.000805 0.000000 -0.000449 0.000000
# 3 -0.001250 0.000805 0.020574 0.000000 0.006456 0.000000
# 4 0.000000 0.000000 0.000000 0.145913 0.000000 0.018805
# 5 0.005611 -0.000449 0.006456 0.000000 0.029133 0.000000
# 6 0.000000 0.000000 0.000000 0.018805 0.000000 0.031234
#
#
# Mechanical properties :
#
#
# Convention : Reuss Voigt Hill
#
# Bulk Modulus (GPa) = 31.48028 51.77347 41.62687
# Shear Modulus (GPa) = 19.58625 39.72043 29.65334
#
# Velocity S-wave (km/s) = 2.76634 3.93946 3.40382
# Velocity P-wave (km/s) = 4.74377 6.39696 5.63136
#
# Compressibility (1/GPa) = 0.03176592
#
# Stress axis : x y z
#
# Youngs Moduli (GPa) = 143.91592 132.15527 48.60563
#
# Poissons Ratio (x) = 0.16080 0.06074
# Poissons Ratio (y) = 0.17511 -0.03912
# Poissons Ratio (z) = 0.17984 -0.10635
#
# Static dielectric constant tensor:
#      x y z
#    x 1.962730 0.000000 0.010910 
#    y 0.000000 1.992610 0.000000 
#    z 0.010910 0.000000 2.103080 
# 
# From -- ./inp_files/337988.got.cif
#   From: 2010.05.17/outbox.cif.g08.bks.cpg/sg12_169_cif.got.tgz:337988.got - 2010.06.03 13:09:07.
