data_PCOD9202105
_publ_section_title
;
Structure prediction by ZEFSAII (Michael W. Deem and Ramdas Pophale) SiO2 
 PCOD9202105
Probable space group: C 2/M
;
_chemical_formula_sum "Si O2"
_cell_formula_units_Z 56
_cell_length_a 5.204663
_cell_length_b 28.088553
_cell_length_c 18.678315
_cell_angle_alpha 90.000000
_cell_angle_beta 70.978546
_cell_angle_gamma 90.000000
_cell_volume 2581.509418
_symmetry_space_group_name_H-M "C 2/M"
_symmetry_group_IT_number 12
_symmetry_cell_setting 'monoclinic'
loop_
_space_group_symop_operation_xyz
x,y,z
-x,y,-z
-x,-y,-z
x,-y,z
1/2+x,1/2+y,z
1/2-x,1/2+y,-z
1/2-x,1/2-y,-z
1/2+x,1/2-y,z
loop_
_atom_site_type_symbol
_atom_site_label
_atom_site_fract_x
_atom_site_fract_y
_atom_site_fract_z
Si Si1 0.477707 0.083061 0.083481
Si Si2 0.758182 0.900103 0.341822
Si Si3 0.371316 0.555774 0.176894
Si Si4 0.718404 0.688926 0.736130
Si Si5 0.182900 0.944273 0.412265
Si Si6 0.853031 0.293034 0.206898
Si Si7 0.684326 0.808627 0.047863
O O1 0.661635 0.060647 0.129570
O O2 0.584806 0.137358 0.069978
O O3 0.161479 0.078244 0.130316
O O4 0.500000 0.063343 0.000000
O O5 0.775937 0.919399 0.258742
O O6 0.782936 0.842602 0.334471
O O7 0.467847 0.917452 0.396916
O O8 0.004148 0.921752 0.365001
O O9 0.411276 0.500000 0.187743
O O10 0.419087 0.682637 0.797431
O O11 0.746274 0.746332 0.740364
O O12 0.981439 0.672472 0.756111
O O13 0.000000 0.941599 0.500000
O O14 0.238820 0.000000 0.391881
O O15 0.080172 0.280898 0.127317
O O16 0.500000 0.790046 0.000000
O O17 0.000000 0.809655 0.000000
#
# Coordination Sequence:
#
# PCOD9202105 Si02
#       7
#     8   8   8   8   8   8   8
#     4  11  23  39  56  79 116 161 209 265 321 368
#     4  12  23  41  67  97 130 166 208 255 308 373
#     4  12  24  37  58  85 114 155 208 263 311 363
#     4  10  21  37  60  87 120 158 196 248 297 356
#     4  11  24  43  68 100 137 169 198 244 308 377
#     4  10  20  38  58  87 122 156 205 259 319 374
#     4  11  21  36  57  80 109 149 197 253 318 383
#
# _framework density 21.692736
#
# number of rings (size 3 to 8) (size 9 to 14) (size 15 to 20)
#    0.000    1.000    0.000    8.571    0.000    2.857 
#    0.000    8.571    0.000    2.571    0.000   40.000 
#    0.000    0.000    0.000    0.000    0.000    0.000 
#
# Total GULP energy -156355.920304 kJ/mol
# GULP energy per Si atom -5584.140011 kJ/mol
# Density = 2.164336 g / cm^3
# Si number density = 21.692736 Si / 1000 Ang^3
#
#
#
# Elastic Constant Matrix: (Units=GPa)
#
#
# Indices 1 2 3 4 5 6 
#
# 1 124.1218 -3.4975 4.5897 0.0000 -11.0790 0.0000
# 2 -3.4975 99.9943 18.9885 0.0000 3.7966 0.0000
# 3 4.5897 18.9885 45.4263 0.0000 -7.4506 0.0000
# 4 0.0000 0.0000 0.0000 -51.6363 0.0000 378.0703
# 5 -11.0790 3.7966 -7.4506 0.0000 41.2533 0.0000
# 6 0.0000 0.0000 0.0000 378.0703 0.0000-1872.0226
#
#
#
# Elastic Compliance Matrix: (Units=1/GPa)
#
#
# Indices 1 2 3 4 5 6 
#
# 1 0.008275 0.000331 -0.000634 0.000000 0.002077 0.000000
# 2 0.000331 0.011019 -0.004937 0.000000 -0.001817 0.000000
# 3 -0.000634 -0.004937 0.024927 0.000000 0.004786 0.000000
# 4 0.000000 0.000000 0.000000 0.040456 0.000000 0.008170
# 5 0.002077 -0.001817 0.004786 0.000000 0.025830 0.000000
# 6 0.000000 0.000000 0.000000 0.008170 0.000000 0.001116
#
#
# Mechanical properties :
#
#
# Convention : Reuss Voigt Hill
#
# Bulk Modulus (GPa) = 29.63854 34.41153 32.02504
# Shear Modulus (GPa) = 37.49559 -359.85037 -161.17739
#
# Velocity S-wave (km/s) = 4.16202 -12.89362 -8.62911
# Velocity P-wave (km/s) = 6.06540 14.34444 9.19167
#
# Compressibility (1/GPa) = 0.03373985
#
# Stress axis : x y z
#
# Youngs Moduli (GPa) = 120.84907 90.75477 40.11789
#
# Poissons Ratio (x) = -0.03003 0.02542
# Poissons Ratio (y) = -0.03999 0.19807
# Poissons Ratio (z) = 0.07657 0.44809
#
# Static dielectric constant tensor:
#      x y z
#    x 1.843510 0.000000 0.026330 
#    y 0.000000 1.864170 0.000000 
#    z 0.026330 0.000000 1.815330 
# 
# From -- ./inp_files/253967.got.cif
#   From: 2010.05.17/outbox.cif.g08.bks.cpg/sg12_127_cif.got.tgz:253967.got - 2010.06.03 13:09:07.
