data_PCOD9202043
_publ_section_title
;
Structure prediction by ZEFSAII (Michael W. Deem and Ramdas Pophale) SiO2 
 PCOD9202043
Probable space group: C 2/M
;
_chemical_formula_sum "Si O2"
_cell_formula_units_Z 64
_cell_length_a 17.072287
_cell_length_b 32.094739
_cell_length_c 12.039031
_cell_angle_alpha 90.000000
_cell_angle_beta 151.252744
_cell_angle_gamma 90.000000
_cell_volume 3172.591130
_symmetry_space_group_name_H-M "C 2/M"
_symmetry_group_IT_number 12
_symmetry_cell_setting 'monoclinic'
loop_
_space_group_symop_operation_xyz
x,y,z
-x,y,-z
-x,-y,-z
x,-y,z
1/2+x,1/2+y,z
1/2-x,1/2+y,-z
1/2-x,1/2-y,-z
1/2+x,1/2-y,z
loop_
_atom_site_type_symbol
_atom_site_label
_atom_site_fract_x
_atom_site_fract_y
_atom_site_fract_z
Si Si1 0.122869 0.328479 0.911293
Si Si2 0.679484 0.878654 0.370484
Si Si3 0.176466 0.855157 0.224449
Si Si4 0.682273 0.450457 0.859468
Si Si5 0.803251 0.303593 0.767715
Si Si6 0.170456 0.391690 0.780272
Si Si7 0.410026 0.775957 0.505065
Si Si8 0.797478 0.049893 0.371653
O O1 0.183622 0.350998 0.875817
O O2 0.995985 0.361843 0.806856
O O3 0.033499 0.286644 0.758141
O O4 0.235987 0.315623 0.153542
O O5 0.786788 0.877677 0.614431
O O6 0.740535 0.842566 0.363714
O O7 0.688701 0.921964 0.317131
O O8 0.196050 0.887546 0.149153
O O9 0.306984 0.818641 0.369873
O O10 0.000000 0.835669 0.000000
O O11 0.697661 0.500000 0.886067
O O12 0.728753 0.438854 0.790612
O O13 0.489277 0.440877 0.633875
O O14 0.791629 0.428713 0.088097
O O15 0.706079 0.262600 0.614183
O O16 0.000000 0.297435 0.000000
O O17 0.000000 0.393843 0.500000
O O18 0.500000 0.769530 0.500000
O O19 0.772588 0.000000 0.353334
#
# Coordination Sequence:
#
# PCOD9202043 Si02
#       8
#     8   8   8   8   8   8   8   8
#     4  10  21  40  61  81 119 158 198 246 301 354
#     4  10  20  38  57  90 118 151 200 244 297 361
#     4  11  22  37  62  85 116 161 203 240 301 360
#     4   9  20  36  61  90 121 161 203 248 304 361
#     4  10  23  38  60  86 116 157 196 254 298 351
#     4  12  20  40  62  86 122 166 197 248 302 365
#     4  11  21  41  56  85 120 151 201 247 303 354
#     4   9  18  39  64  92 125 156 199 257 304 352
#
# _framework density 20.172785000000001
#
# number of rings (size 3 to 8) (size 9 to 14) (size 15 to 20)
#    0.000    1.750    3.750    2.625    0.000    6.250 
#    6.750    1.250    0.000    7.125    0.000    0.000 
#    0.000    0.000    0.000    0.000    0.000    0.000 
#
# Total GULP energy -178643.019821 kJ/mol
# GULP energy per Si atom -5582.594369 kJ/mol
# Density = 2.012687 g / cm^3
# Si number density = 20.172785 Si / 1000 Ang^3
#
#
#
# Elastic Constant Matrix: (Units=GPa)
#
#
# Indices 1 2 3 4 5 6 
#
# 1 83.3671 36.6947 37.8533 0.0000 -31.9052 0.0000
# 2 36.6947 73.1691 26.2841 0.0000 -17.4231 0.0000
# 3 37.8533 26.2841 53.7055 0.0000 -26.1967 0.0000
# 4 0.0000 0.0000 0.0000 25.0901 0.0000 -13.2557
# 5 -31.9052 -17.4231 -26.1967 0.0000 31.7372 0.0000
# 6 0.0000 0.0000 0.0000 -13.2557 0.0000 13.1105
#
#
#
# Elastic Compliance Matrix: (Units=1/GPa)
#
#
# Indices 1 2 3 4 5 6 
#
# 1 0.023039 -0.005802 -0.006119 0.000000 0.014925 0.000000
# 2 -0.005802 0.018357 -0.004727 0.000000 0.000342 0.000000
# 3 -0.006119 -0.004727 0.035121 0.000000 0.020243 0.000000
# 4 0.000000 0.000000 0.000000 0.085560 0.000000 0.086507
# 5 0.014925 0.000342 0.020243 0.000000 0.063410 0.000000
# 6 0.000000 0.000000 0.000000 0.086507 0.000000 0.163740
#
#
# Mechanical properties :
#
#
# Convention : Reuss Voigt Hill
#
# Bulk Modulus (GPa) = 23.13754 45.76733 34.45244
# Shear Modulus (GPa) = 11.44348 21.28154 16.36251
#
# Velocity S-wave (km/s) = 2.38433 3.25154 2.85110
# Velocity P-wave (km/s) = 4.36745 6.06907 5.28717
#
# Compressibility (1/GPa) = 0.04321980
#
# Stress axis : x y z
#
# Youngs Moduli (GPa) = 43.40396 54.47656 28.47324
#
# Poissons Ratio (x) = 0.31609 0.17422
# Poissons Ratio (y) = 0.25184 0.13460
# Poissons Ratio (z) = 0.26558 0.25752
#
# Static dielectric constant tensor:
#      x y z
#    x 1.749280 0.000000 0.025680 
#    y 0.000000 1.686850 0.000000 
#    z 0.025680 0.000000 1.748460 
# 
# From -- ./inp_files/161233.got.cif
#   From: 2010.05.17/outbox.cif.g08.bks.cpg/sg12_81_cif.got.tgz:161233.got - 2010.06.03 13:09:07.
