data_PCOD9202417
_publ_section_title
;
Structure prediction by ZEFSAII (Michael W. Deem and Ramdas Pophale) SiO2 
 PCOD9202417
Probable space group: C 2/M
;
_chemical_formula_sum "Si O2"
_cell_formula_units_Z 40
_cell_length_a 15.771854
_cell_length_b 25.327750
_cell_length_c 15.373463
_cell_angle_alpha 90.000000
_cell_angle_beta 161.094013
_cell_angle_gamma 90.000000
_cell_volume 1989.838785
_symmetry_space_group_name_H-M "C 2/M"
_symmetry_group_IT_number 12
_symmetry_cell_setting 'monoclinic'
loop_
_space_group_symop_operation_xyz
x,y,z
-x,y,-z
-x,-y,-z
x,-y,z
1/2+x,1/2+y,z
1/2-x,1/2+y,-z
1/2-x,1/2-y,-z
1/2+x,1/2-y,z
loop_
_atom_site_type_symbol
_atom_site_label
_atom_site_fract_x
_atom_site_fract_y
_atom_site_fract_z
Si Si1 0.605313 0.937251 0.361028
Si Si2 0.515051 0.273393 0.715864
Si Si3 0.736648 0.064125 0.288673
Si Si4 0.771100 0.299032 0.216709
Si Si5 0.576734 0.376024 0.873865
O O1 0.699928 0.925020 0.354480
O O2 0.803937 0.906945 0.617895
O O3 0.616816 0.000000 0.385278
O O4 0.311072 0.916256 0.082872
O O5 0.577934 0.249891 0.682733
O O6 0.530784 0.335283 0.749569
O O7 0.250000 0.250000 0.500000
O O8 0.750000 0.250000 0.000000
O O9 0.000000 0.083880 0.500000
O O10 0.738556 0.000000 0.284616
O O11 0.500000 0.083849 0.000000
O O12 0.000000 0.322602 0.500000
O O13 0.500000 0.282467 0.000000
O O14 0.670439 0.340815 0.046572
#
# Coordination Sequence:
#
# PCOD9202417 Si02
#       5
#     8   8   8   8   8
#     4  11  22  37  59  86 120 167 213 247 286 349
#     4  10  20  38  61  87 117 149 188 241 306 369
#     4   9  17  31  50  73 104 144 192 243 290 333
#     4  11  22  39  64  91 120 154 198 252 313 376
#     4  11  22  39  62  87 120 160 201 246 300 360
#
# _framework density 20.102132000000001
#
# number of rings (size 3 to 8) (size 9 to 14) (size 15 to 20)
#    0.000    1.600    0.000    7.800    0.000    3.200 
#    0.000    6.000    0.000   12.000    0.000    0.000 
#    0.000    0.000    0.000    0.000    0.000    0.000 
#
# Total GULP energy -111596.647414 kJ/mol
# GULP energy per Si atom -5579.832371 kJ/mol
# Density = 2.005638 g / cm^3
# Si number density = 20.102132 Si / 1000 Ang^3
#
#
#
# Elastic Constant Matrix: (Units=GPa)
#
#
# Indices 1 2 3 4 5 6 
#
# 1 75.2128 15.9652 27.7971 0.0000 7.6697 -0.0007
# 2 15.9652 94.4930 33.3347 -0.0007 -6.8666 -0.0007
# 3 27.7971 33.3347 146.6764 -0.0027 11.5752 -0.0038
# 4 0.0000 -0.0007 -0.0027 21.5388 0.0002 11.9707
# 5 7.6697 -6.8666 11.5752 0.0002 38.6319 0.0001
# 6 -0.0007 -0.0007 -0.0038 11.9707 0.0001 10.4720
#
#
#
# Elastic Compliance Matrix: (Units=1/GPa)
#
#
# Indices 1 2 3 4 5 6 
#
# 1 0.014769 -0.001927 -0.002153 -0.000001 -0.002629 0.000001
# 2 -0.001927 0.012082 -0.002643 0.000001 0.003322 -0.000001
# 3 -0.002153 -0.002643 0.008019 -0.000001 -0.002445 0.000004
# 4 -0.000001 0.000001 -0.000001 0.127310 0.000000 -0.145531
# 5 -0.002629 0.003322 -0.002445 0.000000 0.027730 -0.000002
# 6 0.000001 -0.000001 0.000004 -0.145531 -0.000002 0.261852
#
#
# Mechanical properties :
#
#
# Convention : Reuss Voigt Hill
#
# Bulk Modulus (GPa) = 46.67645 52.28625 49.48135
# Shear Modulus (GPa) = 10.58539 30.08091 20.33315
#
# Velocity S-wave (km/s) = 2.29722 3.87253 3.18385
# Velocity P-wave (km/s) = 5.50512 6.78691 6.17934
#
# Compressibility (1/GPa) = 0.02142408
#
# Stress axis : x y z
#
# Youngs Moduli (GPa) = 67.71140 82.76745 124.69702
#
# Poissons Ratio (x) = 0.15946 0.26853
# Poissons Ratio (y) = 0.13045 0.32956
# Poissons Ratio (z) = 0.14582 0.21874
#
# Static dielectric constant tensor:
#      x y z
#    x 1.745700 0.000000 -0.025040 
#    y 0.000000 1.716210 0.000000 
#    z -0.025040 0.000000 1.685060 
# 
# From -- ./inp_files/219028.got.cif
#   From: 2010.05.17/outbox.cif.g08.bks.cpg/sg12_110_cif.got.tgz:219028.got - 2010.06.03 13:09:07.
