data_PCOD9202125
_publ_section_title
;
Structure prediction by ZEFSAII (Michael W. Deem and Ramdas Pophale) SiO2 
 PCOD9202125
Probable space group: C 2/M
;
_chemical_formula_sum "Si O2"
_cell_formula_units_Z 40
_cell_length_a 19.920342
_cell_length_b 7.573252
_cell_length_c 25.521613
_cell_angle_alpha 90.000000
_cell_angle_beta 28.325149
_cell_angle_gamma 90.000000
_cell_volume 1826.839177
_symmetry_space_group_name_H-M "C 2/M"
_symmetry_group_IT_number 12
_symmetry_cell_setting 'monoclinic'
loop_
_space_group_symop_operation_xyz
x,y,z
-x,y,-z
-x,-y,-z
x,-y,z
1/2+x,1/2+y,z
1/2-x,1/2+y,-z
1/2-x,1/2-y,-z
1/2+x,1/2-y,z
loop_
_atom_site_type_symbol
_atom_site_label
_atom_site_fract_x
_atom_site_fract_y
_atom_site_fract_z
Si Si1 0.877953 0.205472 0.048098
Si Si2 0.567591 0.787645 0.288702
Si Si3 0.128471 0.716190 0.669183
Si Si4 0.591394 0.209899 0.090581
Si Si5 0.440400 0.289113 0.485615
O O1 0.719865 0.279655 0.164032
O O2 0.864901 0.000000 0.072721
O O3 0.925118 0.213443 0.955719
O O4 0.000000 0.287148 0.000000
O O5 0.440252 0.723871 0.338552
O O6 0.542521 0.743262 0.366316
O O7 0.566952 0.000000 0.283938
O O8 0.131726 0.500000 0.665987
O O9 0.285784 0.779036 0.574611
O O10 0.020896 0.770828 0.789130
O O11 0.575596 0.000000 0.097255
O O12 0.750000 0.250000 0.000000
O O13 0.500000 0.219893 0.500000
O O14 0.425297 0.500000 0.502296
#
# Coordination Sequence:
#
# PCOD9202125 Si02
#       5
#     8   8   8   8   8
#     4  10  22  39  58  84 120 155 188 235 288 337
#     4  10  20  38  59  79 111 149 187 230 279 334
#     4   9  19  37  58  80 112 149 182 230 283 328
#     4  11  21  37  61  87 118 151 190 234 284 343
#     4  10  22  38  57  82 112 144 184 234 284 332
#
# _framework density 21.895741000000001
#
# number of rings (size 3 to 8) (size 9 to 14) (size 15 to 20)
#    0.000    2.000    2.000    1.200    2.800    1.600 
#    0.000    2.000    0.000    0.000    0.000    0.000 
#    0.000    0.000    0.000    0.000    0.000    0.000 
#
# Total GULP energy -111740.282590 kJ/mol
# GULP energy per Si atom -5587.014130 kJ/mol
# Density = 2.184591 g / cm^3
# Si number density = 21.895741 Si / 1000 Ang^3
#
#
#
# Elastic Constant Matrix: (Units=GPa)
#
#
# Indices 1 2 3 4 5 6 
#
# 1 180.9767 3.2697 36.8678 -0.0002 5.6153 0.0001
# 2 3.2697 47.3273 4.4338 -0.0006 -14.2678 0.0003
# 3 36.8678 4.4338 54.9103 -0.0001 17.4719 0.0002
# 4 -0.0002 -0.0006 -0.0001 8.4316 0.0002 14.8664
# 5 5.6153 -14.2678 17.4719 0.0002 34.8503 -0.0001
# 6 0.0001 0.0003 0.0002 14.8664 -0.0001 9.8292
#
#
#
# Elastic Compliance Matrix: (Units=1/GPa)
#
#
# Indices 1 2 3 4 5 6 
#
# 1 0.006463 0.000499 -0.004894 0.000000 0.001617 0.000000
# 2 0.000499 0.025961 -0.006886 -0.000001 0.014000 0.000002
# 3 -0.004894 -0.006886 0.027008 0.000000 -0.015571 0.000000
# 4 0.000000 -0.000001 0.000000 -0.071157 0.000000 0.107623
# 5 0.001617 0.014000 -0.015571 0.000000 0.041972 0.000000
# 6 0.000000 0.000002 0.000000 0.107623 0.000000 -0.061039
#
#
# Mechanical properties :
#
#
# Convention : Reuss Voigt Hill
#
# Bulk Modulus (GPa) = 27.12242 41.37299 34.24770
# Shear Modulus (GPa) = 1231.24967 26.53176 628.89071
#
# Velocity S-wave (km/s) = 23.73909 3.48477 16.96597
# Velocity P-wave (km/s) = 27.63705 5.92688 19.98668
#
# Compressibility (1/GPa) = 0.03686987
#
# Stress axis : x y z
#
# Youngs Moduli (GPa) = 154.71574 38.51962 37.02557
#
# Poissons Ratio (x) = -0.01924 0.18122
# Poissons Ratio (y) = -0.07727 0.25497
# Poissons Ratio (z) = 0.75725 0.26526
#
# Static dielectric constant tensor:
#      x y z
#    x 1.782790 0.000000 -0.022160 
#    y 0.000000 1.821530 0.000000 
#    z -0.022160 0.000000 1.774480 
# 
# From -- ./inp_files/151658.got.cif
#   From: 2010.05.17/outbox.cif.g08.bks.cpg/sg12_76_cif.got.tgz:151658.got - 2010.06.03 13:09:07.
