data_PCOD9202960
_publ_section_title
;
Structure prediction by ZEFSAII (Michael W. Deem and Ramdas Pophale) SiO2 
 PCOD9202960
Probable space group: C 2/M
;
_chemical_formula_sum "Si O2"
_cell_formula_units_Z 40
_cell_length_a 10.821079
_cell_length_b 18.519102
_cell_length_c 7.781605
_cell_angle_alpha 90.000000
_cell_angle_beta 77.758481
_cell_angle_gamma 90.000000
_cell_volume 1523.950668
_symmetry_space_group_name_H-M "C 2/M"
_symmetry_group_IT_number 12
_symmetry_cell_setting 'monoclinic'
loop_
_space_group_symop_operation_xyz
x,y,z
-x,y,-z
-x,-y,-z
x,-y,z
1/2+x,1/2+y,z
1/2-x,1/2+y,-z
1/2-x,1/2-y,-z
1/2+x,1/2-y,z
loop_
_atom_site_type_symbol
_atom_site_label
_atom_site_fract_x
_atom_site_fract_y
_atom_site_fract_z
Si Si1 0.280392 0.697959 0.831899
Si Si2 0.275805 0.921989 0.590672
Si Si3 0.079877 0.293602 0.636397
Si Si4 0.990169 0.084390 0.794371
Si Si5 0.901120 0.610148 0.908106
O O1 0.202665 0.737165 0.700713
O O2 0.412145 0.656503 0.763027
O O3 0.250000 0.750000 0.000000
O O4 0.205432 0.628514 0.923747
O O5 0.354548 0.865026 0.460537
O O6 0.128041 0.907648 0.666570
O O7 0.339241 0.923367 0.759987
O O8 0.288595 0.000000 0.503415
O O9 0.000000 0.262741 0.500000
O O10 0.976396 0.319233 0.808262
O O11 0.948657 0.000000 0.768213
O O12 0.000000 0.088441 0.000000
O O13 0.000000 0.571719 0.000000
#
# Coordination Sequence:
#
# PCOD9202960 Si02
#       5
#     8   8   8   8   8
#     4  11  23  41  70  99 132 186 240 294 348 419
#     4  10  20  38  64  96 138 183 224 281 349 414
#     4   9  21  41  63  91 139 173 227 287 353 413
#     4  10  21  39  67 100 139 183 234 292 351 415
#     4   9  19  37  59  90 133 174 233 280 333 406
#
# _framework density 26.24757
#
# number of rings (size 3 to 8) (size 9 to 14) (size 15 to 20)
#    0.000    2.200    2.000    0.000    0.000    8.000 
#    0.000   12.000    4.400    0.000    0.000    0.000 
#    0.000    0.000    0.000    0.000    0.000    0.000 
#
# Total GULP energy -111601.199461 kJ/mol
# GULP energy per Si atom -5580.059973 kJ/mol
# Density = 2.618783 g / cm^3
# Si number density = 26.247570 Si / 1000 Ang^3
#
#
#
# Elastic Constant Matrix: (Units=GPa)
#
#
# Indices 1 2 3 4 5 6 
#
# 1 133.8498 53.7561 41.0839 0.0000 16.3604 0.0000
# 2 53.7561 116.7431 31.6206 0.0000 -0.5953 0.0000
# 3 41.0839 31.6206 115.8005 0.0000 16.8921 0.0000
# 4 0.0000 0.0000 0.0000 3.0940 0.0000 -13.8116
# 5 16.3604 -0.5953 16.8921 0.0000 59.4969 0.0000
# 6 0.0000 0.0000 0.0000 -13.8116 0.0000 4.6670
#
#
#
# Elastic Compliance Matrix: (Units=1/GPa)
#
#
# Indices 1 2 3 4 5 6 
#
# 1 0.010018 -0.004047 -0.002129 0.000000 -0.002191 0.000000
# 2 -0.004047 0.010926 -0.001800 0.000000 0.001733 0.000000
# 3 -0.002129 -0.001800 0.010223 0.000000 -0.002335 0.000000
# 4 0.000000 0.000000 0.000000 -0.026469 0.000000 -0.078332
# 5 -0.002191 0.001733 -0.002335 0.000000 0.018090 0.000000
# 6 0.000000 0.000000 0.000000 -0.078332 0.000000 -0.017548
#
#
# Mechanical properties :
#
#
# Convention : Reuss Voigt Hill
#
# Bulk Modulus (GPa) = 65.73407 68.81273 67.27340
# Shear Modulus (GPa) = 190.36100 29.44712 109.90406
#
# Velocity S-wave (km/s) = 8.52541 3.35311 6.47788
# Velocity P-wave (km/s) = 11.04574 6.42377 9.03530
#
# Compressibility (1/GPa) = 0.01521281
#
# Stress axis : x y z
#
# Youngs Moduli (GPa) = 99.82155 91.52542 97.81615
#
# Poissons Ratio (x) = 0.37043 0.20830
# Poissons Ratio (y) = 0.40400 0.17611
# Poissons Ratio (z) = 0.21257 0.16478
#
# Static dielectric constant tensor:
#      x y z
#    x 2.321180 0.000000 0.057040 
#    y 0.000000 2.136200 0.000000 
#    z 0.057040 0.000000 1.990220 
# 
# From -- ./inp_files/46925.got.cif
#   From: 2010.05.17/outbox.cif.g08.bks.cpg/sg12_24_cif.got.tgz:46925.got - 2010.06.03 13:09:07.
