data_PCOD9202529
_publ_section_title
;
Structure prediction by ZEFSAII (Michael W. Deem and Ramdas Pophale) SiO2 
 PCOD9202529
Probable space group: C 2/M
;
_chemical_formula_sum "Si O2"
_cell_formula_units_Z 64
_cell_length_a 32.881604
_cell_length_b 17.223694
_cell_length_c 9.701744
_cell_angle_alpha 90.000000
_cell_angle_beta 142.814514
_cell_angle_gamma 90.000000
_cell_volume 3320.868182
_symmetry_space_group_name_H-M "C 2/M"
_symmetry_group_IT_number 12
_symmetry_cell_setting 'monoclinic'
loop_
_space_group_symop_operation_xyz
x,y,z
-x,y,-z
-x,-y,-z
x,-y,z
1/2+x,1/2+y,z
1/2-x,1/2+y,-z
1/2-x,1/2-y,-z
1/2+x,1/2-y,z
loop_
_atom_site_type_symbol
_atom_site_label
_atom_site_fract_x
_atom_site_fract_y
_atom_site_fract_z
Si Si1 0.570858 0.145572 0.053693
Si Si2 0.551734 0.409554 0.512885
Si Si3 0.033146 0.826044 0.942453
Si Si4 0.682456 0.344768 0.260878
Si Si5 0.817173 0.594475 0.125232
Si Si6 0.195466 0.336569 0.211979
Si Si7 0.424718 0.088937 0.636379
Si Si8 0.197396 0.092098 0.004209
O O1 0.546063 0.233880 0.967948
O O2 0.505239 0.094685 0.844525
O O3 0.632934 0.125907 0.124314
O O4 0.592416 0.136131 0.271461
O O5 0.500000 0.408664 0.500000
O O6 0.557449 0.500000 0.482862
O O7 0.519543 0.356501 0.310377
O O8 0.624431 0.379466 0.757041
O O9 0.106598 0.861958 0.106678
O O10 0.000000 0.843749 0.000000
O O11 0.734370 0.357777 0.525380
O O12 0.686645 0.255291 0.219624
O O13 0.704069 0.390948 0.183486
O O14 0.814715 0.500000 0.097126
O O15 0.885937 0.613364 0.393716
O O16 0.808663 0.638193 0.957637
O O17 0.757835 0.619236 0.070192
O O18 0.404377 0.000000 0.607397
O O19 0.196044 0.000000 0.984474
#
# Coordination Sequence:
#
# PCOD9202529 Si02
#       8
#     8   8   8   8   8   8   8   8
#     4  10  20  39  59  86 117 153 189 235 284 344
#     4  10  21  39  60  84 115 152 195 239 288 347
#     4  11  22  37  59  89 119 148 191 243 287 339
#     4  10  22  40  58  84 115 157 193 228 287 348
#     4  10  23  39  58  88 117 148 191 241 289 334
#     4  10  23  39  57  85 121 148 190 238 288 340
#     4  10  20  38  62  86 113 153 197 230 283 352
#     4  10  21  40  61  82 113 153 197 236 280 343
#
# _framework density 19.272068999999998
#
# number of rings (size 3 to 8) (size 9 to 14) (size 15 to 20)
#    0.000    1.875    2.500    1.500    1.750    3.750 
#    0.000    1.250    0.000    0.000    0.000    0.000 
#    0.000    0.000    0.000    0.000    0.000    0.000 
#
# Total GULP energy -178549.531593 kJ/mol
# GULP energy per Si atom -5579.672862 kJ/mol
# Density = 1.922820 g / cm^3
# Si number density = 19.272069 Si / 1000 Ang^3
#
#
#
# Elastic Constant Matrix: (Units=GPa)
#
#
# Indices 1 2 3 4 5 6 
#
# 1 105.7614 4.3619 44.8877 0.0000 -8.4384 0.0000
# 2 4.3619 22.4675 19.5927 0.0000 -18.5823 0.0000
# 3 44.8877 19.5927 138.1316 0.0000 -27.3928 0.0000
# 4 0.0000 0.0000 0.0000 78.1659 0.0000 -7.1271
# 5 -8.4384 -18.5823 -27.3928 0.0000 30.2770 0.0000
# 6 0.0000 0.0000 0.0000 -7.1271 0.0000 18.0334
#
#
#
# Elastic Compliance Matrix: (Units=1/GPa)
#
#
# Indices 1 2 3 4 5 6 
#
# 1 0.011002 0.001732 -0.003658 0.000000 0.000820 0.000000
# 2 0.001732 0.091227 -0.002807 0.000000 0.053933 0.000000
# 3 -0.003658 -0.002807 0.010094 0.000000 0.006390 0.000000
# 4 0.000000 0.000000 0.000000 0.013272 0.000000 0.005245
# 5 0.000820 0.053933 0.006390 0.000000 0.072139 0.000000
# 6 0.000000 0.000000 0.000000 0.005245 0.000000 0.057526
#
#
# Mechanical properties :
#
#
# Convention : Reuss Voigt Hill
#
# Bulk Modulus (GPa) = 9.72234 44.89389 27.30812
# Shear Modulus (GPa) = 16.72181 38.46315 27.59248
#
# Velocity S-wave (km/s) = 2.94882 4.47228 3.78793
# Velocity P-wave (km/s) = 4.08042 7.07204 5.77337
#
# Compressibility (1/GPa) = 0.10285587
#
# Stress axis : x y z
#
# Youngs Moduli (GPa) = 90.89336 10.96164 99.07271
#
# Poissons Ratio (x) = -0.01899 0.36245
# Poissons Ratio (y) = -0.15744 0.27811
# Poissons Ratio (z) = 0.33252 0.03077
#
# Static dielectric constant tensor:
#      x y z
#    x 1.684750 0.000000 0.006300 
#    y 0.000000 1.693920 0.000000 
#    z 0.006300 0.000000 1.685710 
# 
# From -- ./inp_files/112886.got.cif
#   From: 2010.05.17/outbox.cif.g08.bks.cpg/sg12_57_cif.got.tgz:112886.got - 2010.06.03 13:09:07.
