data_PCOD9202928
_publ_section_title
;
Structure prediction by ZEFSAII (Michael W. Deem and Ramdas Pophale) SiO2 
 PCOD9202928
Probable space group: C 2/M
;
_chemical_formula_sum "Si O2"
_cell_formula_units_Z 60
_cell_length_a 22.875764
_cell_length_b 14.883272
_cell_length_c 20.487327
_cell_angle_alpha 90.000000
_cell_angle_beta 22.364770
_cell_angle_gamma 90.000000
_cell_volume 2654.092556
_symmetry_space_group_name_H-M "C 2/M"
_symmetry_group_IT_number 12
_symmetry_cell_setting 'monoclinic'
loop_
_space_group_symop_operation_xyz
x,y,z
-x,y,-z
-x,-y,-z
x,-y,z
1/2+x,1/2+y,z
1/2-x,1/2+y,-z
1/2-x,1/2-y,-z
1/2+x,1/2-y,z
loop_
_atom_site_type_symbol
_atom_site_label
_atom_site_fract_x
_atom_site_fract_y
_atom_site_fract_z
Si Si1 0.856594 0.736177 0.776471
Si Si2 0.000000 0.801655 0.500000
Si Si3 0.383356 0.402041 0.980976
Si Si4 0.672408 0.796603 0.794944
Si Si5 0.724198 0.106205 0.608406
Si Si6 0.443178 0.897640 0.353916
Si Si7 0.415943 0.601407 0.792133
Si Si8 0.707074 0.598045 0.718646
O O1 0.971688 0.751287 0.597620
O O2 0.928914 0.672394 0.757121
O O3 0.817984 0.828451 0.852205
O O4 0.713438 0.682456 0.897289
O O5 0.826387 0.842950 0.668427
O O6 0.306453 0.500000 0.069490
O O7 0.410710 0.390572 0.875390
O O8 0.540809 0.404059 0.857011
O O9 0.670393 0.831619 0.722622
O O10 0.708533 0.689556 0.757673
O O11 0.500000 0.812785 0.000000
O O12 0.641943 0.127506 0.624921
O O13 0.907020 0.117858 0.410747
O O14 0.697622 0.000000 0.649566
O O15 0.325035 0.897491 0.536456
O O16 0.501644 0.000000 0.286314
O O17 0.373840 0.500000 0.818297
O O18 0.731036 0.500000 0.727405
#
# Coordination Sequence:
#
# PCOD9202928 Si02
#       8
#     8   4   8   8   8   8   8   8
#     4  12  23  40  63  93 139 173 218 283 337 393
#     4  12  26  46  64 102 134 184 244 266 324 426
#     4  10  21  38  63  99 133 164 215 278 344 412
#     4  12  26  46  68  94 141 182 234 286 331 400
#     4  10  21  42  71  99 129 172 225 283 346 409
#     4  10  20  38  67  98 126 163 215 273 340 411
#     4  10  20  38  64  93 127 168 216 272 339 410
#     4  10  20  39  66  93 127 174 220 267 334 406
#
# _framework density 22.606596
#
# number of rings (size 3 to 8) (size 9 to 14) (size 15 to 20)
#    0.000    1.333    4.000    1.600    1.867    1.600 
#    2.400    4.333    0.000    0.000    0.000    0.000 
#    0.000    0.000    0.000    0.000    0.000    0.000 
#
# Total GULP energy -167655.559123 kJ/mol
# GULP energy per Si atom -5588.518637 kJ/mol
# Density = 2.255514 g / cm^3
# Si number density = 22.606596 Si / 1000 Ang^3
#
#
#
# Elastic Constant Matrix: (Units=GPa)
#
#
# Indices 1 2 3 4 5 6 
#
# 1 89.8924 46.0780 16.8323 -0.0005 11.9632 0.0002
# 2 46.0780 62.0124 20.8777 -0.0033 11.9581 0.0044
# 3 16.8323 20.8777 89.0653 -0.0032 3.4439 0.0030
# 4 -0.0005 -0.0033 -0.0032 14.0493 0.0004 -2.5304
# 5 11.9632 11.9581 3.4439 0.0004 34.3387 -0.0002
# 6 0.0002 0.0044 0.0030 -2.5304 -0.0002 2.3369
#
#
#
# Elastic Compliance Matrix: (Units=1/GPa)
#
#
# Indices 1 2 3 4 5 6 
#
# 1 0.018072 -0.012990 -0.000303 0.000002 -0.001742 0.000025
# 2 -0.012990 0.028035 -0.003929 -0.000004 -0.004843 -0.000051
# 3 -0.000303 -0.003929 0.012196 0.000000 0.000251 -0.000008
# 4 0.000002 -0.000004 0.000000 0.088422 0.000000 0.095743
# 5 -0.001742 -0.004843 0.000251 0.000000 0.031390 0.000012
# 6 0.000025 -0.000051 -0.000008 0.095743 0.000012 0.531591
#
#
# Mechanical properties :
#
#
# Convention : Reuss Voigt Hill
#
# Bulk Modulus (GPa) = 41.91480 45.39401 43.65441
# Shear Modulus (GPa) = 6.64803 20.62380 13.63591
#
# Velocity S-wave (km/s) = 1.71672 3.02369 2.45864
# Velocity P-wave (km/s) = 4.74455 5.68453 5.23567
#
# Compressibility (1/GPa) = 0.02385792
#
# Stress axis : x y z
#
# Youngs Moduli (GPa) = 55.33565 35.66990 81.99169
#
# Poissons Ratio (x) = 0.46335 0.02484
# Poissons Ratio (y) = 0.71881 0.32217
# Poissons Ratio (z) = 0.01677 0.14016
#
# Static dielectric constant tensor:
#      x y z
#    x 1.800690 0.000000 -0.022170 
#    y 0.000000 1.865710 0.000000 
#    z -0.022170 0.000000 1.860620 
# 
# From -- ./inp_files/352119.got.cif
#   From: 2010.05.17/outbox.cif.g08.bks.cpg/sg12_177_cif.got.tgz:352119.got - 2010.06.03 13:09:07.
