data_PCOD9202805
_publ_section_title
;
Structure prediction by ZEFSAII (Michael W. Deem and Ramdas Pophale) SiO2 
 PCOD9202805
Probable space group: C 2/M
;
_chemical_formula_sum "Si O2"
_cell_formula_units_Z 56
_cell_length_a 25.712399
_cell_length_b 8.147374
_cell_length_c 15.077244
_cell_angle_alpha 90.000000
_cell_angle_beta 121.430961
_cell_angle_gamma 90.000000
_cell_volume 2695.058835
_symmetry_space_group_name_H-M "C 2/M"
_symmetry_group_IT_number 12
_symmetry_cell_setting 'monoclinic'
loop_
_space_group_symop_operation_xyz
x,y,z
-x,y,-z
-x,-y,-z
x,-y,z
1/2+x,1/2+y,z
1/2-x,1/2+y,-z
1/2-x,1/2-y,-z
1/2+x,1/2-y,z
loop_
_atom_site_type_symbol
_atom_site_label
_atom_site_fract_x
_atom_site_fract_y
_atom_site_fract_z
Si Si1 0.797035 0.806967 0.616888
Si Si2 0.932659 0.306587 0.704490
Si Si3 0.254497 0.803912 0.771870
Si Si4 0.027109 0.192133 0.931415
Si Si5 0.158984 0.693743 0.993885
Si Si6 0.508427 0.199785 0.607373
Si Si7 0.643408 0.199156 0.783799
O O1 0.750000 0.750000 0.500000
O O2 0.862083 0.721779 0.660252
O O3 0.771530 0.769028 0.692067
O O4 0.806647 0.000000 0.616862
O O5 0.946392 0.500000 0.725869
O O6 0.975028 0.214075 0.812110
O O7 0.954269 0.253939 0.625748
O O8 0.186957 0.761467 0.744974
O O9 0.261769 0.000000 0.771621
O O10 0.298818 0.738682 0.889970
O O11 0.088586 0.282098 0.957357
O O12 0.042233 0.000000 0.955573
O O13 0.000000 0.254918 0.000000
O O14 0.172176 0.500000 0.000688
O O15 0.166555 0.760445 0.900698
O O16 0.500000 0.260511 0.500000
O O17 0.573555 0.250189 0.705744
O O18 0.509220 0.000000 0.604350
O O19 0.644725 0.000000 0.785506
#
# Coordination Sequence:
#
# PCOD9202805 Si02
#       7
#     8   8   8   8   8   8   8
#     4  12  27  47  68  93 126 166 213 263 317 377
#     4  11  22  41  67  94 127 165 208 259 315 377
#     4  11  24  41  63  94 129 168 213 264 320 380
#     4  11  23  37  58  89 125 165 211 263 318 374
#     4  10  21  39  61  89 126 168 214 260 320 387
#     4   9  19  36  62  94 125 161 205 251 311 378
#     4  10  20  38  63  93 128 169 211 259 319 381
#
# _framework density 20.778767999999999
#
# number of rings (size 3 to 8) (size 9 to 14) (size 15 to 20)
#    0.000    1.429    1.429    3.857    2.000    5.143 
#    0.000    0.000    0.000    2.143    0.000    0.000 
#    0.000    0.000    0.000    0.000    0.000    0.000 
#
# Total GULP energy -156553.778943 kJ/mol
# GULP energy per Si atom -5591.206391 kJ/mol
# Density = 2.073147 g / cm^3
# Si number density = 20.778768 Si / 1000 Ang^3
#
#
#
# Elastic Constant Matrix: (Units=GPa)
#
#
# Indices 1 2 3 4 5 6 
#
# 1 121.2890 -15.6928 33.6890 0.0000 -23.5604 0.0000
# 2 -15.6928 16.3221 3.3766 0.0000 -3.7551 0.0000
# 3 33.6890 3.3766 90.0073 0.0000 -28.7502 0.0000
# 4 0.0000 0.0000 0.0000 18.0458 0.0000 0.4608
# 5 -23.5604 -3.7551 -28.7502 0.0000 39.3017 0.0000
# 6 0.0000 0.0000 0.0000 0.4608 0.0000 22.0701
#
#
#
# Elastic Compliance Matrix: (Units=1/GPa)
#
#
# Indices 1 2 3 4 5 6 
#
# 1 0.012088 0.013707 -0.003009 0.000000 0.006355 0.000000
# 2 0.013707 0.078208 -0.003984 0.000000 0.012775 0.000000
# 3 -0.003009 -0.003984 0.015252 0.000000 0.008973 0.000000
# 4 0.000000 0.000000 0.000000 0.055444 0.000000 -0.001158
# 5 0.006355 0.012775 0.008973 0.000000 0.037039 0.000000
# 6 0.000000 0.000000 0.000000 -0.001158 0.000000 0.045334
#
#
# Mechanical properties :
#
#
# Convention : Reuss Voigt Hill
#
# Bulk Modulus (GPa) = 8.40494 30.04044 19.22269
# Shear Modulus (GPa) = 18.54626 29.63321 24.08974
#
# Velocity S-wave (km/s) = 2.99081 3.78051 3.40861
# Velocity P-wave (km/s) = 3.99754 5.79180 4.97621
#
# Compressibility (1/GPa) = 0.11897770
#
# Stress axis : x y z
#
# Youngs Moduli (GPa) = 82.72348 12.78637 65.56539
#
# Poissons Ratio (x) = -0.17526 0.19727
# Poissons Ratio (y) = -1.13389 0.26119
# Poissons Ratio (z) = 0.24890 0.05094
#
# Static dielectric constant tensor:
#      x y z
#    x 1.700320 0.000000 -0.020030 
#    y 0.000000 1.731760 0.000000 
#    z -0.020030 0.000000 1.726020 
# 
# From -- ./inp_files/238993.got.cif
#   From: 2010.05.17/outbox.cif.g08.bks.cpg/sg12_120_cif.got.tgz:238993.got - 2010.06.03 13:09:07.
