data_PCOD9202589
_publ_section_title
;
Structure prediction by ZEFSAII (Michael W. Deem and Ramdas Pophale) SiO2 
 PCOD9202589
Probable space group: C 2/M
;
_chemical_formula_sum "Si O2"
_cell_formula_units_Z 30
_cell_length_a 12.296443
_cell_length_b 16.563097
_cell_length_c 7.319707
_cell_angle_alpha 90.000000
_cell_angle_beta 119.177168
_cell_angle_gamma 90.000000
_cell_volume 1301.628045
_symmetry_space_group_name_H-M "C 2/M"
_symmetry_group_IT_number 12
_symmetry_cell_setting 'monoclinic'
loop_
_space_group_symop_operation_xyz
x,y,z
-x,y,-z
-x,-y,-z
x,-y,z
1/2+x,1/2+y,z
1/2-x,1/2+y,-z
1/2-x,1/2-y,-z
1/2+x,1/2-y,z
loop_
_atom_site_type_symbol
_atom_site_label
_atom_site_fract_x
_atom_site_fract_y
_atom_site_fract_z
Si Si1 0.350568 0.872249 0.627193
Si Si2 0.000000 0.500000 0.000000
Si Si3 0.500000 0.249950 0.500000
Si Si4 0.133615 0.000000 0.844140
Si Si5 0.653540 0.500000 0.414233
Si Si6 0.704788 0.329122 0.864201
O O1 0.409690 0.809325 0.536985
O O2 0.282340 0.831491 0.741728
O O3 0.240993 0.924038 0.441597
O O4 0.450945 0.930147 0.811358
O O5 0.563704 0.309834 0.695002
O O6 0.143393 0.000000 0.629199
O O7 0.205021 0.082301 0.955377
O O8 0.987431 0.000000 0.772876
O O9 0.750000 0.250000 0.000000
#
# Coordination Sequence:
#
# PCOD9202589 Si02
#       6
#     8   2   4   4   4   8
#     4  10  21  38  61  90 126 169 218 269 326 386
#     4  10  20  38  62  88 126 170 212 272 328 378
#     4  12  24  38  62  92 128 172 222 271 326 393
#     4   9  18  38  62  88 120 162 208 260 328 383
#     4   8  16  34  61  86 119 161 204 255 314 378
#     4  11  23  40  66  94 127 169 216 272 332 393
#
# _framework density 23.048058000000001
#
# number of rings (size 3 to 8) (size 9 to 14) (size 15 to 20)
#    0.000    1.867    0.000    6.400    0.000    2.133 
#    0.000    2.667    0.000    6.400    0.000    0.000 
#    0.000    0.000    0.000    0.000    0.000    0.000 
#
# Total GULP energy -83525.553246 kJ/mol
# GULP energy per Si atom -5568.370216 kJ/mol
# Density = 2.299560 g / cm^3
# Si number density = 23.048058 Si / 1000 Ang^3
#
#
#
# Elastic Constant Matrix: (Units=GPa)
#
#
# Indices 1 2 3 4 5 6 
#
# 1 96.0262 60.3586 3.8785 0.0000 -1.4313 0.0000
# 2 60.3586 187.7559 32.8242 0.0000 -8.7060 0.0000
# 3 3.8785 32.8242 49.5705 0.0000 0.1360 0.0000
# 4 0.0000 0.0000 0.0000 14.5815 0.0000 6.5325
# 5 -1.4313 -8.7060 0.1360 0.0000 17.6913 0.0000
# 6 0.0000 0.0000 0.0000 6.5325 0.0000 24.8268
#
#
#
# Elastic Compliance Matrix: (Units=1/GPa)
#
#
# Indices 1 2 3 4 5 6 
#
# 1 0.013253 -0.004679 0.002065 0.000000 -0.001246 0.000000
# 2 -0.004679 0.007838 -0.004834 0.000000 0.003516 0.000000
# 3 0.002065 -0.004834 0.023219 0.000000 -0.002390 0.000000
# 4 0.000000 0.000000 0.000000 0.077745 0.000000 -0.020456
# 5 -0.001246 0.003516 -0.002390 0.000000 0.058173 0.000000
# 6 0.000000 0.000000 0.000000 -0.020456 0.000000 0.045661
#
#
# Mechanical properties :
#
#
# Convention : Reuss Voigt Hill
#
# Bulk Modulus (GPa) = 33.99721 58.60835 46.30278
# Shear Modulus (GPa) = 19.95284 27.17268 23.56276
#
# Velocity S-wave (km/s) = 2.94548 3.43732 3.20086
# Velocity P-wave (km/s) = 5.13326 6.42164 5.81326
#
# Compressibility (1/GPa) = 0.02941418
#
# Stress axis : x y z
#
# Youngs Moduli (GPa) = 75.45410 127.57609 43.06789
#
# Poissons Ratio (x) = 0.59697 -0.08893
# Poissons Ratio (y) = 0.35307 0.20819
# Poissons Ratio (z) = -0.15581 0.61669
#
# Static dielectric constant tensor:
#      x y z
#    x 1.875090 0.000000 0.050240 
#    y 0.000000 1.896820 0.000000 
#    z 0.050240 0.000000 1.949150 
# 
# From -- ./inp_files/46767.got.cif
#   From: 2010.05.17/outbox.cif.g08.bks.cpg/sg12_24_cif.got.tgz:46767.got - 2010.06.03 13:09:07.
