data_PCOD9202225
_publ_section_title
;
Structure prediction by ZEFSAII (Michael W. Deem and Ramdas Pophale) SiO2 
 PCOD9202225
Probable space group: C 2/M
;
_chemical_formula_sum "Si O2"
_cell_formula_units_Z 56
_cell_length_a 15.478038
_cell_length_b 8.106582
_cell_length_c 29.695185
_cell_angle_alpha 90.000000
_cell_angle_beta 47.830338
_cell_angle_gamma 90.000000
_cell_volume 2761.542901
_symmetry_space_group_name_H-M "C 2/M"
_symmetry_group_IT_number 12
_symmetry_cell_setting 'monoclinic'
loop_
_space_group_symop_operation_xyz
x,y,z
-x,y,-z
-x,-y,-z
x,-y,z
1/2+x,1/2+y,z
1/2-x,1/2+y,-z
1/2-x,1/2-y,-z
1/2+x,1/2-y,z
loop_
_atom_site_type_symbol
_atom_site_label
_atom_site_fract_x
_atom_site_fract_y
_atom_site_fract_z
Si Si1 0.380936 0.298224 0.092706
Si Si2 0.770991 0.692498 0.771171
Si Si3 0.458693 0.693729 0.564477
Si Si4 0.974895 0.809442 0.304626
Si Si5 0.143510 0.687569 0.567471
Si Si6 0.150931 0.198702 0.998369
Si Si7 0.275364 0.299666 0.312205
O O1 0.379758 0.500000 0.092025
O O2 0.298500 0.238374 0.161855
O O3 0.335510 0.246413 0.058898
O O4 0.515865 0.250462 0.055063
O O5 0.738464 0.500000 0.780132
O O6 0.742035 0.763247 0.732286
O O7 0.908942 0.707227 0.729075
O O8 0.500000 0.737355 0.500000
O O9 0.485464 0.500000 0.562229
O O10 0.530496 0.798134 0.575393
O O11 0.323780 0.725553 0.621040
O O12 0.887876 0.790026 0.377361
O O13 0.901864 0.758471 0.286807
O O14 0.009493 0.000000 0.288936
O O15 0.166112 0.500000 0.573208
O O16 0.250000 0.750000 0.500000
O O17 0.152647 0.000000 0.997932
O O18 0.250000 0.250000 0.000000
O O19 0.263193 0.500000 0.317963
#
# Coordination Sequence:
#
# PCOD9202225 Si02
#       7
#     8   8   8   8   8   8   8
#     4   8  17  34  56  81 115 158 199 234 284 349
#     4  10  20  38  60  82 112 156 200 238 288 354
#     4  11  23  38  58  84 112 143 185 237 294 351
#     4  11  23  39  58  85 117 149 189 242 295 346
#     4  12  24  39  59  83 112 148 190 238 293 351
#     4   9  17  33  57  85 117 155 197 242 285 337
#     4  10  22  38  57  81 111 148 189 235 291 351
#
# _framework density 20.278517999999998
#
# number of rings (size 3 to 8) (size 9 to 14) (size 15 to 20)
#    0.000    1.857    1.429    3.857    0.000    5.714 
#    0.000    4.286    0.000    0.000    0.000    0.000 
#    0.000    0.000    0.000    0.000    0.000    0.000 
#
# Total GULP energy -156301.489066 kJ/mol
# GULP energy per Si atom -5582.196038 kJ/mol
# Density = 2.023236 g / cm^3
# Si number density = 20.278518 Si / 1000 Ang^3
#
#
#
# Elastic Constant Matrix: (Units=GPa)
#
#
# Indices 1 2 3 4 5 6 
#
# 1 134.3234 6.9497 53.4694 0.0000 15.7220 0.0005
# 2 6.9497 17.4083 0.7276 0.0007 5.0014 0.0012
# 3 53.4694 0.7276 132.1063 -0.0001 18.3352 0.0002
# 4 0.0000 0.0007 -0.0001 1.7395 0.0000 -0.0445
# 5 15.7220 5.0014 18.3352 0.0000 18.4917 0.0001
# 6 0.0005 0.0012 0.0002 -0.0445 0.0001 27.7479
#
#
#
# Elastic Compliance Matrix: (Units=1/GPa)
#
#
# Indices 1 2 3 4 5 6 
#
# 1 0.009320 -0.002406 -0.003188 0.000001 -0.004112 0.000000
# 2 -0.002406 0.063520 0.003159 -0.000027 -0.018267 -0.000003
# 3 -0.003188 0.003159 0.009955 -0.000001 -0.008015 0.000000
# 4 0.000001 -0.000027 -0.000001 0.574891 0.000008 0.000923
# 5 -0.004112 -0.018267 -0.008015 0.000008 0.070461 0.000001
# 6 0.000000 -0.000003 0.000000 0.000923 0.000001 0.036040
#
#
# Mechanical properties :
#
#
# Convention : Reuss Voigt Hill
#
# Bulk Modulus (GPa) = 12.83282 45.12571 28.97927
# Shear Modulus (GPa) = 6.28905 24.44193 15.36549
#
# Velocity S-wave (km/s) = 1.76297 3.47553 2.75566
# Velocity P-wave (km/s) = 3.23823 6.19734 4.94434
#
# Compressibility (1/GPa) = 0.07792519
#
# Stress axis : x y z
#
# Youngs Moduli (GPa) = 107.30142 15.74300 100.45221
#
# Poissons Ratio (x) = 0.03788 0.32025
# Poissons Ratio (y) = 0.25816 -0.31735
# Poissons Ratio (z) = 0.34209 -0.04974
#
# Static dielectric constant tensor:
#      x y z
#    x 1.719170 0.000000 0.010330 
#    y 0.000000 1.841700 -0.000010 
#    z 0.010330 -0.000010 1.727430 
# 
# From -- ./inp_files/374946.got.cif
#   From: 2010.05.17/outbox.cif.g08.bks.cpg/sg12_188_cif.got.tgz:374946.got - 2010.06.03 13:09:07.
