data_PCOD9202789
_publ_section_title
;
Structure prediction by ZEFSAII (Michael W. Deem and Ramdas Pophale) SiO2 
 PCOD9202789
Probable space group: C 2/M
;
_chemical_formula_sum "Si O2"
_cell_formula_units_Z 48
_cell_length_a 15.323101
_cell_length_b 15.795859
_cell_length_c 15.455106
_cell_angle_alpha 90.000000
_cell_angle_beta 38.405391
_cell_angle_gamma 90.000000
_cell_volume 2323.851594
_symmetry_space_group_name_H-M "C 2/M"
_symmetry_group_IT_number 12
_symmetry_cell_setting 'monoclinic'
loop_
_space_group_symop_operation_xyz
x,y,z
-x,y,-z
-x,-y,-z
x,-y,z
1/2+x,1/2+y,z
1/2-x,1/2+y,-z
1/2-x,1/2-y,-z
1/2+x,1/2-y,z
loop_
_atom_site_type_symbol
_atom_site_label
_atom_site_fract_x
_atom_site_fract_y
_atom_site_fract_z
Si Si1 0.544732 0.896561 0.558882
Si Si2 0.161679 0.599425 0.127083
Si Si3 0.043326 0.644120 0.870343
Si Si4 0.640448 0.397141 0.440401
Si Si5 0.848107 0.899070 0.373183
Si Si6 0.533228 0.340803 0.071414
O O1 0.500000 0.866523 0.500000
O O2 0.436914 0.874195 0.717001
O O3 0.697605 0.863951 0.462780
O O4 0.549019 0.000000 0.553414
O O5 0.198955 0.500000 0.106617
O O6 0.066951 0.609366 0.114997
O O7 0.304088 0.651512 0.028482
O O8 0.019015 0.744601 0.889645
O O9 0.205728 0.626788 0.717464
O O10 0.000000 0.612365 0.000000
O O11 0.500000 0.368362 0.500000
O O12 0.639934 0.500000 0.439117
O O13 0.621196 0.367111 0.554443
O O14 0.952394 0.883797 0.213492
O O15 0.835096 0.000000 0.392730
O O16 0.500000 0.375873 0.000000
#
# Coordination Sequence:
#
# PCOD9202789 Si02
#       6
#     8   8   8   8   8   8
#     4   9  17  32  57  87 119 155 199 256 313 365
#     4  11  22  40  66  93 124 166 215 268 316 367
#     4  11  25  44  63  92 133 173 212 258 318 383
#     4  10  22  42  67  96 125 160 214 269 315 371
#     4  10  20  38  63  92 124 160 210 266 315 368
#     4  11  25  42  60  92 133 173 211 255 316 385
#
# _framework density 20.655363999999999
#
# number of rings (size 3 to 8) (size 9 to 14) (size 15 to 20)
#    0.000    1.667    1.667    2.500    2.333    4.667 
#    0.000    0.833    0.000    0.000    0.000    0.000 
#    0.000    0.000    0.000    0.000    0.000    0.000 
#
# Total GULP energy -133976.510649 kJ/mol
# GULP energy per Si atom -5582.354610 kJ/mol
# Density = 2.060835 g / cm^3
# Si number density = 20.655364 Si / 1000 Ang^3
#
#
#
# Elastic Constant Matrix: (Units=GPa)
#
#
# Indices 1 2 3 4 5 6 
#
# 1 221.4226 16.3937 122.9360 0.0000 8.7855 0.0000
# 2 16.3937 27.1041 8.5384 0.0001 -4.5582 0.0000
# 3 122.9360 8.5384 172.6025 0.0001 5.7650 0.0000
# 4 0.0000 0.0001 0.0001 64.5889 -0.0001 12.9449
# 5 8.7855 -4.5582 5.7650 -0.0001 48.3917 0.0000
# 6 0.0000 0.0000 0.0000 12.9449 0.0000 37.1353
#
#
#
# Elastic Compliance Matrix: (Units=1/GPa)
#
#
# Indices 1 2 3 4 5 6 
#
# 1 0.007754 -0.003192 -0.005329 0.000000 -0.001073 0.000000
# 2 -0.003192 0.039489 0.000177 0.000000 0.004278 0.000000
# 3 -0.005329 0.000177 0.009586 0.000000 -0.000158 0.000000
# 4 0.000000 0.000000 0.000000 0.016645 0.000000 -0.005802
# 5 -0.001073 0.004278 -0.000158 0.000000 0.021281 0.000000
# 6 0.000000 0.000000 0.000000 -0.005802 0.000000 0.028951
#
#
# Mechanical properties :
#
#
# Convention : Reuss Voigt Hill
#
# Bulk Modulus (GPa) = 24.91209 79.65173 52.28191
# Shear Modulus (GPa) = 32.51522 48.24059 40.37790
#
# Velocity S-wave (km/s) = 3.97190 4.83794 4.42615
# Velocity P-wave (km/s) = 5.75514 8.35784 7.17549
#
# Compressibility (1/GPa) = 0.04014115
#
# Stress axis : x y z
#
# Youngs Moduli (GPa) = 128.96899 25.32353 104.32231
#
# Poissons Ratio (x) = 0.08082 0.55592
# Poissons Ratio (y) = 0.41162 -0.01845
# Poissons Ratio (z) = 0.68726 -0.00448
#
# Static dielectric constant tensor:
#      x y z
#    x 1.774270 0.000000 -0.021460 
#    y 0.000000 1.759250 0.000000 
#    z -0.021460 0.000000 1.756200 
# 
# From -- ./inp_files/216238.got.cif
#   From: 2010.05.17/outbox.cif.g08.bks.cpg/sg12_109_cif.got.tgz:216238.got - 2010.06.03 13:09:07.
