data_PCOD9202504
_publ_section_title
;
Structure prediction by ZEFSAII (Michael W. Deem and Ramdas Pophale) SiO2 
 PCOD9202504
Probable space group: C 2/M
;
_chemical_formula_sum "Si O2"
_cell_formula_units_Z 48
_cell_length_a 16.960936
_cell_length_b 14.010612
_cell_length_c 11.213967
_cell_angle_alpha 90.000000
_cell_angle_beta 135.608521
_cell_angle_gamma 90.000000
_cell_volume 1864.186462
_symmetry_space_group_name_H-M "C 2/M"
_symmetry_group_IT_number 12
_symmetry_cell_setting 'monoclinic'
loop_
_space_group_symop_operation_xyz
x,y,z
-x,y,-z
-x,-y,-z
x,-y,z
1/2+x,1/2+y,z
1/2-x,1/2+y,-z
1/2-x,1/2-y,-z
1/2+x,1/2-y,z
loop_
_atom_site_type_symbol
_atom_site_label
_atom_site_fract_x
_atom_site_fract_y
_atom_site_fract_z
Si Si1 0.860594 0.899795 0.008030
Si Si2 0.155552 0.857984 0.739869
Si Si3 0.617420 0.181894 0.376168
Si Si4 0.124601 0.643076 0.652153
Si Si5 0.083198 0.682914 0.981430
Si Si6 0.337761 0.394248 0.520711
O O1 0.726604 0.901023 0.835247
O O2 0.907288 0.000000 0.010668
O O3 0.881070 0.898308 0.172787
O O4 0.899613 0.797993 0.999734
O O5 0.114021 0.749277 0.693137
O O6 0.122260 0.895933 0.573626
O O7 0.292174 0.859169 0.887412
O O8 0.662555 0.156581 0.555543
O O9 0.490746 0.151089 0.212151
O O10 0.617217 0.297817 0.367594
O O11 0.704310 0.131256 0.381091
O O12 0.000000 0.601657 0.500000
O O13 0.000000 0.658790 0.000000
O O14 0.355908 0.500000 0.591814
#
# Coordination Sequence:
#
# PCOD9202504 Si02
#       6
#     8   8   8   8   8   8
#     4  11  24  38  59  92 125 158 199 251 307 365
#     4  10  20  40  63  87 116 157 208 252 290 357
#     4  10  21  38  59  88 119 155 203 249 300 366
#     4  10  20  38  62  84 115 159 201 243 301 362
#     4  11  21  40  64  86 119 162 207 248 302 367
#     4  10  21  37  60  87 119 158 199 252 304 354
#
# _framework density 25.748494999999998
#
# number of rings (size 3 to 8) (size 9 to 14) (size 15 to 20)
#    0.000    1.667    1.667    4.500    2.333    2.000 
#    0.000    4.167    0.000    5.500    0.000    0.000 
#    0.000    0.000    0.000    0.000    0.000    0.000 
#
# Total GULP energy -134143.518676 kJ/mol
# GULP energy per Si atom -5589.313278 kJ/mol
# Density = 2.568989 g / cm^3
# Si number density = 25.748495 Si / 1000 Ang^3
#
#
#
# Elastic Constant Matrix: (Units=GPa)
#
#
# Indices 1 2 3 4 5 6 
#
# 1 87.7556 -9.3403 9.7156 0.0000 -2.8870 0.0000
# 2 -9.3403 92.7917 -2.5096 0.0000 -10.0322 0.0000
# 3 9.7156 -2.5096 127.6710 0.0000 16.2311 0.0000
# 4 0.0000 0.0000 0.0000 -17.0064 0.0000 -5.6423
# 5 -2.8870 -10.0322 16.2311 0.0000 47.4709 0.0000
# 6 0.0000 0.0000 0.0000 -5.6423 0.0000 -7.6697
#
#
#
# Elastic Compliance Matrix: (Units=1/GPa)
#
#
# Indices 1 2 3 4 5 6 
#
# 1 0.011691 0.001294 -0.001034 0.000000 0.001338 0.000000
# 2 0.001294 0.011173 -0.000198 0.000000 0.002507 0.000000
# 3 -0.001034 -0.000198 0.008281 0.000000 -0.002936 0.000000
# 4 0.000000 0.000000 0.000000 -0.077787 0.000000 0.057225
# 5 0.001338 0.002507 -0.002936 0.000000 0.022681 0.000000
# 6 0.000000 0.000000 0.000000 0.057225 0.000000 -0.172481
#
#
# Mechanical properties :
#
#
# Convention : Reuss Voigt Hill
#
# Bulk Modulus (GPa) = 31.98147 33.77220 32.87684
# Shear Modulus (GPa) = -26.86103 25.24915 -0.80594
#
# Velocity S-wave (km/s) = -3.23338 3.13486 -0.56008
# Velocity P-wave (km/s) = 1.22145 5.12326 3.51823
#
# Compressibility (1/GPa) = 0.03126810
#
# Stress axis : x y z
#
# Youngs Moduli (GPa) = 85.53224 89.50330 120.76237
#
# Poissons Ratio (x) = -0.11578 0.12492
# Poissons Ratio (y) = -0.11064 0.02386
# Poissons Ratio (z) = 0.08847 0.01769
#
# Static dielectric constant tensor:
#      x y z
#    x 2.045720 0.000000 -0.022660 
#    y 0.000000 2.034890 0.000000 
#    z -0.022660 0.000000 2.060010 
# 
# From -- ./inp_files/167626.got.cif
#   From: 2010.05.17/outbox.cif.g08.bks.cpg/sg12_84_cif.got.tgz:167626.got - 2010.06.03 13:09:07.
