data_PCOD9202156
_publ_section_title
;
Structure prediction by ZEFSAII (Michael W. Deem and Ramdas Pophale) SiO2 
 PCOD9202156
Probable space group: C 2/M
;
_chemical_formula_sum "Si O2"
_cell_formula_units_Z 64
_cell_length_a 20.540214
_cell_length_b 21.882806
_cell_length_c 8.461692
_cell_angle_alpha 90.000000
_cell_angle_beta 123.122642
_cell_angle_gamma 90.000000
_cell_volume 3185.308334
_symmetry_space_group_name_H-M "C 2/M"
_symmetry_group_IT_number 12
_symmetry_cell_setting 'monoclinic'
loop_
_space_group_symop_operation_xyz
x,y,z
-x,y,-z
-x,-y,-z
x,-y,z
1/2+x,1/2+y,z
1/2-x,1/2+y,-z
1/2-x,1/2-y,-z
1/2+x,1/2-y,z
loop_
_atom_site_type_symbol
_atom_site_label
_atom_site_fract_x
_atom_site_fract_y
_atom_site_fract_z
Si Si1 0.179832 0.932423 0.340855
Si Si2 0.504473 0.228690 0.322561
Si Si3 0.156099 0.568161 0.626285
Si Si4 0.159625 0.238556 0.040341
Si Si5 0.211305 0.569692 0.220668
Si Si6 0.579800 0.687341 0.207692
Si Si7 0.272984 0.852064 0.041663
Si Si8 0.434263 0.112248 0.792613
O O1 0.256584 0.928425 0.331187
O O2 0.217796 0.928251 0.564347
O O3 0.118229 0.878674 0.247556
O O4 0.145954 0.000000 0.271181
O O5 0.500000 0.211940 0.500000
O O6 0.419824 0.251864 0.159694
O O7 0.561761 0.285006 0.355370
O O8 0.531193 0.174229 0.239801
O O9 0.145307 0.500000 0.680603
O O10 0.095576 0.576061 0.402307
O O11 0.157385 0.624027 0.752236
O O12 0.203235 0.176379 0.049584
O O13 0.138568 0.232838 0.195231
O O14 0.208823 0.296584 0.052991
O O15 0.181142 0.500000 0.179345
O O16 0.240263 0.590501 0.088438
O O17 0.142678 0.612506 0.199174
O O18 0.500000 0.687889 0.000000
O O19 0.500000 0.087770 0.000000
#
# Coordination Sequence:
#
# PCOD9202156 Si02
#       8
#     8   8   8   8   8   8   8   8
#     4   9  19  37  57  82 117 153 201 250 297 359
#     4  11  23  38  60  87 125 161 202 255 308 362
#     4  10  21  38  61  90 120 159 206 251 299 360
#     4  10  22  37  57  91 120 162 199 245 307 364
#     4  10  22  38  60  89 119 162 204 247 305 363
#     4  10  20  38  59  84 120 159 201 246 310 371
#     4  11  20  37  62  87 127 152 204 256 295 361
#     4  11  22  40  63  87 125 164 199 250 310 370
#
# _framework density 20.092245999999999
#
# number of rings (size 3 to 8) (size 9 to 14) (size 15 to 20)
#    0.000    1.750    1.250    4.875    1.750    1.250 
#    0.000    1.875    0.000    5.625    0.000    0.000 
#    0.000    0.000    0.000    0.000    0.000    0.000 
#
# Total GULP energy -178320.301934 kJ/mol
# GULP energy per Si atom -5572.509435 kJ/mol
# Density = 2.004651 g / cm^3
# Si number density = 20.092246 Si / 1000 Ang^3
#
#
#
# Elastic Constant Matrix: (Units=GPa)
#
#
# Indices 1 2 3 4 5 6 
#
# 1 55.4460 33.9316 13.1771 0.0000 -3.5950 0.0000
# 2 33.9316 95.8054 28.1764 0.0000 6.0145 0.0000
# 3 13.1771 28.1764 30.6316 0.0000 -7.5395 0.0000
# 4 0.0000 0.0000 0.0000 17.5802 0.0000 -13.5020
# 5 -3.5950 6.0145 -7.5395 0.0000 22.6625 0.0000
# 6 0.0000 0.0000 0.0000 -13.5020 0.0000 -7.3669
#
#
#
# Elastic Compliance Matrix: (Units=1/GPa)
#
#
# Indices 1 2 3 4 5 6 
#
# 1 0.023854 -0.008499 -0.001042 0.000000 0.005693 0.000000
# 2 -0.008499 0.019202 -0.016984 0.000000 -0.012095 0.000000
# 3 -0.001042 -0.016984 0.054226 0.000000 0.022382 0.000000
# 4 0.000000 0.000000 0.000000 0.023626 0.000000 -0.043301
# 5 0.005693 -0.012095 0.022382 0.000000 0.055685 0.000000
# 6 0.000000 0.000000 0.000000 -0.043301 0.000000 -0.056380
#
#
# Mechanical properties :
#
#
# Convention : Reuss Voigt Hill
#
# Bulk Modulus (GPa) = 22.60837 36.93926 29.77381
# Shear Modulus (GPa) = 26.59470 13.68169 20.13819
#
# Velocity S-wave (km/s) = 3.64212 2.61232 3.16933
# Velocity P-wave (km/s) = 5.38177 5.24630 5.31447
#
# Compressibility (1/GPa) = 0.04423141
#
# Stress axis : x y z
#
# Youngs Moduli (GPa) = 41.92228 52.07713 18.44128
#
# Poissons Ratio (x) = 0.44261 0.01922
# Poissons Ratio (y) = 0.35631 0.31321
# Poissons Ratio (z) = 0.04369 0.88448
#
# Static dielectric constant tensor:
#      x y z
#    x 1.741610 0.000000 -0.024960 
#    y 0.000000 1.750190 0.000000 
#    z -0.024960 0.000000 1.700960 
# 
# From -- ./inp_files/89634.got.cif
#   From: 2010.05.17/outbox.cif.g08.bks.cpg/sg12_45_cif.got.tgz:89634.got - 2010.06.03 13:09:07.
