data_PCOD9202126
_publ_section_title
;
Structure prediction by ZEFSAII (Michael W. Deem and Ramdas Pophale) SiO2 
 PCOD9202126
Probable space group: C 2/M
;
_chemical_formula_sum "Si O2"
_cell_formula_units_Z 36
_cell_length_a 19.251105
_cell_length_b 10.945218
_cell_length_c 19.810935
_cell_angle_alpha 90.000000
_cell_angle_beta 159.355053
_cell_angle_gamma 90.000000
_cell_volume 1471.762110
_symmetry_space_group_name_H-M "C 2/M"
_symmetry_group_IT_number 12
_symmetry_cell_setting 'monoclinic'
loop_
_space_group_symop_operation_xyz
x,y,z
-x,y,-z
-x,-y,-z
x,-y,z
1/2+x,1/2+y,z
1/2-x,1/2+y,-z
1/2-x,1/2-y,-z
1/2+x,1/2-y,z
loop_
_atom_site_type_symbol
_atom_site_label
_atom_site_fract_x
_atom_site_fract_y
_atom_site_fract_z
Si Si1 0.357839 0.000000 0.042317
Si Si2 0.047115 0.798850 0.433480
Si Si3 0.700046 0.141743 0.219138
Si Si4 0.245347 0.000000 0.520033
Si Si5 0.503319 0.500000 0.824741
Si Si6 0.209394 0.765547 0.042944
O O1 0.529445 0.000000 0.253278
O O2 0.365660 0.127826 0.009613
O O3 0.152226 0.000000 0.895442
O O4 0.217189 0.777291 0.643444
O O5 0.878156 0.859115 0.326770
O O6 0.911038 0.707093 0.266648
O O7 0.145401 0.884051 0.466136
O O8 0.678655 0.000000 0.222692
O O9 0.500000 0.183310 0.000000
O O10 0.203157 0.000000 0.401983
O O11 0.560726 0.377356 0.915697
O O12 0.250000 0.750000 0.000000
#
# Coordination Sequence:
#
# PCOD9202126 Si02
#       6
#     4   8   8   4   4   8
#     4  10  22  32  54  87 111 154 185 224 287 334
#     4  11  19  34  51  81 116 150 180 234 281 334
#     4  10  21  31  51  80 113 150 188 229 283 336
#     4  12  20  31  57  82 123 151 181 230 286 335
#     4  10  22  42  51  82 117 155 192 233 267 338
#     4  10  20  38  59  79 117 150 189 231 284 331
#
# _framework density 24.460474999999999
#
# number of rings (size 3 to 8) (size 9 to 14) (size 15 to 20)
#    0.000    1.556    6.667    0.667    3.111    0.889 
#    0.000    0.000    0.000    2.667    0.000    1.556 
#    0.000    0.000    0.000    0.000    0.000    0.000 
#
# Total GULP energy -100501.042640 kJ/mol
# GULP energy per Si atom -5583.391258 kJ/mol
# Density = 2.440480 g / cm^3
# Si number density = 24.460475 Si / 1000 Ang^3
#
#
#
# Elastic Constant Matrix: (Units=GPa)
#
#
# Indices 1 2 3 4 5 6 
#
# 1 54.1039 14.9344 35.5664 0.0030 -19.8091 -0.0018
# 2 14.9344 113.2232 43.7378 0.0417 -11.7066 0.0050
# 3 35.5664 43.7378 243.9445 0.0333 -49.8333 0.0033
# 4 0.0030 0.0417 0.0333 26.9567 0.0065 -5.4269
# 5 -19.8091 -11.7066 -49.8333 0.0065 51.9754 -0.0007
# 6 -0.0018 0.0050 0.0033 -5.4269 -0.0007 18.4552
#
#
#
# Elastic Compliance Matrix: (Units=1/GPa)
#
#
# Indices 1 2 3 4 5 6 
#
# 1 0.022428 -0.001647 -0.001622 0.000001 0.006622 0.000003
# 2 -0.001647 0.009627 -0.001456 -0.000014 0.000144 -0.000007
# 3 -0.001622 -0.001456 0.005476 -0.000006 0.004304 -0.000002
# 4 0.000001 -0.000014 -0.000006 0.039431 -0.000013 0.011595
# 5 0.006622 0.000144 0.004304 -0.000013 0.025923 -0.000003
# 6 0.000003 -0.000007 -0.000002 0.011595 -0.000003 0.057595
#
#
# Mechanical properties :
#
#
# Convention : Reuss Voigt Hill
#
# Bulk Modulus (GPa) = 35.61208 66.63874 51.12541
# Shear Modulus (GPa) = 27.88760 40.61300 34.25030
#
# Velocity S-wave (km/s) = 3.38021 4.07916 3.74602
# Velocity P-wave (km/s) = 5.46123 7.03482 6.29737
#
# Compressibility (1/GPa) = 0.02808036
#
# Stress axis : x y z
#
# Youngs Moduli (GPa) = 44.58648 103.87558 182.60873
#
# Poissons Ratio (x) = 0.17110 0.29618
# Poissons Ratio (y) = 0.07344 0.26596
# Poissons Ratio (z) = 0.07232 0.15129
#
# Static dielectric constant tensor:
#      x y z
#    x 2.015610 0.000000 -0.015580 
#    y 0.000000 1.989980 0.000000 
#    z -0.015580 0.000000 2.007570 
# 
# From -- ./inp_files/321650.got.cif
#   From: 2010.05.17/outbox.cif.g08.bks.cpg/sg12_161_cif.got.tgz:321650.got - 2010.06.03 13:09:07.
