data_PCOD9202884
_publ_section_title
;
Structure prediction by ZEFSAII (Michael W. Deem and Ramdas Pophale) SiO2 
 PCOD9202884
Probable space group: C 2/M
;
_chemical_formula_sum "Si O2"
_cell_formula_units_Z 40
_cell_length_a 24.612631
_cell_length_b 14.883822
_cell_length_c 17.156224
_cell_angle_alpha 90.000000
_cell_angle_beta 162.974978
_cell_angle_gamma 90.000000
_cell_volume 1840.133930
_symmetry_space_group_name_H-M "C 2/M"
_symmetry_group_IT_number 12
_symmetry_cell_setting 'monoclinic'
loop_
_space_group_symop_operation_xyz
x,y,z
-x,y,-z
-x,-y,-z
x,-y,z
1/2+x,1/2+y,z
1/2-x,1/2+y,-z
1/2-x,1/2-y,-z
1/2+x,1/2-y,z
loop_
_atom_site_type_symbol
_atom_site_label
_atom_site_fract_x
_atom_site_fract_y
_atom_site_fract_z
Si Si1 0.550326 0.396456 0.347357
Si Si2 0.229929 0.162163 0.918014
Si Si3 0.831958 0.247905 0.698988
Si Si4 0.375816 0.897529 0.489340
Si Si5 0.300880 0.712929 0.879180
O O1 0.586622 0.500000 0.378362
O O2 0.732674 0.334592 0.599906
O O3 0.445153 0.388110 0.285933
O O4 0.413039 0.352337 0.093254
O O5 0.417999 0.107980 0.193094
O O6 0.250000 0.250000 0.000000
O O7 0.230027 0.202396 0.831516
O O8 0.750000 0.250000 0.500000
O O9 0.755604 0.156332 0.631793
O O10 0.050783 0.244467 0.983100
O O11 0.356150 0.842525 0.381619
O O12 0.319060 0.000000 0.400099
#
# Coordination Sequence:
#
# PCOD9202884 Si02
#       5
#     8   8   8   8   8
#     4  10  20  38  64  90 124 173 216 256 312 381
#     4  10  20  41  60  90 133 175 199 258 323 379
#     4  10  20  40  59  90 130 173 202 259 327 379
#     4  12  23  38  69 104 125 159 218 270 316 377
#     4  10  22  39  62  95 132 166 205 270 324 372
#
# _framework density 21.737549000000001
#
# number of rings (size 3 to 8) (size 9 to 14) (size 15 to 20)
#    0.000    1.600    6.000    1.800    0.000    8.000 
#    0.000    5.000    0.000    6.000    0.000    0.000 
#    0.000    0.000    0.000    0.000    0.000    0.000 
#
# Total GULP energy -111701.444623 kJ/mol
# GULP energy per Si atom -5585.072231 kJ/mol
# Density = 2.168807 g / cm^3
# Si number density = 21.737549 Si / 1000 Ang^3
#
#
#
# Elastic Constant Matrix: (Units=GPa)
#
#
# Indices 1 2 3 4 5 6 
#
# 1 110.9399 53.9517 50.6236 0.0000 21.7491 0.0000
# 2 53.9517 122.1550 55.4804 0.0000 -1.3626 0.0000
# 3 50.6236 55.4804 78.4274 0.0001 2.9989 0.0001
# 4 0.0000 0.0000 0.0001 16.2377 0.0000 -9.2753
# 5 21.7491 -1.3626 2.9989 0.0000 37.3771 0.0000
# 6 0.0000 0.0000 0.0001 -9.2753 0.0000 22.1428
#
#
#
# Elastic Compliance Matrix: (Units=1/GPa)
#
#
# Indices 1 2 3 4 5 6 
#
# 1 0.015901 -0.003850 -0.007204 0.000000 -0.008815 0.000000
# 2 -0.003850 0.013041 -0.006865 0.000000 0.003266 0.000000
# 3 -0.007204 -0.006865 0.022175 0.000000 0.002162 0.000000
# 4 0.000000 0.000000 0.000000 0.080956 0.000000 0.033911
# 5 -0.008815 0.003266 0.002162 0.000000 0.031829 0.000000
# 6 0.000000 0.000000 0.000000 0.033911 0.000000 0.059366
#
#
# Mechanical properties :
#
#
# Convention : Reuss Voigt Hill
#
# Bulk Modulus (GPa) = 65.44756 70.18154 67.81455
# Shear Modulus (GPa) = 18.92511 25.24929 22.08720
#
# Velocity S-wave (km/s) = 2.95383 3.41185 3.19107
# Velocity P-wave (km/s) = 6.46582 6.91932 6.69641
#
# Compressibility (1/GPa) = 0.01527941
#
# Stress axis : x y z
#
# Youngs Moduli (GPa) = 62.88786 76.68023 45.09673
#
# Poissons Ratio (x) = 0.29519 0.32486
# Poissons Ratio (y) = 0.24209 0.30961
# Poissons Ratio (z) = 0.45303 0.52645
#
# Static dielectric constant tensor:
#      x y z
#    x 1.880930 0.000000 -0.038450 
#    y 0.000000 1.732400 0.000000 
#    z -0.038450 0.000000 1.917120 
# 
# From -- ./inp_files/289947.got.cif
#   From: 2010.05.17/outbox.cif.g08.bks.cpg/sg12_145_cif.got.tgz:289947.got - 2010.06.03 13:09:07.
