data_PCOD9202918
_publ_section_title
;
Structure prediction by ZEFSAII (Michael W. Deem and Ramdas Pophale) SiO2 
 PCOD9202918
Probable space group: C 2/M
;
_chemical_formula_sum "Si O2"
_cell_formula_units_Z 48
_cell_length_a 18.418716
_cell_length_b 13.794053
_cell_length_c 18.103225
_cell_angle_alpha 90.000000
_cell_angle_beta 150.020275
_cell_angle_gamma 90.000000
_cell_volume 2298.322146
_symmetry_space_group_name_H-M "C 2/M"
_symmetry_group_IT_number 12
_symmetry_cell_setting 'monoclinic'
loop_
_space_group_symop_operation_xyz
x,y,z
-x,y,-z
-x,-y,-z
x,-y,z
1/2+x,1/2+y,z
1/2-x,1/2+y,-z
1/2-x,1/2-y,-z
1/2+x,1/2-y,z
loop_
_atom_site_type_symbol
_atom_site_label
_atom_site_fract_x
_atom_site_fract_y
_atom_site_fract_z
Si Si1 0.807999 0.385979 0.120731
Si Si2 0.222223 0.263004 0.323038
Si Si3 0.020697 0.885298 0.183014
Si Si4 0.803204 0.112511 0.259400
Si Si5 0.567095 0.111972 0.929103
Si Si6 0.517072 0.288870 0.340933
O O1 0.836915 0.500000 0.163369
O O2 0.829273 0.374907 0.050692
O O3 0.918453 0.308437 0.252002
O O4 0.640173 0.363036 0.990426
O O5 0.152777 0.157046 0.251482
O O6 0.303354 0.311813 0.325977
O O7 0.329351 0.266024 0.486611
O O8 0.077231 0.326626 0.206672
O O9 0.030506 0.834115 0.271593
O O10 0.029141 0.000000 0.199461
O O11 0.934912 0.133968 0.320353
O O12 0.804883 0.000000 0.285055
O O13 0.657881 0.130144 0.083030
O O14 0.523167 0.000000 0.891584
#
# Coordination Sequence:
#
# PCOD9202918 Si02
#       6
#     8   8   8   8   8   8
#     4  10  21  40  67  94 121 163 214 258 306 367
#     4  12  25  38  58  98 132 164 199 257 320 373
#     4  11  23  41  64  90 122 166 215 258 304 366
#     4  11  24  43  66  92 127 169 209 253 309 376
#     4  10  20  38  64  93 124 162 209 255 306 367
#     4  12  23  41  64  95 128 165 206 255 320 371
#
# _framework density 20.884799999999998
#
# number of rings (size 3 to 8) (size 9 to 14) (size 15 to 20)
#    0.000    1.000    3.333    4.000    0.000    5.333 
#    0.000    0.833    0.000    6.000    0.000    0.000 
#    0.000    0.000    0.000    0.000    0.000    0.000 
#
# Total GULP energy -134220.351628 kJ/mol
# GULP energy per Si atom -5592.514651 kJ/mol
# Density = 2.083726 g / cm^3
# Si number density = 20.884800 Si / 1000 Ang^3
#
#
#
# Elastic Constant Matrix: (Units=GPa)
#
#
# Indices 1 2 3 4 5 6 
#
# 1 47.3166 14.5884 -8.3340 0.0001 0.6739 0.0001
# 2 14.5884 98.4020 44.8064 0.0002 -2.2648 0.0001
# 3 -8.3340 44.8064 105.2904 0.0003 4.6188 0.0002
# 4 0.0001 0.0002 0.0003 1.2053 0.0001 -4.0791
# 5 0.6739 -2.2648 4.6188 0.0001 18.8530 0.0001
# 6 0.0001 0.0001 0.0002 -4.0791 0.0001 28.8613
#
#
#
# Elastic Compliance Matrix: (Units=1/GPa)
#
#
# Indices 1 2 3 4 5 6 
#
# 1 0.023645 -0.005542 0.004343 -0.000006 -0.002575 -0.000001
# 2 -0.005542 0.014058 -0.006575 -0.000001 0.003498 0.000000
# 3 0.004343 -0.006575 0.012818 -0.000005 -0.004085 -0.000001
# 4 -0.000006 -0.000001 -0.000005 1.590470 -0.000012 0.224788
# 5 -0.002575 0.003498 -0.004085 -0.000012 0.054555 -0.000002
# 6 -0.000001 0.000000 -0.000001 0.224788 -0.000002 0.066419
#
#
# Mechanical properties :
#
#
# Convention : Reuss Voigt Hill
#
# Bulk Modulus (GPa) = 28.59306 39.23673 33.91489
# Shear Modulus (GPa) = 2.79459 23.11380 12.95419
#
# Velocity S-wave (km/s) = 1.15802 3.33036 2.49322
# Velocity P-wave (km/s) = 3.93809 5.79797 4.95606
#
# Compressibility (1/GPa) = 0.03497352
#
# Stress axis : x y z
#
# Youngs Moduli (GPa) = 42.29304 71.13282 78.01326
#
# Poissons Ratio (x) = 0.39423 -0.33881
# Poissons Ratio (y) = 0.23439 0.51290
# Poissons Ratio (z) = -0.18368 0.46767
#
# Static dielectric constant tensor:
#      x y z
#    x 1.768000 0.000000 0.004890 
#    y 0.000000 1.769170 0.000000 
#    z 0.004890 0.000000 1.728720 
# 
# From -- ./inp_files/111469.got.cif
#   From: 2010.05.17/outbox.cif.g08.bks.cpg/sg12_56_cif.got.tgz:111469.got - 2010.06.03 13:09:07.
