data_PCOD9202013
_publ_section_title
;
Structure prediction by ZEFSAII (Michael W. Deem and Ramdas Pophale) SiO2 
 PCOD9202013
Probable space group: C 2/M
;
_chemical_formula_sum "Si O2"
_cell_formula_units_Z 44
_cell_length_a 11.976271
_cell_length_b 27.117805
_cell_length_c 10.506377
_cell_angle_alpha 90.000000
_cell_angle_beta 39.572471
_cell_angle_gamma 90.000000
_cell_volume 2173.727879
_symmetry_space_group_name_H-M "C 2/M"
_symmetry_group_IT_number 12
_symmetry_cell_setting 'monoclinic'
loop_
_space_group_symop_operation_xyz
x,y,z
-x,y,-z
-x,-y,-z
x,-y,z
1/2+x,1/2+y,z
1/2-x,1/2+y,-z
1/2-x,1/2-y,-z
1/2+x,1/2-y,z
loop_
_atom_site_type_symbol
_atom_site_label
_atom_site_fract_x
_atom_site_fract_y
_atom_site_fract_z
Si Si1 0.408795 0.393152 0.942303
Si Si2 0.490077 0.500000 0.162469
Si Si3 0.207935 0.771363 0.340523
Si Si4 0.989642 0.607633 0.738705
Si Si5 0.077931 0.500000 0.574533
Si Si6 0.709721 0.674556 0.608226
Si Si7 0.000000 0.340106 0.000000
O O1 0.424396 0.448374 0.870822
O O2 0.526148 0.353833 0.765219
O O3 0.500000 0.394910 0.000000
O O4 0.207055 0.379531 0.129285
O O5 0.287658 0.500000 0.379277
O O6 0.500000 0.500000 0.000000
O O7 0.275887 0.715306 0.294107
O O8 0.234882 0.796794 0.453939
O O9 0.000000 0.771151 0.500000
O O10 0.329839 0.804178 0.141616
O O11 0.016714 0.549478 0.697684
O O12 0.134511 0.634802 0.525136
O O13 0.012011 0.626378 0.863766
O O14 0.000000 0.500000 0.500000
#
# Coordination Sequence:
#
# PCOD9202013 Si02
#       7
#     8   4   8   8   4   8   4
#     4  11  22  36  60  91 125 157 201 254 314 375
#     4  10  20  38  56  88 128 157 192 241 307 377
#     4  10  22  40  62  83 124 162 209 259 310 362
#     4  11  24  41  65  92 128 168 209 254 314 371
#     4  12  22  39  66  97 133 163 198 261 315 370
#     4  10  23  38  58  94 118 162 209 257 311 366
#     4  10  24  45  64  88 122 173 218 256 300 372
#
# _framework density 20.241724000000001
#
# number of rings (size 3 to 8) (size 9 to 14) (size 15 to 20)
#    0.000    1.455    1.818    3.818    3.818    0.364 
#    0.000    5.455    0.000    1.091    0.000    0.000 
#    0.000    0.000    0.000    0.000    0.000    0.000 
#
# Total GULP energy -122903.977048 kJ/mol
# GULP energy per Si atom -5586.544411 kJ/mol
# Density = 2.019565 g / cm^3
# Si number density = 20.241724 Si / 1000 Ang^3
#
#
#
# Elastic Constant Matrix: (Units=GPa)
#
#
# Indices 1 2 3 4 5 6 
#
# 1 48.3409 23.4761 15.9827 0.0000 -13.5757 0.0000
# 2 23.4761 156.3580 51.7696 0.0000 0.7672 0.0000
# 3 15.9827 51.7696 107.4873 0.0000 -22.4555 0.0000
# 4 0.0000 0.0000 0.0000 -6.6413 0.0000 16.3935
# 5 -13.5757 0.7672 -22.4555 0.0000 41.9188 0.0000
# 6 0.0000 0.0000 0.0000 16.3935 0.0000 -9.6371
#
#
#
# Elastic Compliance Matrix: (Units=1/GPa)
#
#
# Indices 1 2 3 4 5 6 
#
# 1 0.024792 -0.003678 -0.000252 0.000000 0.007961 0.000000
# 2 -0.003678 0.008369 -0.004239 0.000000 -0.003615 0.000000
# 3 -0.000252 -0.004239 0.012816 0.000000 0.006862 0.000000
# 4 0.000000 0.000000 0.000000 0.047069 0.000000 0.080069
# 5 0.007961 -0.003615 0.006862 0.000000 0.030176 0.000000
# 6 0.000000 0.000000 0.000000 0.080069 0.000000 0.032437
#
#
# Mechanical properties :
#
#
# Convention : Reuss Voigt Hill
#
# Bulk Modulus (GPa) = 33.73930 54.96033 44.34982
# Shear Modulus (GPa) = 27.49108 19.85858 23.67483
#
# Velocity S-wave (km/s) = 3.68929 3.13560 3.42366
# Velocity P-wave (km/s) = 5.90358 6.34983 6.13076
#
# Compressibility (1/GPa) = 0.02963903
#
# Stress axis : x y z
#
# Youngs Moduli (GPa) = 40.33620 119.48642 78.02700
#
# Poissons Ratio (x) = 0.43948 0.01963
# Poissons Ratio (y) = 0.14836 0.33078
# Poissons Ratio (z) = 0.01015 0.50653
#
# Static dielectric constant tensor:
#      x y z
#    x 1.673850 0.000000 -0.073900 
#    y 0.000000 1.750970 0.000000 
#    z -0.073900 0.000000 1.454500 
# 
# From -- ./inp_files/136878.got.cif
#   From: 2010.05.17/outbox.cif.g08.bks.cpg/sg12_69_cif.got.tgz:136878.got - 2010.06.03 13:09:07.
