data_PCOD9202179
_publ_section_title
;
Structure prediction by ZEFSAII (Michael W. Deem and Ramdas Pophale) SiO2 
 PCOD9202179
Probable space group: C 2/M
;
_chemical_formula_sum "Si O2"
_cell_formula_units_Z 32
_cell_length_a 8.923011
_cell_length_b 15.635512
_cell_length_c 14.492273
_cell_angle_alpha 90.000000
_cell_angle_beta 107.929983
_cell_angle_gamma 90.000000
_cell_volume 1923.704897
_symmetry_space_group_name_H-M "C 2/M"
_symmetry_group_IT_number 12
_symmetry_cell_setting 'monoclinic'
loop_
_space_group_symop_operation_xyz
x,y,z
-x,y,-z
-x,-y,-z
x,-y,z
1/2+x,1/2+y,z
1/2-x,1/2+y,-z
1/2-x,1/2-y,-z
1/2+x,1/2-y,z
loop_
_atom_site_type_symbol
_atom_site_label
_atom_site_fract_x
_atom_site_fract_y
_atom_site_fract_z
Si Si1 0.482067 0.500000 0.106537
Si Si2 0.375531 0.000000 0.893463
Si Si3 0.056074 0.603024 0.612145
Si Si4 0.526460 0.840494 0.211813
Si Si5 0.685351 0.340494 0.211813
O O1 0.300614 0.500000 0.101230
O O2 0.569366 0.416368 0.162654
O O3 0.500000 0.500000 0.000000
O O4 0.406713 0.916368 0.837346
O O5 0.500000 0.000000 0.000000
O O6 0.059489 0.500000 0.618975
O O7 0.946936 0.637913 0.674623
O O8 0.227689 0.637913 0.674622
O O9 0.000000 0.627662 0.500000
O O10 0.599858 0.750000 0.199718
O O11 0.335373 0.838771 0.170748
#
# Coordination Sequence:
#
# PCOD9202179 Si02
#       5
#     4   4   8   8   8
#     4  12  24  40  62  85 115 155 201 248 300 355
#     4  12  24  40  62  85 115 155 201 248 300 355
#     4   9  18  36  64  84 120 162 198 241 292 343
#     4  10  20  38  59  87 122 153 197 241 293 348
#     4  10  20  38  59  87 122 153 197 241 293 348
#
# _framework density 16.634568000000002
#
# number of rings (size 3 to 8) (size 9 to 14) (size 15 to 20)
#    1.500    0.250    2.500    3.750    0.000    2.000 
#    0.000    5.000    0.000    1.500    0.000    0.000 
#    0.000    0.000    0.000    0.000    0.000    0.000 
#
# Total GULP energy -89100.049921 kJ/mol
# GULP energy per Si atom -5568.753120 kJ/mol
# Density = 1.659671 g / cm^3
# Si number density = 16.634568 Si / 1000 Ang^3
#
#
#
# Elastic Constant Matrix: (Units=GPa)
#
#
# Indices 1 2 3 4 5 6 
#
# 1 159.8547 83.9310 63.5164 0.0000 -3.0327 0.0000
# 2 83.9310 171.5804 73.1443 0.0000 -0.7155 0.0000
# 3 63.5164 73.1443 128.1964 0.0000 0.9318 0.0000
# 4 0.0000 0.0000 0.0000 -5.1774 0.0000 -2.7020
# 5 -3.0327 -0.7155 0.9318 0.0000 25.5851 0.0000
# 6 0.0000 0.0000 0.0000 -2.7020 0.0000 35.5318
#
#
#
# Elastic Compliance Matrix: (Units=1/GPa)
#
#
# Indices 1 2 3 4 5 6 
#
# 1 0.009049 -0.003313 -0.002601 0.000000 0.001075 0.000000
# 2 -0.003313 0.008918 -0.003447 0.000000 -0.000018 0.000000
# 3 -0.002601 -0.003447 0.011062 0.000000 -0.000808 0.000000
# 4 0.000000 0.000000 0.000000 -0.185776 0.000000 -0.014127
# 5 0.001075 -0.000018 -0.000808 0.000000 0.039242 0.000000
# 6 0.000000 0.000000 0.000000 -0.014127 0.000000 0.027070
#
#
# Mechanical properties :
#
#
# Convention : Reuss Voigt Hill
#
# Bulk Modulus (GPa) = 97.01911 100.09053 98.55482
# Shear Modulus (GPa) = -73.22965 27.12390 -23.05287
#
# Velocity S-wave (km/s) = -6.64215 4.04242 -3.72673
# Velocity P-wave (km/s) = 0.61137 9.06030 6.39200
#
# Compressibility (1/GPa) = 0.01030725
#
# Stress axis : x y z
#
# Youngs Moduli (GPa) = 110.50807 112.13127 90.40322
#
# Poissons Ratio (x) = 0.37152 0.23513
# Poissons Ratio (y) = 0.36614 0.31159
# Poissons Ratio (z) = 0.28742 0.38647
#
# Static dielectric constant tensor:
#      x y z
#    x 1.551660 0.000000 0.000700 
#    y 0.000000 1.527300 0.000000 
#    z 0.000700 0.000000 1.562210 
# 
# From -- ./inp_files/38337.got.cif
#   From: 2010.05.17/outbox.cif.g08.bks.cpg/sg12_20_cif.got.tgz:38337.got - 2010.06.03 13:09:07.
