data_PCOD9202575
_publ_section_title
;
Structure prediction by ZEFSAII (Michael W. Deem and Ramdas Pophale) SiO2 
 PCOD9202575
Probable space group: C 2/M
;
_chemical_formula_sum "Si O2"
_cell_formula_units_Z 56
_cell_length_a 27.096526
_cell_length_b 7.837239
_cell_length_c 12.900582
_cell_angle_alpha 90.000000
_cell_angle_beta 112.011137
_cell_angle_gamma 90.000000
_cell_volume 2539.906638
_symmetry_space_group_name_H-M "C 2/M"
_symmetry_group_IT_number 12
_symmetry_cell_setting 'monoclinic'
loop_
_space_group_symop_operation_xyz
x,y,z
-x,y,-z
-x,-y,-z
x,-y,z
1/2+x,1/2+y,z
1/2-x,1/2+y,-z
1/2-x,1/2-y,-z
1/2+x,1/2-y,z
loop_
_atom_site_type_symbol
_atom_site_label
_atom_site_fract_x
_atom_site_fract_y
_atom_site_fract_z
Si Si1 0.757604 0.699296 0.689032
Si Si2 0.447476 0.205472 0.400041
Si Si3 0.214076 0.794784 0.874154
Si Si4 0.871742 0.803018 0.708041
Si Si5 0.561643 0.291331 0.041788
Si Si6 0.902096 0.205357 0.155158
Si Si7 0.353354 0.197887 0.470012
O O1 0.772081 0.500000 0.707992
O O2 0.740270 0.767316 0.788366
O O3 0.809406 0.791790 0.687559
O O4 0.704167 0.714582 0.579123
O O5 0.500000 0.268431 0.500000
O O6 0.444615 0.250575 0.277058
O O7 0.394495 0.269957 0.417593
O O8 0.446725 0.000000 0.408623
O O9 0.154773 0.728639 0.848952
O O10 0.210716 0.000000 0.861736
O O11 0.250000 0.750000 0.000000
O O12 0.878706 0.712599 0.603563
O O13 0.886987 0.000000 0.705085
O O14 0.905124 0.733805 0.831850
O O15 0.564114 0.500000 0.043673
O O16 0.585107 0.232369 0.950163
O O17 0.500000 0.242585 0.000000
O O18 0.899100 0.000000 0.146930
O O19 0.343579 0.000000 0.438917
#
# Coordination Sequence:
#
# PCOD9202575 Si02
#       7
#     8   8   8   8   8   8   8
#     4  11  22  39  60  87 122 156 199 246 297 357
#     4  10  23  41  61  88 122 158 195 241 300 357
#     4  10  21  35  56  86 118 155 197 243 291 349
#     4  11  23  39  62  89 121 159 201 245 297 356
#     4   9  20  38  60  88 120 155 195 243 295 349
#     4  10  20  38  62  88 118 151 196 246 290 345
#     4  11  23  40  62  88 122 159 198 245 297 354
#
# _framework density 22.048054
#
# number of rings (size 3 to 8) (size 9 to 14) (size 15 to 20)
#    0.000    1.714    1.429    2.571    2.000    3.714 
#    0.000    1.429    0.000    2.143    0.000    0.000 
#    0.000    0.000    0.000    0.000    0.000    0.000 
#
# Total GULP energy -156552.916642 kJ/mol
# GULP energy per Si atom -5591.175594 kJ/mol
# Density = 2.199787 g / cm^3
# Si number density = 22.048054 Si / 1000 Ang^3
#
#
#
# Elastic Constant Matrix: (Units=GPa)
#
#
# Indices 1 2 3 4 5 6 
#
# 1 49.1930 -4.3276 23.4961 0.0000 -1.0119 0.0000
# 2 -4.3276 28.7718 -11.4145 0.0000 -2.1472 0.0000
# 3 23.4961 -11.4145 158.7320 0.0000 -0.9213 0.0000
# 4 0.0000 0.0000 0.0000 30.2491 0.0000 0.7560
# 5 -1.0119 -2.1472 -0.9213 0.0000 39.5411 0.0000
# 6 0.0000 0.0000 0.0000 0.7560 0.0000 -12.7309
#
#
#
# Elastic Compliance Matrix: (Units=1/GPa)
#
#
# Indices 1 2 3 4 5 6 
#
# 1 0.022009 0.002125 -0.003101 0.000000 0.000606 0.000000
# 2 0.002125 0.036141 0.002296 0.000000 0.002070 0.000000
# 3 -0.003101 0.002296 0.006925 0.000000 0.000207 0.000000
# 4 0.000000 0.000000 0.000000 0.033010 0.000000 0.001960
# 5 0.000606 0.002070 0.000207 0.000000 0.025423 0.000000
# 6 0.000000 0.000000 0.000000 0.001960 0.000000 -0.078433
#
#
# Mechanical properties :
#
#
# Convention : Reuss Voigt Hill
#
# Bulk Modulus (GPa) = 14.76757 28.02274 21.39515
# Shear Modulus (GPa) = 76.91391 26.67470 51.79431
#
# Velocity S-wave (km/s) = 5.91273 3.48205 4.85207
# Velocity P-wave (km/s) = 7.30249 5.37622 6.41210
#
# Compressibility (1/GPa) = 0.06771595
#
# Stress axis : x y z
#
# Youngs Moduli (GPa) = 45.43618 27.66905 144.39688
#
# Poissons Ratio (x) = -0.05880 0.44785
# Poissons Ratio (y) = -0.09656 -0.33159
# Poissons Ratio (z) = 0.14092 -0.06354
#
# Static dielectric constant tensor:
#      x y z
#    x 1.789450 0.000000 -0.007250 
#    y 0.000000 1.798060 0.000000 
#    z -0.007250 0.000000 1.795510 
# 
# From -- ./inp_files/181063.got.cif
#   From: 2010.05.17/outbox.cif.g08.bks.cpg/sg12_91_cif.got.tgz:181063.got - 2010.06.03 13:09:07.
