data_PCOD9202070
_publ_section_title
;
Structure prediction by ZEFSAII (Michael W. Deem and Ramdas Pophale) SiO2 
 PCOD9202070
Probable space group: C 2/M
;
_chemical_formula_sum "Si O2"
_cell_formula_units_Z 48
_cell_length_a 16.181805
_cell_length_b 17.973697
_cell_length_c 16.057375
_cell_angle_alpha 90.000000
_cell_angle_beta 143.238870
_cell_angle_gamma 90.000000
_cell_volume 2795.044605
_symmetry_space_group_name_H-M "C 2/M"
_symmetry_group_IT_number 12
_symmetry_cell_setting 'monoclinic'
loop_
_space_group_symop_operation_xyz
x,y,z
-x,y,-z
-x,-y,-z
x,-y,z
1/2+x,1/2+y,z
1/2-x,1/2+y,-z
1/2-x,1/2-y,-z
1/2+x,1/2-y,z
loop_
_atom_site_type_symbol
_atom_site_label
_atom_site_fract_x
_atom_site_fract_y
_atom_site_fract_z
Si Si1 0.097297 0.843289 0.691936
Si Si2 0.231989 0.911584 0.962046
Si Si3 0.188352 0.910716 0.594323
Si Si4 0.469495 0.911042 0.726106
Si Si5 0.852634 0.910951 0.919191
Si Si6 0.426801 0.167154 0.353066
O O1 0.168534 0.866160 0.835232
O O2 0.180367 0.876937 0.680391
O O3 0.086002 0.755144 0.671994
O O4 0.944523 0.878682 0.561072
O O5 0.218442 0.000000 0.933834
O O6 0.393495 0.895092 0.108892
O O7 0.157370 0.895915 0.989948
O O8 0.329971 0.891812 0.661843
O O9 0.176945 0.000000 0.590345
O O10 0.487752 0.869004 0.653834
O O11 0.470168 0.000000 0.710926
O O12 0.724789 0.869459 0.773471
O O13 0.833951 0.000000 0.893773
O O14 0.000000 0.890095 0.000000
O O15 0.500000 0.153438 0.500000
#
# Coordination Sequence:
#
# PCOD9202070 Si02
#       6
#     8   8   8   8   8   8
#     4  11  21  36  53  85 115 150 185 230 289 336
#     4   9  18  36  59  82 109 145 190 234 278 332
#     4  10  20  38  58  81 112 151 195 236 276 330
#     4   9  21  38  58  83 109 146 192 237 279 331
#     4   9  20  39  60  84 112 147 192 235 274 331
#     4  11  22  39  55  83 120 150 185 228 289 341
#
# _framework density 17.173248999999998
#
# number of rings (size 3 to 8) (size 9 to 14) (size 15 to 20)
#    0.000    2.167    1.667    3.500    0.000    6.667 
#    6.000    5.833    0.000    0.000    0.000    0.000 
#    0.000    0.000    0.000    0.000    0.000    0.000 
#
# Total GULP energy -133953.565811 kJ/mol
# GULP energy per Si atom -5581.398575 kJ/mol
# Density = 1.713416 g / cm^3
# Si number density = 17.173249 Si / 1000 Ang^3
#
#
#
# Elastic Constant Matrix: (Units=GPa)
#
#
# Indices 1 2 3 4 5 6 
#
# 1 166.1809 73.4999 113.3576 0.0000 22.7194 0.0000
# 2 73.4999 68.6696 68.6755 0.0000 0.0453 -0.0001
# 3 113.3576 68.6755 146.5613 -0.0001 -18.8730 -0.0001
# 4 0.0000 0.0000 -0.0001 27.0746 0.0000 -25.7127
# 5 22.7194 0.0453 -18.8730 0.0000 28.1460 0.0000
# 6 0.0000 -0.0001 -0.0001 -25.7127 0.0000 32.1079
#
#
#
# Elastic Compliance Matrix: (Units=1/GPa)
#
#
# Indices 1 2 3 4 5 6 
#
# 1 0.044097 -0.009876 -0.037280 -0.000001 -0.060577 -0.000001
# 2 -0.009876 0.032136 -0.007005 0.000000 0.003223 0.000000
# 3 -0.037280 -0.007005 0.046862 0.000001 0.061526 0.000001
# 4 -0.000001 0.000000 0.000001 0.154240 0.000002 0.123519
# 5 -0.060577 0.003223 0.061526 0.000002 0.125677 0.000002
# 6 -0.000001 0.000000 0.000001 0.123519 0.000002 0.130062
#
#
# Mechanical properties :
#
#
# Convention : Reuss Voigt Hill
#
# Bulk Modulus (GPa) = 67.68348 99.16421 83.42385
# Shear Modulus (GPa) = 7.73610 25.85762 16.79686
#
# Velocity S-wave (km/s) = 2.12474 3.88453 3.13082
# Velocity P-wave (km/s) = 6.74663 8.83110 7.85829
#
# Compressibility (1/GPa) = 0.01477465
#
# Stress axis : x y z
#
# Youngs Moduli (GPa) = 22.67729 31.11727 21.33918
#
# Poissons Ratio (x) = 0.30731 0.79552
# Poissons Ratio (y) = 0.22396 0.14948
# Poissons Ratio (z) = 0.84540 0.21797
#
# Static dielectric constant tensor:
#      x y z
#    x 1.568920 0.000000 0.006840 
#    y 0.000000 1.570300 0.000000 
#    z 0.006840 0.000000 1.556890 
# 
# From -- ./inp_files/87753.got.cif
#   From: 2010.05.17/outbox.cif.g08.bks.cpg/sg12_44_cif.got.tgz:87753.got - 2010.06.03 13:09:07.
