data_PCOD9202666
_publ_section_title
;
Structure prediction by ZEFSAII (Michael W. Deem and Ramdas Pophale) SiO2 
 PCOD9202666
Probable space group: C 2/M
;
_chemical_formula_sum "Si O2"
_cell_formula_units_Z 44
_cell_length_a 24.601630
_cell_length_b 9.284734
_cell_length_c 10.618754
_cell_angle_alpha 90.000000
_cell_angle_beta 131.556544
_cell_angle_gamma 90.000000
_cell_volume 1815.028646
_symmetry_space_group_name_H-M "C 2/M"
_symmetry_group_IT_number 12
_symmetry_cell_setting 'monoclinic'
loop_
_space_group_symop_operation_xyz
x,y,z
-x,y,-z
-x,-y,-z
x,-y,z
1/2+x,1/2+y,z
1/2-x,1/2+y,-z
1/2-x,1/2-y,-z
1/2+x,1/2-y,z
loop_
_atom_site_type_symbol
_atom_site_label
_atom_site_fract_x
_atom_site_fract_y
_atom_site_fract_z
Si Si1 0.012611 0.836877 0.206502
Si Si2 0.234977 0.500000 0.425659
Si Si3 0.845754 0.208914 0.709626
Si Si4 0.617039 0.330146 0.609231
Si Si5 0.396938 0.170982 0.163852
Si Si6 0.267696 0.336245 0.851063
O O1 0.069568 0.820324 0.180497
O O2 0.064908 0.818803 0.409422
O O3 0.949377 0.721934 0.131654
O O4 0.982764 0.000000 0.162575
O O5 0.173173 0.374767 0.328827
O O6 0.299331 0.623073 0.534188
O O7 0.810987 0.154530 0.786145
O O8 0.633561 0.500000 0.654722
O O9 0.581331 0.260175 0.678607
O O10 0.690105 0.235846 0.707141
O O11 0.398855 0.000000 0.184005
O O12 0.316306 0.229239 0.008956
O O13 0.260919 0.500000 0.890122
#
# Coordination Sequence:
#
# PCOD9202666 Si02
#       6
#     8   4   8   8   8   8
#     4  11  24  44  70 101 138 176 220 275 336 402
#     4  10  20  38  62  98 140 168 218 268 322 392
#     4  11  23  39  68 104 138 175 216 272 337 400
#     4  11  24  44  74 101 130 175 228 282 332 394
#     4  12  28  47  65  94 138 183 227 279 335 397
#     4  12  25  43  70 101 138 178 223 275 334 402
#
# _framework density 24.242042000000001
#
# number of rings (size 3 to 8) (size 9 to 14) (size 15 to 20)
#    0.000    0.727    1.818    6.000    6.364    4.364 
#    0.000    2.727    0.000    0.000    0.000    0.000 
#    0.000    0.000    0.000    0.000    0.000    0.000 
#
# Total GULP energy -122746.569698 kJ/mol
# GULP energy per Si atom -5579.389532 kJ/mol
# Density = 2.418687 g / cm^3
# Si number density = 24.242042 Si / 1000 Ang^3
#
#
#
# Elastic Constant Matrix: (Units=GPa)
#
#
# Indices 1 2 3 4 5 6 
#
# 1 127.8427 21.0035 10.8799 0.0000 9.5561 0.0000
# 2 21.0035 224.0469 21.4790 0.0000 17.5200 0.0000
# 3 10.8799 21.4790 48.5329 0.0000 12.8891 0.0000
# 4 0.0000 0.0000 0.0000 0.8101 0.0000 7.0469
# 5 9.5561 17.5200 12.8891 0.0000 43.3415 0.0000
# 6 0.0000 0.0000 0.0000 7.0469 0.0000 31.9672
#
#
#
# Elastic Compliance Matrix: (Units=1/GPa)
#
#
# Indices 1 2 3 4 5 6 
#
# 1 0.008108 -0.000546 -0.001259 0.000000 -0.001192 0.000000
# 2 -0.000546 0.004775 -0.001640 0.000000 -0.001322 0.000000
# 3 -0.001259 -0.001640 0.023195 0.000000 -0.005957 0.000000
# 4 0.000000 0.000000 0.000000 -1.345307 0.000000 0.296560
# 5 -0.001192 -0.001322 -0.005957 0.000000 0.025642 0.000000
# 6 0.000000 0.000000 0.000000 0.296560 0.000000 -0.034092
#
#
# Mechanical properties :
#
#
# Convention : Reuss Voigt Hill
#
# Bulk Modulus (GPa) = 34.26103 56.34970 45.30537
# Shear Modulus (GPa) = -3.84302 38.36110 17.25904
#
# Velocity S-wave (km/s) = -1.26044 3.98228 2.67113
# Velocity P-wave (km/s) = 3.47063 6.66632 5.31437
#
# Compressibility (1/GPa) = 0.02918768
#
# Stress axis : x y z
#
# Youngs Moduli (GPa) = 123.33281 209.41785 43.11338
#
# Poissons Ratio (x) = 0.11437 0.05429
# Poissons Ratio (y) = 0.06736 0.07069
# Poissons Ratio (z) = 0.15531 0.34339
#
# Static dielectric constant tensor:
#      x y z
#    x 2.010850 0.000000 -0.088260 
#    y 0.000000 1.824000 0.000000 
#    z -0.088260 0.000000 2.024410 
# 
# From -- ./inp_files/181285.got.cif
#   From: 2010.05.17/outbox.cif.g08.bks.cpg/sg12_91_cif.got.tgz:181285.got - 2010.06.03 13:09:07.
