data_PCOD9202515
_publ_section_title
;
Structure prediction by ZEFSAII (Michael W. Deem and Ramdas Pophale) SiO2 
 PCOD9202515
Probable space group: C 2/M
;
_chemical_formula_sum "Si O2"
_cell_formula_units_Z 64
_cell_length_a 20.125665
_cell_length_b 7.421620
_cell_length_c 20.739532
_cell_angle_alpha 90.000000
_cell_angle_beta 123.558822
_cell_angle_gamma 90.000000
_cell_volume 2581.422290
_symmetry_space_group_name_H-M "C 2/M"
_symmetry_group_IT_number 12
_symmetry_cell_setting 'monoclinic'
loop_
_space_group_symop_operation_xyz
x,y,z
-x,y,-z
-x,-y,-z
x,-y,z
1/2+x,1/2+y,z
1/2-x,1/2+y,-z
1/2-x,1/2-y,-z
1/2+x,1/2-y,z
loop_
_atom_site_type_symbol
_atom_site_label
_atom_site_fract_x
_atom_site_fract_y
_atom_site_fract_z
Si Si1 0.165906 0.285934 0.120171
Si Si2 0.658575 0.214718 0.972047
Si Si3 0.839318 0.779414 0.253817
Si Si4 0.115955 0.783746 0.229311
Si Si5 0.375026 0.708485 0.558921
Si Si6 0.532503 0.279661 0.585729
Si Si7 0.543891 0.705838 0.795270
Si Si8 0.244028 0.218034 0.394023
O O1 0.174790 0.500000 0.116666
O O2 0.145517 0.217773 0.038136
O O3 0.251566 0.213732 0.189806
O O4 0.108253 0.258283 0.149785
O O5 0.645957 0.000000 0.963304
O O6 0.750000 0.250000 0.000000
O O7 0.597928 0.295942 0.888314
O O8 0.881071 0.723186 0.342836
O O9 0.899619 0.718382 0.229932
O O10 0.836395 0.000000 0.251733
O O11 0.200311 0.721572 0.305162
O O12 0.041357 0.714260 0.230860
O O13 0.115485 0.000000 0.234492
O O14 0.383280 0.500000 0.580610
O O15 0.463669 0.779926 0.598792
O O16 0.329314 0.717964 0.465612
O O17 0.317051 0.783823 0.582360
O O18 0.500000 0.216870 0.500000
O O19 0.532297 0.500000 0.584327
O O20 0.527753 0.500000 0.766066
O O21 0.248371 0.000000 0.396646
#
# Coordination Sequence:
#
# PCOD9202515 Si02
#       8
#     8   8   8   8   8   8   8   8
#     4  10  22  38  58  84 115 148 183 231 286 334
#     4  11  22  39  62  89 116 147 186 230 280 335
#     4   9  17  33  55  79 110 147 186 231 280 331
#     4  10  22  37  56  82 114 152 190 231 280 336
#     4   9  17  30  50  76 101 136 183 231 274 321
#     4   9  17  27  46  78 108 133 176 231 272 311
#     4  10  20  38  62  85 112 150 191 231 277 332
#     4   9  18  33  51  73 105 144 181 220 274 331
#
# _framework density 24.792535999999998
#
# number of rings (size 3 to 8) (size 9 to 14) (size 15 to 20)
#    0.000    2.375    1.250    1.125    1.750    5.500 
#    0.000    2.500    0.000    3.375    0.000    0.000 
#    0.000    0.000    0.000    0.000    0.000    0.000 
#
# Total GULP energy -178861.459142 kJ/mol
# GULP energy per Si atom -5589.420598 kJ/mol
# Density = 2.473611 g / cm^3
# Si number density = 24.792536 Si / 1000 Ang^3
#
#
#
# Elastic Constant Matrix: (Units=GPa)
#
#
# Indices 1 2 3 4 5 6 
#
# 1 55.5719 -8.6582 -5.7179 0.0000 -1.5820 0.0000
# 2 -8.6582 88.5926 -4.4500 0.0000 1.3704 0.0000
# 3 -5.7179 -4.4500 115.2314 0.0000 -4.5452 0.0000
# 4 0.0000 0.0000 0.0000 13.1690 0.0000 -1.0985
# 5 -1.5820 1.3704 -4.5452 0.0000 44.6973 0.0000
# 6 0.0000 0.0000 0.0000 -1.0985 0.0000 7.6080
#
#
#
# Elastic Compliance Matrix: (Units=1/GPa)
#
#
# Indices 1 2 3 4 5 6 
#
# 1 0.018405 0.001839 0.001012 0.000000 0.000698 0.000000
# 2 0.001839 0.011497 0.000526 0.000000 -0.000234 0.000000
# 3 0.001012 0.000526 0.008785 0.000000 0.000913 0.000000
# 4 0.000000 0.000000 0.000000 0.076862 0.000000 0.011098
# 5 0.000698 -0.000234 0.000913 0.000000 0.022497 0.000000
# 6 0.000000 0.000000 0.000000 0.011098 0.000000 0.133044
#
#
# Mechanical properties :
#
#
# Convention : Reuss Voigt Hill
#
# Bulk Modulus (GPa) = 22.00682 24.63820 23.32251
# Shear Modulus (GPa) = 17.89014 31.64297 24.76656
#
# Velocity S-wave (km/s) = 2.68916 3.57642 3.16405
# Velocity P-wave (km/s) = 4.30555 5.19747 4.77240
#
# Compressibility (1/GPa) = 0.04544047
#
# Stress axis : x y z
#
# Youngs Moduli (GPa) = 54.33258 86.97640 113.83396
#
# Poissons Ratio (x) = -0.15993 -0.11518
# Poissons Ratio (y) = -0.09990 -0.05988
# Poissons Ratio (z) = -0.05497 -0.04575
#
# Static dielectric constant tensor:
#      x y z
#    x 1.973530 0.000000 -0.032410 
#    y 0.000000 1.924280 0.000000 
#    z -0.032410 0.000000 1.975810 
# 
# From -- ./inp_files/320153.got.cif
#   From: 2010.05.17/outbox.cif.g08.bks.cpg/sg12_161_cif.got.tgz:320153.got - 2010.06.03 13:09:07.
