data_PCOD9202055
_publ_section_title
;
Structure prediction by ZEFSAII (Michael W. Deem and Ramdas Pophale) SiO2 
 PCOD9202055
Probable space group: C 2/M
;
_chemical_formula_sum "Si O2"
_cell_formula_units_Z 56
_cell_length_a 14.671821
_cell_length_b 9.222157
_cell_length_c 29.624783
_cell_angle_alpha 90.000000
_cell_angle_beta 54.016720
_cell_angle_gamma 90.000000
_cell_volume 3243.556028
_symmetry_space_group_name_H-M "C 2/M"
_symmetry_group_IT_number 12
_symmetry_cell_setting 'monoclinic'
loop_
_space_group_symop_operation_xyz
x,y,z
-x,y,-z
-x,-y,-z
x,-y,z
1/2+x,1/2+y,z
1/2-x,1/2+y,-z
1/2-x,1/2-y,-z
1/2+x,1/2-y,z
loop_
_atom_site_type_symbol
_atom_site_label
_atom_site_fract_x
_atom_site_fract_y
_atom_site_fract_z
Si Si1 0.054457 0.173986 0.842904
Si Si2 0.407232 0.326317 0.063520
Si Si3 0.885826 0.667018 0.561836
Si Si4 0.791413 0.672360 0.442455
Si Si5 0.826157 0.173698 0.857622
Si Si6 0.951388 0.329630 0.646983
Si Si7 0.788713 0.827099 0.763571
O O1 0.050232 0.204535 0.897881
O O2 0.166366 0.253910 0.793002
O O3 0.940279 0.217556 0.850275
O O4 0.068026 0.000000 0.833376
O O5 0.392377 0.500000 0.064248
O O6 0.286894 0.250317 0.091841
O O7 0.500000 0.280677 0.000000
O O8 0.849919 0.500000 0.563560
O O9 0.793335 0.777747 0.571532
O O10 0.909569 0.683118 0.607681
O O11 0.000000 0.689110 0.500000
O O12 0.790528 0.500000 0.449897
O O13 0.750000 0.750000 0.500000
O O14 0.917990 0.714900 0.392338
O O15 0.829558 0.205411 0.802959
O O16 0.814502 0.000000 0.866192
O O17 0.944834 0.500000 0.661496
O O18 0.876287 0.237385 0.702583
O O19 0.779458 0.000000 0.761831
#
# Coordination Sequence:
#
# PCOD9202055 Si02
#       7
#     8   8   8   8   8   8   8
#     4   9  18  35  56  75 104 145 181 215 268 324
#     4   9  18  32  51  79 112 143 178 221 266 314
#     4  10  20  38  58  78 106 139 173 212 263 322
#     4  11  22  37  57  82 109 140 177 216 263 321
#     4   9  19  35  54  76 104 142 182 220 263 313
#     4  10  22  39  57  77 108 143 173 212 271 330
#     4  10  21  36  54  78 105 132 177 229 265 308
#
# _framework density 17.265001000000002
#
# number of rings (size 3 to 8) (size 9 to 14) (size 15 to 20)
#    0.000    2.286    1.429    0.857    0.000    5.143 
#    0.000    4.286    0.000    0.000    0.000    0.000 
#    0.000    0.000    0.000    0.000    0.000    0.000 
#
# Total GULP energy -156237.852723 kJ/mol
# GULP energy per Si atom -5579.923312 kJ/mol
# Density = 1.722571 g / cm^3
# Si number density = 17.265001 Si / 1000 Ang^3
#
#
#
# Elastic Constant Matrix: (Units=GPa)
#
#
# Indices 1 2 3 4 5 6 
#
# 1 130.4849 50.3895 68.1271 0.0000 -25.2699 0.0000
# 2 50.3895 42.5293 65.0975 0.0000 -13.2156 0.0000
# 3 68.1271 65.0975 155.5811 0.0000 -25.0882 0.0000
# 4 0.0000 0.0000 0.0000 30.0336 0.0000 -4.2877
# 5 -25.2699 -13.2156 -25.0882 0.0000 16.6401 0.0000
# 6 0.0000 0.0000 0.0000 -4.2877 0.0000 30.4635
#
#
#
# Elastic Compliance Matrix: (Units=1/GPa)
#
#
# Indices 1 2 3 4 5 6 
#
# 1 0.016552 -0.021163 0.003898 0.000000 0.014205 0.000000
# 2 -0.021163 0.095064 -0.031071 0.000000 -0.003484 0.000000
# 3 0.003898 -0.031071 0.019417 0.000000 0.010518 0.000000
# 4 0.000000 0.000000 0.000000 0.033979 0.000000 0.004782
# 5 0.014205 -0.003484 0.010518 0.000000 0.094758 0.000000
# 6 0.000000 0.000000 0.000000 0.004782 0.000000 0.033499
#
#
# Mechanical properties :
#
#
# Convention : Reuss Voigt Hill
#
# Bulk Modulus (GPa) = 29.10330 77.31372 53.20851
# Shear Modulus (GPa) = 12.45653 25.09286 18.77469
#
# Velocity S-wave (km/s) = 2.68897 3.81648 3.30122
# Velocity P-wave (km/s) = 5.15113 8.01863 6.73916
#
# Compressibility (1/GPa) = 0.03436037
#
# Stress axis : x y z
#
# Youngs Moduli (GPa) = 60.41422 10.51928 51.50036
#
# Poissons Ratio (x) = 0.22262 -0.20073
# Poissons Ratio (y) = 1.27856 1.60016
# Poissons Ratio (z) = -0.23547 0.32684
#
# Static dielectric constant tensor:
#      x y z
#    x 1.577680 0.000000 0.012630 
#    y 0.000000 1.575030 0.000000 
#    z 0.012630 0.000000 1.560280 
# 
# From -- ./inp_files/337868.got.cif
#   From: 2010.05.17/outbox.cif.g08.bks.cpg/sg12_169_cif.got.tgz:337868.got - 2010.06.03 13:09:07.
