data_PCOD9202073
_publ_section_title
;
Structure prediction by ZEFSAII (Michael W. Deem and Ramdas Pophale) SiO2 
 PCOD9202073
Probable space group: C 2/M
;
_chemical_formula_sum "Si O2"
_cell_formula_units_Z 56
_cell_length_a 8.343083
_cell_length_b 30.991395
_cell_length_c 17.817115
_cell_angle_alpha 90.000000
_cell_angle_beta 39.288866
_cell_angle_gamma 90.000000
_cell_volume 2917.204579
_symmetry_space_group_name_H-M "C 2/M"
_symmetry_group_IT_number 12
_symmetry_cell_setting 'monoclinic'
loop_
_space_group_symop_operation_xyz
x,y,z
-x,y,-z
-x,-y,-z
x,-y,z
1/2+x,1/2+y,z
1/2-x,1/2+y,-z
1/2-x,1/2-y,-z
1/2+x,1/2-y,z
loop_
_atom_site_type_symbol
_atom_site_label
_atom_site_fract_x
_atom_site_fract_y
_atom_site_fract_z
Si Si1 0.500000 0.243288 0.000000
Si Si2 0.834237 0.682005 0.685969
Si Si3 0.275371 0.241242 0.364110
Si Si4 0.256289 0.375006 0.138712
Si Si5 0.132962 0.049717 0.571778
Si Si6 0.000000 0.383232 0.500000
Si Si7 0.897558 0.549364 0.312970
Si Si8 0.496615 0.802244 0.848044
O O1 0.546266 0.212490 0.913226
O O2 0.743672 0.274094 0.919908
O O3 0.663824 0.711410 0.692290
O O4 0.706195 0.657635 0.803320
O O5 0.033932 0.716120 0.649629
O O6 0.970161 0.647081 0.583727
O O7 0.282215 0.211481 0.287960
O O8 0.000000 0.244005 0.500000
O O9 0.069608 0.350584 0.148747
O O10 0.119383 0.417087 0.219285
O O11 0.500000 0.383652 0.000000
O O12 0.258805 0.085167 0.579258
O O13 0.286715 0.052542 0.437402
O O14 0.841659 0.057780 0.655213
O O15 0.156980 0.000000 0.590262
O O16 0.978732 0.500000 0.271942
#
# Coordination Sequence:
#
# PCOD9202073 Si02
#       8
#     4   8   8   8   8   4   8   8
#     4  10  20  38  58  82 104 156 202 242 298 326
#     4  11  25  39  56  85 121 159 206 241 298 346
#     4  11  23  40  55  79 116 164 192 245 299 354
#     4  11  22  40  59  87 119 155 203 255 286 351
#     4   9  19  38  64  94 124 150 188 242 304 362
#     4  12  21  36  62  96 126 154 192 250 299 356
#     4   9  19  39  64  90 120 155 191 236 302 372
#     4  10  21  37  59  79 112 149 202 247 287 346
#
# _framework density 19.196459999999998
#
# number of rings (size 3 to 8) (size 9 to 14) (size 15 to 20)
#    0.000    1.714    2.857    3.214    2.000    2.571 
#    2.571    0.000    0.000    0.000    0.000    2.500 
#    0.000    0.000    0.000    0.000    0.000    0.000 
#
# Total GULP energy -156232.812481 kJ/mol
# GULP energy per Si atom -5579.743303 kJ/mol
# Density = 1.915277 g / cm^3
# Si number density = 19.196460 Si / 1000 Ang^3
#
#
#
# Elastic Constant Matrix: (Units=GPa)
#
#
# Indices 1 2 3 4 5 6 
#
# 1 70.9901 41.3054 25.9665 0.0000 15.5377 0.0000
# 2 41.3054 110.9778 43.3313 0.0000 -4.5713 0.0000
# 3 25.9665 43.3313 112.6778 0.0000 4.3784 0.0000
# 4 0.0000 0.0000 0.0000 15.0620 0.0000 3.9571
# 5 15.5377 -4.5713 4.3784 0.0000 19.7796 0.0000
# 6 0.0000 0.0000 0.0000 3.9571 0.0000 29.2108
#
#
#
# Elastic Compliance Matrix: (Units=1/GPa)
#
#
# Indices 1 2 3 4 5 6 
#
# 1 0.024851 -0.009678 -0.001170 0.000000 -0.021500 0.000000
# 2 -0.009678 0.014601 -0.003844 0.000000 0.011828 0.000000
# 3 -0.001170 -0.003844 0.010714 0.000000 -0.002341 0.000000
# 4 0.000000 0.000000 0.000000 0.068842 0.000000 -0.009326
# 5 -0.021500 0.011828 -0.002341 0.000000 0.070698 0.000000
# 6 0.000000 0.000000 0.000000 -0.009326 0.000000 0.035497
#
#
# Mechanical properties :
#
#
# Convention : Reuss Voigt Hill
#
# Bulk Modulus (GPa) = 48.11937 57.31690 52.71813
# Shear Modulus (GPa) = 19.11929 25.07999 22.09964
#
# Velocity S-wave (km/s) = 3.15934 3.61846 3.39667
# Velocity P-wave (km/s) = 6.19918 6.88335 6.55020
#
# Compressibility (1/GPa) = 0.02078165
#
# Stress axis : x y z
#
# Youngs Moduli (GPa) = 40.23923 68.48694 93.33816
#
# Poissons Ratio (x) = 0.66285 0.10917
# Poissons Ratio (y) = 0.38945 0.35882
# Poissons Ratio (z) = 0.04706 0.26328
#
# Static dielectric constant tensor:
#      x y z
#    x 1.749120 0.000000 -0.003230 
#    y 0.000000 1.681710 0.000000 
#    z -0.003230 0.000000 1.668200 
# 
# From -- ./inp_files/260137.got.cif
#   From: 2010.05.17/outbox.cif.g08.bks.cpg/sg12_131_cif.got.tgz:260137.got - 2010.06.03 13:09:07.
