data_PCOD9202285
_publ_section_title
;
Structure prediction by ZEFSAII (Michael W. Deem and Ramdas Pophale) SiO2 
 PCOD9202285
Probable space group: C 2/M
;
_chemical_formula_sum "Si O2"
_cell_formula_units_Z 58
_cell_length_a 15.423902
_cell_length_b 22.202043
_cell_length_c 8.863196
_cell_angle_alpha 90.000000
_cell_angle_beta 104.506653
_cell_angle_gamma 90.000000
_cell_volume 2938.367395
_symmetry_space_group_name_H-M "C 2/M"
_symmetry_group_IT_number 12
_symmetry_cell_setting 'monoclinic'
loop_
_space_group_symop_operation_xyz
x,y,z
-x,y,-z
-x,-y,-z
x,-y,z
1/2+x,1/2+y,z
1/2-x,1/2+y,-z
1/2-x,1/2-y,-z
1/2+x,1/2-y,z
loop_
_atom_site_type_symbol
_atom_site_label
_atom_site_fract_x
_atom_site_fract_y
_atom_site_fract_z
Si Si1 0.925955 0.667625 0.092827
Si Si2 0.149894 0.564365 0.742195
Si Si3 0.161114 0.100975 0.033321
Si Si4 0.535243 0.233675 0.357364
Si Si5 0.332983 0.870409 0.539227
Si Si6 0.796064 0.208242 0.727346
Si Si7 0.500000 0.500000 0.000000
Si Si8 0.251730 0.163815 0.812547
O O1 0.907219 0.616999 0.208306
O O2 0.960249 0.726080 0.197011
O O3 0.833659 0.673731 0.964243
O O4 0.000000 0.651923 0.000000
O O5 0.110826 0.500000 0.764127
O O6 0.248615 0.569829 0.860370
O O7 0.154630 0.572859 0.563779
O O8 0.162833 0.163777 0.129038
O O9 0.078981 0.054354 0.015721
O O10 0.178220 0.125110 0.870087
O O11 0.500000 0.257782 0.500000
O O12 0.575906 0.166890 0.401737
O O13 0.619385 0.268839 0.329526
O O14 0.268293 0.829414 0.408020
O O15 0.287546 0.873365 0.683236
O O16 0.739029 0.266795 0.755049
#
# Coordination Sequence:
#
# PCOD9202285 Si02
#       8
#     8   8   8   8   8   8   2   8
#     4  11  20  34  59  87 126 159 193 250 304 367
#     4  10  21  40  61  80 118 168 205 244 300 374
#     4  10  23  41  65  88 117 164 216 259 319 357
#     4  11  20  36  58  90 130 159 191 246 319 380
#     4  10  20  38  60  87 123 165 203 247 316 387
#     4  10  21  39  61  92 125 165 200 258 320 392
#     4  12  24  48  64  86 130 170 222 278 294 376
#     4  10  20  38  64  96 124 155 203 260 326 383
#
# _framework density 19.738852000000001
#
# number of rings (size 3 to 8) (size 9 to 14) (size 15 to 20)
#    0.000    1.655    4.828    2.069    0.000    1.379 
#    8.690    1.379    0.000    3.310    0.000    0.000 
#    0.000    0.000    0.000    0.000    0.000    0.000 
#
# Total GULP energy -161434.787198 kJ/mol
# GULP energy per Si atom -5566.716800 kJ/mol
# Density = 1.969393 g / cm^3
# Si number density = 19.738852 Si / 1000 Ang^3
#
#
#
# Elastic Constant Matrix: (Units=GPa)
#
#
# Indices 1 2 3 4 5 6 
#
# 1 95.0412 20.3586 24.8475 0.0000 -13.4195 0.0000
# 2 20.3586 48.1432 12.8661 0.0000 -12.6607 0.0000
# 3 24.8475 12.8661 92.5965 0.0000 -22.0558 0.0000
# 4 0.0000 0.0000 0.0000 29.0609 0.0000 -40.0839
# 5 -13.4195 -12.6607 -22.0558 0.0000 28.8614 0.0000
# 6 0.0000 0.0000 0.0000 -40.0839 0.0000 84.6657
#
#
#
# Elastic Compliance Matrix: (Units=1/GPa)
#
#
# Indices 1 2 3 4 5 6 
#
# 1 0.012275 -0.004006 -0.002196 0.000000 0.002272 0.000000
# 2 -0.004006 0.024862 -0.000276 0.000000 0.008833 0.000000
# 3 -0.002196 -0.000276 0.013638 0.000000 0.009280 0.000000
# 4 0.000000 0.000000 0.000000 0.099171 0.000000 0.046951
# 5 0.002272 0.008833 0.009280 0.000000 0.046671 0.000000
# 6 0.000000 0.000000 0.000000 0.046951 0.000000 0.034040
#
#
# Mechanical properties :
#
#
# Convention : Reuss Voigt Hill
#
# Bulk Modulus (GPa) = 26.44218 39.10282 32.77250
# Shear Modulus (GPa) = 19.51460 40.36482 29.93971
#
# Velocity S-wave (km/s) = 3.14767 4.52701 3.89883
# Velocity P-wave (km/s) = 5.16097 6.86864 6.07510
#
# Compressibility (1/GPa) = 0.03781836
#
# Stress axis : x y z
#
# Youngs Moduli (GPa) = 81.46738 40.22182 73.32712
#
# Poissons Ratio (x) = 0.16115 0.16103
# Poissons Ratio (y) = 0.32640 0.02020
# Poissons Ratio (z) = 0.17891 0.01108
#
# Static dielectric constant tensor:
#      x y z
#    x 1.708640 0.000000 -0.005390 
#    y 0.000000 1.696600 0.000000 
#    z -0.005390 0.000000 1.755000 
# 
# From -- ./inp_files/65402.got.cif
#   From: 2010.05.17/outbox.cif.g08.bks.cpg/sg12_33_cif.got.tgz:65402.got - 2010.06.03 13:09:07.
