data_PCOD9202314
_publ_section_title
;
Structure prediction by ZEFSAII (Michael W. Deem and Ramdas Pophale) SiO2 
 PCOD9202314
Probable space group: C 2/M
;
_chemical_formula_sum "Si O2"
_cell_formula_units_Z 50
_cell_length_a 21.390028
_cell_length_b 7.811852
_cell_length_c 17.017585
_cell_angle_alpha 90.000000
_cell_angle_beta 132.081951
_cell_angle_gamma 90.000000
_cell_volume 2110.457595
_symmetry_space_group_name_H-M "C 2/M"
_symmetry_group_IT_number 12
_symmetry_cell_setting 'monoclinic'
loop_
_space_group_symop_operation_xyz
x,y,z
-x,y,-z
-x,-y,-z
x,-y,z
1/2+x,1/2+y,z
1/2-x,1/2+y,-z
1/2-x,1/2-y,-z
1/2+x,1/2-y,z
loop_
_atom_site_type_symbol
_atom_site_label
_atom_site_fract_x
_atom_site_fract_y
_atom_site_fract_z
Si Si1 0.801449 0.295735 0.427856
Si Si2 0.000000 0.000000 0.000000
Si Si3 0.840351 0.703766 0.163707
Si Si4 0.585499 0.209600 0.614826
Si Si5 0.148795 0.189895 0.003301
Si Si6 0.123691 0.794869 0.348652
Si Si7 0.524844 0.817040 0.123458
O O1 0.793823 0.500000 0.415479
O O2 0.837964 0.232334 0.376527
O O3 0.867231 0.257770 0.553310
O O4 0.710538 0.232326 0.379852
O O5 0.048913 0.847162 0.093261
O O6 0.852756 0.500000 0.158368
O O7 0.901078 0.763586 0.284221
O O8 0.846490 0.803460 0.087418
O O9 0.743286 0.718843 0.111107
O O10 0.500000 0.262904 0.500000
O O11 0.586142 0.000000 0.617100
O O12 0.076274 0.317059 0.965207
O O13 0.117092 0.000000 0.003167
O O14 0.049720 0.715875 0.234982
O O15 0.118902 0.000000 0.341107
O O16 0.559404 0.000000 0.127526
#
# Coordination Sequence:
#
# PCOD9202314 Si02
#       7
#     8   2   8   8   8   8   8
#     4   9  19  35  59  91 126 171 219 261 323 388
#     4  12  26  48  60  98 132 158 216 264 328 386
#     4   9  19  35  59  91 126 171 219 261 323 388
#     4   9  18  33  55  90 124 161 209 266 319 376
#     4  10  20  38  60  91 128 171 215 266 318 384
#     4  10  20  38  60  91 128 171 215 266 318 384
#     4  12  25  43  69  95 128 170 216 270 330 388
#
# _framework density 23.691544
#
# number of rings (size 3 to 8) (size 9 to 14) (size 15 to 20)
#    0.000    2.080    1.600    1.200    2.240    2.560 
#    2.880    0.800    0.000    0.960    0.000    0.000 
#    0.000    0.000    0.000    0.000    0.000    0.000 
#
# Total GULP energy -139512.170035 kJ/mol
# GULP energy per Si atom -5580.486801 kJ/mol
# Density = 2.363762 g / cm^3
# Si number density = 23.691544 Si / 1000 Ang^3
#
#
#
# Elastic Constant Matrix: (Units=GPa)
#
#
# Indices 1 2 3 4 5 6 
#
# 1 24.3545 10.5113 -5.2118 0.0000 -5.0888 0.0000
# 2 10.5113 89.4504 4.5303 0.0000 2.1453 0.0000
# 3 -5.2118 4.5303 89.4370 0.0000 -3.6302 0.0000
# 4 0.0000 0.0000 0.0000 20.8275 0.0000 -6.4260
# 5 -5.0888 2.1453 -3.6302 0.0000 27.1176 0.0000
# 6 0.0000 0.0000 0.0000 -6.4260 0.0000 15.1446
#
#
#
# Elastic Compliance Matrix: (Units=1/GPa)
#
#
# Indices 1 2 3 4 5 6 
#
# 1 0.046314 -0.005844 0.003385 0.000000 0.009607 0.000000
# 2 -0.005844 0.011971 -0.001036 0.000000 -0.002182 0.000000
# 3 0.003385 -0.001036 0.011522 0.000000 0.002260 0.000000
# 4 0.000000 0.000000 0.000000 0.055246 0.000000 0.023441
# 5 0.009607 -0.002182 0.002260 0.000000 0.039154 0.000000
# 6 0.000000 0.000000 0.000000 0.023441 0.000000 0.075976
#
#
# Mechanical properties :
#
#
# Convention : Reuss Voigt Hill
#
# Bulk Modulus (GPa) = 15.91904 24.76683 20.34294
# Shear Modulus (GPa) = 18.64882 25.51206 22.08044
#
# Velocity S-wave (km/s) = 2.80866 3.28509 3.05617
# Velocity P-wave (km/s) = 4.15355 4.98655 4.58899
#
# Compressibility (1/GPa) = 0.06281787
#
# Stress axis : x y z
#
# Youngs Moduli (GPa) = 21.59163 83.53575 86.78697
#
# Poissons Ratio (x) = 0.48820 -0.29376
# Poissons Ratio (y) = 0.12619 0.08987
# Poissons Ratio (z) = -0.07308 0.08650
#
# Static dielectric constant tensor:
#      x y z
#    x 1.682900 0.000000 -0.008280 
#    y 0.000000 1.868290 0.000000 
#    z -0.008280 0.000000 1.889360 
# 
# From -- ./inp_files/292283.got.cif
#   From: 2010.05.17/outbox.cif.g08.bks.cpg/sg12_147_cif.got.tgz:292283.got - 2010.06.03 13:09:07.
