data_PCOD9202511
_publ_section_title
;
Structure prediction by ZEFSAII (Michael W. Deem and Ramdas Pophale) SiO2 
 PCOD9202511
Probable space group: C 2/M
;
_chemical_formula_sum "Si O2"
_cell_formula_units_Z 52
_cell_length_a 9.186648
_cell_length_b 13.153891
_cell_length_c 25.493790
_cell_angle_alpha 90.000000
_cell_angle_beta 114.637095
_cell_angle_gamma 90.000000
_cell_volume 2800.229016
_symmetry_space_group_name_H-M "C 2/M"
_symmetry_group_IT_number 12
_symmetry_cell_setting 'monoclinic'
loop_
_space_group_symop_operation_xyz
x,y,z
-x,y,-z
-x,-y,-z
x,-y,z
1/2+x,1/2+y,z
1/2-x,1/2+y,-z
1/2-x,1/2-y,-z
1/2+x,1/2-y,z
loop_
_atom_site_type_symbol
_atom_site_label
_atom_site_fract_x
_atom_site_fract_y
_atom_site_fract_z
Si Si1 0.820216 0.380475 0.561468
Si Si2 0.826568 0.764183 0.759900
Si Si3 0.002567 0.620339 0.300230
Si Si4 0.500000 0.750315 0.500000
Si Si5 0.426511 0.219987 0.043320
Si Si6 0.652798 0.885855 0.143347
Si Si7 0.965638 0.884075 0.128652
O O1 0.799565 0.500000 0.544263
O O2 0.650266 0.321611 0.537720
O O3 0.933250 0.322046 0.536635
O O4 0.903495 0.376195 0.630744
O O5 0.672139 0.828263 0.719471
O O6 0.790441 0.688592 0.802710
O O7 0.905003 0.692620 0.727443
O O8 0.947859 0.841669 0.806605
O O9 0.991260 0.500000 0.282753
O O10 0.474810 0.139201 0.095317
O O11 0.503576 0.319356 0.082628
O O12 0.500000 0.185879 0.000000
O O13 0.250000 0.250000 0.000000
O O14 0.777260 0.875032 0.114008
O O15 0.660896 0.000000 0.164045
O O16 0.008478 0.000000 0.127018
#
# Coordination Sequence:
#
# PCOD9202511 Si02
#       7
#     8   8   8   4   8   8   8
#     4  10  21  37  59  89 120 158 204 246 293 347
#     4  11  21  40  58  85 118 152 191 240 291 353
#     4  11  23  38  60  90 123 156 196 247 297 344
#     4  10  20  38  62  84 120 166 202 246 294 342
#     4  11  22  37  55  80 108 137 177 231 281 340
#     4  10  21  37  59  81 106 149 190 226 286 352
#     4  10  21  37  58  81 107 144 187 230 284 344
#
# _framework density 18.569908999999999
#
# number of rings (size 3 to 8) (size 9 to 14) (size 15 to 20)
#    0.000    1.538    3.077    2.308    0.000    1.231 
#    0.000    1.538    0.000    7.385    0.000    0.000 
#    0.000    0.000    0.000    0.000    0.000    0.000 
#
# Total GULP energy -144852.584734 kJ/mol
# GULP energy per Si atom -5571.253259 kJ/mol
# Density = 1.852764 g / cm^3
# Si number density = 18.569909 Si / 1000 Ang^3
#
#
#
# Elastic Constant Matrix: (Units=GPa)
#
#
# Indices 1 2 3 4 5 6 
#
# 1 54.6851 24.7882 25.0047 0.0000 17.4666 0.0000
# 2 24.7882 127.4256 46.4758 0.0000 7.4419 0.0000
# 3 25.0047 46.4758 95.0718 0.0000 14.1935 0.0000
# 4 0.0000 0.0000 0.0000 18.6658 0.0000 -1.6445
# 5 17.4666 7.4419 14.1935 0.0000 29.5587 0.0000
# 6 0.0000 0.0000 0.0000 -1.6445 0.0000 26.9248
#
#
#
# Elastic Compliance Matrix: (Units=1/GPa)
#
#
# Indices 1 2 3 4 5 6 
#
# 1 0.025134 -0.002956 -0.003296 0.000000 -0.012525 0.000000
# 2 -0.002956 0.009899 -0.004255 0.000000 0.001298 0.000000
# 3 -0.003296 -0.004255 0.014020 0.000000 -0.003713 0.000000
# 4 0.000000 0.000000 0.000000 0.053864 0.000000 0.003290
# 5 -0.012525 0.001298 -0.003713 0.000000 0.042689 0.000000
# 6 0.000000 0.000000 0.000000 0.003290 0.000000 0.037341
#
#
# Mechanical properties :
#
#
# Convention : Reuss Voigt Hill
#
# Bulk Modulus (GPa) = 35.66466 52.19109 43.92788
# Shear Modulus (GPa) = 23.44048 27.09079 25.26563
#
# Velocity S-wave (km/s) = 3.55672 3.82364 3.69259
# Velocity P-wave (km/s) = 6.00952 6.90361 6.47202
#
# Compressibility (1/GPa) = 0.02803896
#
# Stress axis : x y z
#
# Youngs Moduli (GPa) = 39.78703 101.02019 71.32788
#
# Poissons Ratio (x) = 0.29860 0.23506
# Poissons Ratio (y) = 0.11760 0.30353
# Poissons Ratio (z) = 0.13112 0.42989
#
# Static dielectric constant tensor:
#      x y z
#    x 1.683670 0.000000 0.014870 
#    y 0.000000 1.642320 0.000000 
#    z 0.014870 0.000000 1.634900 
# 
# From -- ./inp_files/332726.got.cif
#   From: 2010.05.17/outbox.cif.g08.bks.cpg/sg12_167_cif.got.tgz:332726.got - 2010.06.03 13:09:07.
