data_PCOD9202292
_publ_section_title
;
Structure prediction by ZEFSAII (Michael W. Deem and Ramdas Pophale) SiO2 
 PCOD9202292
Probable space group: C 2/M
;
_chemical_formula_sum "Si O2"
_cell_formula_units_Z 40
_cell_length_a 18.851062
_cell_length_b 15.346980
_cell_length_c 16.360029
_cell_angle_alpha 90.000000
_cell_angle_beta 157.640028
_cell_angle_gamma 90.000000
_cell_volume 1800.574751
_symmetry_space_group_name_H-M "C 2/M"
_symmetry_group_IT_number 12
_symmetry_cell_setting 'monoclinic'
loop_
_space_group_symop_operation_xyz
x,y,z
-x,y,-z
-x,-y,-z
x,-y,z
1/2+x,1/2+y,z
1/2-x,1/2+y,-z
1/2-x,1/2-y,-z
1/2+x,1/2-y,z
loop_
_atom_site_type_symbol
_atom_site_label
_atom_site_fract_x
_atom_site_fract_y
_atom_site_fract_z
Si Si1 0.587067 0.907932 0.683652
Si Si2 0.577048 0.719554 0.675221
Si Si3 0.823162 0.099699 0.510370
Si Si4 0.963301 0.905331 0.844961
Si Si5 0.490777 0.212461 0.899762
O O1 0.500000 0.908503 0.500000
O O2 0.529174 0.815797 0.659579
O O3 0.534882 0.000000 0.669227
O O4 0.811326 0.906992 0.915436
O O5 0.500000 0.715181 0.500000
O O6 0.485125 0.644323 0.629743
O O7 0.799979 0.714176 0.910716
O O8 0.643413 0.158370 0.301258
O O9 0.887350 0.099343 0.672292
O O10 0.790796 0.000000 0.450721
O O11 0.913299 0.811571 0.829081
O O12 0.901384 0.000000 0.814218
O O13 0.500000 0.172239 0.000000
#
# Coordination Sequence:
#
# PCOD9202292 Si02
#       5
#     8   8   8   8   8
#     4   8  15  30  56  85 116 150 186 236 291 353
#     4  10  20  38  60  88 120 156 204 244 301 353
#     4  11  24  41  61  87 122 161 205 253 297 347
#     4   9  20  39  62  90 123 157 194 248 309 359
#     4  11  22  39  63  91 122 157 202 247 297 363
#
# _framework density 22.215128
#
# number of rings (size 3 to 8) (size 9 to 14) (size 15 to 20)
#    0.000    2.200    2.000    0.600    0.000    5.200 
#    0.000    1.000    0.000    8.400    0.000    0.000 
#    0.000    0.000    0.000    0.000    0.000    0.000 
#
# Total GULP energy -111738.396307 kJ/mol
# GULP energy per Si atom -5586.919815 kJ/mol
# Density = 2.216457 g / cm^3
# Si number density = 22.215128 Si / 1000 Ang^3
#
#
#
# Elastic Constant Matrix: (Units=GPa)
#
#
# Indices 1 2 3 4 5 6 
#
# 1 45.8030 28.7059 32.3848 -0.0009 -11.3170 -0.0001
# 2 28.7059 158.6286 54.3148 -0.0005 -8.9170 0.0013
# 3 32.3848 54.3148 165.8043 -0.0016 1.3156 -0.0011
# 4 -0.0009 -0.0005 -0.0016 30.1372 -0.0012 -5.3405
# 5 -11.3170 -8.9170 1.3156 -0.0012 38.9795 -0.0002
# 6 -0.0001 0.0013 -0.0011 -5.3405 -0.0002 22.3661
#
#
#
# Elastic Compliance Matrix: (Units=1/GPa)
#
#
# Indices 1 2 3 4 5 6 
#
# 1 0.029115 -0.003219 -0.004695 0.000001 0.007875 0.000000
# 2 -0.003219 0.007571 -0.001858 0.000000 0.000860 -0.000001
# 3 -0.004695 -0.001858 0.007573 0.000000 -0.002044 0.000001
# 4 0.000001 0.000000 0.000000 0.034648 0.000001 0.008273
# 5 0.007875 0.000860 -0.002044 0.000001 0.028207 0.000000
# 6 0.000000 -0.000001 0.000001 0.008273 0.000000 0.046686
#
#
# Mechanical properties :
#
#
# Convention : Reuss Voigt Hill
#
# Bulk Modulus (GPa) = 40.45989 66.78301 53.62145
# Shear Modulus (GPa) = 27.53579 35.28525 31.41052
#
# Velocity S-wave (km/s) = 3.52448 3.98973 3.76430
# Velocity P-wave (km/s) = 5.90042 7.16597 6.56377
#
# Compressibility (1/GPa) = 0.02471584
#
# Stress axis : x y z
#
# Youngs Moduli (GPa) = 34.34648 132.08057 132.04463
#
# Poissons Ratio (x) = 0.42510 0.61994
# Poissons Ratio (y) = 0.11054 0.24539
# Poissons Ratio (z) = 0.16125 0.24545
#
# Static dielectric constant tensor:
#      x y z
#    x 1.816260 0.000000 0.028500 
#    y 0.000000 1.857550 0.000000 
#    z 0.028500 0.000000 1.820580 
# 
# From -- ./inp_files/103872.got.cif
#   From: 2010.05.17/outbox.cif.g08.bks.cpg/sg12_52_cif.got.tgz:103872.got - 2010.06.03 13:09:07.
