data_PCOD9202135
_publ_section_title
;
Structure prediction by ZEFSAII (Michael W. Deem and Ramdas Pophale) SiO2 
 PCOD9202135
Probable space group: C 2/M
;
_chemical_formula_sum "Si O2"
_cell_formula_units_Z 64
_cell_length_a 15.229632
_cell_length_b 15.265020
_cell_length_c 17.650032
_cell_angle_alpha 90.000000
_cell_angle_beta 49.858415
_cell_angle_gamma 90.000000
_cell_volume 3136.775736
_symmetry_space_group_name_H-M "C 2/M"
_symmetry_group_IT_number 12
_symmetry_cell_setting 'monoclinic'
loop_
_space_group_symop_operation_xyz
x,y,z
-x,y,-z
-x,-y,-z
x,-y,z
1/2+x,1/2+y,z
1/2-x,1/2+y,-z
1/2-x,1/2-y,-z
1/2+x,1/2-y,z
loop_
_atom_site_type_symbol
_atom_site_label
_atom_site_fract_x
_atom_site_fract_y
_atom_site_fract_z
Si Si1 0.185054 0.338898 0.175392
Si Si2 0.117070 0.597359 0.480975
Si Si3 0.806856 0.126511 0.250140
Si Si4 0.590068 0.902723 0.073499
Si Si5 0.923138 0.707576 0.357164
Si Si6 0.261461 0.363787 0.847026
Si Si7 0.025334 0.904004 0.722536
Si Si8 0.648552 0.170798 0.764255
O O1 0.261362 0.394171 0.191894
O O2 0.168278 0.380268 0.102443
O O3 0.235065 0.240998 0.139922
O O4 0.056258 0.324828 0.280837
O O5 0.110262 0.500000 0.520530
O O6 0.217392 0.596822 0.363616
O O7 0.130358 0.673099 0.535528
O O8 0.000000 0.612233 0.500000
O O9 0.929081 0.098940 0.216123
O O10 0.807099 0.231092 0.251708
O O11 0.482234 0.837612 0.133503
O O12 0.540822 0.000000 0.111328
O O13 0.665113 0.899454 0.956617
O O14 0.927252 0.813299 0.341797
O O15 0.861227 0.659895 0.320542
O O16 0.388383 0.397394 0.794124
O O17 0.226927 0.382521 0.779059
O O18 0.060964 0.000000 0.671256
#
# Coordination Sequence:
#
# PCOD9202135 Si02
#       8
#     8   8   8   8   8   8   8   8
#     4   9  19  36  58  84 113 151 190 244 310 355
#     4  11  22  36  64  96 119 146 189 249 309 356
#     4  10  20  39  60  84 116 151 191 239 296 361
#     4  11  22  35  57  89 119 147 197 259 299 339
#     4   9  19  38  59  89 119 146 192 249 298 350
#     4  10  20  38  59  81 115 160 207 241 285 346
#     4  10  21  36  58  83 118 168 203 229 283 359
#     4   9  21  37  59  83 113 157 193 240 298 343
#
# _framework density 20.403117000000002
#
# number of rings (size 3 to 8) (size 9 to 14) (size 15 to 20)
#    0.000    2.125    1.250    2.250    0.000    6.500 
#    0.000    1.875    0.000    2.625    0.000    0.000 
#    0.000    0.000    0.000    0.000    0.000    0.000 
#
# Total GULP energy -178406.166981 kJ/mol
# GULP energy per Si atom -5575.192718 kJ/mol
# Density = 2.035668 g / cm^3
# Si number density = 20.403117 Si / 1000 Ang^3
#
#
#
# Elastic Constant Matrix: (Units=GPa)
#
#
# Indices 1 2 3 4 5 6 
#
# 1 140.8070 21.5049 20.6912 0.0000 5.6468 0.0000
# 2 21.5049 86.0192 25.2285 0.0000 15.1351 0.0000
# 3 20.6912 25.2285 39.4303 0.0000 7.8382 0.0000
# 4 0.0000 0.0000 0.0000 -7.2427 0.0000 -23.6196
# 5 5.6468 15.1351 7.8382 0.0000 19.1543 0.0000
# 6 0.0000 0.0000 0.0000 -23.6196 0.0000 -83.7091
#
#
#
# Elastic Compliance Matrix: (Units=1/GPa)
#
#
# Indices 1 2 3 4 5 6 
#
# 1 0.007754 -0.000894 -0.003465 0.000000 -0.000162 0.000000
# 2 -0.000894 0.015714 -0.007804 0.000000 -0.008960 0.000000
# 3 -0.003465 -0.007804 0.033466 0.000000 -0.006507 0.000000
# 4 0.000000 0.000000 0.000000 -1.729529 0.000000 0.488008
# 5 -0.000162 -0.008960 -0.006507 0.000000 0.061998 0.000000
# 6 0.000000 0.000000 0.000000 0.488008 0.000000 -0.149644
#
#
# Mechanical properties :
#
#
# Convention : Reuss Voigt Hill
#
# Bulk Modulus (GPa) = 30.66684 44.56731 37.61707
# Shear Modulus (GPa) = -2.89848 -1.10405 -2.00126
#
# Velocity S-wave (km/s) = -1.19318 -0.73641 -0.99146
# Velocity P-wave (km/s) = 3.62834 4.60084 4.14322
#
# Compressibility (1/GPa) = 0.03260851
#
# Stress axis : x y z
#
# Youngs Moduli (GPa) = 128.96433 63.63699 29.88086
#
# Poissons Ratio (x) = 0.05688 0.10353
# Poissons Ratio (y) = 0.11527 0.23320
# Poissons Ratio (z) = 0.44685 0.49664
#
# Static dielectric constant tensor:
#      x y z
#    x 1.771050 0.000000 0.005910 
#    y 0.000000 1.764890 0.000000 
#    z 0.005910 0.000000 1.683380 
# 
# From -- ./inp_files/270647.got.cif
#   From: 2010.05.17/outbox.cif.g08.bks.cpg/sg12_136_cif.got.tgz:270647.got - 2010.06.03 13:09:07.
