data_PCOD9202590
_publ_section_title
;
Structure prediction by ZEFSAII (Michael W. Deem and Ramdas Pophale) SiO2 
 PCOD9202590
Probable space group: C 2/M
;
_chemical_formula_sum "Si O2"
_cell_formula_units_Z 48
_cell_length_a 8.851461
_cell_length_b 17.033897
_cell_length_c 22.264456
_cell_angle_alpha 90.000000
_cell_angle_beta 37.917837
_cell_angle_gamma 90.000000
_cell_volume 2062.931162
_symmetry_space_group_name_H-M "C 2/M"
_symmetry_group_IT_number 12
_symmetry_cell_setting 'monoclinic'
loop_
_space_group_symop_operation_xyz
x,y,z
-x,y,-z
-x,-y,-z
x,-y,z
1/2+x,1/2+y,z
1/2-x,1/2+y,-z
1/2-x,1/2-y,-z
1/2+x,1/2-y,z
loop_
_atom_site_type_symbol
_atom_site_label
_atom_site_fract_x
_atom_site_fract_y
_atom_site_fract_z
Si Si1 0.742839 0.404710 0.958793
Si Si2 0.620062 0.411495 0.129423
Si Si3 0.432811 0.123455 0.710822
Si Si4 0.724578 0.089632 0.733989
Si Si5 0.971909 0.795902 0.734411
Si Si6 0.468879 0.187620 0.441246
O O1 0.732892 0.500000 0.960444
O O2 0.985956 0.382148 0.846706
O O3 0.744720 0.384370 0.028405
O O4 0.500000 0.375986 0.000000
O O5 0.707861 0.500000 0.118784
O O6 0.328657 0.418678 0.206674
O O7 0.632134 0.346910 0.177829
O O8 0.632158 0.092501 0.694981
O O9 0.362431 0.211706 0.754480
O O10 0.544434 0.125763 0.608878
O O11 0.938813 0.146880 0.687671
O O12 0.784051 0.000000 0.731415
O O13 0.258272 0.777225 0.655140
O O14 0.500000 0.159340 0.500000
O O15 0.250000 0.250000 0.500000
#
# Coordination Sequence:
#
# PCOD9202590 Si02
#       6
#     8   8   8   8   8   8
#     4   9  17  34  60  90 124 180 234 254 286 383
#     4  10  20  38  62  88 128 177 221 259 307 366
#     4  11  22  39  64  99 124 163 217 265 318 386
#     4  11  22  40  67  95 134 178 218 260 319 378
#     4  11  24  39  60 101 130 157 214 274 326 379
#     4  11  23  41  68  96 117 160 213 264 313 404
#
# _framework density 23.267863999999999
#
# number of rings (size 3 to 8) (size 9 to 14) (size 15 to 20)
#    0.000    1.500    3.333    3.000    0.000    0.667 
#    0.000    7.500    0.000   19.000    0.000    0.000 
#    0.000    0.000    0.000    0.000    0.000    0.000 
#
# Total GULP energy -134112.602855 kJ/mol
# GULP energy per Si atom -5588.025119 kJ/mol
# Density = 2.321491 g / cm^3
# Si number density = 23.267864 Si / 1000 Ang^3
#
#
#
# Elastic Constant Matrix: (Units=GPa)
#
#
# Indices 1 2 3 4 5 6 
#
# 1 159.0690 32.3277 41.5510 -0.0016 19.4305 0.0277
# 2 32.3277 100.3372 14.0012 0.0130 -3.9658 -0.0521
# 3 41.5510 14.0012 89.1711 -0.0413 2.1599 0.4636
# 4 -0.0016 0.0130 -0.0413 13.2068 -0.0107 -5.6956
# 5 19.4305 -3.9658 2.1599 -0.0107 52.2717 0.1137
# 6 0.0277 -0.0521 0.4636 -5.6956 0.1137 68.6756
#
#
#
# Elastic Compliance Matrix: (Units=1/GPa)
#
#
# Indices 1 2 3 4 5 6 
#
# 1 0.007964 -0.002225 -0.003289 0.000000 -0.002993 0.000022
# 2 -0.002225 0.010848 -0.000707 -0.000007 0.001679 0.000011
# 3 -0.003289 -0.000707 0.012843 0.000004 0.000638 -0.000087
# 4 0.000000 -0.000007 0.000004 0.078527 0.000001 0.006513
# 5 -0.002993 0.001679 0.000638 0.000001 0.020345 -0.000035
# 6 0.000022 0.000011 -0.000087 0.006513 -0.000035 0.015102
#
#
# Mechanical properties :
#
#
# Convention : Reuss Voigt Hill
#
# Bulk Modulus (GPa) = 52.05033 58.25968 55.15501
# Shear Modulus (GPa) = 30.39964 44.21066 37.30515
#
# Velocity S-wave (km/s) = 3.61849 4.36371 4.00846
# Velocity P-wave (km/s) = 6.31479 7.10509 6.72157
#
# Compressibility (1/GPa) = 0.01921217
#
# Stress axis : x y z
#
# Youngs Moduli (GPa) = 125.57220 92.17966 77.86335
#
# Poissons Ratio (x) = 0.20511 0.25609
# Poissons Ratio (y) = 0.27941 0.05507
# Poissons Ratio (z) = 0.41301 0.06519
#
# Static dielectric constant tensor:
#      x y z
#    x 1.948690 0.000150 0.019490 
#    y 0.000150 2.201020 0.000000 
#    z 0.019490 0.000000 1.890220 
# 
# From -- ./inp_files/373070.got.cif
#   From: 2010.05.17/outbox.cif.g08.bks.cpg/sg12_187_cif.got.tgz:373070.got - 2010.06.03 13:09:07.
