data_PCOD9202456
_publ_section_title
;
Structure prediction by ZEFSAII (Michael W. Deem and Ramdas Pophale) SiO2 
 PCOD9202456
Probable space group: C 2/M
;
_chemical_formula_sum "Si O2"
_cell_formula_units_Z 56
_cell_length_a 15.511955
_cell_length_b 20.785813
_cell_length_c 8.119066
_cell_angle_alpha 90.000000
_cell_angle_beta 69.664829
_cell_angle_gamma 90.000000
_cell_volume 2454.665550
_symmetry_space_group_name_H-M "C 2/M"
_symmetry_group_IT_number 12
_symmetry_cell_setting 'monoclinic'
loop_
_space_group_symop_operation_xyz
x,y,z
-x,y,-z
-x,-y,-z
x,-y,z
1/2+x,1/2+y,z
1/2-x,1/2+y,-z
1/2-x,1/2-y,-z
1/2+x,1/2-y,z
loop_
_atom_site_type_symbol
_atom_site_label
_atom_site_fract_x
_atom_site_fract_y
_atom_site_fract_z
Si Si1 0.105201 0.925825 0.363403
Si Si2 0.920445 0.573547 0.296096
Si Si3 0.665704 0.204219 0.086815
Si Si4 0.859654 0.758314 0.233670
Si Si5 0.122113 0.573661 0.065647
Si Si6 0.542456 0.699794 0.295176
Si Si7 0.253706 0.853775 0.503390
O O1 0.094766 0.868569 0.232453
O O2 0.177833 0.894932 0.448045
O O3 0.000000 0.933418 0.500000
O O4 0.134594 0.000000 0.300179
O O5 0.930056 0.500000 0.338377
O O6 0.845614 0.604325 0.465148
O O7 0.024802 0.597656 0.208131
O O8 0.884986 0.574744 0.129090
O O9 0.688836 0.129981 0.074820
O O10 0.608680 0.238731 0.265542
O O11 0.750000 0.250000 0.000000
O O12 0.613134 0.223228 0.953292
O O13 0.794817 0.821140 0.306842
O O14 0.798865 0.703653 0.364994
O O15 0.955668 0.782357 0.243139
O O16 0.139909 0.500000 0.100885
O O17 0.500000 0.691154 0.500000
#
# Coordination Sequence:
#
# PCOD9202456 Si02
#       7
#     8   8   8   8   8   8   8
#     4  10  20  38  61  90 124 162 215 269 308 378
#     4   9  17  31  58  91 117 151 207 264 317 374
#     4  12  25  40  62  96 131 170 216 267 334 388
#     4  11  23  37  61  87 129 163 206 264 324 387
#     4   9  19  37  59  87 124 165 215 267 317 380
#     4  11  23  42  63  95 125 169 216 266 332 388
#     4  11  19  34  59  90 121 156 209 263 323 371
#
# _framework density 22.813697999999999
#
# number of rings (size 3 to 8) (size 9 to 14) (size 15 to 20)
#    0.000    1.571    4.286    3.429    4.000    0.000 
#    0.000    0.000    0.000    6.429    0.000    0.000 
#    0.000    0.000    0.000    0.000    0.000    0.000 
#
# Total GULP energy -155883.772224 kJ/mol
# GULP energy per Si atom -5567.277579 kJ/mol
# Density = 2.276177 g / cm^3
# Si number density = 22.813698 Si / 1000 Ang^3
#
#
#
# Elastic Constant Matrix: (Units=GPa)
#
#
# Indices 1 2 3 4 5 6 
#
# 1 44.0280 43.4282 5.9886 0.0000 -5.8200 0.0000
# 2 43.4282 172.0231 13.5635 0.0000 -3.6635 0.0000
# 3 5.9886 13.5635 33.2186 0.0000 -22.1724 0.0000
# 4 0.0000 0.0000 0.0000 43.4173 0.0000 -19.4074
# 5 -5.8200 -3.6635 -22.1724 0.0000 30.1922 0.0000
# 6 0.0000 0.0000 0.0000 -19.4074 0.0000 40.6141
#
#
#
# Elastic Compliance Matrix: (Units=1/GPa)
#
#
# Indices 1 2 3 4 5 6 
#
# 1 0.031048 -0.007851 0.001897 0.000000 0.006426 0.000000
# 2 -0.007851 0.008061 -0.004380 0.000000 -0.003752 0.000000
# 3 0.001897 -0.004380 0.061667 0.000000 0.045121 0.000000
# 4 0.000000 0.000000 0.000000 0.029288 0.000000 0.013995
# 5 0.006426 -0.003752 0.045121 0.000000 0.067040 0.000000
# 6 0.000000 0.000000 0.000000 0.013995 0.000000 0.031310
#
#
# Mechanical properties :
#
#
# Convention : Reuss Voigt Hill
#
# Bulk Modulus (GPa) = 12.48318 41.69226 27.08772
# Shear Modulus (GPa) = 18.13007 35.26400 26.69703
#
# Velocity S-wave (km/s) = 2.82210 3.93585 3.42456
# Velocity P-wave (km/s) = 4.01282 6.24254 5.24748
#
# Compressibility (1/GPa) = 0.08010780
#
# Stress axis : x y z
#
# Youngs Moduli (GPa) = 32.20787 124.05891 16.21612
#
# Poissons Ratio (x) = 0.97400 -0.03077
# Poissons Ratio (y) = 0.25287 0.07103
# Poissons Ratio (z) = -0.06111 0.54341
#
# Static dielectric constant tensor:
#      x y z
#    x 1.570540 0.000000 0.090450 
#    y 0.000000 1.810670 0.000000 
#    z 0.090450 0.000000 1.720830 
# 
# From -- ./inp_files/77356.got.cif
#   From: 2010.05.17/outbox.cif.g08.bks.cpg/sg12_39_cif.got.tgz:77356.got - 2010.06.03 13:09:07.
