data_PCOD9202572
_publ_section_title
;
Structure prediction by ZEFSAII (Michael W. Deem and Ramdas Pophale) SiO2 
 PCOD9202572
Probable space group: C 2/M
;
_chemical_formula_sum "Si O2"
_cell_formula_units_Z 48
_cell_length_a 29.454945
_cell_length_b 18.819153
_cell_length_c 13.554371
_cell_angle_alpha 90.000000
_cell_angle_beta 18.604837
_cell_angle_gamma 90.000000
_cell_volume 2397.076362
_symmetry_space_group_name_H-M "C 2/M"
_symmetry_group_IT_number 12
_symmetry_cell_setting 'monoclinic'
loop_
_space_group_symop_operation_xyz
x,y,z
-x,y,-z
-x,-y,-z
x,-y,z
1/2+x,1/2+y,z
1/2-x,1/2+y,-z
1/2-x,1/2-y,-z
1/2+x,1/2-y,z
loop_
_atom_site_type_symbol
_atom_site_label
_atom_site_fract_x
_atom_site_fract_y
_atom_site_fract_z
Si Si1 0.321939 0.585672 0.975116
Si Si2 0.566047 0.695302 0.755763
Si Si3 0.724241 0.086397 0.745623
Si Si4 0.770971 0.820570 0.263834
Si Si5 0.336310 0.415528 0.725218
Si Si6 0.061192 0.578618 0.765226
O O1 0.291752 0.500000 0.050112
O O2 0.493300 0.593558 0.633116
O O3 0.286449 0.608423 0.936028
O O4 0.254247 0.639220 0.193581
O O5 0.654668 0.621926 0.571270
O O6 0.677131 0.752246 0.483262
O O7 0.500000 0.712177 0.000000
O O8 0.433588 0.692122 0.954594
O O9 0.759119 0.110223 0.785658
O O10 0.729096 0.000000 0.728503
O O11 0.566738 0.110058 0.037014
O O12 0.705134 0.878507 0.472940
O O13 0.313027 0.500000 0.774422
O O14 0.090679 0.500000 0.666173
O O15 0.000000 0.574695 0.000000
#
# Coordination Sequence:
#
# PCOD9202572 Si02
#       6
#     8   8   8   8   8   8
#     4   9  17  33  62  92 114 145 190 239 291 348
#     4  12  25  39  58  83 116 157 200 242 286 342
#     4  10  20  38  62  88 117 150 192 242 295 346
#     4  12  23  39  58  81 116 156 198 236 289 346
#     4   8  15  32  60  91 117 143 183 240 297 343
#     4  10  21  37  58  85 119 154 191 241 293 341
#
# _framework density 20.024394000000001
#
# number of rings (size 3 to 8) (size 9 to 14) (size 15 to 20)
#    0.000    1.833    1.667    4.500    0.000    1.000 
#    0.000    1.667    0.000    4.000    0.000    0.000 
#    0.000    0.000    0.000    0.000    0.000    0.000 
#
# Total GULP energy -133789.551829 kJ/mol
# GULP energy per Si atom -5574.564660 kJ/mol
# Density = 1.997882 g / cm^3
# Si number density = 20.024394 Si / 1000 Ang^3
#
#
#
# Elastic Constant Matrix: (Units=GPa)
#
#
# Indices 1 2 3 4 5 6 
#
# 1 99.8460 15.7979 10.7376 -0.0017 7.3902 0.0027
# 2 15.7979 58.0971 31.9701 0.0098 3.9364 -0.0133
# 3 10.7376 31.9701 51.3817 0.0114 2.7091 -0.0153
# 4 -0.0017 0.0098 0.0114 238.0024 0.0000 -279.7627
# 5 7.3902 3.9364 2.7091 0.0000 43.1338 -0.0001
# 6 0.0027 -0.0133 -0.0153 -279.7627 -0.0001 435.2645
#
#
#
# Elastic Compliance Matrix: (Units=1/GPa)
#
#
# Indices 1 2 3 4 5 6 
#
# 1 0.010582 -0.002434 -0.000615 0.000000 -0.001552 0.000000
# 2 -0.002434 0.026815 -0.016122 0.000000 -0.001018 0.000000
# 3 -0.000615 -0.016122 0.029637 0.000000 -0.000285 0.000000
# 4 0.000000 0.000000 0.000000 0.017186 0.000000 0.011046
# 5 -0.001552 -0.001018 -0.000285 0.000000 0.023560 0.000000
# 6 0.000000 0.000000 0.000000 0.011046 0.000000 0.009397
#
#
# Mechanical properties :
#
#
# Convention : Reuss Voigt Hill
#
# Bulk Modulus (GPa) = 34.85359 36.25956 35.55658
# Shear Modulus (GPa) = 30.28758 153.33475 91.81116
#
# Velocity S-wave (km/s) = 3.89335 8.76015 6.77858
# Velocity P-wave (km/s) = 6.13631 10.97576 8.89161
#
# Compressibility (1/GPa) = 0.02869145
#
# Stress axis : x y z
#
# Youngs Moduli (GPa) = 94.50432 37.29218 33.74122
#
# Poissons Ratio (x) = 0.09075 0.02076
# Poissons Ratio (y) = 0.22999 0.54399
# Poissons Ratio (z) = 0.05814 0.60124
#
# Static dielectric constant tensor:
#      x y z
#    x 1.744550 0.000000 0.031720 
#    y 0.000000 1.746510 0.000000 
#    z 0.031720 0.000000 1.696670 
# 
# From -- ./inp_files/184762.got.cif
#   From: 2010.05.17/outbox.cif.g08.bks.cpg/sg12_93_cif.got.tgz:184762.got - 2010.06.03 13:09:07.
