data_PCOD9202564
_publ_section_title
;
Structure prediction by ZEFSAII (Michael W. Deem and Ramdas Pophale) SiO2 
 PCOD9202564
Probable space group: C 2/M
;
_chemical_formula_sum "Si O2"
_cell_formula_units_Z 48
_cell_length_a 12.381990
_cell_length_b 27.889199
_cell_length_c 14.463337
_cell_angle_alpha 90.000000
_cell_angle_beta 31.194512
_cell_angle_gamma 90.000000
_cell_volume 2586.894427
_symmetry_space_group_name_H-M "C 2/M"
_symmetry_group_IT_number 12
_symmetry_cell_setting 'monoclinic'
loop_
_space_group_symop_operation_xyz
x,y,z
-x,y,-z
-x,-y,-z
x,-y,z
1/2+x,1/2+y,z
1/2-x,1/2+y,-z
1/2-x,1/2-y,-z
1/2+x,1/2-y,z
loop_
_atom_site_type_symbol
_atom_site_label
_atom_site_fract_x
_atom_site_fract_y
_atom_site_fract_z
Si Si1 0.959276 0.274855 0.308564
Si Si2 0.341703 0.212289 0.034419
Si Si3 0.848900 0.603792 0.020751
Si Si4 0.409737 0.443663 0.328110
Si Si5 0.455857 0.111184 0.321425
Si Si6 0.221575 0.055429 0.786282
O O1 0.750000 0.250000 0.500000
O O2 0.952699 0.331375 0.333118
O O3 0.160777 0.247620 0.200243
O O4 0.022718 0.270335 0.153154
O O5 0.500000 0.206782 0.000000
O O6 0.259727 0.158385 0.077506
O O7 0.972503 0.597533 0.834365
O O8 0.651738 0.568782 0.164596
O O9 0.000000 0.599058 0.000000
O O10 0.375079 0.500000 0.369288
O O11 0.269431 0.411244 0.496447
O O12 0.329302 0.432735 0.282729
O O13 0.614317 0.088427 0.280420
O O14 0.295584 0.000000 0.736348
O O15 0.000000 0.058151 0.000000
#
# Coordination Sequence:
#
# PCOD9202564 Si02
#       6
#     8   8   8   8   8   8
#     4  10  21  38  58  85 117 149 191 240 288 344
#     4   9  20  40  59  80 112 153 193 235 288 340
#     4  10  22  41  63  83 113 158 202 242 289 345
#     4  11  23  39  61  88 121 157 193 241 296 352
#     4  11  22  38  61  89 118 153 196 243 290 352
#     4  10  20  38  62  87 120 158 192 236 299 355
#
# _framework density 18.555066
#
# number of rings (size 3 to 8) (size 9 to 14) (size 15 to 20)
#    0.000    1.833    1.667    2.000    0.000    4.333 
#    9.000    5.833    0.000    0.000    0.000    0.000 
#    0.000    0.000    0.000    0.000    0.000    0.000 
#
# Total GULP energy -133840.269590 kJ/mol
# GULP energy per Si atom -5576.677900 kJ/mol
# Density = 1.851283 g / cm^3
# Si number density = 18.555066 Si / 1000 Ang^3
#
#
#
# Elastic Constant Matrix: (Units=GPa)
#
#
# Indices 1 2 3 4 5 6 
#
# 1 68.2524 37.5339 32.1574 0.0002 -6.8798 0.0001
# 2 37.5339 86.8466 72.0602 0.0001 -0.0915 0.0000
# 3 32.1574 72.0602 125.1226 0.0008 3.6435 0.0002
# 4 0.0002 0.0001 0.0008 28.0447 -0.0004 -17.6366
# 5 -6.8798 -0.0915 3.6435 -0.0004 10.2368 -0.0001
# 6 0.0001 0.0000 0.0002 -17.6366 -0.0001 22.1213
#
#
#
# Elastic Compliance Matrix: (Units=1/GPa)
#
#
# Indices 1 2 3 4 5 6 
#
# 1 0.021156 -0.008168 -0.001157 0.000000 0.014557 0.000000
# 2 -0.008168 0.025439 -0.012528 0.000001 -0.000803 0.000001
# 3 -0.001157 -0.012528 0.015693 -0.000001 -0.006475 -0.000001
# 4 0.000000 0.000001 -0.000001 0.071512 0.000004 0.057015
# 5 0.014557 -0.000803 -0.006475 0.000004 0.109768 0.000004
# 6 0.000000 0.000001 -0.000001 0.057015 0.000004 0.090661
#
#
# Mechanical properties :
#
#
# Convention : Reuss Voigt Hill
#
# Bulk Modulus (GPa) = 53.81605 62.63608 58.22607
# Shear Modulus (GPa) = 13.01647 21.31191 17.16419
#
# Velocity S-wave (km/s) = 2.65147 3.39274 3.04475
# Velocity P-wave (km/s) = 6.20001 7.01268 6.61883
#
# Compressibility (1/GPa) = 0.01858182
#
# Stress axis : x y z
#
# Youngs Moduli (GPa) = 47.26865 39.31017 63.72185
#
# Poissons Ratio (x) = 0.32108 0.07373
# Poissons Ratio (y) = 0.38608 0.79831
# Poissons Ratio (z) = 0.05470 0.49248
#
# Static dielectric constant tensor:
#      x y z
#    x 1.660220 0.000000 0.018920 
#    y 0.000000 1.708120 0.000000 
#    z 0.018920 0.000000 1.632180 
# 
# From -- ./inp_files/209287.got.cif
#   From: 2010.05.17/outbox.cif.g08.bks.cpg/sg12_105_cif.got.tgz:209287.got - 2010.06.03 13:09:07.
