data_PCOD9202979
_publ_section_title
;
Structure prediction by ZEFSAII (Michael W. Deem and Ramdas Pophale) SiO2 
 PCOD9202979
Probable space group: C 2/M
;
_chemical_formula_sum "Si O2"
_cell_formula_units_Z 48
_cell_length_a 18.767287
_cell_length_b 14.582937
_cell_length_c 18.204597
_cell_angle_alpha 90.000000
_cell_angle_beta 148.613968
_cell_angle_gamma 90.000000
_cell_volume 2594.775669
_symmetry_space_group_name_H-M "C 2/M"
_symmetry_group_IT_number 12
_symmetry_cell_setting 'monoclinic'
loop_
_space_group_symop_operation_xyz
x,y,z
-x,y,-z
-x,-y,-z
x,-y,z
1/2+x,1/2+y,z
1/2-x,1/2+y,-z
1/2-x,1/2-y,-z
1/2+x,1/2-y,z
loop_
_atom_site_type_symbol
_atom_site_label
_atom_site_fract_x
_atom_site_fract_y
_atom_site_fract_z
Si Si1 0.951967 0.223362 0.158138
Si Si2 0.780487 0.890916 0.579367
Si Si3 0.864919 0.391892 0.697050
Si Si4 0.162456 0.606850 0.158025
Si Si5 0.503212 0.107170 0.590531
Si Si6 0.286441 0.750841 0.156174
O O1 0.088290 0.163343 0.277835
O O2 0.003473 0.328773 0.200912
O O3 0.869121 0.208015 0.160279
O O4 0.851395 0.208558 0.001414
O O5 0.744757 0.870029 0.462789
O O6 0.643902 0.867383 0.504648
O O7 0.802781 0.000000 0.605559
O O8 0.898453 0.500000 0.720623
O O9 0.814187 0.374767 0.735034
O O10 0.194969 0.500000 0.171854
O O11 0.245404 0.674850 0.179401
O O12 0.000000 0.618652 0.000000
O O13 0.500000 0.115717 0.500000
O O14 0.619481 0.171474 0.725765
O O15 0.527103 0.000000 0.630186
#
# Coordination Sequence:
#
# PCOD9202979 Si02
#       6
#     8   8   8   8   8   8
#     4  11  23  38  60  93 121 157 200 247 305 360
#     4  10  22  41  62  85 118 162 205 247 301 364
#     4  10  20  38  65  87 114 160 206 243 294 362
#     4  10  21  38  60  88 123 161 197 242 303 365
#     4  10  23  41  61  86 117 160 206 248 300 358
#     4  11  24  37  61  94 124 154 197 254 306 356
#
# _framework density 18.498708000000001
#
# number of rings (size 3 to 8) (size 9 to 14) (size 15 to 20)
#    0.000    1.667    3.333    0.500    2.333    1.333 
#    0.000    3.333    0.000    7.000    0.000    0.000 
#    0.000    0.000    0.000    0.000    0.000    0.000 
#
# Total GULP energy -134075.469966 kJ/mol
# GULP energy per Si atom -5586.477915 kJ/mol
# Density = 1.845660 g / cm^3
# Si number density = 18.498708 Si / 1000 Ang^3
#
#
#
# Elastic Constant Matrix: (Units=GPa)
#
#
# Indices 1 2 3 4 5 6 
#
# 1 135.5462 70.9731 69.0323 0.0002 -5.2900 0.0001
# 2 70.9731 75.6262 72.4700 0.0003 8.7088 0.0002
# 3 69.0323 72.4700 141.8574 0.0005 8.1996 0.0003
# 4 0.0002 0.0003 0.0005 19.9552 0.0003 3.8444
# 5 -5.2900 8.7088 8.1996 0.0003 20.5756 0.0002
# 6 0.0001 0.0002 0.0003 3.8444 0.0002 25.3056
#
#
#
# Elastic Compliance Matrix: (Units=1/GPa)
#
#
# Indices 1 2 3 4 5 6 
#
# 1 0.016760 -0.016851 -0.000213 0.000000 0.011526 0.000000
# 2 -0.016851 0.043548 -0.013031 0.000000 -0.017572 0.000000
# 3 -0.000213 -0.013031 0.013813 0.000000 -0.000044 0.000000
# 4 0.000000 0.000000 0.000000 0.051623 -0.000001 -0.007842
# 5 0.011526 -0.017572 -0.000044 -0.000001 0.059019 0.000000
# 6 0.000000 0.000000 0.000000 -0.007842 0.000000 0.040708
#
#
# Mechanical properties :
#
#
# Convention : Reuss Voigt Hill
#
# Bulk Modulus (GPa) = 71.79230 86.44229 79.11730
# Shear Modulus (GPa) = 17.22320 22.53757 19.88038
#
# Velocity S-wave (km/s) = 3.05462 3.49425 3.28180
# Velocity P-wave (km/s) = 7.16481 7.94418 7.56454
#
# Compressibility (1/GPa) = 0.01392907
#
# Stress axis : x y z
#
# Youngs Moduli (GPa) = 59.66765 22.96298 72.39662
#
# Poissons Ratio (x) = 0.38696 0.01543
# Poissons Ratio (y) = 1.00548 0.94342
# Poissons Ratio (z) = 0.01272 0.29924
#
# Static dielectric constant tensor:
#      x y z
#    x 1.636170 0.000000 -0.017400 
#    y 0.000000 1.633300 0.000000 
#    z -0.017400 0.000000 1.622850 
# 
# From -- ./inp_files/278233.got.cif
#   From: 2010.05.17/outbox.cif.g08.bks.cpg/sg12_140_cif.got.tgz:278233.got - 2010.06.03 13:09:07.
