data_PCOD9202218
_publ_section_title
;
Structure prediction by ZEFSAII (Michael W. Deem and Ramdas Pophale) SiO2 
 PCOD9202218
Probable space group: C 2/M
;
_chemical_formula_sum "Si O2"
_cell_formula_units_Z 60
_cell_length_a 17.564470
_cell_length_b 28.636706
_cell_length_c 5.441482
_cell_angle_alpha 90.000000
_cell_angle_beta 118.470037
_cell_angle_gamma 90.000000
_cell_volume 2406.007902
_symmetry_space_group_name_H-M "C 2/M"
_symmetry_group_IT_number 12
_symmetry_cell_setting 'monoclinic'
loop_
_space_group_symop_operation_xyz
x,y,z
-x,y,-z
-x,-y,-z
x,-y,z
1/2+x,1/2+y,z
1/2-x,1/2+y,-z
1/2-x,1/2-y,-z
1/2+x,1/2-y,z
loop_
_atom_site_type_symbol
_atom_site_label
_atom_site_fract_x
_atom_site_fract_y
_atom_site_fract_z
Si Si1 0.193496 0.050316 0.072024
Si Si2 0.443045 0.352685 0.628554
Si Si3 0.269143 0.353964 0.070449
Si Si4 0.918430 0.950233 0.603538
Si Si5 0.661426 0.814093 0.282757
Si Si6 0.057790 0.500000 0.339086
Si Si7 0.556985 0.895332 0.339007
Si Si8 0.656649 0.711402 0.192083
O O1 0.238389 0.100816 0.112334
O O2 0.133212 0.048168 0.734476
O O3 0.241982 0.000000 0.139306
O O4 0.145104 0.051869 0.258974
O O5 0.500000 0.329314 0.500000
O O6 0.347766 0.364360 0.375737
O O7 0.478822 0.404747 0.717430
O O8 0.416768 0.323778 0.826831
O O9 0.180202 0.344157 0.069930
O O10 0.305528 0.306314 0.006120
O O11 0.965336 0.000000 0.695249
O O12 0.615277 0.848509 0.400832
O O13 0.621430 0.763758 0.159397
O O14 0.757700 0.798296 0.513822
O O15 0.100003 0.447682 0.401184
O O16 0.000000 0.500000 0.500000
O O17 0.000000 0.500000 0.000000
O O18 0.500000 0.892750 0.500000
O O19 0.500000 0.893674 0.000000
#
# Coordination Sequence:
#
# PCOD9202218 Si02
#       8
#     8   8   8   8   8   4   8   8
#     4   9  17  32  56  81 115 151 192 249 298 347
#     4  10  21  36  55  85 117 158 207 258 312 359
#     4  10  20  38  60  81 120 161 204 254 307 370
#     4   9  17  32  53  79 112 153 198 245 299 354
#     4  10  23  39  63  89 118 166 211 250 310 376
#     4   8  16  36  66  92 132 166 193 246 327 392
#     4  10  22  42  68 101 132 164 206 264 319 389
#     4  10  21  41  60  83 120 168 210 258 306 369
#
# _framework density 24.937571999999999
#
# number of rings (size 3 to 8) (size 9 to 14) (size 15 to 20)
#    0.000    2.400    1.333    0.400    1.867    1.333 
#    3.600    0.000    2.933    4.000    0.000    0.000 
#    0.000    0.000    0.000    0.000    0.000    0.000 
#
# Total GULP energy -167290.485246 kJ/mol
# GULP energy per Si atom -5576.349508 kJ/mol
# Density = 2.488081 g / cm^3
# Si number density = 24.937572 Si / 1000 Ang^3
#
#
#
# Elastic Constant Matrix: (Units=GPa)
#
#
# Indices 1 2 3 4 5 6 
#
# 1 79.4387 72.4054 25.3018 0.0000 -32.6330 0.0000
# 2 72.4054 192.1980 5.7825 0.0000 -15.3688 0.0000
# 3 25.3018 5.7825 103.1613 0.0000 -27.6070 0.0000
# 4 0.0000 0.0000 0.0000 -6.8178 0.0000 26.3604
# 5 -32.6330 -15.3688 -27.6070 0.0000 42.1470 0.0000
# 6 0.0000 0.0000 0.0000 26.3604 0.0000 -15.2623
#
#
#
# Elastic Compliance Matrix: (Units=1/GPa)
#
#
# Indices 1 2 3 4 5 6 
#
# 1 0.029223 -0.009518 -0.001828 0.000000 0.017958 0.000000
# 2 -0.009518 0.008465 0.000866 0.000000 -0.003716 0.000000
# 3 -0.001828 0.000866 0.011882 0.000000 0.006683 0.000000
# 4 0.000000 0.000000 0.000000 0.025833 0.000000 0.044617
# 5 0.017958 -0.003716 0.006683 0.000000 0.040654 0.000000
# 6 0.000000 0.000000 0.000000 0.044617 0.000000 0.011540
#
#
# Mechanical properties :
#
#
# Convention : Reuss Voigt Hill
#
# Bulk Modulus (GPa) = 34.95349 64.64194 49.79772
# Shear Modulus (GPa) = 31.62683 22.10061 26.86372
#
# Velocity S-wave (km/s) = 3.56510 2.98020 3.28569
# Velocity P-wave (km/s) = 5.56717 6.14979 5.86572
#
# Compressibility (1/GPa) = 0.02860944
#
# Stress axis : x y z
#
# Youngs Moduli (GPa) = 34.21959 118.12704 84.16197
#
# Poissons Ratio (x) = 1.12433 0.15385
# Poissons Ratio (y) = 0.32570 -0.07285
# Poissons Ratio (z) = 0.06256 -0.10225
#
# Static dielectric constant tensor:
#      x y z
#    x 2.036960 0.000000 0.074370 
#    y 0.000000 2.091840 0.000000 
#    z 0.074370 0.000000 2.102930 
# 
# From -- ./inp_files/18347.got.cif
#   From: 2010.05.17/outbox.cif.g08.bks.cpg/sg12_10_cif.got.tgz:18347.got - 2010.06.03 13:09:07.
