data_PCOD9202215
_publ_section_title
;
Structure prediction by ZEFSAII (Michael W. Deem and Ramdas Pophale) SiO2 
 PCOD9202215
Probable space group: C 2/M
;
_chemical_formula_sum "Si O2"
_cell_formula_units_Z 48
_cell_length_a 25.353404
_cell_length_b 7.679509
_cell_length_c 11.809887
_cell_angle_alpha 90.000000
_cell_angle_beta 111.669813
_cell_angle_gamma 90.000000
_cell_volume 2136.899728
_symmetry_space_group_name_H-M "C 2/M"
_symmetry_group_IT_number 12
_symmetry_cell_setting 'monoclinic'
loop_
_space_group_symop_operation_xyz
x,y,z
-x,y,-z
-x,-y,-z
x,-y,z
1/2+x,1/2+y,z
1/2-x,1/2+y,-z
1/2-x,1/2-y,-z
1/2+x,1/2-y,z
loop_
_atom_site_type_symbol
_atom_site_label
_atom_site_fract_x
_atom_site_fract_y
_atom_site_fract_z
Si Si1 0.196593 0.707804 0.037717
Si Si2 0.765503 0.202612 0.685507
Si Si3 0.628032 0.706257 0.358516
Si Si4 0.482223 0.210171 0.861426
Si Si5 0.411562 0.213038 0.195887
Si Si6 0.860601 0.704483 0.388536
O O1 0.193615 0.500000 0.050380
O O2 0.206631 0.788768 0.168193
O O3 0.250000 0.750000 0.000000
O O4 0.139327 0.764155 0.929034
O O5 0.811108 0.279736 0.634333
O O6 0.702748 0.281973 0.647053
O O7 0.758336 0.000000 0.648475
O O8 0.633488 0.500000 0.375396
O O9 0.580446 0.741061 0.227404
O O10 0.610631 0.779071 0.466751
O O11 0.528616 0.272004 0.806883
O O12 0.484274 0.000000 0.865822
O O13 0.500000 0.272679 0.000000
O O14 0.395051 0.274429 0.308632
O O15 0.413164 0.000000 0.197960
O O16 0.852415 0.500000 0.356413
#
# Coordination Sequence:
#
# PCOD9202215 Si02
#       6
#     8   8   8   8   8   8
#     4  11  20  34  58  88 120 150 188 236 288 343
#     4  10  21  38  58  83 118 155 192 239 291 341
#     4  11  24  39  57  85 119 152 190 239 296 346
#     4  10  21  40  64  86 110 148 197 238 278 343
#     4   9  19  36  59  85 114 150 193 238 281 334
#     4  10  20  38  60  81 113 153 196 240 283 342
#
# _framework density 22.462448999999999
#
# number of rings (size 3 to 8) (size 9 to 14) (size 15 to 20)
#    0.000    1.833    1.667    2.500    0.000    4.333 
#    0.000    5.833    0.000    0.000    0.000    0.000 
#    0.000    0.000    0.000    0.000    0.000    0.000 
#
# Total GULP energy -134156.380921 kJ/mol
# GULP energy per Si atom -5589.849205 kJ/mol
# Density = 2.241132 g / cm^3
# Si number density = 22.462449 Si / 1000 Ang^3
#
#
#
# Elastic Constant Matrix: (Units=GPa)
#
#
# Indices 1 2 3 4 5 6 
#
# 1 114.1347 13.9748 28.1020 0.0000 -17.2623 0.0000
# 2 13.9748 45.2630 -3.4184 0.0000 -1.1822 0.0000
# 3 28.1020 -3.4184 102.4502 0.0000 -22.0768 0.0000
# 4 0.0000 0.0000 0.0000 24.1873 0.0000 5.9043
# 5 -17.2623 -1.1822 -22.0768 0.0000 31.5661 0.0000
# 6 0.0000 0.0000 0.0000 5.9043 0.0000 7.7776
#
#
#
# Elastic Compliance Matrix: (Units=1/GPa)
#
#
# Indices 1 2 3 4 5 6 
#
# 1 0.010276 -0.003221 -0.002050 0.000000 0.004065 0.000000
# 2 -0.003221 0.023226 0.001727 0.000000 0.000316 0.000000
# 3 -0.002050 0.001727 0.011955 0.000000 0.007305 0.000000
# 4 0.000000 0.000000 0.000000 0.050748 0.000000 -0.038525
# 5 0.004065 0.000316 0.007305 0.000000 0.039023 0.000000
# 6 0.000000 0.000000 0.000000 -0.038525 0.000000 0.157820
#
#
# Mechanical properties :
#
#
# Convention : Reuss Voigt Hill
#
# Bulk Modulus (GPa) = 26.06390 37.68498 31.87444
# Shear Modulus (GPa) = 15.97820 27.58551 21.78185
#
# Velocity S-wave (km/s) = 2.66997 3.50819 3.11738
# Velocity P-wave (km/s) = 4.59712 5.76395 5.21328
#
# Compressibility (1/GPa) = 0.03836724
#
# Stress axis : x y z
#
# Youngs Moduli (GPa) = 97.31840 43.05467 83.64812
#
# Poissons Ratio (x) = 0.13869 0.17149
# Poissons Ratio (y) = 0.31348 -0.14443
# Poissons Ratio (z) = 0.19952 -0.07434
#
# Static dielectric constant tensor:
#      x y z
#    x 1.833410 0.000000 -0.011020 
#    y 0.000000 1.861270 0.000000 
#    z -0.011020 0.000000 1.802240 
# 
# From -- ./inp_files/172920.got.cif
#   From: 2010.05.17/outbox.cif.g08.bks.cpg/sg12_87_cif.got.tgz:172920.got - 2010.06.03 13:09:07.
