data_PCOD9202964
_publ_section_title
;
Structure prediction by ZEFSAII (Michael W. Deem and Ramdas Pophale) SiO2 
 PCOD9202964
Probable space group: C 2/M
;
_chemical_formula_sum "Si O2"
_cell_formula_units_Z 48
_cell_length_a 14.343329
_cell_length_b 28.773629
_cell_length_c 8.709053
_cell_angle_alpha 90.000000
_cell_angle_beta 39.121005
_cell_angle_gamma 90.000000
_cell_volume 2267.866814
_symmetry_space_group_name_H-M "C 2/M"
_symmetry_group_IT_number 12
_symmetry_cell_setting 'monoclinic'
loop_
_space_group_symop_operation_xyz
x,y,z
-x,y,-z
-x,-y,-z
x,-y,z
1/2+x,1/2+y,z
1/2-x,1/2+y,-z
1/2-x,1/2-y,-z
1/2+x,1/2-y,z
loop_
_atom_site_type_symbol
_atom_site_label
_atom_site_fract_x
_atom_site_fract_y
_atom_site_fract_z
Si Si1 0.869671 0.645619 0.041211
Si Si2 0.710679 0.446464 0.658312
Si Si3 0.860346 0.286291 0.777697
Si Si4 0.541331 0.049100 0.128795
Si Si5 0.079491 0.889967 0.543909
Si Si6 0.629144 0.354790 0.946176
O O1 0.906442 0.682420 0.864278
O O2 0.867315 0.595055 0.962989
O O3 0.712216 0.644973 0.327785
O O4 0.000000 0.646635 0.000000
O O5 0.665884 0.500000 0.746380
O O6 0.887111 0.446927 0.413742
O O7 0.644039 0.427129 0.582655
O O8 0.669310 0.406326 0.832146
O O9 0.765489 0.320371 0.788207
O O10 0.000000 0.268486 0.500000
O O11 0.750000 0.250000 0.000000
O O12 0.614466 0.000000 0.074057
O O13 0.500000 0.047997 0.000000
O O14 0.000000 0.912557 0.500000
O O15 0.950603 0.860949 0.790036
O O16 0.500000 0.336286 0.000000
#
# Coordination Sequence:
#
# PCOD9202964 Si02
#       6
#     8   8   8   8   8   8
#     4  11  22  42  72 101 135 177 228 272 343 406
#     4  10  20  38  64  97 138 185 231 270 328 401
#     4  12  29  49  74 103 134 172 229 292 349 416
#     4   9  16  31  59  92 126 171 221 267 310 384
#     4  11  21  37  65  97 139 184 217 281 328 397
#     4  10  24  44  69  96 141 184 219 276 348 405
#
# _framework density 21.165264000000001
#
# number of rings (size 3 to 8) (size 9 to 14) (size 15 to 20)
#    0.000    1.500    5.000    1.000    4.667    4.000 
#    0.000    2.500    0.000    3.000    0.000    0.000 
#    0.000    0.000    0.000    0.000    0.000    0.000 
#
# Total GULP energy -133908.642891 kJ/mol
# GULP energy per Si atom -5579.526787 kJ/mol
# Density = 2.111709 g / cm^3
# Si number density = 21.165264 Si / 1000 Ang^3
#
#
#
# Elastic Constant Matrix: (Units=GPa)
#
#
# Indices 1 2 3 4 5 6 
#
# 1 75.4294 25.8434 20.7123 0.0000 2.0531 0.0000
# 2 25.8434 69.9548 38.6218 0.0000 9.8048 0.0000
# 3 20.7123 38.6218 152.6441 0.0000 -6.2026 0.0000
# 4 0.0000 0.0000 0.0000 36.3102 0.0000 -1.3464
# 5 2.0531 9.8048 -6.2026 0.0000 17.9682 0.0000
# 6 0.0000 0.0000 0.0000 -1.3464 0.0000 16.8133
#
#
#
# Elastic Compliance Matrix: (Units=1/GPa)
#
#
# Indices 1 2 3 4 5 6 
#
# 1 0.015267 -0.005412 -0.000663 0.000000 0.000980 0.000000
# 2 -0.005412 0.020829 -0.005043 0.000000 -0.012488 0.000000
# 3 -0.000663 -0.005043 0.008146 0.000000 0.005640 0.000000
# 4 0.000000 0.000000 0.000000 0.027623 0.000000 0.002212
# 5 0.000980 -0.012488 0.005640 0.000000 0.064304 0.000000
# 6 0.000000 0.000000 0.000000 0.002212 0.000000 0.059654
#
#
# Mechanical properties :
#
#
# Convention : Reuss Voigt Hill
#
# Bulk Modulus (GPa) = 45.43956 52.04261 48.74108
# Shear Modulus (GPa) = 22.18352 28.40836 25.29594
#
# Velocity S-wave (km/s) = 3.24096 3.66760 3.46086
# Velocity P-wave (km/s) = 5.95992 6.52512 6.24891
#
# Compressibility (1/GPa) = 0.02200726
#
# Stress axis : x y z
#
# Youngs Moduli (GPa) = 65.50170 48.01024 122.75526
#
# Poissons Ratio (x) = 0.25981 0.08133
# Poissons Ratio (y) = 0.35447 0.61909
# Poissons Ratio (z) = 0.04339 0.24213
#
# Static dielectric constant tensor:
#      x y z
#    x 1.841630 0.000000 -0.064520 
#    y 0.000000 1.805800 0.000000 
#    z -0.064520 0.000000 1.894790 
# 
# From -- ./inp_files/67343.got.cif
#   From: 2010.05.17/outbox.cif.g08.bks.cpg/sg12_34_cif.got.tgz:67343.got - 2010.06.03 13:09:07.
