data_PCOD9202485
_publ_section_title
;
Structure prediction by ZEFSAII (Michael W. Deem and Ramdas Pophale) SiO2 
 PCOD9202485
Probable space group: C 2/M
;
_chemical_formula_sum "Si O2"
_cell_formula_units_Z 54
_cell_length_a 13.569902
_cell_length_b 31.668519
_cell_length_c 5.211880
_cell_angle_alpha 90.000000
_cell_angle_beta 98.694319
_cell_angle_gamma 90.000000
_cell_volume 2214.009336
_symmetry_space_group_name_H-M "C 2/M"
_symmetry_group_IT_number 12
_symmetry_cell_setting 'monoclinic'
loop_
_space_group_symop_operation_xyz
x,y,z
-x,y,-z
-x,-y,-z
x,-y,z
1/2+x,1/2+y,z
1/2-x,1/2+y,-z
1/2-x,1/2-y,-z
1/2+x,1/2-y,z
loop_
_atom_site_type_symbol
_atom_site_label
_atom_site_fract_x
_atom_site_fract_y
_atom_site_fract_z
Si Si1 0.870694 0.065135 0.187949
Si Si2 0.569146 0.711525 0.276349
Si Si3 0.323156 0.346889 0.038380
Si Si4 0.263281 0.952687 0.373826
Si Si5 0.633117 0.869795 0.672387
Si Si6 0.000000 0.664909 0.000000
Si Si7 0.500000 0.500000 0.000000
Si Si8 0.314476 0.794734 0.700041
O O1 0.885890 0.115763 0.189354
O O2 0.809714 0.053195 0.415053
O O3 0.967402 0.037227 0.190814
O O4 0.804105 0.052118 0.910096
O O5 0.500000 0.708652 0.500000
O O6 0.655289 0.746834 0.351153
O O7 0.500000 0.721357 0.000000
O O8 0.624236 0.669561 0.197525
O O9 0.288586 0.307462 0.201343
O O10 0.217476 0.368012 0.929440
O O11 0.344529 0.915500 0.433306
O O12 0.305274 0.000000 0.390305
O O13 0.527184 0.863470 0.767556
O O14 0.662753 0.829127 0.512423
O O15 0.095521 0.693970 0.069480
#
# Coordination Sequence:
#
# PCOD9202485 Si02
#       8
#     8   8   8   8   8   4   2   8
#     4  11  24  41  65  97 130 174 227 263 331 381
#     4  12  28  44  65 100 141 176 222 285 334 398
#     4  10  25  44  65  98 132 183 224 276 340 398
#     4  11  21  43  64  95 132 170 217 268 324 402
#     4  10  22  38  70  93 132 173 228 276 335 406
#     4  10  20  38  62 102 122 168 224 280 332 396
#     4  12  24  42  70 102 136 180 218 292 308 418
#     4  11  21  43  70  93 131 177 229 275 336 410
#
# _framework density 24.390142000000001
#
# number of rings (size 3 to 8) (size 9 to 14) (size 15 to 20)
#    0.000    1.185    3.704    1.778    5.185    1.778 
#    0.000    0.370    0.000    1.778    0.000    0.000 
#    0.000    0.000    0.000    0.000    0.000    0.000 
#
# Total GULP energy -150639.157471 kJ/mol
# GULP energy per Si atom -5579.228054 kJ/mol
# Density = 2.433463 g / cm^3
# Si number density = 24.390142 Si / 1000 Ang^3
#
#
#
# Elastic Constant Matrix: (Units=GPa)
#
#
# Indices 1 2 3 4 5 6 
#
# 1 66.9005 13.7801 13.8219 0.0000 -17.3599 0.0000
# 2 13.7801 117.4102 6.7385 0.0000 -13.0316 0.0000
# 3 13.8219 6.7385 119.3850 0.0000 -26.8284 0.0000
# 4 0.0000 0.0000 0.0000 -64.2227 0.0000 -32.4972
# 5 -17.3599 -13.0316 -26.8284 0.0000 44.0758 0.0000
# 6 0.0000 0.0000 0.0000 -32.4972 0.0000 6.2956
#
#
#
# Elastic Compliance Matrix: (Units=1/GPa)
#
#
# Indices 1 2 3 4 5 6 
#
# 1 0.016865 -0.001290 -0.000548 0.000000 0.005928 0.000000
# 2 -0.001290 0.008906 0.000144 0.000000 0.002213 0.000000
# 3 -0.000548 0.000144 0.009723 0.000000 0.005745 0.000000
# 4 0.000000 0.000000 0.000000 -0.004311 0.000000 -0.022252
# 5 0.005928 0.002213 0.005745 0.000000 0.029174 0.000000
# 6 0.000000 0.000000 0.000000 -0.022252 0.000000 0.043976
#
#
# Mechanical properties :
#
#
# Convention : Reuss Voigt Hill
#
# Bulk Modulus (GPa) = 31.14730 41.37519 36.26125
# Shear Modulus (GPa) = 42.22199 15.18675 28.70437
#
# Velocity S-wave (km/s) = 4.16517 2.49802 3.43430
# Velocity P-wave (km/s) = 5.99414 5.03199 5.53401
#
# Compressibility (1/GPa) = 0.03210551
#
# Stress axis : x y z
#
# Youngs Moduli (GPa) = 59.29588 112.28535 102.85383
#
# Poissons Ratio (x) = 0.14485 0.05633
# Poissons Ratio (y) = 0.07649 -0.01480
# Poissons Ratio (z) = 0.03247 -0.01616
#
# Static dielectric constant tensor:
#      x y z
#    x 2.008370 0.000000 0.103680 
#    y 0.000000 2.007460 0.000000 
#    z 0.103680 0.000000 2.052060 
# 
# From -- ./inp_files/13177.got.cif
#   From: 2010.05.17/outbox.cif.g08.bks.cpg/sg12_7_cif.got.tgz:13177.got - 2010.06.03 13:09:07.
