data_PCOD9202165
_publ_section_title
;
Structure prediction by ZEFSAII (Michael W. Deem and Ramdas Pophale) SiO2 
 PCOD9202165
Probable space group: C 2/M
;
_chemical_formula_sum "Si O2"
_cell_formula_units_Z 42
_cell_length_a 23.299441
_cell_length_b 22.657356
_cell_length_c 11.500694
_cell_angle_alpha 90.000000
_cell_angle_beta 19.495493
_cell_angle_gamma 90.000000
_cell_volume 2026.177792
_symmetry_space_group_name_H-M "C 2/M"
_symmetry_group_IT_number 12
_symmetry_cell_setting 'monoclinic'
loop_
_space_group_symop_operation_xyz
x,y,z
-x,y,-z
-x,-y,-z
x,-y,z
1/2+x,1/2+y,z
1/2-x,1/2+y,-z
1/2-x,1/2-y,-z
1/2+x,1/2-y,z
loop_
_atom_site_type_symbol
_atom_site_label
_atom_site_fract_x
_atom_site_fract_y
_atom_site_fract_z
Si Si1 0.087082 0.210087 0.459084
Si Si2 0.001060 0.910096 0.715832
Si Si3 0.135625 0.432527 0.533659
Si Si4 0.178518 0.929174 0.603515
Si Si5 0.027069 0.665585 0.311471
Si Si6 0.500000 0.500000 0.500000
O O1 0.984189 0.159321 0.722367
O O2 0.082977 0.276526 0.514060
O O3 0.000000 0.215943 0.500000
O O4 0.277477 0.185383 0.079761
O O5 0.158783 0.916461 0.505404
O O6 0.025009 0.948156 0.553754
O O7 0.825833 0.932579 0.111143
O O8 0.070653 0.500000 0.659450
O O9 0.169451 0.410233 0.600709
O O10 0.022669 0.389762 0.671493
O O11 0.178377 0.000000 0.615097
O O12 0.000000 0.906007 0.000000
O O13 0.000000 0.651643 0.500000
#
# Coordination Sequence:
#
# PCOD9202165 Si02
#       6
#     8   8   8   8   8   2
#     4  11  22  39  60  83 116 152 191 240 296 358
#     4  11  19  34  58  91 120 155 192 237 290 346
#     4  10  20  38  59  85 119 154 197 242 285 343
#     4   8  15  31  55  81 114 157 196 232 281 340
#     4  11  23  39  59  84 114 154 196 241 296 348
#     4  12  20  28  58  94 134 144 196 236 294 348
#
# _framework density 20.728686
#
# number of rings (size 3 to 8) (size 9 to 14) (size 15 to 20)
#    0.000    1.714    2.857    5.714    0.000    0.381 
#    1.714    1.905    0.000    2.286    0.000    0.000 
#    0.000    0.000    0.000    0.000    0.000    0.000 
#
# Total GULP energy -116969.759044 kJ/mol
# GULP energy per Si atom -5569.988526 kJ/mol
# Density = 2.068151 g / cm^3
# Si number density = 20.728686 Si / 1000 Ang^3
#
#
#
# Elastic Constant Matrix: (Units=GPa)
#
#
# Indices 1 2 3 4 5 6 
#
# 1 162.2248 64.4079 27.2236 0.0041 -1.7972 -0.0025
# 2 64.4079 107.5202 25.1637 0.0293 -15.6466 0.0213
# 3 27.2236 25.1637 64.8819 0.0222 -6.6393 0.0183
# 4 0.0041 0.0293 0.0222 59.6640 -0.0108 41.7470
# 5 -1.7972 -15.6466 -6.6393 -0.0108 22.6165 -0.0037
# 6 -0.0025 0.0213 0.0183 41.7470 -0.0037 75.8090
#
#
#
# Elastic Compliance Matrix: (Units=1/GPa)
#
#
# Indices 1 2 3 4 5 6 
#
# 1 0.008488 -0.005136 -0.001922 0.000001 -0.003443 0.000001
# 2 -0.005136 0.014222 -0.002470 -0.000003 0.008706 -0.000001
# 3 -0.001922 -0.002470 0.017513 -0.000004 0.003279 -0.000001
# 4 0.000001 -0.000003 -0.000004 0.027267 0.000008 -0.015016
# 5 -0.003443 0.008706 0.003279 0.000008 0.050928 -0.000005
# 6 0.000001 -0.000001 -0.000001 -0.015016 -0.000005 0.021460
#
#
# Mechanical properties :
#
#
# Convention : Reuss Voigt Hill
#
# Bulk Modulus (GPa) = 47.24306 63.13525 55.18915
# Shear Modulus (GPa) = 30.12279 46.14001 38.13140
#
# Velocity S-wave (km/s) = 3.81621 4.72306 4.29365
# Velocity P-wave (km/s) = 6.50066 7.76319 7.15981
#
# Compressibility (1/GPa) = 0.02116713
#
# Stress axis : x y z
#
# Youngs Moduli (GPa) = 117.81878 70.31387 57.10179
#
# Poissons Ratio (x) = 0.36110 0.10974
# Poissons Ratio (y) = 0.60506 0.14105
# Poissons Ratio (z) = 0.22642 0.17369
#
# Static dielectric constant tensor:
#      x y z
#    x 1.762010 0.000000 0.003890 
#    y 0.000000 1.733290 0.000010 
#    z 0.003890 0.000010 1.828010 
# 
# From -- ./inp_files/178353.got.cif
#   From: 2010.05.17/outbox.cif.g08.bks.cpg/sg12_90_cif.got.tgz:178353.got - 2010.06.03 13:09:07.
