data_PCOD9202721
_publ_section_title
;
Structure prediction by ZEFSAII (Michael W. Deem and Ramdas Pophale) SiO2 
 PCOD9202721
Probable space group: C 2/M
;
_chemical_formula_sum "Si O2"
_cell_formula_units_Z 60
_cell_length_a 30.040290
_cell_length_b 9.408291
_cell_length_c 11.066352
_cell_angle_alpha 90.000000
_cell_angle_beta 95.300008
_cell_angle_gamma 90.000000
_cell_volume 3114.286885
_symmetry_space_group_name_H-M "C 2/M"
_symmetry_group_IT_number 12
_symmetry_cell_setting 'monoclinic'
loop_
_space_group_symop_operation_xyz
x,y,z
-x,y,-z
-x,-y,-z
x,-y,z
1/2+x,1/2+y,z
1/2-x,1/2+y,-z
1/2-x,1/2-y,-z
1/2+x,1/2-y,z
loop_
_atom_site_type_symbol
_atom_site_label
_atom_site_fract_x
_atom_site_fract_y
_atom_site_fract_z
Si Si1 0.097994 0.169305 0.801187
Si Si2 0.205863 0.670623 0.442626
Si Si3 0.123048 0.166135 0.531447
Si Si4 0.190074 0.769786 0.947412
Si Si5 0.070713 0.164750 0.275725
Si Si6 0.244208 0.500000 0.049201
Si Si7 0.670139 0.659862 0.215023
Si Si8 0.990289 0.666901 0.140001
O O1 0.103531 0.188353 0.658939
O O2 0.053862 0.246137 0.836990
O O3 0.096529 0.000000 0.826910
O O4 0.141934 0.233541 0.874680
O O5 0.209379 0.500000 0.448754
O O6 0.250000 0.750000 0.500000
O O7 0.164128 0.730739 0.510142
O O8 0.194768 0.724596 0.303701
O O9 0.085919 0.186372 0.417976
O O10 0.137679 0.000000 0.526503
O O11 0.213587 0.622130 0.976121
O O12 0.184312 0.836469 0.080132
O O13 0.222951 0.875515 0.886240
O O14 0.116963 0.185162 0.213220
O O15 0.032239 0.268008 0.222170
O O16 0.056774 0.000000 0.256819
O O17 0.678896 0.500000 0.265165
O O18 0.984692 0.500000 0.165424
O O19 0.000000 0.682076 0.000000
#
# Coordination Sequence:
#
# PCOD9202721 Si02
#       8
#     8   8   8   8   8   4   8   8
#     4  11  23  42  67  91 124 167 208 255 315 373
#     4  11  23  39  59  89 121 162 211 260 315 367
#     4   9  21  42  64  90 124 163 210 261 310 369
#     4  11  22  42  60  90 124 164 206 257 309 376
#     4   9  19  39  65  89 120 161 205 254 304 370
#     4  10  24  38  58  86 124 164 210 246 310 374
#     4  10  20  38  63  88 121 158 205 256 308 368
#     4  11  25  41  61  95 129 162 203 257 314 371
#
# _framework density 19.266047
#
# number of rings (size 3 to 8) (size 9 to 14) (size 15 to 20)
#    0.000    1.733    1.333    3.200    1.867    7.467 
#    2.400    2.667    0.000    0.000    0.000    0.000 
#    0.000    0.000    0.000    0.000    0.000    0.000 
#
# Total GULP energy -167071.431269 kJ/mol
# GULP energy per Si atom -5569.047709 kJ/mol
# Density = 1.922220 g / cm^3
# Si number density = 19.266047 Si / 1000 Ang^3
#
#
#
# Elastic Constant Matrix: (Units=GPa)
#
#
# Indices 1 2 3 4 5 6 
#
# 1 79.3382 45.9259 33.3679 0.0000 23.1295 0.0000
# 2 45.9259 100.7142 17.4075 0.0000 19.7176 0.0000
# 3 33.3679 17.4075 41.2153 0.0000 5.1881 0.0000
# 4 0.0000 0.0000 0.0000 16.9756 0.0000 2.0163
# 5 23.1295 19.7176 5.1881 0.0000 31.6832 0.0000
# 6 0.0000 0.0000 0.0000 2.0163 0.0000 38.1031
#
#
#
# Elastic Compliance Matrix: (Units=1/GPa)
#
#
# Indices 1 2 3 4 5 6 
#
# 1 0.028232 -0.007151 -0.018177 0.000000 -0.013183 0.000000
# 2 -0.007151 0.013793 0.000396 0.000000 -0.003428 0.000000
# 3 -0.018177 0.000396 0.037955 0.000000 0.006808 0.000000
# 4 0.000000 0.000000 0.000000 0.059281 0.000000 -0.003137
# 5 -0.013183 -0.003428 0.006808 0.000000 0.042205 0.000000
# 6 0.000000 0.000000 0.000000 -0.003137 0.000000 0.026411
#
#
# Mechanical properties :
#
#
# Convention : Reuss Voigt Hill
#
# Bulk Modulus (GPa) = 33.20634 46.07448 39.64041
# Shear Modulus (GPa) = 18.67217 25.65679 22.16448
#
# Velocity S-wave (km/s) = 3.11654 3.65322 3.39550
# Velocity P-wave (km/s) = 5.49759 6.46231 5.99937
#
# Compressibility (1/GPa) = 0.03011473
#
# Stress axis : x y z
#
# Youngs Moduli (GPa) = 35.42108 72.50170 26.34727
#
# Poissons Ratio (x) = 0.51847 0.47891
# Poissons Ratio (y) = 0.25330 -0.01042
# Poissons Ratio (z) = 0.64384 -0.02868
#
# Static dielectric constant tensor:
#      x y z
#    x 1.674940 0.000000 -0.033310 
#    y 0.000000 1.648570 0.000000 
#    z -0.033310 0.000000 1.675610 
# 
# From -- ./inp_files/187680.got.cif
#   From: 2010.05.17/outbox.cif.g08.bks.cpg/sg12_94_cif.got.tgz:187680.got - 2010.06.03 13:09:07.
