data_PCOD9202481
_publ_section_title
;
Structure prediction by ZEFSAII (Michael W. Deem and Ramdas Pophale) SiO2 
 PCOD9202481
Probable space group: C 2/M
;
_chemical_formula_sum "Si O2"
_cell_formula_units_Z 48
_cell_length_a 18.846233
_cell_length_b 11.856894
_cell_length_c 11.035191
_cell_angle_alpha 90.000000
_cell_angle_beta 80.532233
_cell_angle_gamma 90.000000
_cell_volume 2432.309610
_symmetry_space_group_name_H-M "C 2/M"
_symmetry_group_IT_number 12
_symmetry_cell_setting 'monoclinic'
loop_
_space_group_symop_operation_xyz
x,y,z
-x,y,-z
-x,-y,-z
x,-y,z
1/2+x,1/2+y,z
1/2-x,1/2+y,-z
1/2-x,1/2-y,-z
1/2+x,1/2-y,z
loop_
_atom_site_type_symbol
_atom_site_label
_atom_site_fract_x
_atom_site_fract_y
_atom_site_fract_z
Si Si1 0.008500 0.500000 0.714838
Si Si2 0.779628 0.877763 0.984133
Si Si3 0.492040 0.237840 0.150292
Si Si4 0.387273 0.000000 0.540261
Si Si5 0.708723 0.783601 0.391670
Si Si6 0.385539 0.373844 0.736855
Si Si7 0.152675 0.871743 0.784821
O O1 0.007290 0.610228 0.799828
O O2 0.074999 0.500000 0.601704
O O3 0.942644 0.500000 0.637550
O O4 0.818279 0.884014 0.845909
O O5 0.737502 0.000000 0.011232
O O6 0.750000 0.750000 0.000000
O O7 0.838182 0.881486 0.073593
O O8 0.555074 0.303956 0.204691
O O9 0.417570 0.296462 0.213462
O O10 0.500000 0.242614 0.000000
O O11 0.337567 0.892870 0.568992
O O12 0.750000 0.750000 0.500000
O O13 0.650268 0.692123 0.364295
O O14 0.772913 0.815448 0.280656
O O15 0.411726 0.500000 0.699605
O O16 0.146188 0.000000 0.737278
#
# Coordination Sequence:
#
# PCOD9202481 Si02
#       7
#     4   8   8   4   8   8   8
#     4  11  25  46  70 100 133 181 232 274 339 405
#     4  10  20  38  61  95 133 175 218 272 341 409
#     4  12  24  44  68 102 140 176 221 277 343 408
#     4  11  24  48  74  92 134 184 227 284 335 396
#     4  12  25  44  70  96 133 176 231 283 335 395
#     4  11  24  42  66  98 136 174 221 278 340 408
#     4  11  23  40  66  96 132 175 220 266 336 408
#
# _framework density 19.734331000000001
#
# number of rings (size 3 to 8) (size 9 to 14) (size 15 to 20)
#    0.000    0.833    5.833    1.750    1.167    0.667 
#    4.500    0.000    0.000    3.000    0.000    0.000 
#    0.000    0.000    0.000    0.000    0.000    0.000 
#
# Total GULP energy -133756.272612 kJ/mol
# GULP energy per Si atom -5573.178026 kJ/mol
# Density = 1.968941 g / cm^3
# Si number density = 19.734331 Si / 1000 Ang^3
#
#
#
# Elastic Constant Matrix: (Units=GPa)
#
#
# Indices 1 2 3 4 5 6 
#
# 1 100.2399 76.7043 35.9470 0.0000 10.0574 0.0000
# 2 76.7043 209.2396 46.0890 0.0000 21.4701 0.0000
# 3 35.9470 46.0890 85.4736 0.0000 23.7498 0.0000
# 4 0.0000 0.0000 0.0000 -91.7266 0.0000 -23.8488
# 5 10.0574 21.4701 23.7498 0.0000 29.4564 0.0000
# 6 0.0000 0.0000 0.0000 -23.8488 0.0000 37.2439
#
#
#
# Elastic Compliance Matrix: (Units=1/GPa)
#
#
# Indices 1 2 3 4 5 6 
#
# 1 0.014926 -0.004722 -0.004216 0.000000 0.001745 0.000000
# 2 -0.004722 0.007016 -0.001062 0.000000 -0.002645 0.000000
# 3 -0.004216 -0.001062 0.017308 0.000000 -0.011741 0.000000
# 4 0.000000 0.000000 0.000000 -0.009346 0.000000 -0.005985
# 5 0.001745 -0.002645 -0.011741 0.000000 0.044747 0.000000
# 6 0.000000 0.000000 0.000000 -0.005985 0.000000 0.023018
#
#
# Mechanical properties :
#
#
# Convention : Reuss Voigt Hill
#
# Bulk Modulus (GPa) = 51.95024 79.15931 65.55477
# Shear Modulus (GPa) = 40.29487 10.74225 25.51856
#
# Velocity S-wave (km/s) = 4.52360 2.33565 3.59988
# Velocity P-wave (km/s) = 7.32570 6.89008 7.11123
#
# Compressibility (1/GPa) = 0.01924919
#
# Stress axis : x y z
#
# Youngs Moduli (GPa) = 66.99566 142.53898 57.77793
#
# Poissons Ratio (x) = 0.67309 0.24359
# Poissons Ratio (y) = 0.31636 0.06136
# Poissons Ratio (z) = 0.28245 0.15139
#
# Static dielectric constant tensor:
#      x y z
#    x 1.649450 0.000000 0.002560 
#    y 0.000000 1.795230 0.000000 
#    z 0.002560 0.000000 1.739820 
# 
# From -- ./inp_files/153749.got.cif
#   From: 2010.05.17/outbox.cif.g08.bks.cpg/sg12_77_cif.got.tgz:153749.got - 2010.06.03 13:09:07.
