data_PCOD9202521
_publ_section_title
;
Structure prediction by ZEFSAII (Michael W. Deem and Ramdas Pophale) SiO2 
 PCOD9202521
Probable space group: C 2/M
;
_chemical_formula_sum "Si O2"
_cell_formula_units_Z 64
_cell_length_a 19.135006
_cell_length_b 7.849937
_cell_length_c 30.659232
_cell_angle_alpha 90.000000
_cell_angle_beta 140.887553
_cell_angle_gamma 90.000000
_cell_volume 2905.215051
_symmetry_space_group_name_H-M "C 2/M"
_symmetry_group_IT_number 12
_symmetry_cell_setting 'monoclinic'
loop_
_space_group_symop_operation_xyz
x,y,z
-x,y,-z
-x,-y,-z
x,-y,z
1/2+x,1/2+y,z
1/2-x,1/2+y,-z
1/2-x,1/2-y,-z
1/2+x,1/2-y,z
loop_
_atom_site_type_symbol
_atom_site_label
_atom_site_fract_x
_atom_site_fract_y
_atom_site_fract_z
Si Si1 0.979538 0.799799 0.351131
Si Si2 0.621551 0.297305 0.932613
Si Si3 0.540558 0.795302 0.066842
Si Si4 0.796647 0.804620 0.662624
Si Si5 0.563823 0.792751 0.574374
Si Si6 0.792619 0.309431 0.567488
Si Si7 0.790694 0.207345 0.197725
Si Si8 0.455839 0.290751 0.200198
O O1 0.990659 0.768799 0.407622
O O2 0.860587 0.747429 0.274601
O O3 0.075041 0.699595 0.372745
O O4 0.996388 0.000000 0.349548
O O5 0.614473 0.500000 0.927690
O O6 0.545947 0.240363 0.936472
O O7 0.577515 0.234084 0.864419
O O8 0.750000 0.250000 0.000000
O O9 0.664804 0.730038 0.136375
O O10 0.548085 0.000000 0.067112
O O11 0.500000 0.730942 0.000000
O O12 0.690603 0.727615 0.635154
O O13 0.764235 0.800784 0.595822
O O14 0.919182 0.731018 0.728497
O O15 0.804708 0.000000 0.681100
O O16 0.500000 0.737817 0.500000
O O17 0.564521 0.000000 0.574862
O O18 0.753665 0.500000 0.556895
O O19 0.750000 0.250000 0.500000
O O20 0.864839 0.262029 0.192067
O O21 0.786305 0.000000 0.194119
O O22 0.456096 0.500000 0.201875
#
# Coordination Sequence:
#
# PCOD9202521 Si02
#       8
#     8   8   8   8   8   8   8   8
#     4  11  22  38  61  87 120 160 202 250 303 360
#     4  11  23  39  63  93 125 163 204 250 299 354
#     4  10  21  39  64  91 123 165 207 247 297 357
#     4  10  20  38  62  85 118 161 203 248 302 362
#     4  10  22  38  57  84 119 157 199 249 305 362
#     4  12  24  39  61  89 120 155 202 254 305 362
#     4   9  18  35  60  87 117 156 201 248 297 356
#     4   9  18  36  61  86 116 159 205 245 298 362
#
# _framework density 22.029349
#
# number of rings (size 3 to 8) (size 9 to 14) (size 15 to 20)
#    0.000    1.750    1.250    3.375    1.750    4.000 
#    0.000    1.875    0.000    0.000    0.000    0.000 
#    0.000    0.000    0.000    0.000    0.000    0.000 
#
# Total GULP energy -178809.837267 kJ/mol
# GULP energy per Si atom -5587.807415 kJ/mol
# Density = 2.197921 g / cm^3
# Si number density = 22.029349 Si / 1000 Ang^3
#
#
#
# Elastic Constant Matrix: (Units=GPa)
#
#
# Indices 1 2 3 4 5 6 
#
# 1 106.8288 -5.1748 30.9155 0.0001 2.3328 -0.0001
# 2 -5.1748 32.1820 8.1274 0.0001 3.1419 -0.0001
# 3 30.9155 8.1274 120.9069 0.0000 0.7368 -0.0001
# 4 0.0001 0.0001 0.0000 9.3712 0.0000 1.7068
# 5 2.3328 3.1419 0.7368 0.0000 44.8906 0.0000
# 6 -0.0001 -0.0001 -0.0001 1.7068 0.0000 19.3397
#
#
#
# Elastic Compliance Matrix: (Units=1/GPa)
#
#
# Indices 1 2 3 4 5 6 
#
# 1 0.010301 0.002426 -0.002793 0.000000 -0.000659 0.000000
# 2 0.002426 0.032396 -0.002784 0.000000 -0.002348 0.000000
# 3 -0.002793 -0.002784 0.009171 0.000000 0.000189 0.000000
# 4 0.000000 0.000000 0.000000 0.108454 0.000000 -0.009572
# 5 -0.000659 -0.002348 0.000189 0.000000 0.022472 0.000000
# 6 0.000000 0.000000 0.000000 -0.009572 0.000000 0.052552
#
#
# Mechanical properties :
#
#
# Convention : Reuss Voigt Hill
#
# Bulk Modulus (GPa) = 21.94601 36.40598 29.17599
# Shear Modulus (GPa) = 19.46775 29.79026 24.62901
#
# Velocity S-wave (km/s) = 2.97597 3.68135 3.34729
# Velocity P-wave (km/s) = 4.66822 5.88488 5.31150
#
# Compressibility (1/GPa) = 0.04556638
#
# Stress axis : x y z
#
# Youngs Moduli (GPa) = 97.07837 30.86839 109.04004
#
# Poissons Ratio (x) = -0.07489 0.30455
# Poissons Ratio (y) = -0.23552 0.30353
# Poissons Ratio (z) = 0.27114 0.08593
#
# Static dielectric constant tensor:
#      x y z
#    x 1.736240 0.000000 -0.006750 
#    y 0.000000 1.812660 0.000000 
#    z -0.006750 0.000000 1.813180 
# 
# From -- ./inp_files/378527.got.cif
#   From: 2010.05.17/outbox.cif.g08.bks.cpg/sg12_190_cif.got.tgz:378527.got - 2010.06.03 13:09:07.
