data_PCOD9202528
_publ_section_title
;
Structure prediction by ZEFSAII (Michael W. Deem and Ramdas Pophale) SiO2 
 PCOD9202528
Probable space group: C 2/M
;
_chemical_formula_sum "Si O2"
_cell_formula_units_Z 64
_cell_length_a 15.901931
_cell_length_b 7.754725
_cell_length_c 33.170067
_cell_angle_alpha 90.000000
_cell_angle_beta 133.381102
_cell_angle_gamma 90.000000
_cell_volume 2972.886189
_symmetry_space_group_name_H-M "C 2/M"
_symmetry_group_IT_number 12
_symmetry_cell_setting 'monoclinic'
loop_
_space_group_symop_operation_xyz
x,y,z
-x,y,-z
-x,-y,-z
x,-y,z
1/2+x,1/2+y,z
1/2-x,1/2+y,-z
1/2-x,1/2-y,-z
1/2+x,1/2-y,z
loop_
_atom_site_type_symbol
_atom_site_label
_atom_site_fract_x
_atom_site_fract_y
_atom_site_fract_z
Si Si1 0.585724 0.201510 0.061602
Si Si2 0.781682 0.210507 0.258616
Si Si3 0.178781 0.291987 0.363506
Si Si4 0.880479 0.205816 0.376432
Si Si5 0.160337 0.301351 0.877166
Si Si6 0.633643 0.795245 0.438226
Si Si7 0.048057 0.711798 0.139910
Si Si8 0.952373 0.794815 0.242490
O O1 0.717503 0.212699 0.090322
O O2 0.573136 0.272103 0.102748
O O3 0.554534 0.000000 0.055323
O O4 0.500000 0.278677 0.000000
O O5 0.827960 0.273204 0.316857
O O6 0.653169 0.265738 0.203698
O O7 0.869035 0.261945 0.251698
O O8 0.782343 0.000000 0.259839
O O9 0.181969 0.500000 0.367591
O O10 0.302855 0.229918 0.387994
O O11 0.142201 0.223650 0.395346
O O12 0.082004 0.245219 0.298885
O O13 0.016808 0.237175 0.421648
O O14 0.864929 0.000000 0.370549
O O15 0.186223 0.500000 0.895014
O O16 0.075473 0.230783 0.883672
O O17 0.087113 0.291228 0.811762
O O18 0.750000 0.750000 0.500000
O O19 0.626110 0.000000 0.432903
O O20 0.048502 0.500000 0.140792
O O21 0.937758 0.000000 0.232628
#
# Coordination Sequence:
#
# PCOD9202528 Si02
#       8
#     8   8   8   8   8   8   8   8
#     4  10  21  39  61  82 109 150 197 240 283 338
#     4   9  16  30  57  84 109 145 184 221 272 341
#     4  10  22  39  61  88 118 150 189 235 286 341
#     4  10  20  38  62  86 113 152 192 231 285 345
#     4  11  22  36  58  85 115 151 189 234 286 341
#     4  11  24  41  60  85 116 152 195 243 285 333
#     4   9  18  35  57  82 114 152 188 224 282 346
#     4  11  20  34  60  89 117 150 188 231 281 341
#
# _framework density 21.527901
#
# number of rings (size 3 to 8) (size 9 to 14) (size 15 to 20)
#    0.000    1.875    2.500    1.875    0.000    4.250 
#    0.000    3.750    0.000    0.000    0.000    0.000 
#    0.000    0.000    0.000    0.000    0.000    0.000 
#
# Total GULP energy -178796.814182 kJ/mol
# GULP energy per Si atom -5587.400443 kJ/mol
# Density = 2.147890 g / cm^3
# Si number density = 21.527901 Si / 1000 Ang^3
#
#
#
# Elastic Constant Matrix: (Units=GPa)
#
#
# Indices 1 2 3 4 5 6 
#
# 1 125.9305 -2.4901 14.6593 0.0000 26.2090 0.0000
# 2 -2.4901 27.0867 -15.3432 0.0000 -7.8090 0.0000
# 3 14.6593 -15.3432 75.3518 0.0000 27.4428 0.0000
# 4 0.0000 0.0000 0.0000 12.4551 0.0000 5.8624
# 5 26.2090 -7.8090 27.4428 0.0000 12.5932 0.0000
# 6 0.0000 0.0000 0.0000 5.8624 0.0000 15.1196
#
#
#
# Elastic Compliance Matrix: (Units=1/GPa)
#
#
# Indices 1 2 3 4 5 6 
#
# 1 -0.016733 0.013903 -0.047183 0.000000 0.146264 0.000000
# 2 0.013903 0.033771 0.034323 0.000000 -0.082789 0.000000
# 3 -0.047183 0.034323 -0.068208 0.000000 0.268118 0.000000
# 4 0.000000 0.000000 0.000000 0.098213 0.000000 -0.038081
# 5 0.146264 -0.082789 0.268118 0.000000 -0.860610 0.000001
# 6 0.000000 0.000000 0.000000 -0.038081 0.000001 0.080904
#
#
# Mechanical properties :
#
#
# Convention : Reuss Voigt Hill
#
# Bulk Modulus (GPa) = -20.37336 24.66900 2.14782
# Shear Modulus (GPa) = -6.65681 23.46979 8.40649
#
# Velocity S-wave (km/s) = -1.76037 3.30540 1.97823
# Velocity P-wave (km/s) = 3.69000 5.10407 2.49354
#
# Compressibility (1/GPa) = -0.04908371
#
# Stress axis : x y z
#
# Youngs Moduli (GPa) = -59.76313 29.61100 -14.66097
#
# Poissons Ratio (x) = -0.41167 -0.69175
# Poissons Ratio (y) = 0.83086 0.50321
# Poissons Ratio (z) = -2.81979 -1.01635
#
# Static dielectric constant tensor:
#      x y z
#    x 1.778780 0.000000 -0.023290 
#    y 0.000000 1.806500 0.000000 
#    z -0.023290 0.000000 1.748640 
# 
# From -- ./inp_files/375567.got.cif
#   From: 2010.05.17/outbox.cif.g08.bks.cpg/sg12_188_cif.got.tgz:375567.got - 2010.06.03 13:09:07.
