data_PCOD9202799
_publ_section_title
;
Structure prediction by ZEFSAII (Michael W. Deem and Ramdas Pophale) SiO2 
 PCOD9202799
Probable space group: C 2/M
;
_chemical_formula_sum "Si O2"
_cell_formula_units_Z 44
_cell_length_a 19.851971
_cell_length_b 13.648482
_cell_length_c 8.833713
_cell_angle_alpha 90.000000
_cell_angle_beta 81.220185
_cell_angle_gamma 90.000000
_cell_volume 2365.441703
_symmetry_space_group_name_H-M "C 2/M"
_symmetry_group_IT_number 12
_symmetry_cell_setting 'monoclinic'
loop_
_space_group_symop_operation_xyz
x,y,z
-x,y,-z
-x,-y,-z
x,-y,z
1/2+x,1/2+y,z
1/2-x,1/2+y,-z
1/2-x,1/2-y,-z
1/2+x,1/2-y,z
loop_
_atom_site_type_symbol
_atom_site_label
_atom_site_fract_x
_atom_site_fract_y
_atom_site_fract_z
Si Si1 0.052257 0.289408 0.202310
Si Si2 0.615026 0.000000 0.667159
Si Si3 0.597679 0.800571 0.850448
Si Si4 0.782419 0.500000 0.625883
Si Si5 0.304601 0.316469 0.390497
Si Si6 0.921377 0.114257 0.584982
Si Si7 0.432320 0.000000 0.648136
O O1 0.083037 0.201053 0.289762
O O2 0.047498 0.394417 0.289675
O O3 0.975039 0.260540 0.183953
O O4 0.093067 0.303683 0.032353
O O5 0.604292 0.907085 0.774426
O O6 0.564524 0.000000 0.537868
O O7 0.687805 0.000000 0.557264
O O8 0.658658 0.740458 0.756862
O O9 0.737743 0.405389 0.661866
O O10 0.850005 0.500000 0.701562
O O11 0.250000 0.250000 0.500000
O O12 0.364725 0.357039 0.479217
O O13 0.000000 0.119379 0.500000
O O14 0.910106 0.000000 0.635974
#
# Coordination Sequence:
#
# PCOD9202799 Si02
#       7
#     8   4   8   4   8   8   4
#     4  11  23  41  61  99 133 161 206 264 333 376
#     4  10  20  38  63  93 119 167 207 255 313 376
#     4  11  23  38  64  95 132 167 201 263 325 385
#     4  10  22  38  62  93 118 161 218 251 304 367
#     4  12  21  41  67  89 123 166 217 258 309 377
#     4  11  23  41  66  94 123 168 221 266 303 369
#     4  10  22  40  67  95 126 164 214 263 318 381
#
# _framework density 18.601175999999999
#
# number of rings (size 3 to 8) (size 9 to 14) (size 15 to 20)
#    0.545    0.545    4.545    3.273    0.000    2.182 
#    1.636    4.545    0.000    0.000    0.000    0.000 
#    0.000    0.000    0.000    0.000    0.000    0.000 
#
# Total GULP energy -122709.931609 kJ/mol
# GULP energy per Si atom -5577.724164 kJ/mol
# Density = 1.855884 g / cm^3
# Si number density = 18.601176 Si / 1000 Ang^3
#
#
#
# Elastic Constant Matrix: (Units=GPa)
#
#
# Indices 1 2 3 4 5 6 
#
# 1 62.8356 21.1238 13.5818 0.0000 -11.8246 0.0000
# 2 21.1238 129.5407 61.5803 0.0000 -7.5515 0.0000
# 3 13.5818 61.5803 110.2461 0.0000 -18.6388 0.0000
# 4 0.0000 0.0000 0.0000 -3.6209 0.0000 -12.7271
# 5 -11.8246 -7.5515 -18.6388 0.0000 32.2179 0.0000
# 6 0.0000 0.0000 0.0000 -12.7271 0.0000 42.5649
#
#
#
# Elastic Compliance Matrix: (Units=1/GPa)
#
#
# Indices 1 2 3 4 5 6 
#
# 1 0.017911 -0.002733 0.000358 0.000000 0.006140 0.000000
# 2 -0.002733 0.010959 -0.006118 0.000000 -0.001974 0.000000
# 3 0.000358 -0.006118 0.013549 0.000000 0.006536 0.000000
# 4 0.000000 0.000000 0.000000 -0.134656 0.000000 -0.040263
# 5 0.006140 -0.001974 0.006536 0.000000 0.036611 0.000000
# 6 0.000000 0.000000 0.000000 -0.040263 0.000000 0.011455
#
#
# Mechanical properties :
#
#
# Convention : Reuss Voigt Hill
#
# Bulk Modulus (GPa) = 39.31939 55.02159 47.17049
# Shear Modulus (GPa) = -267.27532 27.98814 -119.64359
#
# Velocity S-wave (km/s) = -11.99997 3.88318 -8.02870
# Velocity P-wave (km/s) = 13.06962 7.05332 7.78029
#
# Compressibility (1/GPa) = 0.02543274
#
# Stress axis : x y z
#
# Youngs Moduli (GPa) = 55.83016 91.25234 73.80662
#
# Poissons Ratio (x) = 0.24940 -0.02643
# Poissons Ratio (y) = 0.15259 0.45156
# Poissons Ratio (z) = -0.02000 0.55830
#
# Static dielectric constant tensor:
#      x y z
#    x 1.736270 0.000000 -0.028340 
#    y 0.000000 1.613950 0.000000 
#    z -0.028340 0.000000 1.626260 
# 
# From -- ./inp_files/84093.got.cif
#   From: 2010.05.17/outbox.cif.g08.bks.cpg/sg12_43_cif.got.tgz:84093.got - 2010.06.03 13:09:07.
