data_PCOD9202952
_publ_section_title
;
Structure prediction by ZEFSAII (Michael W. Deem and Ramdas Pophale) SiO2 
 PCOD9202952
Probable space group: C 2/M
;
_chemical_formula_sum "Si O2"
_cell_formula_units_Z 48
_cell_length_a 10.483003
_cell_length_b 18.535579
_cell_length_c 11.093589
_cell_angle_alpha 90.000000
_cell_angle_beta 77.670137
_cell_angle_gamma 90.000000
_cell_volume 2105.859270
_symmetry_space_group_name_H-M "C 2/M"
_symmetry_group_IT_number 12
_symmetry_cell_setting 'monoclinic'
loop_
_space_group_symop_operation_xyz
x,y,z
-x,y,-z
-x,-y,-z
x,-y,z
1/2+x,1/2+y,z
1/2-x,1/2+y,-z
1/2-x,1/2-y,-z
1/2+x,1/2-y,z
loop_
_atom_site_type_symbol
_atom_site_label
_atom_site_fract_x
_atom_site_fract_y
_atom_site_fract_z
Si Si1 0.973868 0.413966 0.201762
Si Si2 0.175188 0.660027 0.577876
Si Si3 0.144607 0.203226 0.952261
Si Si4 0.575374 0.582584 0.358791
Si Si5 0.657562 0.320342 0.671740
Si Si6 0.290586 0.914429 0.017387
O O1 0.966793 0.500000 0.210088
O O2 0.944082 0.382111 0.337819
O O3 0.110906 0.395929 0.112106
O O4 0.864407 0.391502 0.124731
O O5 0.298819 0.630887 0.632590
O O6 0.223776 0.646472 0.431552
O O7 0.139714 0.743849 0.606312
O O8 0.180596 0.197813 0.805353
O O9 0.157828 0.126044 0.015861
O O10 0.250000 0.250000 0.000000
O O11 0.000000 0.232417 0.000000
O O12 0.500000 0.574112 0.500000
O O13 0.606484 0.500000 0.309783
O O14 0.469945 0.628480 0.305002
O O15 0.276462 0.000000 0.023457
#
# Coordination Sequence:
#
# PCOD9202952 Si02
#       6
#     8   8   8   8   8   8
#     4   9  18  36  69 101 131 180 228 273 337 417
#     4  10  20  38  64  95 136 178 224 281 345 423
#     4  12  29  46  69  98 133 182 230 289 349 415
#     4   9  19  37  62  95 136 179 224 275 340 417
#     4  10  24  39  60  96 132 177 226 287 345 412
#     4   9  21  41  65  98 136 175 226 280 331 401
#
# _framework density 22.793547
#
# number of rings (size 3 to 8) (size 9 to 14) (size 15 to 20)
#    0.000    2.167    0.000    2.500    9.333    1.667 
#    0.000    0.833    0.000    2.000    0.000    0.000 
#    0.000    0.000    0.000    0.000    0.000    0.000 
#
# Total GULP energy -134021.682087 kJ/mol
# GULP energy per Si atom -5584.236754 kJ/mol
# Density = 2.274167 g / cm^3
# Si number density = 22.793547 Si / 1000 Ang^3
#
#
#
# Elastic Constant Matrix: (Units=GPa)
#
#
# Indices 1 2 3 4 5 6 
#
# 1 89.0574 34.5267 48.2310 0.0000 1.2947 0.0000
# 2 34.5267 76.0242 20.7452 0.0000 0.0111 0.0000
# 3 48.2310 20.7452 158.8475 0.0000 -20.3547 0.0000
# 4 0.0000 0.0000 0.0000 28.5891 0.0000 2.0820
# 5 1.2947 0.0111 -20.3547 0.0000 31.9707 0.0000
# 6 0.0000 0.0000 0.0000 2.0820 0.0000 33.8045
#
#
#
# Elastic Compliance Matrix: (Units=1/GPa)
#
#
# Indices 1 2 3 4 5 6 
#
# 1 0.016097 -0.006068 -0.004549 0.000000 -0.003546 0.000000
# 2 -0.006068 0.015973 -0.000232 0.000000 0.000093 0.000000
# 3 -0.004549 -0.000232 0.008417 0.000000 0.005543 0.000000
# 4 0.000000 0.000000 0.000000 0.035136 0.000000 -0.002164
# 5 -0.003546 0.000093 0.005543 0.000000 0.034951 0.000000
# 6 0.000000 0.000000 0.000000 -0.002164 0.000000 0.029715
#
#
# Mechanical properties :
#
#
# Convention : Reuss Voigt Hill
#
# Bulk Modulus (GPa) = 53.22518 58.99278 56.10898
# Shear Modulus (GPa) = 29.71750 33.56793 31.64271
#
# Velocity S-wave (km/s) = 3.61469 3.84173 3.72994
# Velocity P-wave (km/s) = 6.38929 6.75397 6.57416
#
# Compressibility (1/GPa) = 0.01878810
#
# Stress axis : x y z
#
# Youngs Moduli (GPa) = 62.12426 62.60599 118.80392
#
# Poissons Ratio (x) = 0.37992 0.54048
# Poissons Ratio (y) = 0.37700 0.02751
# Poissons Ratio (z) = 0.28263 0.01450
#
# Static dielectric constant tensor:
#      x y z
#    x 1.868970 0.000000 -0.029040 
#    y 0.000000 1.920930 0.000000 
#    z -0.029040 0.000000 1.880430 
# 
# From -- ./inp_files/131037.got.cif
#   From: 2010.05.17/outbox.cif.g08.bks.cpg/sg12_66_cif.got.tgz:131037.got - 2010.06.03 13:09:07.
