data_PCOD9202469
_publ_section_title
;
Structure prediction by ZEFSAII (Michael W. Deem and Ramdas Pophale) SiO2 
 PCOD9202469
Probable space group: C 2/M
;
_chemical_formula_sum "Si O2"
_cell_formula_units_Z 34
_cell_length_a 14.897546
_cell_length_b 7.429835
_cell_length_c 15.705646
_cell_angle_alpha 90.000000
_cell_angle_beta 50.667327
_cell_angle_gamma 90.000000
_cell_volume 1344.615701
_symmetry_space_group_name_H-M "C 2/M"
_symmetry_group_IT_number 12
_symmetry_cell_setting 'monoclinic'
loop_
_space_group_symop_operation_xyz
x,y,z
-x,y,-z
-x,-y,-z
x,-y,z
1/2+x,1/2+y,z
1/2-x,1/2+y,-z
1/2-x,1/2-y,-z
1/2+x,1/2-y,z
loop_
_atom_site_type_symbol
_atom_site_label
_atom_site_fract_x
_atom_site_fract_y
_atom_site_fract_z
Si Si1 0.408860 0.782346 0.344708
Si Si2 0.349735 0.199587 0.008518
Si Si3 0.671615 0.793279 0.422510
Si Si4 0.153699 0.719446 0.247050
Si Si5 0.500000 0.500000 0.000000
O O1 0.369530 0.715983 0.462781
O O2 0.311612 0.712859 0.339517
O O3 0.543037 0.733044 0.255799
O O4 0.401615 0.000000 0.347476
O O5 0.272672 0.203853 0.141104
O O6 0.448435 0.343385 0.966166
O O7 0.394154 0.000000 0.962819
O O8 0.250000 0.250000 0.000000
O O9 0.629806 0.719856 0.357930
O O10 0.632799 0.000000 0.448038
O O11 0.165176 0.500000 0.240331
#
# Coordination Sequence:
#
# PCOD9202469 Si02
#       5
#     8   8   8   8   2
#     4   9  18  33  56  85 125 177 217 270 330 392
#     4  12  26  49  77 107 143 185 239 300 367 439
#     4   9  18  33  55  86 127 173 223 266 328 400
#     4  10  20  38  61  91 132 172 227 280 340 412
#     4  12  26  52  80 104 142 188 228 304 370 436
#
# _framework density 25.286034999999998
#
# number of rings (size 3 to 8) (size 9 to 14) (size 15 to 20)
#    0.000    1.882    2.353    1.059    0.000    6.588 
#    0.000    2.353    0.000    7.059    0.000    0.000 
#    0.000    0.000    0.000    0.000    0.000    0.000 
#
# Total GULP energy -94822.120053 kJ/mol
# GULP energy per Si atom -5577.771768 kJ/mol
# Density = 2.522848 g / cm^3
# Si number density = 25.286035 Si / 1000 Ang^3
#
#
#
# Elastic Constant Matrix: (Units=GPa)
#
#
# Indices 1 2 3 4 5 6 
#
# 1 151.9984 41.2067 -5.2272 0.0000 2.5052 0.0000
# 2 41.2067 159.0824 -8.5296 0.0000 3.1107 -0.0001
# 3 -5.2272 -8.5296 35.8534 0.0000 -6.0836 0.0000
# 4 0.0000 0.0000 0.0000 14.0177 0.0000 -6.5253
# 5 2.5052 3.1107 -6.0836 0.0000 30.7200 0.0000
# 6 0.0000 -0.0001 0.0000 -6.5253 0.0000 -18.7546
#
#
#
# Elastic Compliance Matrix: (Units=1/GPa)
#
#
# Indices 1 2 3 4 5 6 
#
# 1 0.007091 -0.001801 0.000557 0.000000 -0.000286 0.000000
# 2 -0.001801 0.006829 0.001314 0.000000 -0.000284 0.000000
# 3 0.000557 0.001314 0.029237 0.000000 0.005612 0.000000
# 4 0.000000 0.000000 0.000000 0.061395 0.000000 -0.021361
# 5 -0.000286 -0.000284 0.005612 0.000000 0.033715 0.000000
# 6 0.000000 0.000000 0.000000 -0.021361 0.000000 -0.045888
#
#
# Mechanical properties :
#
#
# Convention : Reuss Voigt Hill
#
# Bulk Modulus (GPa) = 23.09718 44.64823 33.87271
# Shear Modulus (GPa) = 46.87229 26.49557 36.68393
#
# Velocity S-wave (km/s) = 4.31011 3.24054 3.81301
# Velocity P-wave (km/s) = 5.82440 5.63001 5.72803
#
# Compressibility (1/GPa) = 0.04329533
#
# Stress axis : x y z
#
# Youngs Moduli (GPa) = 141.01931 146.44175 34.20299
#
# Poissons Ratio (x) = 0.26380 -0.01905
# Poissons Ratio (y) = 0.25403 -0.04493
# Poissons Ratio (z) = -0.07853 -0.19237
#
# Static dielectric constant tensor:
#      x y z
#    x 1.953930 0.000000 -0.008480 
#    y 0.000000 1.973200 0.000000 
#    z -0.008480 0.000000 2.088970 
# 
# From -- ./inp_files/210648.got.cif
#   From: 2010.05.17/outbox.cif.g08.bks.cpg/sg12_106_cif.got.tgz:210648.got - 2010.06.03 13:09:07.
