data_PCOD9202861
_publ_section_title
;
Structure prediction by ZEFSAII (Michael W. Deem and Ramdas Pophale) SiO2 
 PCOD9202861
Probable space group: C 2/M
;
_chemical_formula_sum "Si O2"
_cell_formula_units_Z 48
_cell_length_a 19.202789
_cell_length_b 8.776135
_cell_length_c 26.230692
_cell_angle_alpha 90.000000
_cell_angle_beta 34.992177
_cell_angle_gamma 90.000000
_cell_volume 2535.034983
_symmetry_space_group_name_H-M "C 2/M"
_symmetry_group_IT_number 12
_symmetry_cell_setting 'monoclinic'
loop_
_space_group_symop_operation_xyz
x,y,z
-x,y,-z
-x,-y,-z
x,-y,z
1/2+x,1/2+y,z
1/2-x,1/2+y,-z
1/2-x,1/2-y,-z
1/2+x,1/2-y,z
loop_
_atom_site_type_symbol
_atom_site_label
_atom_site_fract_x
_atom_site_fract_y
_atom_site_fract_z
Si Si1 0.071865 0.184466 0.250099
Si Si2 0.139583 0.185379 0.416367
Si Si3 0.760319 0.816172 0.754183
Si Si4 0.240323 0.319879 0.950209
Si Si5 0.697911 0.816273 0.583977
Si Si6 0.995354 0.171061 0.063481
O O1 0.140672 0.223210 0.261771
O O2 0.158942 0.234174 0.151141
O O3 0.939572 0.258330 0.326447
O O4 0.059689 0.000000 0.255996
O O5 0.197980 0.228958 0.327363
O O6 0.217769 0.232924 0.418671
O O7 0.000000 0.237796 0.500000
O O8 0.137459 0.000000 0.418916
O O9 0.632925 0.738928 0.843146
O O10 0.746474 0.000000 0.763998
O O11 0.253840 0.500000 0.945181
O O12 0.250000 0.250000 0.000000
O O13 0.106734 0.276773 0.011740
O O14 0.750000 0.750000 0.500000
O O15 0.699680 0.000000 0.580703
O O16 0.011802 0.000000 0.074839
O O17 0.000000 0.161694 0.000000
#
# Coordination Sequence:
#
# PCOD9202861 Si02
#       6
#     8   8   8   8   8   8
#     4  10  22  40  62  88 120 158 200 249 304 364
#     4   9  19  37  62  89 115 147 194 246 295 356
#     4  10  20  38  64  89 116 157 205 251 301 359
#     4  11  24  41  62  89 124 165 209 254 306 365
#     4  11  23  39  62  90 120 156 197 245 303 366
#     4  11  23  39  60  89 125 164 205 253 306 358
#
# _framework density 18.934650999999999
#
# number of rings (size 3 to 8) (size 9 to 14) (size 15 to 20)
#    0.000    1.667    1.667    2.500    2.333    5.333 
#    0.000    0.833    0.000    3.500    0.000    0.000 
#    0.000    0.000    0.000    0.000    0.000    0.000 
#
# Total GULP energy -134053.096774 kJ/mol
# GULP energy per Si atom -5585.545699 kJ/mol
# Density = 1.889155 g / cm^3
# Si number density = 18.934651 Si / 1000 Ang^3
#
#
#
# Elastic Constant Matrix: (Units=GPa)
#
#
# Indices 1 2 3 4 5 6 
#
# 1 161.2506 34.8945 112.5881 0.0000 9.1526 0.0000
# 2 34.8945 32.9785 44.4099 0.0000 3.8676 0.0000
# 3 112.5881 44.4099 197.4643 0.0000 -3.2886 0.0000
# 4 0.0000 0.0000 0.0000 9.6523 0.0000 2.0788
# 5 9.1526 3.8676 -3.2886 0.0000 36.9003 0.0000
# 6 0.0000 0.0000 0.0000 2.0788 0.0000 30.9288
#
#
#
# Elastic Compliance Matrix: (Units=1/GPa)
#
#
# Indices 1 2 3 4 5 6 
#
# 1 0.011018 -0.004028 -0.005423 0.000000 -0.002794 0.000000
# 2 -0.004028 0.046086 -0.008144 0.000000 -0.004557 0.000000
# 3 -0.005423 -0.008144 0.010039 0.000000 0.003093 0.000000
# 4 0.000000 0.000000 0.000000 0.105124 0.000000 -0.007066
# 5 -0.002794 -0.004557 0.003093 0.000000 0.028546 0.000000
# 6 0.000000 0.000000 0.000000 -0.007066 0.000000 0.032807
#
#
# Mechanical properties :
#
#
# Convention : Reuss Voigt Hill
#
# Bulk Modulus (GPa) = 31.29515 86.16427 58.72971
# Shear Modulus (GPa) = 17.89152 28.81635 23.35394
#
# Velocity S-wave (km/s) = 3.07727 3.90537 3.51578
# Velocity P-wave (km/s) = 5.40278 8.12039 6.89677
#
# Compressibility (1/GPa) = 0.03195383
#
# Stress axis : x y z
#
# Youngs Moduli (GPa) = 90.76004 21.69841 99.60907
#
# Poissons Ratio (x) = 0.08740 0.54016
# Poissons Ratio (y) = 0.36558 0.81123
# Poissons Ratio (z) = 0.49217 0.17671
#
# Static dielectric constant tensor:
#      x y z
#    x 1.561080 0.000000 0.022700 
#    y 0.000000 1.654990 0.000000 
#    z 0.022700 0.000000 1.630440 
# 
# From -- ./inp_files/365367.got.cif
#   From: 2010.05.17/outbox.cif.g08.bks.cpg/sg12_183_cif.got.tgz:365367.got - 2010.06.03 13:09:07.
