data_PCOD9202362
_publ_section_title
;
Structure prediction by ZEFSAII (Michael W. Deem and Ramdas Pophale) SiO2 
 PCOD9202362
Probable space group: C 2/M
;
_chemical_formula_sum "Si O2"
_cell_formula_units_Z 64
_cell_length_a 19.774475
_cell_length_b 8.628538
_cell_length_c 30.672524
_cell_angle_alpha 90.000000
_cell_angle_beta 36.348790
_cell_angle_gamma 90.000000
_cell_volume 3101.887697
_symmetry_space_group_name_H-M "C 2/M"
_symmetry_group_IT_number 12
_symmetry_cell_setting 'monoclinic'
loop_
_space_group_symop_operation_xyz
x,y,z
-x,y,-z
-x,-y,-z
x,-y,z
1/2+x,1/2+y,z
1/2-x,1/2+y,-z
1/2-x,1/2-y,-z
1/2+x,1/2-y,z
loop_
_atom_site_type_symbol
_atom_site_label
_atom_site_fract_x
_atom_site_fract_y
_atom_site_fract_z
Si Si1 0.705646 0.187229 0.955709
Si Si2 0.000088 0.186238 0.310236
Si Si3 0.925734 0.815788 0.894658
Si Si4 0.426888 0.817107 0.440900
Si Si5 0.340789 0.184177 0.209162
Si Si6 0.765995 0.812674 0.395176
Si Si7 0.134193 0.182824 0.380782
Si Si8 0.741214 0.810275 0.840709
O O1 0.831163 0.234239 0.908380
O O2 0.692093 0.237776 0.912887
O O3 0.699046 0.000000 0.960323
O O4 0.616646 0.251820 0.036746
O O5 0.964852 0.231397 0.377451
O O6 0.896911 0.238329 0.332588
O O7 0.126882 0.241022 0.232515
O O8 0.003286 0.000000 0.306172
O O9 0.053678 0.760110 0.820995
O O10 0.923552 0.000000 0.896646
O O11 0.304227 0.773508 0.524416
O O12 0.519717 0.775463 0.429739
O O13 0.427779 0.000000 0.432054
O O14 0.221955 0.210222 0.295413
O O15 0.327463 0.240713 0.166358
O O16 0.360818 0.000000 0.197902
O O17 0.700354 0.736299 0.389298
O O18 0.762388 0.000000 0.392079
O O19 0.108165 0.000000 0.396474
O O20 0.741505 0.000000 0.839871
#
# Coordination Sequence:
#
# PCOD9202362 Si02
#       8
#     8   8   8   8   8   8   8   8
#     4   9  19  37  61  85 111 149 189 225 271 330
#     4  10  20  38  61  84 114 152 195 239 285 345
#     4  10  21  36  58  88 118 147 182 226 279 333
#     4  11  22  38  58  84 118 152 191 240 295 347
#     4  10  21  38  58  81 112 147 189 235 279 333
#     4  10  23  38  58  86 116 152 192 241 294 346
#     4  11  23  39  59  84 114 153 197 242 290 343
#     4   9  18  36  60  82 107 146 195 233 270 331
#
# _framework density 20.632598000000002
#
# number of rings (size 3 to 8) (size 9 to 14) (size 15 to 20)
#    0.000    2.000    1.250    1.875    1.750    5.000 
#    0.000    3.750    0.000    0.000    0.000    0.000 
#    0.000    0.000    0.000    0.000    0.000    0.000 
#
# Total GULP energy -178771.202024 kJ/mol
# GULP energy per Si atom -5586.600063 kJ/mol
# Density = 2.058564 g / cm^3
# Si number density = 20.632598 Si / 1000 Ang^3
#
#
#
# Elastic Constant Matrix: (Units=GPa)
#
#
# Indices 1 2 3 4 5 6 
#
# 1 45.1494 -7.6692 -6.0624 0.0000 3.5081 -0.0007
# 2 -7.6692 -6.0539 11.2168 0.0004 -2.2925 -0.0026
# 3 -6.0624 11.2168 4.8540 -0.0001 -2.0729 -0.0001
# 4 0.0000 0.0004 -0.0001 24.2932 0.0001 2.0446
# 5 3.5081 -2.2925 -2.0729 0.0001 39.3567 0.0001
# 6 -0.0007 -0.0026 -0.0001 2.0446 0.0001 19.4117
#
#
#
# Elastic Compliance Matrix: (Units=1/GPa)
#
#
# Indices 1 2 3 4 5 6 
#
# 1 0.025784 0.005039 0.020156 0.000000 -0.000943 0.000002
# 2 0.005039 -0.030133 0.076709 0.000001 0.001836 -0.000004
# 3 0.020156 0.076709 0.056336 -0.000002 0.005639 0.000011
# 4 0.000000 0.000001 -0.000002 0.041532 0.000000 -0.004375
# 5 -0.000943 0.001836 0.005639 0.000000 0.025897 0.000000
# 6 0.000002 -0.000004 0.000011 -0.004375 0.000000 0.051976
#
#
# Mechanical properties :
#
#
# Convention : Reuss Voigt Hill
#
# Bulk Modulus (GPa) = 3.90935 4.32443 4.11689
# Shear Modulus (GPa) = 94.61083 19.70994 57.16039
#
# Velocity S-wave (km/s) = 6.77898 3.09412 5.26916
# Velocity P-wave (km/s) = 7.94806 3.85554 6.24647
#
# Compressibility (1/GPa) = 0.25579673
#
# Stress axis : x y z
#
# Youngs Moduli (GPa) = 38.78321 -33.18641 17.75074
#
# Poissons Ratio (x) = 0.16722 -0.35779
# Poissons Ratio (y) = -0.19543 -1.36165
# Poissons Ratio (z) = -0.78173 2.54571
#
# Static dielectric constant tensor:
#      x y z
#    x 1.739880 0.000000 -0.005050 
#    y 0.000000 1.700760 0.000000 
#    z -0.005050 0.000000 1.748530 
# 
# From -- ./inp_files/378205.got.cif
#   From: 2010.05.17/outbox.cif.g08.bks.cpg/sg12_190_cif.got.tgz:378205.got - 2010.06.03 13:09:07.
