data_PCOD9202736
_publ_section_title
;
Structure prediction by ZEFSAII (Michael W. Deem and Ramdas Pophale) SiO2 
 PCOD9202736
Probable space group: C 2/M
;
_chemical_formula_sum "Si O2"
_cell_formula_units_Z 64
_cell_length_a 28.795497
_cell_length_b 8.257825
_cell_length_c 23.404749
_cell_angle_alpha 90.000000
_cell_angle_beta 32.491863
_cell_angle_gamma 90.000000
_cell_volume 2989.605862
_symmetry_space_group_name_H-M "C 2/M"
_symmetry_group_IT_number 12
_symmetry_cell_setting 'monoclinic'
loop_
_space_group_symop_operation_xyz
x,y,z
-x,y,-z
-x,-y,-z
x,-y,z
1/2+x,1/2+y,z
1/2-x,1/2+y,-z
1/2-x,1/2-y,-z
1/2+x,1/2-y,z
loop_
_atom_site_type_symbol
_atom_site_label
_atom_site_fract_x
_atom_site_fract_y
_atom_site_fract_z
Si Si1 0.829300 0.194012 0.988469
Si Si2 0.651732 0.191861 0.609937
Si Si3 0.854546 0.804401 0.832539
Si Si4 0.773811 0.804523 0.237734
Si Si5 0.412318 0.304808 0.559756
Si Si6 0.453553 0.304419 0.391483
Si Si7 0.928785 0.802372 0.994506
Si Si8 0.383217 0.695496 0.226449
O O1 0.732509 0.242723 0.106319
O O2 0.898087 0.248483 0.963360
O O3 0.833382 0.000000 0.982254
O O4 0.848370 0.254037 0.904868
O O5 0.750000 0.250000 0.500000
O O6 0.594453 0.251826 0.616179
O O7 0.619657 0.250630 0.705177
O O8 0.650476 0.000000 0.610822
O O9 0.946161 0.751915 0.713007
O O10 0.852224 0.000000 0.834486
O O11 0.679225 0.744978 0.318811
O O12 0.853058 0.749015 0.115492
O O13 0.801751 0.751514 0.272765
O O14 0.772191 0.000000 0.237776
O O15 0.500000 0.247751 0.500000
O O16 0.415712 0.500000 0.556472
O O17 0.412640 0.247529 0.493455
O O18 0.452819 0.500000 0.392438
O O19 0.929408 0.000000 0.997398
O O20 0.028080 0.751329 0.896980
O O21 0.383367 0.500000 0.226451
#
# Coordination Sequence:
#
# PCOD9202736 Si02
#       8
#     8   8   8   8   8   8   8   8
#     4   9  17  30  49  76 110 145 185 232 282 335
#     4  12  25  40  61  89 120 153 194 242 296 353
#     4   9  18  32  52  77 107 145 186 231 284 340
#     4  10  21  37  60  89 117 153 201 248 293 347
#     4  10  23  41  60  84 116 156 199 243 297 356
#     4  10  21  39  61  83 112 151 195 238 289 351
#     4   9  18  34  58  86 117 155 198 240 290 349
#     4  10  20  38  63  89 122 159 197 241 294 354
#
# _framework density 21.407503999999999
#
# number of rings (size 3 to 8) (size 9 to 14) (size 15 to 20)
#    0.000    2.125    0.000    3.000    1.750    7.250 
#    0.000    3.750    0.000    1.500    0.000    0.000 
#    0.000    0.000    0.000    0.000    0.000    0.000 
#
# Total GULP energy -178700.394373 kJ/mol
# GULP energy per Si atom -5584.387324 kJ/mol
# Density = 2.135878 g / cm^3
# Si number density = 21.407504 Si / 1000 Ang^3
#
#
#
# Elastic Constant Matrix: (Units=GPa)
#
#
# Indices 1 2 3 4 5 6 
#
# 1 80.1315 10.0357 33.1522 -0.0027 -18.5521 0.0031
# 2 10.0357 13.8976 7.9364 0.0118 -0.8426 -0.0063
# 3 33.1522 7.9364 128.6655 0.0072 -15.6035 -0.0040
# 4 -0.0027 0.0118 0.0072 22.6368 -0.0024 -7.2710
# 5 -18.5521 -0.8426 -15.6035 -0.0024 36.5828 0.0006
# 6 0.0031 -0.0063 -0.0040 -7.2710 0.0006 12.9373
#
#
#
# Elastic Compliance Matrix: (Units=1/GPa)
#
#
# Indices 1 2 3 4 5 6 
#
# 1 0.016480 -0.009884 -0.002795 0.000007 0.006938 -0.000006
# 2 -0.009884 0.080512 -0.002955 -0.000036 -0.004418 0.000021
# 3 -0.002795 -0.002955 0.008958 -0.000001 0.002335 0.000001
# 4 0.000007 -0.000036 -0.000001 0.053907 0.000005 0.030297
# 5 0.006938 -0.004418 0.002335 0.000005 0.031748 -0.000002
# 6 -0.000006 0.000021 0.000001 0.030297 -0.000002 0.094323
#
#
# Mechanical properties :
#
#
# Convention : Reuss Voigt Hill
#
# Bulk Modulus (GPa) = 13.39023 36.10479 24.74751
# Shear Modulus (GPa) = 14.61604 25.86942 20.24273
#
# Velocity S-wave (km/s) = 2.61579 3.48002 3.07838
# Velocity P-wave (km/s) = 3.92322 5.74886 4.92144
#
# Compressibility (1/GPa) = 0.07468133
#
# Stress axis : x y z
#
# Youngs Moduli (GPa) = 60.67978 12.42048 111.63441
#
# Poissons Ratio (x) = 0.12276 0.31205
# Poissons Ratio (y) = 0.59974 0.32993
# Poissons Ratio (z) = 0.16962 0.03671
#
# Static dielectric constant tensor:
#      x y z
#    x 1.787820 0.000010 0.017290 
#    y 0.000010 1.760130 0.000030 
#    z 0.017290 0.000030 1.782610 
# 
# From -- ./inp_files/353385.got.cif
#   From: 2010.05.17/outbox.cif.g08.bks.cpg/sg12_177_cif.got.tgz:353385.got - 2010.06.03 13:09:07.
