data_PCOD9202263
_publ_section_title
;
Structure prediction by ZEFSAII (Michael W. Deem and Ramdas Pophale) SiO2 
 PCOD9202263
Probable space group: C 2/M
;
_chemical_formula_sum "Si O2"
_cell_formula_units_Z 48
_cell_length_a 11.448693
_cell_length_b 22.871965
_cell_length_c 12.046234
_cell_angle_alpha 90.000000
_cell_angle_beta 132.299851
_cell_angle_gamma 90.000000
_cell_volume 2333.065177
_symmetry_space_group_name_H-M "C 2/M"
_symmetry_group_IT_number 12
_symmetry_cell_setting 'monoclinic'
loop_
_space_group_symop_operation_xyz
x,y,z
-x,y,-z
-x,-y,-z
x,-y,z
1/2+x,1/2+y,z
1/2-x,1/2+y,-z
1/2-x,1/2-y,-z
1/2+x,1/2-y,z
loop_
_atom_site_type_symbol
_atom_site_label
_atom_site_fract_x
_atom_site_fract_y
_atom_site_fract_z
Si Si1 0.404348 0.432865 0.784555
Si Si2 0.882706 0.568274 0.573130
Si Si3 0.305806 0.872036 0.186748
Si Si4 0.812198 0.254145 0.911008
Si Si5 0.207677 0.122456 0.881120
Si Si6 0.174415 0.931763 0.636895
O O1 0.462927 0.500000 0.822114
O O2 0.256014 0.430320 0.605509
O O3 0.332629 0.413533 0.855852
O O4 0.534720 0.387908 0.822723
O O5 0.934777 0.500000 0.615318
O O6 0.804195 0.591437 0.636193
O O7 0.035180 0.607380 0.653318
O O8 0.257993 0.805537 0.183573
O O9 0.317309 0.879625 0.060407
O O10 0.738550 0.317037 0.835550
O O11 0.750000 0.250000 0.000000
O O12 0.000000 0.255056 0.000000
O O13 0.222264 0.074696 0.794787
O O14 0.000000 0.906766 0.500000
O O15 0.164626 0.000000 0.600487
#
# Coordination Sequence:
#
# PCOD9202263 Si02
#       6
#     8   8   8   8   8   8
#     4  11  22  41  65  92 131 169 202 253 324 384
#     4  10  22  39  61  90 127 166 199 249 320 378
#     4  11  23  39  62  93 122 160 212 263 305 369
#     4  10  23  43  64  89 129 170 208 261 329 377
#     4  11  23  38  66  91 117 163 214 257 305 372
#     4  10  20  38  60  85 123 164 202 248 311 378
#
# _framework density 20.573793999999999
#
# number of rings (size 3 to 8) (size 9 to 14) (size 15 to 20)
#    0.000    1.500    1.667    4.000    4.667    4.667 
#    0.000    4.167    0.000    0.000    0.000    0.000 
#    0.000    0.000    0.000    0.000    0.000    0.000 
#
# Total GULP energy -133800.398827 kJ/mol
# GULP energy per Si atom -5575.016618 kJ/mol
# Density = 2.052697 g / cm^3
# Si number density = 20.573794 Si / 1000 Ang^3
#
#
#
# Elastic Constant Matrix: (Units=GPa)
#
#
# Indices 1 2 3 4 5 6 
#
# 1 110.8565 36.1290 18.5501 0.0000 10.9135 0.0000
# 2 36.1290 81.8468 25.2536 0.0000 30.8757 0.0000
# 3 18.5501 25.2536 64.2922 0.0000 4.7589 0.0000
# 4 0.0000 0.0000 0.0000 -9.2663 0.0000 34.8742
# 5 10.9135 30.8757 4.7589 0.0000 41.3008 0.0000
# 6 0.0000 0.0000 0.0000 34.8742 0.0000 8.2673
#
#
#
# Elastic Compliance Matrix: (Units=1/GPa)
#
#
# Indices 1 2 3 4 5 6 
#
# 1 0.010662 -0.004583 -0.001333 0.000000 0.000762 0.000000
# 2 -0.004583 0.021433 -0.006052 0.000000 -0.014114 0.000000
# 3 -0.001333 -0.006052 0.018109 0.000000 0.002790 0.000000
# 4 0.000000 0.000000 0.000000 -0.006395 0.000000 0.026975
# 5 0.000762 -0.014114 0.002790 0.000000 0.034241 0.000000
# 6 0.000000 0.000000 0.000000 0.026975 0.000000 0.007168
#
#
# Mechanical properties :
#
#
# Convention : Reuss Voigt Hill
#
# Bulk Modulus (GPa) = 38.06676 46.31789 42.19232
# Shear Modulus (GPa) = 42.40579 19.86457 31.13518
#
# Velocity S-wave (km/s) = 4.54492 3.11067 3.89439
# Velocity P-wave (km/s) = 6.78855 5.95513 6.38545
#
# Compressibility (1/GPa) = 0.02626964
#
# Stress axis : x y z
#
# Youngs Moduli (GPa) = 93.78901 46.65805 55.22109
#
# Poissons Ratio (x) = 0.21383 0.07359
# Poissons Ratio (y) = 0.42983 0.33417
# Poissons Ratio (z) = 0.12499 0.28235
#
# Static dielectric constant tensor:
#      x y z
#    x 1.803070 0.000000 -0.013380 
#    y 0.000000 1.774390 0.000000 
#    z -0.013380 0.000000 1.750310 
# 
# From -- ./inp_files/135559.got.cif
#   From: 2010.05.17/outbox.cif.g08.bks.cpg/sg12_68_cif.got.tgz:135559.got - 2010.06.03 13:09:07.
