data_PCOD9202309
_publ_section_title
;
Structure prediction by ZEFSAII (Michael W. Deem and Ramdas Pophale) SiO2 
 PCOD9202309
Probable space group: C 2/M
;
_chemical_formula_sum "Si O2"
_cell_formula_units_Z 56
_cell_length_a 11.839228
_cell_length_b 15.833036
_cell_length_c 15.340809
_cell_angle_alpha 90.000000
_cell_angle_beta 75.963597
_cell_angle_gamma 90.000000
_cell_volume 2789.787183
_symmetry_space_group_name_H-M "C 2/M"
_symmetry_group_IT_number 12
_symmetry_cell_setting 'monoclinic'
loop_
_space_group_symop_operation_xyz
x,y,z
-x,y,-z
-x,-y,-z
x,-y,z
1/2+x,1/2+y,z
1/2-x,1/2+y,-z
1/2-x,1/2-y,-z
1/2+x,1/2-y,z
loop_
_atom_site_type_symbol
_atom_site_label
_atom_site_fract_x
_atom_site_fract_y
_atom_site_fract_z
Si Si1 0.617231 0.161129 0.212280
Si Si2 0.604745 0.898476 0.637879
Si Si3 0.163931 0.177534 0.318801
Si Si4 0.609974 0.259724 0.047785
Si Si5 0.793178 0.095217 0.290992
Si Si6 0.346221 0.201493 0.538502
Si Si7 0.459116 0.402511 0.807497
O O1 0.504926 0.129834 0.284812
O O2 0.668558 0.247312 0.246335
O O3 0.588994 0.182911 0.119209
O O4 0.717442 0.095678 0.217235
O O5 0.717329 0.857654 0.663282
O O6 0.591756 0.857172 0.544441
O O7 0.613183 0.000000 0.630726
O O8 0.097578 0.224614 0.411347
O O9 0.107534 0.104325 0.272109
O O10 0.594894 0.346516 0.105721
O O11 0.500000 0.258741 0.000000
O O12 0.750000 0.250000 0.000000
O O13 0.722175 0.142705 0.379417
O O14 0.915320 0.135978 0.242197
O O15 0.815189 0.000000 0.316884
O O16 0.250000 0.250000 0.500000
O O17 0.470871 0.500000 0.831740
#
# Coordination Sequence:
#
# PCOD9202309 Si02
#       7
#     8   8   8   8   8   8   8
#     4  10  23  38  66  87 124 165 213 258 321 394
#     4  11  22  39  61  91 129 173 219 271 322 371
#     4   9  21  36  59  87 124 166 212 249 309 372
#     4  11  25  43  70  99 127 160 211 266 332 408
#     4  10  20  38  60  90 126 166 211 259 307 370
#     4   9  20  35  57  88 128 171 216 262 305 366
#     4  10  22  40  67  92 126 163 205 261 322 384
#
# _framework density 20.073215000000001
#
# number of rings (size 3 to 8) (size 9 to 14) (size 15 to 20)
#    0.000    2.000    0.000    2.143   16.000    2.571 
#    2.571    5.000    0.000    6.429    0.000    0.000 
#    0.000    0.000    0.000    0.000    0.000    0.000 
#
# Total GULP energy -155872.455144 kJ/mol
# GULP energy per Si atom -5566.873398 kJ/mol
# Density = 2.002753 g / cm^3
# Si number density = 20.073215 Si / 1000 Ang^3
#
#
#
# Elastic Constant Matrix: (Units=GPa)
#
#
# Indices 1 2 3 4 5 6 
#
# 1 132.9230 20.1138 60.0725 0.0000 11.0004 0.0000
# 2 20.1138 70.6921 28.5152 0.0000 -0.2457 0.0000
# 3 60.0725 28.5152 107.0999 0.0000 6.8148 0.0000
# 4 0.0000 0.0000 0.0000 31.9454 0.0000 -12.6181
# 5 11.0004 -0.2457 6.8148 0.0000 41.8703 0.0000
# 6 0.0000 0.0000 0.0000 -12.6181 0.0000 53.8048
#
#
#
# Elastic Compliance Matrix: (Units=1/GPa)
#
#
# Indices 1 2 3 4 5 6 
#
# 1 0.010239 -0.000728 -0.005434 0.000000 -0.001810 0.000000
# 2 -0.000728 0.015925 -0.003890 0.000000 0.000918 0.000000
# 3 -0.005434 -0.003890 0.013471 0.000000 -0.000788 0.000000
# 4 0.000000 0.000000 0.000000 0.034499 0.000000 0.008091
# 5 -0.001810 0.000918 -0.000788 0.000000 0.024492 0.000000
# 6 0.000000 0.000000 0.000000 0.008091 0.000000 0.020483
#
#
# Mechanical properties :
#
#
# Convention : Reuss Voigt Hill
#
# Bulk Modulus (GPa) = 51.20053 58.67978 54.94016
# Shear Modulus (GPa) = 34.31135 38.99167 36.65151
#
# Velocity S-wave (km/s) = 4.13887 4.41213 4.27768
# Velocity P-wave (km/s) = 6.95719 7.43318 7.19912
#
# Compressibility (1/GPa) = 0.01953105
#
# Stress axis : x y z
#
# Youngs Moduli (GPa) = 97.66668 62.79301 74.23330
#
# Poissons Ratio (x) = 0.04569 0.40340
# Poissons Ratio (y) = 0.07106 0.28880
# Poissons Ratio (z) = 0.53074 0.24429
#
# Static dielectric constant tensor:
#      x y z
#    x 1.820740 0.000000 0.000280 
#    y 0.000000 1.765180 0.000000 
#    z 0.000280 0.000000 1.733260 
# 
# From -- ./inp_files/206084.got.cif
#   From: 2010.05.17/outbox.cif.g08.bks.cpg/sg12_104_cif.got.tgz:206084.got - 2010.06.03 13:09:07.
