data_PCOD9202513
_publ_section_title
;
Structure prediction by ZEFSAII (Michael W. Deem and Ramdas Pophale) SiO2 
 PCOD9202513
Probable space group: C 2/M
;
_chemical_formula_sum "Si O2"
_cell_formula_units_Z 48
_cell_length_a 18.601671
_cell_length_b 12.651564
_cell_length_c 11.552138
_cell_angle_alpha 90.000000
_cell_angle_beta 65.448454
_cell_angle_gamma 90.000000
_cell_volume 2472.880800
_symmetry_space_group_name_H-M "C 2/M"
_symmetry_group_IT_number 12
_symmetry_cell_setting 'monoclinic'
loop_
_space_group_symop_operation_xyz
x,y,z
-x,y,-z
-x,-y,-z
x,-y,z
1/2+x,1/2+y,z
1/2-x,1/2+y,-z
1/2-x,1/2-y,-z
1/2+x,1/2-y,z
loop_
_atom_site_type_symbol
_atom_site_label
_atom_site_fract_x
_atom_site_fract_y
_atom_site_fract_z
Si Si1 0.165657 0.121772 0.185513
Si Si2 0.584546 0.000000 0.292593
Si Si3 0.840476 0.375707 0.134117
Si Si4 0.570717 0.193061 0.140442
Si Si5 0.112877 0.288447 0.666655
Si Si6 0.587750 0.625139 0.484500
Si Si7 0.605607 0.000000 0.539156
O O1 0.259496 0.135556 0.116879
O O2 0.116434 0.199775 0.138803
O O3 0.141991 0.140232 0.335651
O O4 0.145686 0.000000 0.173094
O O5 0.602831 0.896969 0.205761
O O6 0.623431 0.000000 0.391734
O O7 0.489765 0.000000 0.378804
O O8 0.847731 0.500000 0.164476
O O9 0.839110 0.300095 0.246645
O O10 0.910836 0.345267 0.000863
O O11 0.478454 0.204800 0.230631
O O12 0.116690 0.190610 0.575945
O O13 0.134087 0.393121 0.579597
O O14 0.500000 0.660484 0.500000
O O15 0.583392 0.500000 0.513840
#
# Coordination Sequence:
#
# PCOD9202513 Si02
#       7
#     8   4   8   8   8   8   4
#     4  10  22  39  62  85 111 154 199 238 287 336
#     4   9  18  29  53  83 111 144 184 240 279 324
#     4  11  23  39  55  85 125 159 185 230 295 354
#     4  11  20  36  59  85 114 153 200 233 278 345
#     4  11  21  34  60  87 116 152 188 239 295 340
#     4  10  20  38  62  85 110 147 201 245 283 336
#     4   9  18  29  49  87 117 136 186 235 287 335
#
# _framework density 19.410558999999999
#
# number of rings (size 3 to 8) (size 9 to 14) (size 15 to 20)
#    0.000    1.667    3.333    2.000    2.333    1.333 
#    0.000    0.833    1.833    2.000    0.000    0.000 
#    0.000    0.000    0.000    0.000    0.000    0.000 
#
# Total GULP energy -134007.645378 kJ/mol
# GULP energy per Si atom -5583.651891 kJ/mol
# Density = 1.936638 g / cm^3
# Si number density = 19.410559 Si / 1000 Ang^3
#
#
#
# Elastic Constant Matrix: (Units=GPa)
#
#
# Indices 1 2 3 4 5 6 
#
# 1 31.4978 19.4032 -2.8887 0.0000 3.8740 0.0000
# 2 19.4032 69.9878 7.4326 0.0000 10.0794 0.0000
# 3 -2.8887 7.4326 41.4875 0.0000 10.8481 0.0000
# 4 0.0000 0.0000 0.0000 20.3056 0.0000 -0.1469
# 5 3.8740 10.0794 10.8481 0.0000 28.5339 0.0000
# 6 0.0000 0.0000 0.0000 -0.1469 0.0000 13.7368
#
#
#
# Elastic Compliance Matrix: (Units=1/GPa)
#
#
# Indices 1 2 3 4 5 6 
#
# 1 0.039512 -0.011035 0.005676 0.000000 -0.003624 0.000000
# 2 -0.011035 0.018215 -0.003043 0.000000 -0.003779 0.000000
# 3 0.005676 -0.003043 0.027720 0.000000 -0.010234 0.000000
# 4 0.000000 0.000000 0.000000 0.049251 0.000000 0.000527
# 5 -0.003624 -0.003779 -0.010234 0.000000 0.040764 0.000000
# 6 0.000000 0.000000 0.000000 0.000527 0.000000 0.072803
#
#
# Mechanical properties :
#
#
# Convention : Reuss Voigt Hill
#
# Bulk Modulus (GPa) = 14.56838 21.20749 17.88793
# Shear Modulus (GPa) = 17.36405 20.45033 18.90719
#
# Velocity S-wave (km/s) = 2.99418 3.24939 3.12439
# Velocity P-wave (km/s) = 4.41306 5.00275 4.71713
#
# Compressibility (1/GPa) = 0.06864181
#
# Stress axis : x y z
#
# Youngs Moduli (GPa) = 25.30858 54.89987 36.07492
#
# Poissons Ratio (x) = 0.60582 -0.20475
# Poissons Ratio (y) = 0.27928 0.10979
# Poissons Ratio (z) = -0.14364 0.16709
#
# Static dielectric constant tensor:
#      x y z
#    x 1.693010 0.000000 -0.023800 
#    y 0.000000 1.665020 0.000000 
#    z -0.023800 0.000000 1.688610 
# 
# From -- ./inp_files/153608.got.cif
#   From: 2010.05.17/outbox.cif.g08.bks.cpg/sg12_77_cif.got.tgz:153608.got - 2010.06.03 13:09:07.
