data_PCOD9202611
_publ_section_title
;
Structure prediction by ZEFSAII (Michael W. Deem and Ramdas Pophale) SiO2 
 PCOD9202611
Probable space group: C 2/M
;
_chemical_formula_sum "Si O2"
_cell_formula_units_Z 56
_cell_length_a 18.463153
_cell_length_b 13.117937
_cell_length_c 21.949568
_cell_angle_alpha 90.000000
_cell_angle_beta 28.880308
_cell_angle_gamma 90.000000
_cell_volume 2567.602868
_symmetry_space_group_name_H-M "C 2/M"
_symmetry_group_IT_number 12
_symmetry_cell_setting 'monoclinic'
loop_
_space_group_symop_operation_xyz
x,y,z
-x,y,-z
-x,-y,-z
x,-y,z
1/2+x,1/2+y,z
1/2-x,1/2+y,-z
1/2-x,1/2-y,-z
1/2+x,1/2-y,z
loop_
_atom_site_type_symbol
_atom_site_label
_atom_site_fract_x
_atom_site_fract_y
_atom_site_fract_z
Si Si1 0.594715 0.669946 0.802964
Si Si2 0.962798 0.192186 0.596425
Si Si3 0.524626 0.883781 0.797950
Si Si4 0.834366 0.251647 0.129164
Si Si5 0.229266 0.115434 0.939699
Si Si6 0.356725 0.882865 0.518874
Si Si7 0.776210 0.116842 0.509037
O O1 0.573239 0.790718 0.804698
O O2 0.632967 0.662365 0.845832
O O3 0.729362 0.628670 0.663632
O O4 0.434628 0.619699 0.909095
O O5 0.795207 0.180389 0.744777
O O6 0.000000 0.156016 0.500000
O O7 0.003039 0.312470 0.568196
O O8 0.078777 0.147838 0.559573
O O9 0.359317 0.864592 0.892743
O O10 0.637140 0.879256 0.657792
O O11 0.531854 0.000000 0.817455
O O12 0.776319 0.199938 0.109630
O O13 0.000000 0.300569 0.000000
O O14 0.255851 0.000000 0.896443
O O15 0.278303 0.838590 0.515266
O O16 0.401126 0.000000 0.478455
O O17 0.805185 0.000000 0.470411
#
# Coordination Sequence:
#
# PCOD9202611 Si02
#       7
#     8   8   8   8   8   8   8
#     4  11  21  39  58  87 121 165 196 248 303 352
#     4  12  22  40  63  90 121 158 202 251 302 354
#     4  10  20  38  62  90 117 153 206 251 298 355
#     4  10  23  39  59  87 121 160 202 239 298 360
#     4  10  22  38  61  89 121 161 203 242 297 368
#     4  11  23  37  58  90 124 154 196 250 303 358
#     4  10  22  39  62  88 118 158 202 249 302 358
#
# _framework density 21.810226
#
# number of rings (size 3 to 8) (size 9 to 14) (size 15 to 20)
#    0.000    1.429    2.857    2.143    2.000    5.429 
#    0.000    0.714    0.000    4.286    0.000    0.000 
#    0.000    0.000    0.000    0.000    0.000    0.000 
#
# Total GULP energy -156342.127393 kJ/mol
# GULP energy per Si atom -5583.647407 kJ/mol
# Density = 2.176058 g / cm^3
# Si number density = 21.810226 Si / 1000 Ang^3
#
#
#
# Elastic Constant Matrix: (Units=GPa)
#
#
# Indices 1 2 3 4 5 6 
#
# 1 63.7315 -0.7670 6.9849 0.0007 -0.0571 0.0000
# 2 -0.7670 35.1804 -22.1538 0.0016 5.7914 -0.0002
# 3 6.9849 -22.1538 103.7475 0.0006 -10.9990 0.0000
# 4 0.0007 0.0016 0.0006 17.5037 -0.0001 -0.4353
# 5 -0.0571 5.7914 -10.9990 -0.0001 34.4656 0.0001
# 6 0.0000 -0.0002 0.0000 -0.4353 0.0001 7.7815
#
#
#
# Elastic Compliance Matrix: (Units=1/GPa)
#
#
# Indices 1 2 3 4 5 6 
#
# 1 0.015815 -0.000344 -0.001169 -0.000001 -0.000289 0.000000
# 2 -0.000344 0.033237 0.006757 -0.000003 -0.003429 0.000001
# 3 -0.001169 0.006757 0.011426 -0.000001 0.002509 0.000000
# 4 -0.000001 -0.000003 -0.000001 0.057210 0.000000 0.003200
# 5 -0.000289 -0.003429 0.002509 0.000000 0.030391 0.000000
# 6 0.000000 0.000001 0.000000 0.003200 0.000000 0.128688
#
#
# Mechanical properties :
#
#
# Convention : Reuss Voigt Hill
#
# Bulk Modulus (GPa) = 14.09113 18.97640 16.53376
# Shear Modulus (GPa) = 17.24530 26.52318 21.88424
#
# Velocity S-wave (km/s) = 2.81499 3.49103 3.17108
# Velocity P-wave (km/s) = 4.12800 4.99693 4.58310
#
# Compressibility (1/GPa) = 0.07096662
#
# Stress axis : x y z
#
# Youngs Moduli (GPa) = 63.23297 30.08711 87.51735
#
# Poissons Ratio (x) = 0.01034 0.10229
# Poissons Ratio (y) = 0.02173 -0.59134
# Poissons Ratio (z) = 0.07390 -0.20329
#
# Static dielectric constant tensor:
#      x y z
#    x 1.808900 0.000000 0.001620 
#    y 0.000000 1.827620 0.000000 
#    z 0.001620 0.000000 1.807800 
# 
# From -- ./inp_files/316693.got.cif
#   From: 2010.05.17/outbox.cif.g08.bks.cpg/sg12_159_cif.got.tgz:316693.got - 2010.06.03 13:09:07.
