data_PCOD9202943
_publ_section_title
;
Structure prediction by ZEFSAII (Michael W. Deem and Ramdas Pophale) SiO2 
 PCOD9202943
Probable space group: C 2/M
;
_chemical_formula_sum "Si O2"
_cell_formula_units_Z 52
_cell_length_a 15.059008
_cell_length_b 14.958773
_cell_length_c 12.023069
_cell_angle_alpha 90.000000
_cell_angle_beta 124.347816
_cell_angle_gamma 90.000000
_cell_volume 2236.103699
_symmetry_space_group_name_H-M "C 2/M"
_symmetry_group_IT_number 12
_symmetry_cell_setting 'monoclinic'
loop_
_space_group_symop_operation_xyz
x,y,z
-x,y,-z
-x,-y,-z
x,-y,z
1/2+x,1/2+y,z
1/2-x,1/2+y,-z
1/2-x,1/2-y,-z
1/2+x,1/2-y,z
loop_
_atom_site_type_symbol
_atom_site_label
_atom_site_fract_x
_atom_site_fract_y
_atom_site_fract_z
Si Si1 0.687239 0.145127 0.186308
Si Si2 0.708504 0.848891 0.951883
Si Si3 0.599248 0.500000 0.292181
Si Si4 0.389709 0.845265 0.487519
Si Si5 0.111437 0.132898 0.513174
Si Si6 0.685612 0.362254 0.193926
Si Si7 0.014537 0.403008 0.229689
O O1 0.787990 0.116069 0.333475
O O2 0.674102 0.254031 0.182299
O O3 0.578023 0.109156 0.161642
O O4 0.704754 0.112212 0.073094
O O5 0.781866 0.890636 0.907976
O O6 0.585593 0.838424 0.823484
O O7 0.750000 0.750000 0.000000
O O8 0.610557 0.577409 0.399389
O O9 0.596890 0.420559 0.192904
O O10 0.500000 0.862831 0.500000
O O11 0.381445 0.739469 0.503844
O O12 0.291016 0.878946 0.345196
O O13 0.399089 0.892006 0.612261
O O14 0.000000 0.116165 0.500000
O O15 0.963146 0.500000 0.200384
#
# Coordination Sequence:
#
# PCOD9202943 Si02
#       7
#     8   8   4   8   8   8   8
#     4  10  23  44  66  96 130 181 233 276 332 410
#     4  10  23  44  66  91 130 184 221 263 340 414
#     4  12  23  38  63  97 132 163 218 282 336 386
#     4  10  20  38  64  94 133 171 220 271 338 401
#     4  10  23  42  68  96 130 180 230 278 335 402
#     4  10  22  40  63  96 133 175 221 274 341 408
#     4  12  25  39  67 107 136 170 226 288 340 389
#
# _framework density 23.254736000000001
#
# number of rings (size 3 to 8) (size 9 to 14) (size 15 to 20)
#    0.000    1.538    1.538    2.538    7.538    4.000 
#    0.000    0.000    0.000    0.923    0.000    0.000 
#    0.000    0.000    0.000    0.000    0.000    0.000 
#
# Total GULP energy -144863.632603 kJ/mol
# GULP energy per Si atom -5571.678177 kJ/mol
# Density = 2.320181 g / cm^3
# Si number density = 23.254736 Si / 1000 Ang^3
#
#
#
# Elastic Constant Matrix: (Units=GPa)
#
#
# Indices 1 2 3 4 5 6 
#
# 1 54.6339 13.2554 26.0185 0.0000 -33.3115 0.0000
# 2 13.2554 66.2610 18.8183 0.0000 -12.7158 0.0000
# 3 26.0185 18.8183 85.9909 0.0000 -42.1878 0.0000
# 4 0.0000 0.0000 0.0000 45.1716 0.0000 -49.9082
# 5 -33.3115 -12.7158 -42.1878 0.0000 55.9922 0.0000
# 6 0.0000 0.0000 0.0000 -49.9082 0.0000 28.6646
#
#
#
# Elastic Compliance Matrix: (Units=1/GPa)
#
#
# Indices 1 2 3 4 5 6 
#
# 1 0.029151 -0.002610 -0.000050 0.000000 0.016712 0.000000
# 2 -0.002610 0.016415 -0.002753 0.000000 0.000101 0.000000
# 3 -0.000050 -0.002753 0.018919 0.000000 0.013600 0.000000
# 4 0.000000 0.000000 0.000000 -0.023967 0.000000 -0.041729
# 5 0.016712 0.000101 0.013600 0.000000 0.038072 0.000000
# 6 0.000000 0.000000 0.000000 -0.041729 0.000000 -0.037769
#
#
# Mechanical properties :
#
#
# Convention : Reuss Voigt Hill
#
# Bulk Modulus (GPa) = 18.63647 35.89669 27.26658
# Shear Modulus (GPa) = 71.90806 35.88525 53.89666
#
# Velocity S-wave (km/s) = 5.56678 3.93254 4.81943
# Velocity P-wave (km/s) = 7.02497 6.00746 6.53605
#
# Compressibility (1/GPa) = 0.05365823
#
# Stress axis : x y z
#
# Youngs Moduli (GPa) = 34.30472 60.91912 52.85734
#
# Poissons Ratio (x) = 0.15901 0.00263
# Poissons Ratio (y) = 0.08954 0.14553
# Poissons Ratio (z) = 0.00171 0.16772
#
# Static dielectric constant tensor:
#      x y z
#    x 1.892100 0.000000 -0.009250 
#    y 0.000000 2.067520 0.000000 
#    z -0.009250 0.000000 1.878580 
# 
# From -- ./inp_files/145750.got.cif
#   From: 2010.05.17/outbox.cif.g08.bks.cpg/sg12_73_cif.got.tgz:145750.got - 2010.06.03 13:09:07.
