data_PCOD9202628
_publ_section_title
;
Structure prediction by ZEFSAII (Michael W. Deem and Ramdas Pophale) SiO2 
 PCOD9202628
Probable space group: C 2/M
;
_chemical_formula_sum "Si O2"
_cell_formula_units_Z 48
_cell_length_a 14.528442
_cell_length_b 29.336825
_cell_length_c 11.370210
_cell_angle_alpha 90.000000
_cell_angle_beta 27.536699
_cell_angle_gamma 90.000000
_cell_volume 2240.475447
_symmetry_space_group_name_H-M "C 2/M"
_symmetry_group_IT_number 12
_symmetry_cell_setting 'monoclinic'
loop_
_space_group_symop_operation_xyz
x,y,z
-x,y,-z
-x,-y,-z
x,-y,z
1/2+x,1/2+y,z
1/2-x,1/2+y,-z
1/2-x,1/2-y,-z
1/2+x,1/2-y,z
loop_
_atom_site_type_symbol
_atom_site_label
_atom_site_fract_x
_atom_site_fract_y
_atom_site_fract_z
Si Si1 0.380526 0.793614 0.319380
Si Si2 0.369927 0.078895 0.034121
Si Si3 0.735886 0.683005 0.223685
Si Si4 0.765812 0.449215 0.745149
Si Si5 0.271146 0.891778 0.517646
Si Si6 0.033728 0.049675 0.254639
O O1 0.250000 0.750000 0.500000
O O2 0.314714 0.804460 0.262055
O O3 0.314566 0.838098 0.468335
O O4 0.622771 0.791414 0.033269
O O5 0.526609 0.083188 0.750336
O O6 0.500000 0.063806 0.000000
O O7 0.288156 0.129895 0.147579
O O8 0.180363 0.052309 0.199596
O O9 0.500000 0.691232 0.500000
O O10 0.727791 0.500000 0.738189
O O11 0.706833 0.411969 0.715431
O O12 0.000000 0.444445 0.500000
O O13 0.662617 0.447388 0.988718
O O14 0.115763 0.908078 0.592984
O O15 0.931221 0.000000 0.371920
#
# Coordination Sequence:
#
# PCOD9202628 Si02
#       6
#     8   8   8   8   8   8
#     4  10  22  42  65  94 127 162 211 274 326 386
#     4  11  22  39  64  89 122 170 210 257 313 381
#     4  10  20  41  68  90 121 167 209 254 330 392
#     4  10  20  38  62  90 128 167 208 261 323 385
#     4  11  21  40  64  90 124 170 209 260 323 382
#     4  11  24  39  62  94 126 168 217 263 319 391
#
# _framework density 21.424025
#
# number of rings (size 3 to 8) (size 9 to 14) (size 15 to 20)
#    0.000    1.500    5.000    2.000    0.000    3.000 
#    6.000    1.667    0.000    0.000    0.000    0.000 
#    0.000    0.000    0.000    0.000    0.000    0.000 
#
# Total GULP energy -133915.609478 kJ/mol
# GULP energy per Si atom -5579.817062 kJ/mol
# Density = 2.137526 g / cm^3
# Si number density = 21.424025 Si / 1000 Ang^3
#
#
#
# Elastic Constant Matrix: (Units=GPa)
#
#
# Indices 1 2 3 4 5 6 
#
# 1 86.2510 28.0442 26.6478 -0.0002 -9.4276 -0.0046
# 2 28.0442 90.9067 44.9072 0.0000 8.2025 -0.0007
# 3 26.6478 44.9072 131.2933 -0.0006 -11.0331 -0.0079
# 4 -0.0002 0.0000 -0.0006 24.6610 0.0004 -3.8590
# 5 -9.4276 8.2025 -11.0331 0.0004 42.1274 0.0049
# 6 -0.0046 -0.0007 -0.0079 -3.8590 0.0049 -67.0141
#
#
#
# Elastic Compliance Matrix: (Units=1/GPa)
#
#
# Indices 1 2 3 4 5 6 
#
# 1 0.013613 -0.003971 -0.001108 0.000000 0.003529 -0.000001
# 2 -0.003971 0.015034 -0.004762 0.000000 -0.005063 0.000000
# 3 -0.001108 -0.004762 0.009742 0.000000 0.003230 -0.000001
# 4 0.000000 0.000000 0.000000 0.040188 0.000000 -0.002314
# 5 0.003529 -0.005063 0.003230 0.000000 0.026359 0.000001
# 6 -0.000001 0.000000 -0.000001 -0.002314 0.000001 -0.014789
#
#
# Mechanical properties :
#
#
# Convention : Reuss Voigt Hill
#
# Bulk Modulus (GPa) = 53.45378 56.40550 54.92964
# Shear Modulus (GPa) = 43.07933 13.87828 28.47881
#
# Velocity S-wave (km/s) = 4.48905 2.54793 3.64990
# Velocity P-wave (km/s) = 7.20232 5.91957 6.59222
#
# Compressibility (1/GPa) = 0.01870775
#
# Stress axis : x y z
#
# Youngs Moduli (GPa) = 73.45761 66.51427 102.65135
#
# Poissons Ratio (x) = 0.26410 0.11377
# Poissons Ratio (y) = 0.29167 0.48882
# Poissons Ratio (z) = 0.08142 0.31673
#
# Static dielectric constant tensor:
#      x y z
#    x 1.792030 0.000000 -0.122670 
#    y 0.000000 1.848930 -0.000060 
#    z -0.122670 -0.000060 5.494320 
# 
# From -- ./inp_files/150191.got.cif
#   From: 2010.05.17/outbox.cif.g08.bks.cpg/sg12_76_cif.got.tgz:150191.got - 2010.06.03 13:09:07.
