data_PCOD9202435
_publ_section_title
;
Structure prediction by ZEFSAII (Michael W. Deem and Ramdas Pophale) SiO2 
 PCOD9202435
Probable space group: C 2/M
;
_chemical_formula_sum "Si O2"
_cell_formula_units_Z 60
_cell_length_a 13.045666
_cell_length_b 12.320024
_cell_length_c 20.055509
_cell_angle_alpha 90.000000
_cell_angle_beta 121.816421
_cell_angle_gamma 90.000000
_cell_volume 2739.040126
_symmetry_space_group_name_H-M "C 2/M"
_symmetry_group_IT_number 12
_symmetry_cell_setting 'monoclinic'
loop_
_space_group_symop_operation_xyz
x,y,z
-x,y,-z
-x,-y,-z
x,-y,z
1/2+x,1/2+y,z
1/2-x,1/2+y,-z
1/2-x,1/2-y,-z
1/2+x,1/2-y,z
loop_
_atom_site_type_symbol
_atom_site_label
_atom_site_fract_x
_atom_site_fract_y
_atom_site_fract_z
Si Si1 0.774341 0.883996 0.449907
Si Si2 0.137018 0.344179 0.538727
Si Si3 0.028799 0.376788 0.933218
Si Si4 0.417970 0.296959 0.147370
Si Si5 0.747113 0.123263 0.202291
Si Si6 0.469483 0.877905 0.715184
Si Si7 0.906732 0.000000 0.819457
Si Si8 0.301786 0.838013 0.292774
O O1 0.863472 0.784776 0.473892
O O2 0.712422 0.885216 0.501689
O O3 0.662330 0.867663 0.361191
O O4 0.831058 0.000000 0.456012
O O5 0.204965 0.364122 0.631538
O O6 0.000000 0.382122 0.500000
O O7 0.079136 0.500000 0.947140
O O8 0.105357 0.285366 0.921741
O O9 0.896438 0.377174 0.854273
O O10 0.000000 0.350879 0.000000
O O11 0.304696 0.336219 0.152283
O O12 0.495528 0.221333 0.225062
O O13 0.490763 0.402793 0.149702
O O14 0.785990 0.211085 0.270373
O O15 0.787954 0.000000 0.230238
O O16 0.567055 0.871145 0.689238
O O17 0.480566 0.000000 0.748914
O O18 0.799579 0.094364 0.780413
#
# Coordination Sequence:
#
# PCOD9202435 Si02
#       8
#     8   8   8   8   8   8   4   8
#     4  10  23  39  57  82 115 153 199 253 309 369
#     4  11  23  41  58  83 118 157 204 252 311 365
#     4  10  22  42  67  95 127 165 205 246 295 358
#     4  11  22  39  63  93 127 160 201 251 305 362
#     4  10  22  41  64  91 125 163 206 250 304 362
#     4  10  20  38  61  88 116 155 206 254 303 363
#     4  12  22  38  60  94 121 159 202 258 302 362
#     4  11  22  37  63  89 118 161 207 256 303 367
#
# _framework density 21.905483
#
# number of rings (size 3 to 8) (size 9 to 14) (size 15 to 20)
#    0.000    1.467    4.000    1.200    0.933    1.600 
#    0.000    0.333    0.000    0.000    0.000    0.000 
#    0.000    0.000    0.000    0.000    0.000    0.000 
#
# Total GULP energy -167147.068136 kJ/mol
# GULP energy per Si atom -5571.568938 kJ/mol
# Density = 2.185563 g / cm^3
# Si number density = 21.905483 Si / 1000 Ang^3
#
#
#
# Elastic Constant Matrix: (Units=GPa)
#
#
# Indices 1 2 3 4 5 6 
#
# 1 80.1296 21.4652 -1.4795 0.0000 -6.5156 0.0000
# 2 21.4652 172.2645 15.8312 0.0000 -8.2505 0.0000
# 3 -1.4795 15.8312 30.0047 0.0000 -17.1111 0.0000
# 4 0.0000 0.0000 0.0000 12.9534 0.0000 5.7912
# 5 -6.5156 -8.2505 -17.1111 0.0000 23.6542 0.0000
# 6 0.0000 0.0000 0.0000 5.7912 0.0000 2.9546
#
#
#
# Elastic Compliance Matrix: (Units=1/GPa)
#
#
# Indices 1 2 3 4 5 6 
#
# 1 0.013694 -0.001893 0.005870 0.000000 0.007358 0.000000
# 2 -0.001893 0.006364 -0.004226 0.000000 -0.001359 0.000000
# 3 0.005870 -0.004226 0.061159 0.000000 0.044385 0.000000
# 4 0.000000 0.000000 0.000000 0.624207 0.000000 -1.223503
# 5 0.007358 -0.001359 0.044385 0.000000 0.075936 0.000000
# 6 0.000000 0.000000 0.000000 -1.223503 0.000000 2.736635
#
#
# Mechanical properties :
#
#
# Convention : Reuss Voigt Hill
#
# Bulk Modulus (GPa) = 12.38871 39.33695 25.86283
# Shear Modulus (GPa) = 1.41028 24.35121 12.88075
#
# Velocity S-wave (km/s) = 0.80324 3.33776 2.42753
# Velocity P-wave (km/s) = 2.55501 5.73156 4.43727
#
# Compressibility (1/GPa) = 0.08071864
#
# Stress axis : x y z
#
# Youngs Moduli (GPa) = 73.02632 157.12729 16.35077
#
# Poissons Ratio (x) = 0.29750 -0.09599
# Poissons Ratio (y) = 0.13827 0.06910
# Poissons Ratio (z) = -0.42869 0.66406
#
# Static dielectric constant tensor:
#      x y z
#    x 1.787600 0.000000 -0.035790 
#    y 0.000000 1.814260 0.000000 
#    z -0.035790 0.000000 1.823260 
# 
# From -- ./inp_files/310004.got.cif
#   From: 2010.05.17/outbox.cif.g08.bks.cpg/sg12_156_cif.got.tgz:310004.got - 2010.06.03 13:09:07.
