data_PCOD9202784
_publ_section_title
;
Structure prediction by ZEFSAII (Michael W. Deem and Ramdas Pophale) SiO2 
 PCOD9202784
Probable space group: C 2/M
;
_chemical_formula_sum "Si O2"
_cell_formula_units_Z 48
_cell_length_a 12.383208
_cell_length_b 16.375589
_cell_length_c 12.749820
_cell_angle_alpha 90.000000
_cell_angle_beta 110.212310
_cell_angle_gamma 90.000000
_cell_volume 2426.223792
_symmetry_space_group_name_H-M "C 2/M"
_symmetry_group_IT_number 12
_symmetry_cell_setting 'monoclinic'
loop_
_space_group_symop_operation_xyz
x,y,z
-x,y,-z
-x,-y,-z
x,-y,z
1/2+x,1/2+y,z
1/2-x,1/2+y,-z
1/2-x,1/2-y,-z
1/2+x,1/2-y,z
loop_
_atom_site_type_symbol
_atom_site_label
_atom_site_fract_x
_atom_site_fract_y
_atom_site_fract_z
Si Si1 0.121468 0.321205 0.776566
Si Si2 0.036902 0.907073 0.402545
Si Si3 0.620013 0.097997 0.350151
Si Si4 0.375165 0.904735 0.005102
Si Si5 0.228760 0.402749 0.609874
Si Si6 0.695648 0.364365 0.764002
O O1 0.184330 0.365325 0.701595
O O2 0.154855 0.227313 0.774055
O O3 0.988040 0.347571 0.719943
O O4 0.155723 0.353377 0.902663
O O5 0.145856 0.869350 0.381355
O O6 0.000000 0.866348 0.500000
O O7 0.924589 0.910044 0.293534
O O8 0.074550 0.000000 0.442526
O O9 0.647548 0.110778 0.481882
O O10 0.729577 0.123313 0.316722
O O11 0.598762 0.000000 0.326721
O O12 0.278316 0.894945 0.884066
O O13 0.385644 0.000000 0.038213
O O14 0.500000 0.879712 0.000000
O O15 0.235592 0.500000 0.628396
#
# Coordination Sequence:
#
# PCOD9202784 Si02
#       6
#     8   8   8   8   8   8
#     4  12  26  40  63 100 137 164 208 282 340 376
#     4  10  20  38  63  91 127 173 218 257 311 391
#     4  11  22  43  70  95 129 179 228 262 308 392
#     4  11  23  44  72  93 119 171 230 269 313 394
#     4  10  22  40  65  95 132 175 219 265 317 387
#     4  12  25  40  65  98 132 165 216 277 326 381
#
# _framework density 19.783830999999999
#
# number of rings (size 3 to 8) (size 9 to 14) (size 15 to 20)
#    0.000    1.000    3.333    4.000    2.333    3.333 
#    0.000    0.833    0.000    3.000    0.000    0.000 
#    0.000    0.000    0.000    0.000    0.000    0.000 
#
# Total GULP energy -134103.044341 kJ/mol
# GULP energy per Si atom -5587.626848 kJ/mol
# Density = 1.973880 g / cm^3
# Si number density = 19.783831 Si / 1000 Ang^3
#
#
#
# Elastic Constant Matrix: (Units=GPa)
#
#
# Indices 1 2 3 4 5 6 
#
# 1 51.8493 4.7847 12.7590 0.0000 4.2549 0.0000
# 2 4.7847 66.8447 20.3211 0.0000 -16.1734 0.0000
# 3 12.7590 20.3211 90.8236 0.0000 -6.3763 0.0000
# 4 0.0000 0.0000 0.0000 6.8265 0.0000 4.8996
# 5 4.2549 -16.1734 -6.3763 0.0000 42.2163 0.0000
# 6 0.0000 0.0000 0.0000 4.8996 0.0000 38.4133
#
#
#
# Elastic Compliance Matrix: (Units=1/GPa)
#
#
# Indices 1 2 3 4 5 6 
#
# 1 0.020335 -0.001335 -0.002767 0.000000 -0.002979 0.000000
# 2 -0.001335 0.017603 -0.003303 0.000000 0.006380 0.000000
# 3 -0.002767 -0.003303 0.012198 0.000000 0.000856 0.000000
# 4 0.000000 0.000000 0.000000 0.161250 0.000000 -0.020567
# 5 -0.002979 0.006380 0.000856 0.000000 0.026561 0.000000
# 6 0.000000 0.000000 0.000000 -0.020567 0.000000 0.028656
#
#
# Mechanical properties :
#
#
# Convention : Reuss Voigt Hill
#
# Bulk Modulus (GPa) = 28.30780 31.69414 30.00097
# Shear Modulus (GPa) = 17.05376 28.93474 22.99425
#
# Velocity S-wave (km/s) = 2.93918 3.82847 3.41291
# Velocity P-wave (km/s) = 5.08507 5.96640 5.54328
#
# Compressibility (1/GPa) = 0.03532595
#
# Stress axis : x y z
#
# Youngs Moduli (GPa) = 49.17567 56.80723 81.97912
#
# Poissons Ratio (x) = 0.07585 0.22685
# Poissons Ratio (y) = 0.06566 0.27079
# Poissons Ratio (z) = 0.13608 0.18764
#
# Static dielectric constant tensor:
#      x y z
#    x 1.709120 0.000000 0.007170 
#    y 0.000000 1.706580 0.000000 
#    z 0.007170 0.000000 1.684990 
# 
# From -- ./inp_files/131652.got.cif
#   From: 2010.05.17/outbox.cif.g08.bks.cpg/sg12_66_cif.got.tgz:131652.got - 2010.06.03 13:09:07.
