data_PCOD9202894
_publ_section_title
;
Structure prediction by ZEFSAII (Michael W. Deem and Ramdas Pophale) SiO2 
 PCOD9202894
Probable space group: C 2/M
;
_chemical_formula_sum "Si O2"
_cell_formula_units_Z 64
_cell_length_a 8.725814
_cell_length_b 31.924976
_cell_length_c 11.492545
_cell_angle_alpha 90.000000
_cell_angle_beta 93.949744
_cell_angle_gamma 90.000000
_cell_volume 3193.890357
_symmetry_space_group_name_H-M "C 2/M"
_symmetry_group_IT_number 12
_symmetry_cell_setting 'monoclinic'
loop_
_space_group_symop_operation_xyz
x,y,z
-x,y,-z
-x,-y,-z
x,-y,z
1/2+x,1/2+y,z
1/2-x,1/2+y,-z
1/2-x,1/2-y,-z
1/2+x,1/2-y,z
loop_
_atom_site_type_symbol
_atom_site_label
_atom_site_fract_x
_atom_site_fract_y
_atom_site_fract_z
Si Si1 0.951732 0.191239 0.866678
Si Si2 0.454184 0.114750 0.628147
Si Si3 0.553325 0.454019 0.370485
Si Si4 0.310697 0.751819 0.235872
Si Si5 0.315425 0.549016 0.974816
Si Si6 0.921375 0.291946 0.618893
Si Si7 0.226288 0.111735 0.237569
Si Si8 0.773106 0.547599 0.770144
O O1 0.813816 0.225548 0.852926
O O2 0.883691 0.150588 0.798699
O O3 0.100083 0.212353 0.814254
O O4 0.000000 0.180571 0.000000
O O5 0.500000 0.101046 0.500000
O O6 0.370727 0.159638 0.612379
O O7 0.606856 0.124260 0.709966
O O8 0.361086 0.080080 0.693757
O O9 0.500000 0.450441 0.500000
O O10 0.627725 0.500000 0.359665
O O11 0.657667 0.416201 0.337412
O O12 0.403222 0.453052 0.281626
O O13 0.217109 0.736919 0.344902
O O14 0.444386 0.783498 0.280263
O O15 0.286498 0.500000 0.943877
O O16 0.264671 0.580849 0.872738
O O17 0.500000 0.553201 0.000000
O O18 0.233181 0.558171 0.093467
O O19 0.000000 0.281762 0.500000
O O20 0.833232 0.500000 0.760156
#
# Coordination Sequence:
#
# PCOD9202894 Si02
#       8
#     8   8   8   8   8   8   8   8
#     4  11  24  41  64  94 124 161 206 253 309 378
#     4  11  25  42  60  88 132 165 203 258 310 363
#     4  10  21  38  61  89 123 166 215 255 300 366
#     4  10  22  43  64  89 122 162 202 250 311 370
#     4  10  20  38  64  91 124 159 201 262 309 358
#     4  10  21  40  64  90 122 157 202 253 305 364
#     4  12  23  39  62  96 122 161 211 257 310 367
#     4  10  22  40  62  90 123 166 210 251 311 370
#
# _framework density 20.038259
#
# number of rings (size 3 to 8) (size 9 to 14) (size 15 to 20)
#    0.000    1.500    2.500    2.250    1.750    1.750 
#    0.000    1.875    0.000    0.000    0.000    0.000 
#    0.000    0.000    0.000    0.000    0.000    0.000 
#
# Total GULP energy -178707.257048 kJ/mol
# GULP energy per Si atom -5584.601783 kJ/mol
# Density = 1.999265 g / cm^3
# Si number density = 20.038259 Si / 1000 Ang^3
#
#
#
# Elastic Constant Matrix: (Units=GPa)
#
#
# Indices 1 2 3 4 5 6 
#
# 1 32.7528 14.7507 -10.4824 0.0000 -3.4298 0.0000
# 2 14.7507 67.3885 1.1538 0.0000 -14.4204 0.0000
# 3 -10.4824 1.1538 48.5273 0.0000 -2.1460 0.0000
# 4 0.0000 0.0000 0.0000 23.1083 0.0000 0.9027
# 5 -3.4298 -14.4204 -2.1460 0.0000 29.9313 0.0000
# 6 0.0000 0.0000 0.0000 0.9027 0.0000 19.3446
#
#
#
# Elastic Compliance Matrix: (Units=1/GPa)
#
#
# Indices 1 2 3 4 5 6 
#
# 1 0.036859 -0.008004 0.008194 0.000000 0.000955 0.000000
# 2 -0.008004 0.018283 -0.001820 0.000000 0.007761 0.000000
# 3 0.008194 -0.001820 0.022494 0.000000 0.001675 0.000000
# 4 0.000000 0.000000 0.000000 0.043354 0.000000 -0.002023
# 5 0.000955 0.007761 0.001675 0.000000 0.037378 0.000000
# 6 0.000000 0.000000 0.000000 -0.002023 0.000000 0.051788
#
#
# Mechanical properties :
#
#
# Convention : Reuss Voigt Hill
#
# Bulk Modulus (GPa) = 13.44509 17.72365 15.58437
# Shear Modulus (GPa) = 20.98994 24.02660 22.50827
#
# Velocity S-wave (km/s) = 3.24001 3.46647 3.35515
# Velocity P-wave (km/s) = 4.55205 4.98858 4.77531
#
# Compressibility (1/GPa) = 0.07437657
#
# Stress axis : x y z
#
# Youngs Moduli (GPa) = 27.13038 54.69491 44.45556
#
# Poissons Ratio (x) = 0.43778 -0.36429
# Poissons Ratio (y) = 0.21715 0.08093
# Poissons Ratio (z) = -0.22232 0.09957
#
# Static dielectric constant tensor:
#      x y z
#    x 1.694170 0.000000 0.009990 
#    y 0.000000 1.709340 0.000000 
#    z 0.009990 0.000000 1.705590 
# 
# From -- ./inp_files/125764.got.cif
#   From: 2010.05.17/outbox.cif.g08.bks.cpg/sg12_63_cif.got.tgz:125764.got - 2010.06.03 13:09:07.
