data_PCOD9202304
_publ_section_title
;
Structure prediction by ZEFSAII (Michael W. Deem and Ramdas Pophale) SiO2 
 PCOD9202304
Probable space group: C 2/M
;
_chemical_formula_sum "Si O2"
_cell_formula_units_Z 56
_cell_length_a 11.884533
_cell_length_b 31.383149
_cell_length_c 10.495985
_cell_angle_alpha 90.000000
_cell_angle_beta 41.390294
_cell_angle_gamma 90.000000
_cell_volume 2588.360077
_symmetry_space_group_name_H-M "C 2/M"
_symmetry_group_IT_number 12
_symmetry_cell_setting 'monoclinic'
loop_
_space_group_symop_operation_xyz
x,y,z
-x,y,-z
-x,-y,-z
x,-y,z
1/2+x,1/2+y,z
1/2-x,1/2+y,-z
1/2-x,1/2-y,-z
1/2+x,1/2-y,z
loop_
_atom_site_type_symbol
_atom_site_label
_atom_site_fract_x
_atom_site_fract_y
_atom_site_fract_z
Si Si1 0.188572 0.669312 0.794080
Si Si2 0.397088 0.450252 0.453495
Si Si3 0.675259 0.762566 0.298622
Si Si4 0.993206 0.451204 0.159065
Si Si5 0.788975 0.200318 0.443372
Si Si6 0.884520 0.187371 0.973939
Si Si7 0.319970 0.393296 0.894843
O O1 0.212097 0.719825 0.802304
O O2 0.226229 0.670126 0.609978
O O3 0.298780 0.636689 0.785686
O O4 0.000000 0.658016 0.000000
O O5 0.500000 0.448348 0.500000
O O6 0.398697 0.500000 0.413331
O O7 0.198870 0.437645 0.639366
O O8 0.511056 0.421276 0.265599
O O9 0.500000 0.744684 0.500000
O O10 0.703737 0.801780 0.376325
O O11 0.712162 0.785772 0.134477
O O12 0.018608 0.500000 0.182725
O O13 0.000000 0.452474 0.000000
O O14 0.151412 0.421371 0.058880
O O15 0.750000 0.250000 0.500000
O O16 0.990212 0.197607 0.248796
O O17 0.840264 0.138623 0.994828
O O18 0.000000 0.197366 0.000000
#
# Coordination Sequence:
#
# PCOD9202304 Si02
#       7
#     8   8   8   8   8   8   8
#     4  11  25  37  57  92 125 158 203 269 316 361
#     4  10  21  38  61  88 128 169 194 232 308 391
#     4  10  22  42  60  77 114 175 223 244 311 370
#     4  10  20  38  60  89 129 166 193 231 304 389
#     4   9  20  39  60  76 114 161 206 263 304 362
#     4  10  24  44  60  84 119 166 215 264 313 371
#     4  12  25  36  64  95 130 150 210 260 317 363
#
# _framework density 21.63532
#
# number of rings (size 3 to 8) (size 9 to 14) (size 15 to 20)
#    0.000    1.714    1.429    3.000    8.000    0.571 
#    2.571    0.000    0.000    1.714    0.000    2.000 
#    0.000    0.000    0.000    0.000    0.000    0.000 
#
# Total GULP energy -156070.160403 kJ/mol
# GULP energy per Si atom -5573.934300 kJ/mol
# Density = 2.158608 g / cm^3
# Si number density = 21.635320 Si / 1000 Ang^3
#
#
#
# Elastic Constant Matrix: (Units=GPa)
#
#
# Indices 1 2 3 4 5 6 
#
# 1 32.8098 19.8113 34.7739 0.0000 -8.7548 0.0000
# 2 19.8113 107.2326 58.0112 0.0000 -17.9815 0.0000
# 3 34.7739 58.0112 157.8941 0.0000 -25.4645 0.0000
# 4 0.0000 0.0000 0.0000 25.7146 0.0000 1.5537
# 5 -8.7548 -17.9815 -25.4645 0.0000 31.5637 0.0000
# 6 0.0000 0.0000 0.0000 1.5537 0.0000 33.8767
#
#
#
# Elastic Compliance Matrix: (Units=1/GPa)
#
#
# Indices 1 2 3 4 5 6 
#
# 1 0.041065 -0.002984 -0.007340 0.000000 0.003769 0.000000
# 2 -0.002984 0.012235 -0.003273 0.000000 0.003502 0.000000
# 3 -0.007340 -0.003273 0.009798 0.000000 0.004004 0.000000
# 4 0.000000 0.000000 0.000000 0.038996 0.000000 -0.001788
# 5 0.003769 0.003502 0.004004 0.000000 0.037953 0.000000
# 6 0.000000 0.000000 0.000000 -0.001788 0.000000 0.029601
#
#
# Mechanical properties :
#
#
# Convention : Reuss Voigt Hill
#
# Bulk Modulus (GPa) = 27.85199 58.12548 42.98873
# Shear Modulus (GPa) = 23.94512 30.58703 27.26607
#
# Velocity S-wave (km/s) = 3.33041 3.76407 3.55386
# Velocity P-wave (km/s) = 5.26215 6.76870 6.06240
#
# Compressibility (1/GPa) = 0.03590408
#
# Stress axis : x y z
#
# Youngs Moduli (GPa) = 24.35137 81.73440 102.05910
#
# Poissons Ratio (x) = 0.24391 0.74910
# Poissons Ratio (y) = 0.07267 0.33406
# Poissons Ratio (z) = 0.17874 0.26753
#
# Static dielectric constant tensor:
#      x y z
#    x 1.974140 0.000000 -0.008380 
#    y 0.000000 1.784390 0.000000 
#    z -0.008380 0.000000 1.888500 
# 
# From -- ./inp_files/150381.got.cif
#   From: 2010.05.17/outbox.cif.g08.bks.cpg/sg12_76_cif.got.tgz:150381.got - 2010.06.03 13:09:07.
