data_PCOD9202747
_publ_section_title
;
Structure prediction by ZEFSAII (Michael W. Deem and Ramdas Pophale) SiO2 
 PCOD9202747
Probable space group: C 2/M
;
_chemical_formula_sum "Si O2"
_cell_formula_units_Z 48
_cell_length_a 23.257779
_cell_length_b 8.946442
_cell_length_c 11.945878
_cell_angle_alpha 90.000000
_cell_angle_beta 102.987857
_cell_angle_gamma 90.000000
_cell_volume 2422.042935
_symmetry_space_group_name_H-M "C 2/M"
_symmetry_group_IT_number 12
_symmetry_cell_setting 'monoclinic'
loop_
_space_group_symop_operation_xyz
x,y,z
-x,y,-z
-x,-y,-z
x,-y,z
1/2+x,1/2+y,z
1/2-x,1/2+y,-z
1/2-x,1/2-y,-z
1/2+x,1/2-y,z
loop_
_atom_site_type_symbol
_atom_site_label
_atom_site_fract_x
_atom_site_fract_y
_atom_site_fract_z
Si Si1 0.704054 0.170484 0.899003
Si Si2 0.373626 0.679075 0.462032
Si Si3 0.086944 0.179289 0.767751
Si Si4 0.475022 0.320907 0.865724
Si Si5 0.753229 0.672605 0.338509
Si Si6 0.125995 0.322168 0.310060
O O1 0.641280 0.251306 0.859968
O O2 0.731067 0.171130 0.786064
O O3 0.695412 0.000000 0.931416
O O4 0.750000 0.250000 0.000000
O O5 0.375433 0.500000 0.475253
O O6 0.405905 0.721194 0.359818
O O7 0.306247 0.736116 0.418887
O O8 0.398616 0.757693 0.583121
O O9 0.025508 0.220057 0.798006
O O10 0.092536 0.000000 0.775550
O O11 0.464298 0.500000 0.854239
O O12 0.415989 0.234678 0.807416
O O13 0.500000 0.288855 0.000000
O O14 0.752294 0.500000 0.377934
O O15 0.690538 0.750147 0.325625
O O16 0.129598 0.500000 0.314676
#
# Coordination Sequence:
#
# PCOD9202747 Si02
#       6
#     8   8   8   8   8   8
#     4  10  21  35  57  86 118 156 195 240 292 349
#     4  10  20  38  63  90 121 154 196 246 299 355
#     4   9  20  39  62  87 116 153 197 246 295 348
#     4  10  23  43  64  86 117 157 200 245 296 353
#     4  10  21  38  59  87 122 158 197 241 296 353
#     4  12  25  39  59  88 122 159 200 244 296 354
#
# _framework density 19.817981
#
# number of rings (size 3 to 8) (size 9 to 14) (size 15 to 20)
#    0.000    1.833    0.000    3.500    2.333    4.333 
#    0.000    3.333    0.000    0.000    0.000    0.000 
#    0.000    0.000    0.000    0.000    0.000    0.000 
#
# Total GULP energy -134156.206703 kJ/mol
# GULP energy per Si atom -5589.841946 kJ/mol
# Density = 1.977287 g / cm^3
# Si number density = 19.817981 Si / 1000 Ang^3
#
#
#
# Elastic Constant Matrix: (Units=GPa)
#
#
# Indices 1 2 3 4 5 6 
#
# 1 71.8608 24.5141 17.6692 0.0000 -11.5412 0.0000
# 2 24.5141 68.0830 31.1631 0.0000 -1.8426 0.0000
# 3 17.6692 31.1631 71.1874 0.0000 13.3261 0.0000
# 4 0.0000 0.0000 0.0000 32.2017 0.0000 8.1653
# 5 -11.5412 -1.8426 13.3261 0.0000 10.7205 0.0000
# 6 0.0000 0.0000 0.0000 8.1653 0.0000 22.6357
#
#
#
# Elastic Compliance Matrix: (Units=1/GPa)
#
#
# Indices 1 2 3 4 5 6 
#
# 1 0.024697 -0.001527 -0.013541 0.000000 0.043158 0.000000
# 2 -0.001527 0.021246 -0.012117 0.000000 0.017071 0.000000
# 3 -0.013541 -0.012117 0.033665 0.000000 -0.058508 0.000000
# 4 0.000000 0.000000 0.000000 0.034181 0.000000 -0.012330
# 5 0.043158 0.017071 -0.058508 0.000000 0.215404 0.000000
# 6 0.000000 0.000000 0.000000 -0.012330 0.000000 0.048626
#
#
# Mechanical properties :
#
#
# Convention : Reuss Voigt Hill
#
# Bulk Modulus (GPa) = 39.62080 39.75822 39.68951
# Shear Modulus (GPa) = 11.34811 22.29724 16.82267
#
# Velocity S-wave (km/s) = 2.39554 3.35789 2.91668
# Velocity P-wave (km/s) = 5.26186 5.92783 5.60475
#
# Compressibility (1/GPa) = 0.02523927
#
# Stress axis : x y z
#
# Youngs Moduli (GPa) = 40.49023 47.06757 29.70408
#
# Poissons Ratio (x) = 0.07185 0.40221
# Poissons Ratio (y) = 0.06181 0.35994
# Poissons Ratio (z) = 0.54827 0.57034
#
# Static dielectric constant tensor:
#      x y z
#    x 1.689840 0.000000 -0.032960 
#    y 0.000000 1.669040 0.000000 
#    z -0.032960 0.000000 1.702740 
# 
# From -- ./inp_files/173027.got.cif
#   From: 2010.05.17/outbox.cif.g08.bks.cpg/sg12_87_cif.got.tgz:173027.got - 2010.06.03 13:09:07.
