data_PCOD9202829
_publ_section_title
;
Structure prediction by ZEFSAII (Michael W. Deem and Ramdas Pophale) SiO2 
 PCOD9202829
Probable space group: C 2/M
;
_chemical_formula_sum "Si O2"
_cell_formula_units_Z 38
_cell_length_a 19.060033
_cell_length_b 10.621909
_cell_length_c 14.278457
_cell_angle_alpha 90.000000
_cell_angle_beta 140.518026
_cell_angle_gamma 90.000000
_cell_volume 1838.028426
_symmetry_space_group_name_H-M "C 2/M"
_symmetry_group_IT_number 12
_symmetry_cell_setting 'monoclinic'
loop_
_space_group_symop_operation_xyz
x,y,z
-x,y,-z
-x,-y,-z
x,-y,z
1/2+x,1/2+y,z
1/2-x,1/2+y,-z
1/2-x,1/2-y,-z
1/2+x,1/2-y,z
loop_
_atom_site_type_symbol
_atom_site_label
_atom_site_fract_x
_atom_site_fract_y
_atom_site_fract_z
Si Si1 0.629443 0.000000 0.478910
Si Si2 0.015745 0.759722 0.303244
Si Si3 0.871639 0.000000 0.657002
Si Si4 0.434040 0.147736 0.023415
Si Si5 0.709182 0.736634 0.851664
Si Si6 0.000000 0.000000 0.000000
Si Si7 0.744952 0.000000 0.796528
O O1 0.563976 0.870631 0.393172
O O2 0.740238 0.000000 0.531938
O O3 0.322104 0.000000 0.367822
O O4 0.096697 0.874513 0.367175
O O5 0.972880 0.720299 0.155415
O O6 0.915721 0.808474 0.265562
O O7 0.936950 0.000000 0.825345
O O8 0.460832 0.000000 0.059546
O O9 0.500000 0.199007 0.000000
O O10 0.301393 0.163690 0.886130
O O11 0.709429 0.876740 0.813933
O O12 0.750000 0.750000 0.000000
O O13 0.877264 0.000000 0.920351
#
# Coordination Sequence:
#
# PCOD9202829 Si02
#       7
#     4   8   4   8   8   2   4
#     4  11  25  45  70  90 133 179 229 259 327 404
#     4  11  23  43  65  93 134 176 217 274 326 396
#     4  11  25  39  69  97 129 168 226 272 331 382
#     4  10  22  38  63  96 132 169 217 275 334 386
#     4  10  23  36  66  92 131 161 214 269 334 380
#     4  10  20  38  64 100 128 156 216 294 320 380
#     4  11  24  40  66  99 122 173 222 269 328 398
#
# _framework density 20.674327000000002
#
# number of rings (size 3 to 8) (size 9 to 14) (size 15 to 20)
#    0.000    1.474    1.053    3.789   14.737    1.684 
#    0.000    0.000    0.000    1.263    0.000    0.000 
#    0.000    0.000    0.000    0.000    0.000    0.000 
#
# Total GULP energy -105812.507293 kJ/mol
# GULP energy per Si atom -5569.079331 kJ/mol
# Density = 2.062727 g / cm^3
# Si number density = 20.674327 Si / 1000 Ang^3
#
#
#
# Elastic Constant Matrix: (Units=GPa)
#
#
# Indices 1 2 3 4 5 6 
#
# 1 139.1766 14.7674 29.9422 0.0000 26.7003 0.0000
# 2 14.7674 63.7094 5.6910 0.0000 1.9887 0.0000
# 3 29.9422 5.6910 58.2363 0.0000 19.2428 0.0000
# 4 0.0000 0.0000 0.0000 13.5048 0.0000 -8.6224
# 5 26.7003 1.9887 19.2428 0.0000 22.5718 0.0000
# 6 0.0000 0.0000 0.0000 -8.6224 0.0000 280.1060
#
#
#
# Elastic Compliance Matrix: (Units=1/GPa)
#
#
# Indices 1 2 3 4 5 6 
#
# 1 0.009599 -0.001783 -0.001477 0.000000 -0.009938 0.000000
# 2 -0.001783 0.016166 -0.001238 0.000000 0.001740 0.000000
# 3 -0.001477 -0.001238 0.024277 0.000000 -0.018840 0.000000
# 4 0.000000 0.000000 0.000000 0.075532 0.000000 0.002325
# 5 -0.009938 0.001740 -0.018840 0.000000 0.071967 0.000000
# 6 0.000000 0.000000 0.000000 0.002325 0.000000 0.003642
#
#
# Mechanical properties :
#
#
# Convention : Reuss Voigt Hill
#
# Bulk Modulus (GPa) = 24.36319 40.21372 32.28846
# Shear Modulus (GPa) = 22.33534 77.28461 49.80997
#
# Velocity S-wave (km/s) = 3.29042 6.12071 4.91375
# Velocity P-wave (km/s) = 5.12305 8.33331 6.91700
#
# Compressibility (1/GPa) = 0.04104553
#
# Stress axis : x y z
#
# Youngs Moduli (GPa) = 104.18195 61.85906 41.19088
#
# Poissons Ratio (x) = 0.11028 0.06085
# Poissons Ratio (y) = 0.18573 0.05100
# Poissons Ratio (z) = 0.15390 0.07659
#
# Static dielectric constant tensor:
#      x y z
#    x 1.737980 0.000000 0.093030 
#    y 0.000000 2.162700 0.000000 
#    z 0.093030 0.000000 1.597550 
# 
# From -- ./inp_files/223593.got.cif
#   From: 2010.05.17/outbox.cif.g08.bks.cpg/sg12_112_cif.got.tgz:223593.got - 2010.06.03 13:09:07.
