data_PCOD9202627
_publ_section_title
;
Structure prediction by ZEFSAII (Michael W. Deem and Ramdas Pophale) SiO2 
 PCOD9202627
Probable space group: C 2/M
;
_chemical_formula_sum "Si O2"
_cell_formula_units_Z 40
_cell_length_a 14.617390
_cell_length_b 26.091061
_cell_length_c 7.736531
_cell_angle_alpha 90.000000
_cell_angle_beta 144.480648
_cell_angle_gamma 90.000000
_cell_volume 1714.223535
_symmetry_space_group_name_H-M "C 2/M"
_symmetry_group_IT_number 12
_symmetry_cell_setting 'monoclinic'
loop_
_space_group_symop_operation_xyz
x,y,z
-x,y,-z
-x,-y,-z
x,-y,z
1/2+x,1/2+y,z
1/2-x,1/2+y,-z
1/2-x,1/2-y,-z
1/2+x,1/2-y,z
loop_
_atom_site_type_symbol
_atom_site_label
_atom_site_fract_x
_atom_site_fract_y
_atom_site_fract_z
Si Si1 0.991152 0.000000 0.193526
Si Si2 0.855546 0.500000 0.409516
Si Si3 0.968073 0.296275 0.153781
Si Si4 0.642824 0.109307 0.583250
Si Si5 0.669120 0.710951 0.519356
Si Si6 0.007577 0.113838 0.716448
O O1 0.051512 0.055074 0.349428
O O2 0.804479 0.000000 0.949389
O O3 0.000000 0.000000 0.000000
O O4 0.852730 0.553983 0.504585
O O5 0.000000 0.500000 0.500000
O O6 0.078181 0.342645 0.380008
O O7 0.018379 0.245517 0.329680
O O8 0.780619 0.300342 0.854308
O O9 0.000000 0.292027 0.000000
O O10 0.500000 0.104017 0.500000
O O11 0.814038 0.117332 0.933508
O O12 0.750000 0.750000 0.500000
O O13 0.602645 0.655873 0.358063
O O14 0.000000 0.124232 0.500000
#
# Coordination Sequence:
#
# PCOD9202627 Si02
#       6
#     4   4   8   8   8   8
#     4  10  23  39  66 105 142 179 225 280 345 408
#     4   8  18  37  61  89 128 177 220 266 330 400
#     4  10  21  37  58  86 120 163 210 265 329 393
#     4  10  20  38  62  90 126 169 221 274 327 397
#     4  10  22  39  61  91 128 171 218 275 336 398
#     4  11  23  42  68 100 136 181 228 279 339 412
#
# _framework density 23.334181000000001
#
# number of rings (size 3 to 8) (size 9 to 14) (size 15 to 20)
#    0.000    2.000    0.000    2.700    0.000   11.200 
#    0.000    7.500    0.000    0.000    0.000    0.000 
#    0.000    0.000    0.000    0.000    0.000    0.000 
#
# Total GULP energy -111380.646915 kJ/mol
# GULP energy per Si atom -5569.032346 kJ/mol
# Density = 2.328107 g / cm^3
# Si number density = 23.334181 Si / 1000 Ang^3
#
#
#
# Elastic Constant Matrix: (Units=GPa)
#
#
# Indices 1 2 3 4 5 6 
#
# 1 69.2440 21.1201 18.6208 0.0000 2.6706 0.0000
# 2 21.1201 231.9612 92.4153 0.0000 11.0305 0.0000
# 3 18.6208 92.4153 150.5963 0.0000 14.7953 0.0000
# 4 0.0000 0.0000 0.0000 45.2764 0.0000 0.1454
# 5 2.6706 11.0305 14.7953 0.0000 31.8584 0.0000
# 6 0.0000 0.0000 0.0000 0.1454 0.0000 23.4653
#
#
#
# Elastic Compliance Matrix: (Units=1/GPa)
#
#
# Indices 1 2 3 4 5 6 
#
# 1 0.015063 -0.000829 -0.001318 0.000000 -0.000364 0.000000
# 2 -0.000829 0.005756 -0.003396 0.000000 -0.000346 0.000000
# 3 -0.001318 -0.003396 0.009179 0.000000 -0.002977 0.000000
# 4 0.000000 0.000000 0.000000 0.022087 0.000000 -0.000137
# 5 -0.000364 -0.000346 -0.002977 0.000000 0.032922 0.000000
# 6 0.000000 0.000000 0.000000 -0.000137 0.000000 0.042617
#
#
# Mechanical properties :
#
#
# Convention : Reuss Voigt Hill
#
# Bulk Modulus (GPa) = 52.87386 79.56822 66.22104
# Shear Modulus (GPa) = 34.47947 41.42970 37.95458
#
# Velocity S-wave (km/s) = 3.84818 4.21823 4.03745
# Velocity P-wave (km/s) = 6.51561 7.60908 7.08348
#
# Compressibility (1/GPa) = 0.01891294
#
# Stress axis : x y z
#
# Youngs Moduli (GPa) = 66.38773 173.73565 108.93893
#
# Poissons Ratio (x) = 0.14405 0.14358
# Poissons Ratio (y) = 0.05504 0.36991
# Poissons Ratio (z) = 0.08750 0.58994
#
# Static dielectric constant tensor:
#      x y z
#    x 2.179570 0.000000 0.289140 
#    y 0.000000 1.923330 0.000000 
#    z 0.289140 0.000000 2.156370 
# 
# From -- ./inp_files/79329.got.cif
#   From: 2010.05.17/outbox.cif.g08.bks.cpg/sg12_40_cif.got.tgz:79329.got - 2010.06.03 13:09:07.
