data_PCOD9202198
_publ_section_title
;
Structure prediction by ZEFSAII (Michael W. Deem and Ramdas Pophale) SiO2 
 PCOD9202198
Probable space group: C 2/M
;
_chemical_formula_sum "Si O2"
_cell_formula_units_Z 52
_cell_length_a 15.732002
_cell_length_b 21.880359
_cell_length_c 13.737921
_cell_angle_alpha 90.000000
_cell_angle_beta 29.401070
_cell_angle_gamma 90.000000
_cell_volume 2321.508068
_symmetry_space_group_name_H-M "C 2/M"
_symmetry_group_IT_number 12
_symmetry_cell_setting 'monoclinic'
loop_
_space_group_symop_operation_xyz
x,y,z
-x,y,-z
-x,-y,-z
x,-y,z
1/2+x,1/2+y,z
1/2-x,1/2+y,-z
1/2-x,1/2-y,-z
1/2+x,1/2-y,z
loop_
_atom_site_type_symbol
_atom_site_label
_atom_site_fract_x
_atom_site_fract_y
_atom_site_fract_z
Si Si1 0.708994 0.567227 0.787974
Si Si2 0.500000 0.158783 0.500000
Si Si3 0.005866 0.293246 0.283109
Si Si4 0.359501 0.889842 0.002216
Si Si5 0.264876 0.072808 0.309719
Si Si6 0.614731 0.565173 0.086610
Si Si7 0.623227 0.339864 0.611097
O O1 0.748731 0.500000 0.707855
O O2 0.838961 0.618211 0.623012
O O3 0.500000 0.574067 0.000000
O O4 0.747533 0.566292 0.865392
O O5 0.442395 0.193675 0.656171
O O6 0.811031 0.317815 0.457227
O O7 0.991407 0.220363 0.288928
O O8 0.111831 0.327835 0.090918
O O9 0.546163 0.922113 0.827762
O O10 0.286534 0.891952 0.184995
O O11 0.224548 0.927090 0.073333
O O12 0.143012 0.114715 0.498850
O O13 0.221303 0.000000 0.342529
O O14 0.523329 0.500000 0.178434
O O15 0.476040 0.618168 0.213666
#
# Coordination Sequence:
#
# PCOD9202198 Si02
#       7
#     8   4   8   8   8   8   8
#     4  10  22  39  60  93 128 160 211 268 320 381
#     4  12  21  42  66  92 119 178 216 262 320 386
#     4  10  23  42  62  85 127 165 215 255 310 394
#     4  10  20  38  59  91 124 160 202 258 314 387
#     4  10  20  38  64  92 122 162 208 262 324 381
#     4  11  21  37  61  89 120 154 198 261 322 376
#     4  10  23  42  60  90 125 164 206 264 320 383
#
# _framework density 22.399232999999999
#
# number of rings (size 3 to 8) (size 9 to 14) (size 15 to 20)
#    0.000    1.692    1.538    3.462    0.000    2.462 
#    2.769    3.077    0.000    0.000    0.000    0.000 
#    0.000    0.000    0.000    0.000    0.000    0.000 
#
# Total GULP energy -144963.319647 kJ/mol
# GULP energy per Si atom -5575.512294 kJ/mol
# Density = 2.234825 g / cm^3
# Si number density = 22.399233 Si / 1000 Ang^3
#
#
#
# Elastic Constant Matrix: (Units=GPa)
#
#
# Indices 1 2 3 4 5 6 
#
# 1 84.9250 25.1891 21.1983 -0.0304 8.5749 0.0003
# 2 25.1891 166.2315 62.8191 -0.0429 22.7303 0.0298
# 3 21.1983 62.8191 51.1447 -0.0382 19.3908 0.0258
# 4 -0.0304 -0.0429 -0.0382 28.4575 0.0258 -6.4089
# 5 8.5749 22.7303 19.3908 0.0258 39.4934 -0.0063
# 6 0.0003 0.0298 0.0258 -6.4089 -0.0063 -11.3375
#
#
#
# Elastic Compliance Matrix: (Units=1/GPa)
#
#
# Indices 1 2 3 4 5 6 
#
# 1 0.013137 0.000122 -0.005513 0.000004 -0.000216 -0.000014
# 2 0.000122 0.011232 -0.013990 -0.000002 0.000378 -0.000001
# 3 -0.005513 -0.013990 0.043638 0.000052 -0.012177 0.000040
# 4 0.000004 -0.000002 0.000052 0.031172 -0.000048 -0.017621
# 5 -0.000216 0.000378 -0.012177 -0.000048 0.031129 -0.000017
# 6 -0.000014 -0.000001 0.000040 -0.017621 -0.000017 -0.078242
#
#
# Mechanical properties :
#
#
# Convention : Reuss Voigt Hill
#
# Bulk Modulus (GPa) = 34.19458 57.85712 46.02585
# Shear Modulus (GPa) = 49.71316 24.19565 36.95440
#
# Velocity S-wave (km/s) = 4.71618 3.29020 4.06619
# Velocity P-wave (km/s) = 6.70489 6.34980 6.52976
#
# Compressibility (1/GPa) = 0.02924440
#
# Stress axis : x y z
#
# Youngs Moduli (GPa) = 76.12206 89.02748 22.91584
#
# Poissons Ratio (x) = -0.01090 0.12635
# Poissons Ratio (y) = -0.00932 0.32060
# Poissons Ratio (z) = 0.41970 1.24553
#
# Static dielectric constant tensor:
#      x y z
#    x 1.869230 -0.000010 0.009700 
#    y -0.000010 1.831370 0.000030 
#    z 0.009700 0.000030 1.819340 
# 
# From -- ./inp_files/227396.got.cif
#   From: 2010.05.17/outbox.cif.g08.bks.cpg/sg12_114_cif.got.tgz:227396.got - 2010.06.03 13:09:07.
