data_PCOD9202076
_publ_section_title
;
Structure prediction by ZEFSAII (Michael W. Deem and Ramdas Pophale) SiO2 
 PCOD9202076
Probable space group: C 2/M
;
_chemical_formula_sum "Si O2"
_cell_formula_units_Z 58
_cell_length_a 14.077677
_cell_length_b 7.580171
_cell_length_c 22.402028
_cell_angle_alpha 90.000000
_cell_angle_beta 89.950308
_cell_angle_gamma 90.000000
_cell_volume 2390.546368
_symmetry_space_group_name_H-M "C 2/M"
_symmetry_group_IT_number 12
_symmetry_cell_setting 'monoclinic'
loop_
_space_group_symop_operation_xyz
x,y,z
-x,y,-z
-x,-y,-z
x,-y,z
1/2+x,1/2+y,z
1/2-x,1/2+y,-z
1/2-x,1/2-y,-z
1/2+x,1/2-y,z
loop_
_atom_site_type_symbol
_atom_site_label
_atom_site_fract_x
_atom_site_fract_y
_atom_site_fract_z
Si Si1 0.883080 0.699807 0.296893
Si Si2 0.012661 0.188417 0.915317
Si Si3 0.000000 0.500000 0.000000
Si Si4 0.535903 0.785920 0.215205
Si Si5 0.746517 0.711043 0.809008
Si Si6 0.755970 0.703321 0.400320
Si Si7 0.698965 0.208978 0.061319
Si Si8 0.108600 0.784754 0.490009
O O1 0.902693 0.500000 0.318186
O O2 0.824399 0.695929 0.235489
O O3 0.814040 0.786598 0.345565
O O4 0.983023 0.778084 0.274927
O O5 0.015957 0.218470 0.844504
O O6 0.899140 0.190169 0.928549
O O7 0.055934 0.000000 0.931116
O O8 0.045598 0.346794 0.956115
O O9 0.646098 0.738400 0.209704
O O10 0.531694 0.000000 0.213655
O O11 0.736249 0.500000 0.800824
O O12 0.738449 0.744010 0.879798
O O13 0.736271 0.500000 0.383441
O O14 0.828053 0.712232 0.456066
O O15 0.657958 0.775307 0.428079
O O16 0.669070 0.000000 0.062238
O O17 0.750000 0.250000 0.000000
O O18 0.000000 0.734125 0.500000
O O19 0.114453 0.000000 0.491738
#
# Coordination Sequence:
#
# PCOD9202076 Si02
#       8
#     8   8   2   8   8   8   8   8
#     4  10  21  36  58  84 115 154 197 245 302 358
#     4  11  22  38  60  84 112 154 197 242 308 375
#     4  12  22  40  56  82 120 144 190 254 300 370
#     4   9  19  40  58  76 114 154 187 242 307 363
#     4   9  20  37  57  78 111 151 189 238 298 362
#     4   9  19  35  53  82 118 152 199 248 290 353
#     4  10  20  38  58  82 117 153 193 248 308 370
#     4   9  18  34  56  81 116 160 197 241 300 346
#
# _framework density 24.262233999999999
#
# number of rings (size 3 to 8) (size 9 to 14) (size 15 to 20)
#    0.000    2.345    1.379    1.448    0.000    6.345 
#    0.000    1.379    0.000    0.000    0.000    0.000 
#    0.000    0.000    0.000    0.000    0.000    0.000 
#
# Total GULP energy -161876.117957 kJ/mol
# GULP energy per Si atom -5581.935102 kJ/mol
# Density = 2.420701 g / cm^3
# Si number density = 24.262234 Si / 1000 Ang^3
#
#
#
# Elastic Constant Matrix: (Units=GPa)
#
#
# Indices 1 2 3 4 5 6 
#
# 1 77.3854 -3.8426 30.3738 0.0000 -39.5360 0.0000
# 2 -3.8426 91.8539 1.5056 0.0000 -3.9042 0.0000
# 3 30.3738 1.5056 123.7820 0.0000 -62.9379 0.0000
# 4 0.0000 0.0000 0.0000 5.3734 0.0000 11.3934
# 5 -39.5360 -3.9042 -62.9379 0.0000 50.7858 0.0000
# 6 0.0000 0.0000 0.0000 11.3934 0.0000 11.5750
#
#
#
# Elastic Compliance Matrix: (Units=1/GPa)
#
#
# Indices 1 2 3 4 5 6 
#
# 1 0.026117 0.002356 0.010794 0.000000 0.033890 0.000000
# 2 0.002356 0.011164 0.001771 0.000000 0.004887 0.000000
# 3 0.010794 0.001771 0.026361 0.000000 0.041208 0.000000
# 4 0.000000 0.000000 0.000000 -0.171195 0.000000 0.168510
# 5 0.033890 0.004887 0.041208 0.000000 0.097518 0.000000
# 6 0.000000 0.000000 0.000000 0.168510 0.000000 -0.079474
#
#
# Mechanical properties :
#
#
# Convention : Reuss Voigt Hill
#
# Bulk Modulus (GPa) = 10.69689 38.78832 24.74260
# Shear Modulus (GPa) = -56.69561 31.21248 -12.74157
#
# Velocity S-wave (km/s) = -4.83927 3.59062 -2.29412
# Velocity P-wave (km/s) = 5.17748 5.76298 1.78963
#
# Compressibility (1/GPa) = 0.09348510
#
# Stress axis : x y z
#
# Youngs Moduli (GPa) = 38.28948 89.57261 37.93471
#
# Poissons Ratio (x) = -0.21104 -0.40948
# Poissons Ratio (y) = -0.09021 -0.06718
# Poissons Ratio (z) = -0.41331 -0.15864
#
# Static dielectric constant tensor:
#      x y z
#    x 2.216440 0.000000 0.097230 
#    y 0.000000 1.933470 0.000000 
#    z 0.097230 0.000000 2.011330 
# 
# From -- ./inp_files/337939.got.cif
#   From: 2010.05.17/outbox.cif.g08.bks.cpg/sg12_169_cif.got.tgz:337939.got - 2010.06.03 13:09:07.
