data_PCOD9202411
_publ_section_title
;
Structure prediction by ZEFSAII (Michael W. Deem and Ramdas Pophale) SiO2 
 PCOD9202411
Probable space group: C 2/M
;
_chemical_formula_sum "Si O2"
_cell_formula_units_Z 56
_cell_length_a 17.009945
_cell_length_b 14.083966
_cell_length_c 11.186019
_cell_angle_alpha 90.000000
_cell_angle_beta 89.037182
_cell_angle_gamma 90.000000
_cell_volume 2679.428101
_symmetry_space_group_name_H-M "C 2/M"
_symmetry_group_IT_number 12
_symmetry_cell_setting 'monoclinic'
loop_
_space_group_symop_operation_xyz
x,y,z
-x,y,-z
-x,-y,-z
x,-y,z
1/2+x,1/2+y,z
1/2-x,1/2+y,-z
1/2-x,1/2-y,-z
1/2+x,1/2-y,z
loop_
_atom_site_type_symbol
_atom_site_label
_atom_site_fract_x
_atom_site_fract_y
_atom_site_fract_z
Si Si1 0.300727 0.257827 0.877561
Si Si2 0.927772 0.388103 0.310154
Si Si3 0.906719 0.109153 0.481467
Si Si4 0.165921 0.708072 0.466190
Si Si5 0.645699 0.709992 0.766866
Si Si6 0.890306 0.606869 0.747021
Si Si7 0.589355 0.388283 0.003345
O O1 0.235216 0.247745 0.776254
O O2 0.363608 0.174761 0.853891
O O3 0.250000 0.250000 0.000000
O O4 0.355677 0.348729 0.892621
O O5 0.908477 0.500000 0.292415
O O6 0.882145 0.346308 0.427210
O O7 0.902554 0.308086 0.215807
O O8 0.022218 0.380999 0.309244
O O9 0.878822 0.194409 0.569201
O O10 0.880248 0.152906 0.352550
O O11 0.000000 0.104967 0.500000
O O12 0.877106 0.000000 0.495867
O O13 0.250000 0.750000 0.500000
O O14 0.166448 0.631771 0.361530
O O15 0.628822 0.640974 0.877314
O O16 0.882239 0.500000 0.787535
O O17 0.585249 0.500000 0.014908
O O18 0.500000 0.350440 0.000000
#
# Coordination Sequence:
#
# PCOD9202411 Si02
#       7
#     8   8   8   8   8   8   8
#     4  10  23  40  61  90 119 157 212 270 317 366
#     4  10  21  37  60  90 124 163 205 252 304 367
#     4  10  21  37  59  88 123 165 210 254 303 368
#     4  11  22  36  57  88 125 163 206 255 308 372
#     4  10  20  38  61  86 124 164 205 257 315 374
#     4  11  22  39  63  87 119 166 210 252 312 379
#     4  10  21  38  61  87 118 160 207 258 317 378
#
# _framework density 20.899981
#
# number of rings (size 3 to 8) (size 9 to 14) (size 15 to 20)
#    0.000    1.714    0.000    5.571    0.000    6.857 
#    0.000    4.286    0.000    7.714    0.000    0.000 
#    0.000    0.000    0.000    0.000    0.000    0.000 
#
# Total GULP energy -155912.350377 kJ/mol
# GULP energy per Si atom -5568.298228 kJ/mol
# Density = 2.085241 g / cm^3
# Si number density = 20.899981 Si / 1000 Ang^3
#
#
#
# Elastic Constant Matrix: (Units=GPa)
#
#
# Indices 1 2 3 4 5 6 
#
# 1 100.1222 40.7934 18.8885 0.0000 13.9292 0.0000
# 2 40.7934 133.2677 10.6235 0.0000 3.0695 0.0000
# 3 18.8885 10.6235 50.0611 0.0000 -0.8658 0.0000
# 4 0.0000 0.0000 0.0000 23.2353 0.0000 5.3084
# 5 13.9292 3.0695 -0.8658 0.0000 31.8310 0.0000
# 6 0.0000 0.0000 0.0000 5.3084 0.0000 16.6604
#
#
#
# Elastic Compliance Matrix: (Units=1/GPa)
#
#
# Indices 1 2 3 4 5 6 
#
# 1 0.012977 -0.003508 -0.004246 0.000000 -0.005456 0.000000
# 2 -0.003508 0.008601 -0.000489 0.000000 0.000692 0.000000
# 3 -0.004246 -0.000489 0.021725 0.000000 0.002496 0.000000
# 4 0.000000 0.000000 0.000000 0.046417 0.000000 -0.014790
# 5 -0.005456 0.000692 0.002496 0.000000 0.033805 0.000000
# 6 0.000000 0.000000 0.000000 -0.014790 0.000000 0.064735
#
#
# Mechanical properties :
#
#
# Convention : Reuss Voigt Hill
#
# Bulk Modulus (GPa) = 37.29302 47.11799 42.20550
# Shear Modulus (GPa) = 23.39886 28.55503 25.97694
#
# Velocity S-wave (km/s) = 3.34962 3.70032 3.52933
# Velocity P-wave (km/s) = 5.73081 6.39140 6.07010
#
# Compressibility (1/GPa) = 0.02681467
#
# Stress axis : x y z
#
# Youngs Moduli (GPa) = 77.05756 116.27059 46.03027
#
# Poissons Ratio (x) = 0.40790 0.19546
# Poissons Ratio (y) = 0.27033 0.02253
# Poissons Ratio (z) = 0.32721 0.05691
#
# Static dielectric constant tensor:
#      x y z
#    x 1.796330 0.000000 -0.004660 
#    y 0.000000 1.741740 0.000000 
#    z -0.004660 0.000000 1.831180 
# 
# From -- ./inp_files/143750.got.cif
#   From: 2010.05.17/outbox.cif.g08.bks.cpg/sg12_72_cif.got.tgz:143750.got - 2010.06.03 13:09:07.
