data_PCOD9202774
_publ_section_title
;
Structure prediction by ZEFSAII (Michael W. Deem and Ramdas Pophale) SiO2 
 PCOD9202774
Probable space group: C 2/M
;
_chemical_formula_sum "Si O2"
_cell_formula_units_Z 60
_cell_length_a 20.539076
_cell_length_b 11.719377
_cell_length_c 25.075404
_cell_angle_alpha 90.000000
_cell_angle_beta 150.094109
_cell_angle_gamma 90.000000
_cell_volume 3009.300048
_symmetry_space_group_name_H-M "C 2/M"
_symmetry_group_IT_number 12
_symmetry_cell_setting 'monoclinic'
loop_
_space_group_symop_operation_xyz
x,y,z
-x,y,-z
-x,-y,-z
x,-y,z
1/2+x,1/2+y,z
1/2-x,1/2+y,-z
1/2-x,1/2-y,-z
1/2+x,1/2-y,z
loop_
_atom_site_type_symbol
_atom_site_label
_atom_site_fract_x
_atom_site_fract_y
_atom_site_fract_z
Si Si1 0.510123 0.625132 0.217315
Si Si2 0.471354 0.865247 0.917181
Si Si3 0.500000 0.298361 0.500000
Si Si4 0.169319 0.203891 0.994060
Si Si5 0.829255 0.130666 0.282639
Si Si6 0.102874 0.718080 0.771683
Si Si7 0.291307 0.129389 0.397189
Si Si8 0.171696 0.627961 0.452746
O O1 0.546423 0.500000 0.262847
O O2 0.426196 0.619281 0.104342
O O3 0.437931 0.686801 0.213890
O O4 0.646638 0.681088 0.298757
O O5 0.574159 0.796476 0.954207
O O6 0.316706 0.842045 0.798949
O O7 0.492473 0.000000 0.923255
O O8 0.500000 0.841037 0.000000
O O9 0.559204 0.364685 0.592675
O O10 0.383156 0.214635 0.432286
O O11 0.250000 0.250000 0.000000
O O12 0.270560 0.161772 0.110740
O O13 0.862690 0.218850 0.259099
O O14 0.821686 0.000000 0.256350
O O15 0.973525 0.642769 0.673648
O O16 0.340937 0.121845 0.492760
O O17 0.288542 0.000000 0.372463
O O18 0.224603 0.500000 0.473269
O O19 0.250000 0.750000 0.500000
#
# Coordination Sequence:
#
# PCOD9202774 Si02
#       8
#     8   8   4   8   8   8   8   8
#     4  10  21  38  61  87 122 163 213 264 326 394
#     4  10  20  38  63  91 123 170 222 275 336 403
#     4  12  22  38  58  86 124 162 220 270 328 382
#     4  10  22  37  61  91 124 163 214 270 323 390
#     4  11  23  37  59  91 129 170 220 276 336 397
#     4  11  21  39  62  91 124 168 210 268 329 399
#     4  10  21  38  61  85 117 164 212 258 319 393
#     4  11  23  42  66  96 127 166 215 270 327 392
#
# _framework density 19.938192999999998
#
# number of rings (size 3 to 8) (size 9 to 14) (size 15 to 20)
#    0.000    1.467    4.000    1.600    0.000    3.200 
#    0.000    2.000    0.000    0.400    0.000    0.000 
#    0.000    0.000    0.000    0.000    0.000    0.000 
#
# Total GULP energy -167088.661278 kJ/mol
# GULP energy per Si atom -5569.622043 kJ/mol
# Density = 1.989281 g / cm^3
# Si number density = 19.938193 Si / 1000 Ang^3
#
#
#
# Elastic Constant Matrix: (Units=GPa)
#
#
# Indices 1 2 3 4 5 6 
#
# 1 87.5232 39.1617 19.3997 0.0000 7.0102 0.0000
# 2 39.1617 73.7856 6.2526 0.0000 1.8850 0.0001
# 3 19.3997 6.2526 132.8211 0.0000 -7.0476 0.0001
# 4 0.0000 0.0000 0.0000 21.5635 0.0000 -5.1542
# 5 7.0102 1.8850 -7.0476 0.0000 30.5140 0.0000
# 6 0.0000 0.0001 0.0001 -5.1542 0.0000 10.5913
#
#
#
# Elastic Compliance Matrix: (Units=1/GPa)
#
#
# Indices 1 2 3 4 5 6 
#
# 1 0.015821 -0.008125 -0.002121 0.000000 -0.003623 0.000000
# 2 -0.008125 0.017810 0.000394 0.000000 0.000857 0.000000
# 3 -0.002121 0.000394 0.007942 0.000000 0.002297 0.000000
# 4 0.000000 0.000000 0.000000 0.052479 0.000000 0.025539
# 5 -0.003623 0.000857 0.002297 0.000000 0.034082 0.000000
# 6 0.000000 0.000000 0.000000 0.025539 0.000000 0.106845
#
#
# Mechanical properties :
#
#
# Convention : Reuss Voigt Hill
#
# Bulk Modulus (GPa) = 45.72533 47.08422 46.40478
# Shear Modulus (GPa) = 19.08601 27.82147 23.45374
#
# Velocity S-wave (km/s) = 3.09732 3.73954 3.43348
# Velocity P-wave (km/s) = 5.98118 6.50476 6.24845
#
# Compressibility (1/GPa) = 0.02186971
#
# Stress axis : x y z
#
# Youngs Moduli (GPa) = 63.20662 56.14899 125.91282
#
# Poissons Ratio (x) = 0.45620 0.26701
# Poissons Ratio (y) = 0.51354 -0.04958
# Poissons Ratio (z) = 0.13403 -0.02211
#
# Static dielectric constant tensor:
#      x y z
#    x 1.703400 0.000000 0.031620 
#    y 0.000000 1.736750 0.000000 
#    z 0.031620 0.000000 1.769830 
# 
# From -- ./inp_files/347186.got.cif
#   From: 2010.05.17/outbox.cif.g08.bks.cpg/sg12_174_cif.got.tgz:347186.got - 2010.06.03 13:09:07.
