data_PCOD9202995
_publ_section_title
;
Structure prediction by ZEFSAII (Michael W. Deem and Ramdas Pophale) SiO2 
 PCOD9202995
Probable space group: C 2/M
;
_chemical_formula_sum "Si O2"
_cell_formula_units_Z 64
_cell_length_a 15.344608
_cell_length_b 17.820685
_cell_length_c 15.544643
_cell_angle_alpha 90.000000
_cell_angle_beta 130.900431
_cell_angle_gamma 90.000000
_cell_volume 3212.889026
_symmetry_space_group_name_H-M "C 2/M"
_symmetry_group_IT_number 12
_symmetry_cell_setting 'monoclinic'
loop_
_space_group_symop_operation_xyz
x,y,z
-x,y,-z
-x,-y,-z
x,-y,z
1/2+x,1/2+y,z
1/2-x,1/2+y,-z
1/2-x,1/2-y,-z
1/2+x,1/2-y,z
loop_
_atom_site_type_symbol
_atom_site_label
_atom_site_fract_x
_atom_site_fract_y
_atom_site_fract_z
Si Si1 0.215835 0.202758 0.253867
Si Si2 0.909426 0.674768 0.513104
Si Si3 0.988551 0.916476 0.891027
Si Si4 0.411073 0.274602 0.291845
Si Si5 0.140862 0.411396 0.341165
Si Si6 0.462737 0.835143 0.887212
Si Si7 0.369403 0.414218 0.380015
Si Si8 0.375281 0.284211 0.075906
O O1 0.291162 0.195923 0.389071
O O2 0.124209 0.135391 0.195908
O O3 0.316146 0.209022 0.246763
O O4 0.146882 0.279528 0.192558
O O5 0.886176 0.628956 0.585612
O O6 0.000000 0.640372 0.500000
O O7 0.975409 0.749808 0.584643
O O8 0.100775 0.869263 0.935266
O O9 0.979506 0.000000 0.846873
O O10 0.000000 0.923415 0.000000
O O11 0.366862 0.352562 0.303001
O O12 0.434318 0.278937 0.206973
O O13 0.130789 0.500000 0.348074
O O14 0.054038 0.386048 0.208121
O O15 0.270731 0.397202 0.387600
O O16 0.561900 0.772602 0.946479
O O17 0.500000 0.876118 0.000000
O O18 0.500000 0.412946 0.500000
O O19 0.345864 0.500000 0.335067
O O20 0.250000 0.250000 0.000000
#
# Coordination Sequence:
#
# PCOD9202995 Si02
#       8
#     8   8   8   8   8   8   8   8
#     4  10  20  38  65  90 125 163 211 261 321 384
#     4  10  23  41  65  99 133 172 218 268 328 392
#     4  10  22  41  61  88 124 164 215 270 322 382
#     4  11  20  37  61  95 126 165 216 266 312 390
#     4  11  24  43  65  94 132 175 219 265 330 397
#     4  11  22  40  64  93 124 168 222 272 320 387
#     4  10  22  39  61  91 131 169 209 265 324 384
#     4  11  22  37  64  91 125 161 214 267 326 383
#
# _framework density 19.919768000000001
#
# number of rings (size 3 to 8) (size 9 to 14) (size 15 to 20)
#    0.000    1.500    2.500    4.125    0.000    4.000 
#    0.000    3.750    0.000    0.000    0.000    0.000 
#    0.000    0.000    0.000    0.000    0.000    0.000 
#
# Total GULP energy -178244.238984 kJ/mol
# GULP energy per Si atom -5570.132468 kJ/mol
# Density = 1.987443 g / cm^3
# Si number density = 19.919768 Si / 1000 Ang^3
#
#
#
# Elastic Constant Matrix: (Units=GPa)
#
#
# Indices 1 2 3 4 5 6 
#
# 1 59.2063 43.7724 37.2311 0.0000 -4.6464 0.0000
# 2 43.7724 105.1801 33.9360 0.0000 0.6717 0.0000
# 3 37.2311 33.9360 110.8815 0.0000 -5.2771 0.0000
# 4 0.0000 0.0000 0.0000 -136.8508 0.0000 -498.6390
# 5 -4.6464 0.6717 -5.2771 0.0000 44.1098 0.0000
# 6 0.0000 0.0000 0.0000 -498.6390 0.0000-1584.5924
#
#
#
# Elastic Compliance Matrix: (Units=1/GPa)
#
#
# Indices 1 2 3 4 5 6 
#
# 1 0.028296 -0.009722 -0.006413 0.000000 0.002361 0.000000
# 2 -0.009722 0.013903 -0.001056 0.000000 -0.001362 0.000000
# 3 -0.006413 -0.001056 0.011529 0.000000 0.000720 0.000000
# 4 0.000000 0.000000 0.000000 0.049849 0.000000 -0.015686
# 5 0.002361 -0.001362 0.000720 0.000000 0.023026 0.000000
# 6 0.000000 0.000000 0.000000 -0.015686 0.000000 0.004305
#
#
# Mechanical properties :
#
#
# Convention : Reuss Voigt Hill
#
# Bulk Modulus (GPa) = 51.68788 56.12744 53.90766
# Shear Modulus (GPa) = 29.11425 -324.77814 -147.83194
#
# Velocity S-wave (km/s) = 3.82720 -12.78269 -8.62408
# Velocity P-wave (km/s) = 6.74791 13.77043 8.48795
#
# Compressibility (1/GPa) = 0.01934689
#
# Stress axis : x y z
#
# Youngs Moduli (GPa) = 35.34117 71.92921 86.73519
#
# Poissons Ratio (x) = 0.69926 0.55625
# Poissons Ratio (y) = 0.34357 0.09155
# Poissons Ratio (z) = 0.22665 0.07592
#
# Static dielectric constant tensor:
#      x y z
#    x 1.811990 0.000000 0.072540 
#    y 0.000000 1.710740 0.000000 
#    z 0.072540 0.000000 1.540620 
# 
# From -- ./inp_files/216850.got.cif
#   From: 2010.05.17/outbox.cif.g08.bks.cpg/sg12_109_cif.got.tgz:216850.got - 2010.06.03 13:09:07.
