data_PCOD9202802
_publ_section_title
;
Structure prediction by ZEFSAII (Michael W. Deem and Ramdas Pophale) SiO2 
 PCOD9202802
Probable space group: C 2/M
;
_chemical_formula_sum "Si O2"
_cell_formula_units_Z 40
_cell_length_a 14.084791
_cell_length_b 14.540193
_cell_length_c 10.220928
_cell_angle_alpha 90.000000
_cell_angle_beta 112.009171
_cell_angle_gamma 90.000000
_cell_volume 1940.656518
_symmetry_space_group_name_H-M "C 2/M"
_symmetry_group_IT_number 12
_symmetry_cell_setting 'monoclinic'
loop_
_space_group_symop_operation_xyz
x,y,z
-x,y,-z
-x,-y,-z
x,-y,z
1/2+x,1/2+y,z
1/2-x,1/2+y,-z
1/2-x,1/2-y,-z
1/2+x,1/2-y,z
loop_
_atom_site_type_symbol
_atom_site_label
_atom_site_fract_x
_atom_site_fract_y
_atom_site_fract_z
Si Si1 0.492187 0.389985 0.645324
Si Si2 0.085126 0.894431 0.949455
Si Si3 0.272645 0.193594 0.143574
Si Si4 0.166012 0.748993 0.344687
Si Si5 0.508880 0.109473 0.662556
O O1 0.500000 0.354419 0.500000
O O2 0.483571 0.500000 0.630652
O O3 0.581155 0.362701 0.795244
O O4 0.395583 0.343734 0.664485
O O5 0.054231 0.000000 0.919850
O O6 0.192743 0.889131 0.076313
O O7 0.000000 0.847490 0.000000
O O8 0.225701 0.250137 0.239802
O O9 0.384718 0.154248 0.232227
O O10 0.250000 0.250000 0.000000
O O11 0.250000 0.750000 0.500000
O O12 0.084911 0.666563 0.322444
O O13 0.500000 0.119587 0.500000
O O14 0.505173 0.000000 0.689707
#
# Coordination Sequence:
#
# PCOD9202802 Si02
#       5
#     8   8   8   8   8
#     4  10  22  39  66  98 133 169 218 281 339 402
#     4  10  20  38  63  93 126 166 215 270 335 399
#     4  12  26  42  69  99 136 179 229 285 346 405
#     4  12  25  43  69  98 134 180 233 285 342 414
#     4  11  25  47  72 103 142 188 238 287 348 425
#
# _framework density 20.611581000000001
#
# number of rings (size 3 to 8) (size 9 to 14) (size 15 to 20)
#    0.000    1.000    4.000    2.400    2.800    1.600 
#    0.000    3.000    0.000    0.000    0.000    0.000 
#    0.000    0.000    0.000    0.000    0.000    0.000 
#
# Total GULP energy -111535.157564 kJ/mol
# GULP energy per Si atom -5576.757878 kJ/mol
# Density = 2.056467 g / cm^3
# Si number density = 20.611581 Si / 1000 Ang^3
#
#
#
# Elastic Constant Matrix: (Units=GPa)
#
#
# Indices 1 2 3 4 5 6 
#
# 1 142.7752 55.9407 91.8386 0.0000 10.8790 0.0000
# 2 55.9407 101.8698 50.0399 0.0000 -2.1848 0.0000
# 3 91.8386 50.0399 196.1835 0.0000 -1.3603 0.0000
# 4 0.0000 0.0000 0.0000 25.7711 0.0000 5.4133
# 5 10.8790 -2.1848 -1.3603 0.0000 53.3945 0.0000
# 6 0.0000 0.0000 0.0000 5.4133 0.0000 6.3358
#
#
#
# Elastic Compliance Matrix: (Units=1/GPa)
#
#
# Indices 1 2 3 4 5 6 
#
# 1 0.011746 -0.004342 -0.004410 0.000000 -0.002683 0.000000
# 2 -0.004342 0.012835 -0.001232 0.000000 0.001378 0.000000
# 3 -0.004410 -0.001232 0.007483 0.000000 0.001039 0.000000
# 4 0.000000 0.000000 0.000000 0.047290 0.000000 -0.040405
# 5 -0.002683 0.001378 0.001039 0.000000 0.019358 0.000000
# 6 0.000000 0.000000 0.000000 -0.040405 0.000000 0.192356
#
#
# Mechanical properties :
#
#
# Convention : Reuss Voigt Hill
#
# Bulk Modulus (GPa) = 82.66002 92.94078 87.80040
# Shear Modulus (GPa) = 15.86958 33.30090 24.58524
#
# Velocity S-wave (km/s) = 2.77778 4.02386 3.45742
# Velocity P-wave (km/s) = 7.10485 8.17178 7.65692
#
# Compressibility (1/GPa) = 0.01209775
#
# Stress axis : x y z
#
# Youngs Moduli (GPa) = 85.13406 77.91029 133.63507
#
# Poissons Ratio (x) = 0.33826 0.58932
# Poissons Ratio (y) = 0.36962 0.16462
# Poissons Ratio (z) = 0.37543 0.09598
#
# Static dielectric constant tensor:
#      x y z
#    x 1.837190 0.000000 -0.046550 
#    y 0.000000 1.771080 0.000000 
#    z -0.046550 0.000000 1.836290 
# 
# From -- ./inp_files/59248.got.cif
#   From: 2010.05.17/outbox.cif.g08.bks.cpg/sg12_30_cif.got.tgz:59248.got - 2010.06.03 13:09:07.
