data_PCOD9202909
_publ_section_title
;
Structure prediction by ZEFSAII (Michael W. Deem and Ramdas Pophale) SiO2 
 PCOD9202909
Probable space group: C 2/M
;
_chemical_formula_sum "Si O2"
_cell_formula_units_Z 44
_cell_length_a 24.175831
_cell_length_b 10.083770
_cell_length_c 11.131323
_cell_angle_alpha 90.000000
_cell_angle_beta 127.751321
_cell_angle_gamma 90.000000
_cell_volume 2145.603092
_symmetry_space_group_name_H-M "C 2/M"
_symmetry_group_IT_number 12
_symmetry_cell_setting 'monoclinic'
loop_
_space_group_symop_operation_xyz
x,y,z
-x,y,-z
-x,-y,-z
x,-y,z
1/2+x,1/2+y,z
1/2-x,1/2+y,-z
1/2-x,1/2-y,-z
1/2+x,1/2-y,z
loop_
_atom_site_type_symbol
_atom_site_label
_atom_site_fract_x
_atom_site_fract_y
_atom_site_fract_z
Si Si1 0.791173 0.150176 0.141157
Si Si2 0.853227 0.645984 0.392900
Si Si3 0.184632 0.345941 0.390817
Si Si4 0.000000 0.729925 0.500000
Si Si5 0.424328 0.846553 0.962183
Si Si6 0.436958 0.644184 0.194847
O O1 0.806156 0.233112 0.282090
O O2 0.865638 0.135889 0.175304
O O3 0.762485 0.000000 0.119589
O O4 0.750000 0.250000 0.000000
O O5 0.821241 0.500000 0.325177
O O6 0.860435 0.657239 0.545796
O O7 0.927946 0.651749 0.425098
O O8 0.206899 0.500000 0.404436
O O9 0.250000 0.250000 0.500000
O O10 0.135931 0.309032 0.213381
O O11 0.007083 0.815983 0.629992
O O12 0.412888 0.000000 0.981821
O O13 0.500000 0.838741 0.000000
O O14 0.426693 0.753157 0.080007
O O15 0.452997 0.500000 0.163227
#
# Coordination Sequence:
#
# PCOD9202909 Si02
#       6
#     8   8   8   4   8   8
#     4  10  22  38  57  84 118 153 194 244 301 358
#     4  10  21  38  62  89 118 155 202 251 304 365
#     4  10  23  41  61  89 125 166 208 256 309 372
#     4  10  20  38  64  92 122 156 200 252 316 368
#     4  10  22  41  63  89 122 161 209 260 308 363
#     4  10  22  38  59  87 120 155 195 248 303 362
#
# _framework density 20.507055000000001
#
# number of rings (size 3 to 8) (size 9 to 14) (size 15 to 20)
#    0.000    2.000    0.000    2.182    2.545    8.364 
#    0.000    1.818    0.000    0.000    0.000    0.000 
#    0.000    0.000    0.000    0.000    0.000    0.000 
#
# Total GULP energy -122768.628499 kJ/mol
# GULP energy per Si atom -5580.392205 kJ/mol
# Density = 2.046038 g / cm^3
# Si number density = 20.507055 Si / 1000 Ang^3
#
#
#
# Elastic Constant Matrix: (Units=GPa)
#
#
# Indices 1 2 3 4 5 6 
#
# 1 37.1379 21.9366 10.4660 0.0000 -6.8411 0.0000
# 2 21.9366 149.0991 90.6320 0.0000 -11.6624 0.0000
# 3 10.4660 90.6320 149.7786 0.0000 -14.3390 0.0000
# 4 0.0000 0.0000 0.0000 25.8172 0.0000 -1.9012
# 5 -6.8411 -11.6624 -14.3390 0.0000 35.3319 0.0000
# 6 0.0000 0.0000 0.0000 -1.9012 0.0000 28.2396
#
#
#
# Elastic Compliance Matrix: (Units=1/GPa)
#
#
# Indices 1 2 3 4 5 6 
#
# 1 0.030321 -0.004868 0.001285 0.000000 0.004786 0.000000
# 2 -0.004868 0.011420 -0.006554 0.000000 0.000167 0.000000
# 3 0.001285 -0.006554 0.010789 0.000000 0.002464 0.000000
# 4 0.000000 0.000000 0.000000 0.038927 0.000000 0.002621
# 5 0.004786 0.000167 0.002464 0.000000 0.030285 0.000000
# 6 0.000000 0.000000 0.000000 0.002621 0.000000 0.035588
#
#
# Mechanical properties :
#
#
# Convention : Reuss Voigt Hill
#
# Bulk Modulus (GPa) = 31.00202 64.67608 47.83905
# Shear Modulus (GPa) = 26.54540 32.07647 29.31093
#
# Velocity S-wave (km/s) = 3.60175 3.95925 3.78472
# Velocity P-wave (km/s) = 5.69626 7.24622 6.51748
#
# Compressibility (1/GPa) = 0.03225596
#
# Stress axis : x y z
#
# Youngs Moduli (GPa) = 32.97995 87.56246 92.68934
#
# Poissons Ratio (x) = 0.42624 -0.11911
# Poissons Ratio (y) = 0.16054 0.60753
# Poissons Ratio (z) = -0.04238 0.57392
#
# Static dielectric constant tensor:
#      x y z
#    x 1.737360 0.000000 0.014320 
#    y 0.000000 1.755990 0.000000 
#    z 0.014320 0.000000 1.760370 
# 
# From -- ./inp_files/181269.got.cif
#   From: 2010.05.17/outbox.cif.g08.bks.cpg/sg12_91_cif.got.tgz:181269.got - 2010.06.03 13:09:07.
