data_PCOD9202680
_publ_section_title
;
Structure prediction by ZEFSAII (Michael W. Deem and Ramdas Pophale) SiO2 
 PCOD9202680
Probable space group: C 2/M
;
_chemical_formula_sum "Si O2"
_cell_formula_units_Z 42
_cell_length_a 22.575829
_cell_length_b 17.280876
_cell_length_c 5.065577
_cell_angle_alpha 90.000000
_cell_angle_beta 74.076412
_cell_angle_gamma 90.000000
_cell_volume 1900.402890
_symmetry_space_group_name_H-M "C 2/M"
_symmetry_group_IT_number 12
_symmetry_cell_setting 'monoclinic'
loop_
_space_group_symop_operation_xyz
x,y,z
-x,y,-z
-x,-y,-z
x,-y,z
1/2+x,1/2+y,z
1/2-x,1/2+y,-z
1/2-x,1/2-y,-z
1/2+x,1/2-y,z
loop_
_atom_site_type_symbol
_atom_site_label
_atom_site_fract_x
_atom_site_fract_y
_atom_site_fract_z
Si Si1 0.378669 0.585447 0.320626
Si Si2 0.930588 0.689110 0.123327
Si Si3 0.430583 0.705916 0.624262
Si Si4 0.000000 0.000000 0.000000
Si Si5 0.234886 0.906574 0.882663
Si Si6 0.810066 0.406997 0.282886
O O1 0.356009 0.500000 0.440781
O O2 0.387134 0.639758 0.561109
O O3 0.329549 0.616596 0.171531
O O4 0.445279 0.566022 0.111014
O O5 0.925408 0.723468 0.423076
O O6 0.876049 0.629415 0.143564
O O7 0.923806 0.759343 0.922379
O O8 0.000000 0.658066 0.000000
O O9 0.500000 0.674774 0.500000
O O10 0.286562 0.886343 0.602546
O O11 0.231480 0.000000 0.904517
O O12 0.259206 0.878390 0.133904
O O13 0.813725 0.500000 0.262018
#
# Coordination Sequence:
#
# PCOD9202680 Si02
#       6
#     8   8   8   2   8   8
#     4   9  20  38  60  91 118 157 202 244 284 342
#     4  10  22  39  59  86 117 153 195 245 303 353
#     4  10  22  38  58  82 123 155 190 243 303 349
#     4   8  20  36  66  92 122 148 210 256 266 348
#     4   9  19  37  58  85 120 155 191 242 297 348
#     4  10  20  38  63  85 114 156 198 242 296 357
#
# _framework density 22.100577999999999
#
# number of rings (size 3 to 8) (size 9 to 14) (size 15 to 20)
#    0.571    1.905    0.000    1.143    4.000    2.286 
#    0.000    8.571    0.000    7.429    0.000    0.000 
#    0.000    0.000    0.000    0.000    0.000    0.000 
#
# Total GULP energy -117056.396928 kJ/mol
# GULP energy per Si atom -5574.114139 kJ/mol
# Density = 2.205028 g / cm^3
# Si number density = 22.100578 Si / 1000 Ang^3
#
#
#
# Elastic Constant Matrix: (Units=GPa)
#
#
# Indices 1 2 3 4 5 6 
#
# 1 130.6907 28.0540 21.5861 0.0000 -6.5700 0.0000
# 2 28.0540 16.2015 3.4858 0.0000 -8.2312 0.0000
# 3 21.5861 3.4858 64.3171 0.0000 4.1928 0.0000
# 4 0.0000 0.0000 0.0000 9.9115 0.0000 9.8507
# 5 -6.5700 -8.2312 4.1928 0.0000 34.7702 0.0000
# 6 0.0000 0.0000 0.0000 9.8507 0.0000 30.1659
#
#
#
# Elastic Compliance Matrix: (Units=1/GPa)
#
#
# Indices 1 2 3 4 5 6 
#
# 1 0.012984 -0.023220 -0.002924 0.000000 -0.002691 0.000000
# 2 -0.023220 0.113270 0.000194 0.000000 0.022404 0.000000
# 3 -0.002924 0.000194 0.016683 0.000000 -0.002518 0.000000
# 4 0.000000 0.000000 0.000000 0.149371 0.000000 -0.048777
# 5 -0.002691 0.022404 -0.002518 0.000000 0.033859 0.000000
# 6 0.000000 0.000000 0.000000 -0.048777 0.000000 0.049078
#
#
# Mechanical properties :
#
#
# Convention : Reuss Voigt Hill
#
# Bulk Modulus (GPa) = 10.98460 35.27346 23.12903
# Shear Modulus (GPa) = 10.92919 25.50840 18.21879
#
# Velocity S-wave (km/s) = 2.22619 3.40103 2.87428
# Velocity P-wave (km/s) = 3.40426 5.60516 4.63717
#
# Compressibility (1/GPa) = 0.09103657
#
# Stress axis : x y z
#
# Youngs Moduli (GPa) = 77.01953 8.82844 59.94168
#
# Poissons Ratio (x) = 0.20500 0.17525
# Poissons Ratio (y) = 1.78841 -0.01162
# Poissons Ratio (z) = 0.22518 -0.00171
#
# Static dielectric constant tensor:
#      x y z
#    x 1.826220 0.000000 -0.014370 
#    y 0.000000 1.797780 0.000000 
#    z -0.014370 0.000000 1.848310 
# 
# From -- ./inp_files/24263.got.cif
#   From: 2010.05.17/outbox.cif.g08.bks.cpg/sg12_13_cif.got.tgz:24263.got - 2010.06.03 13:09:07.
