data_PCOD9202459
_publ_section_title
;
Structure prediction by ZEFSAII (Michael W. Deem and Ramdas Pophale) SiO2 
 PCOD9202459
Probable space group: C 2/M
;
_chemical_formula_sum "Si O2"
_cell_formula_units_Z 56
_cell_length_a 27.386587
_cell_length_b 7.454999
_cell_length_c 15.163753
_cell_angle_alpha 90.000000
_cell_angle_beta 59.336450
_cell_angle_gamma 90.000000
_cell_volume 2663.054010
_symmetry_space_group_name_H-M "C 2/M"
_symmetry_group_IT_number 12
_symmetry_cell_setting 'monoclinic'
loop_
_space_group_symop_operation_xyz
x,y,z
-x,y,-z
-x,-y,-z
x,-y,z
1/2+x,1/2+y,z
1/2-x,1/2+y,-z
1/2-x,1/2-y,-z
1/2+x,1/2-y,z
loop_
_atom_site_type_symbol
_atom_site_label
_atom_site_fract_x
_atom_site_fract_y
_atom_site_fract_z
Si Si1 0.347750 0.205217 0.807472
Si Si2 0.574355 0.500000 0.346982
Si Si3 0.013171 0.718337 0.087545
Si Si4 0.760092 0.718092 0.212218
Si Si5 0.440259 0.500000 0.437784
Si Si6 0.914047 0.282780 0.315745
Si Si7 0.640970 0.782564 0.006435
Si Si8 0.287670 0.213663 0.379506
O O1 0.396452 0.328361 0.723129
O O2 0.293081 0.219013 0.795884
O O3 0.335213 0.265489 0.919220
O O4 0.367148 0.000000 0.794097
O O5 0.507796 0.500000 0.389571
O O6 0.586114 0.500000 0.440683
O O7 0.013604 0.500000 0.086491
O O8 0.076049 0.778643 0.057144
O O9 0.964159 0.768372 0.201627
O O10 0.000000 0.776503 0.000000
O O11 0.757802 0.500000 0.213281
O O12 0.761372 0.781288 0.312095
O O13 0.817535 0.776280 0.109595
O O14 0.423087 0.674357 0.397386
O O15 0.915122 0.500000 0.326668
O O16 0.852594 0.228540 0.334209
O O17 0.640048 0.000000 0.001986
O O18 0.250000 0.250000 0.500000
O O19 0.290575 0.000000 0.367171
#
# Coordination Sequence:
#
# PCOD9202459 Si02
#       8
#     8   4   8   8   4   8   8   8
#     4  11  23  40  65  92 126 167 213 261 319 375
#     4  11  26  46  64  94 124 168 212 267 320 378
#     4   9  16  31  60  91 124 164 206 256 318 380
#     4  10  20  38  61  90 129 169 212 259 314 379
#     4  11  26  44  69  90 126 166 214 266 325 369
#     4  10  22  41  65  95 127 164 214 262 316 383
#     4   9  18  33  58  90 123 162 206 254 314 379
#     4  10  23  38  61  90 124 168 210 260 318 371
#
# _framework density 21.028490000000001
#
# number of rings (size 3 to 8) (size 9 to 14) (size 15 to 20)
#    0.000    2.000    0.714    2.143    3.000    6.286 
#    1.286    1.786    0.000    0.000    0.000    0.000 
#    0.000    0.000    0.000    0.000    0.000    0.000 
#
# Total GULP energy -156530.849773 kJ/mol
# GULP energy per Si atom -5590.387492 kJ/mol
# Density = 2.098063 g / cm^3
# Si number density = 21.028490 Si / 1000 Ang^3
#
#
#
# Elastic Constant Matrix: (Units=GPa)
#
#
# Indices 1 2 3 4 5 6 
#
# 1 105.6507 4.0641 35.4892 0.0000 21.3761 0.0000
# 2 4.0641 78.0054 16.9943 -0.0011 5.7911 0.0013
# 3 35.4892 16.9943 122.2998 0.0000 24.7144 0.0000
# 4 0.0000 -0.0011 0.0000 101.4646 -0.0001 -90.2904
# 5 21.3761 5.7911 24.7144 -0.0001 41.9493 0.0000
# 6 0.0000 0.0013 0.0000 -90.2904 0.0000 126.8978
#
#
#
# Elastic Compliance Matrix: (Units=1/GPa)
#
#
# Indices 1 2 3 4 5 6 
#
# 1 0.011130 0.000261 -0.002398 0.000000 -0.004295 0.000000
# 2 0.000261 0.013252 -0.001726 0.000000 -0.000946 0.000000
# 3 -0.002398 -0.001726 0.010009 0.000000 -0.004436 0.000000
# 4 0.000000 0.000000 0.000000 0.026867 0.000000 0.019116
# 5 -0.004295 -0.000946 -0.004436 0.000000 0.028771 0.000000
# 6 0.000000 0.000000 0.000000 0.019116 0.000000 0.021482
#
#
# Mechanical properties :
#
#
# Convention : Reuss Voigt Hill
#
# Bulk Modulus (GPa) = 37.50246 46.56123 42.03184
# Shear Modulus (GPa) = 39.02467 70.68956 54.85711
#
# Velocity S-wave (km/s) = 4.31257 5.80423 5.11309
# Velocity P-wave (km/s) = 6.53227 8.19200 7.40876
#
# Compressibility (1/GPa) = 0.02666492
#
# Stress axis : x y z
#
# Youngs Moduli (GPa) = 89.85097 75.45863 99.91115
#
# Poissons Ratio (x) = -0.01973 0.23959
# Poissons Ratio (y) = -0.02349 0.17247
# Poissons Ratio (z) = 0.21547 0.13026
#
# Static dielectric constant tensor:
#      x y z
#    x 1.728570 0.000000 0.002340 
#    y 0.000000 1.815490 0.000000 
#    z 0.002340 0.000000 1.763630 
# 
# From -- ./inp_files/243707.got.cif
#   From: 2010.05.17/outbox.cif.g08.bks.cpg/sg12_122_cif.got.tgz:243707.got - 2010.06.03 13:09:07.
