data_PCOD9202447
_publ_section_title
;
Structure prediction by ZEFSAII (Michael W. Deem and Ramdas Pophale) SiO2 
 PCOD9202447
Probable space group: C 2/M
;
_chemical_formula_sum "Si O2"
_cell_formula_units_Z 58
_cell_length_a 12.374999
_cell_length_b 15.902010
_cell_length_c 27.488604
_cell_angle_alpha 90.000000
_cell_angle_beta 150.322633
_cell_angle_gamma 90.000000
_cell_volume 2678.282628
_symmetry_space_group_name_H-M "C 2/M"
_symmetry_group_IT_number 12
_symmetry_cell_setting 'monoclinic'
loop_
_space_group_symop_operation_xyz
x,y,z
-x,y,-z
-x,-y,-z
x,-y,z
1/2+x,1/2+y,z
1/2-x,1/2+y,-z
1/2-x,1/2-y,-z
1/2+x,1/2-y,z
loop_
_atom_site_type_symbol
_atom_site_label
_atom_site_fract_x
_atom_site_fract_y
_atom_site_fract_z
Si Si1 0.948941 0.601296 0.066217
Si Si2 0.271095 0.634408 0.462500
Si Si3 0.621764 0.870160 0.759891
Si Si4 0.733153 0.595484 0.079327
Si Si5 0.198094 0.664806 0.542980
Si Si6 0.500000 0.500000 0.500000
Si Si7 0.925624 0.173329 0.238554
Si Si8 0.514458 0.599485 0.838942
O O1 0.967699 0.500000 0.073852
O O2 0.183556 0.636283 0.144625
O O3 0.871330 0.632687 0.089258
O O4 0.752920 0.622952 0.952915
O O5 0.191009 0.627912 0.486369
O O6 0.311034 0.733088 0.467376
O O7 0.473449 0.574804 0.531063
O O8 0.084386 0.601679 0.352561
O O9 0.642338 0.909065 0.821176
O O10 0.594631 0.771982 0.760157
O O11 0.837014 0.885992 0.811834
O O12 0.680333 0.500000 0.041659
O O13 0.500000 0.637877 0.000000
O O14 0.420682 0.641365 0.657817
O O15 0.000000 0.639565 0.500000
O O16 0.031166 0.151324 0.227763
O O17 0.516094 0.500000 0.828009
#
# Coordination Sequence:
#
# PCOD9202447 Si02
#       8
#     8   8   8   8   8   2   8   8
#     4  10  22  42  64  90 131 174 212 261 322 386
#     4  10  24  42  70  97 133 169 218 267 337 383
#     4  11  24  40  65  96 127 167 216 267 316 386
#     4  10  20  38  61  88 125 169 211 256 317 384
#     4  10  21  48  69  90 132 181 213 264 330 407
#     4  12  24  44  66 108 126 162 220 290 316 382
#     4  11  25  39  66  99 123 166 222 264 323 376
#     4  11  23  43  67  90 134 177 214 258 323 389
#
# _framework density 21.655667999999999
#
# number of rings (size 3 to 8) (size 9 to 14) (size 15 to 20)
#    0.000    1.517    2.069    2.069    3.862    3.862 
#    4.966    0.345    0.000    0.000    0.000    0.000 
#    0.000    0.000    0.000    0.000    0.000    0.000 
#
# Total GULP energy -161840.258409 kJ/mol
# GULP energy per Si atom -5580.698566 kJ/mol
# Density = 2.160638 g / cm^3
# Si number density = 21.655668 Si / 1000 Ang^3
#
#
#
# Elastic Constant Matrix: (Units=GPa)
#
#
# Indices 1 2 3 4 5 6 
#
# 1 115.3041 11.6018 15.0864 0.0002 -17.6288 0.0000
# 2 11.6018 38.9864 11.9947 0.0003 -8.1804 -0.0001
# 3 15.0864 11.9947 76.1969 0.0005 -17.1354 0.0001
# 4 0.0002 0.0003 0.0005 9.5882 0.0002 17.6366
# 5 -17.6288 -8.1804 -17.1354 0.0002 36.7672 -0.0002
# 6 0.0000 -0.0001 0.0001 17.6366 -0.0002 28.6432
#
#
#
# Elastic Compliance Matrix: (Units=1/GPa)
#
#
# Indices 1 2 3 4 5 6 
#
# 1 0.009536 -0.001807 -0.000744 0.000002 0.003824 -0.000001
# 2 -0.001807 0.027978 -0.003174 0.000007 0.003879 -0.000004
# 3 -0.000744 -0.003174 0.015116 0.000005 0.005982 -0.000003
# 4 0.000002 0.000007 0.000005 -0.786639 0.000011 0.484360
# 5 0.003824 0.003879 0.005982 0.000011 0.032683 -0.000007
# 6 -0.000001 -0.000004 -0.000003 0.484360 -0.000007 -0.263324
#
#
# Mechanical properties :
#
#
# Convention : Reuss Voigt Hill
#
# Bulk Modulus (GPa) = 24.28282 34.20590 29.24436
# Shear Modulus (GPa) = -5.32213 27.78668 11.23228
#
# Velocity S-wave (km/s) = -1.56938 3.58594 2.27992
# Velocity P-wave (km/s) = 2.82021 5.74238 4.52374
#
# Compressibility (1/GPa) = 0.04118137
#
# Stress axis : x y z
#
# Youngs Moduli (GPa) = 104.86075 35.74209 66.15467
#
# Poissons Ratio (x) = 0.06458 0.04921
# Poissons Ratio (y) = 0.18945 0.20998
# Poissons Ratio (z) = 0.07800 0.11345
#
# Static dielectric constant tensor:
#      x y z
#    x 1.796710 0.000000 0.027600 
#    y 0.000000 2.011230 0.000000 
#    z 0.027600 0.000000 1.814480 
# 
# From -- ./inp_files/358802.got.cif
#   From: 2010.05.17/outbox.cif.g08.bks.cpg/sg12_180_cif.got.tgz:358802.got - 2010.06.03 13:09:07.
