data_PCOD9202781
_publ_section_title
;
Structure prediction by ZEFSAII (Michael W. Deem and Ramdas Pophale) SiO2 
 PCOD9202781
Probable space group: C 2/M
;
_chemical_formula_sum "Si O2"
_cell_formula_units_Z 60
_cell_length_a 14.926120
_cell_length_b 13.895797
_cell_length_c 12.737360
_cell_angle_alpha 90.000000
_cell_angle_beta 94.241983
_cell_angle_gamma 90.000000
_cell_volume 2634.622828
_symmetry_space_group_name_H-M "C 2/M"
_symmetry_group_IT_number 12
_symmetry_cell_setting 'monoclinic'
loop_
_space_group_symop_operation_xyz
x,y,z
-x,y,-z
-x,-y,-z
x,-y,z
1/2+x,1/2+y,z
1/2-x,1/2+y,-z
1/2-x,1/2-y,-z
1/2+x,1/2-y,z
loop_
_atom_site_type_symbol
_atom_site_label
_atom_site_fract_x
_atom_site_fract_y
_atom_site_fract_z
Si Si1 0.392913 0.894312 0.344121
Si Si2 0.222601 0.672020 0.084992
Si Si3 0.398154 0.387393 0.231335
Si Si4 0.910250 0.801804 0.446696
Si Si5 0.000000 0.777800 0.000000
Si Si6 0.309432 0.394107 0.610705
Si Si7 0.594831 0.316224 0.185830
Si Si8 0.404382 0.895681 0.098705
O O1 0.437782 0.801631 0.400225
O O2 0.296947 0.894739 0.391745
O O3 0.374763 0.882670 0.217288
O O4 0.436235 0.000000 0.361840
O O5 0.313753 0.638865 0.149699
O O6 0.152773 0.718351 0.165121
O O7 0.250000 0.750000 0.000000
O O8 0.167860 0.602021 0.002069
O O9 0.417264 0.500000 0.221535
O O10 0.369486 0.360280 0.346600
O O11 0.493848 0.332081 0.224187
O O12 0.844283 0.809247 0.539537
O O13 0.000000 0.848972 0.500000
O O14 0.927143 0.843218 0.936833
O O15 0.039522 0.699428 0.922868
O O16 0.340147 0.500000 0.576572
O O17 0.344828 0.377166 0.731510
O O18 0.451963 0.000000 0.102008
#
# Coordination Sequence:
#
# PCOD9202781 Si02
#       8
#     8   8   8   8   4   8   8   8
#     4  10  23  42  67  97 128 168 224 280 336 406
#     4  11  23  41  64  93 134 178 220 275 346 410
#     4  12  25  43  68 103 139 180 236 292 344 409
#     4  12  24  41  68  91 132 178 220 274 346 404
#     4  10  21  36  61  90 130 174 218 260 330 406
#     4  11  23  41  64  92 127 172 223 273 334 405
#     4  11  22  39  63  93 130 173 222 277 330 403
#     4  10  20  38  63  91 126 169 217 270 332 403
#
# _framework density 22.773658000000001
#
# number of rings (size 3 to 8) (size 9 to 14) (size 15 to 20)
#    0.000    1.067    1.333    6.600    0.000    0.800 
#    0.000    8.000    0.000    1.600    0.000    0.000 
#    0.000    0.000    0.000    0.000    0.000    0.000 
#
# Total GULP energy -167015.747976 kJ/mol
# GULP energy per Si atom -5567.191599 kJ/mol
# Density = 2.272182 g / cm^3
# Si number density = 22.773658 Si / 1000 Ang^3
#
#
#
# Elastic Constant Matrix: (Units=GPa)
#
#
# Indices 1 2 3 4 5 6 
#
# 1 58.5071 9.1776 16.4520 0.0000 -1.3178 0.0000
# 2 9.1776 93.7102 45.8377 0.0000 -2.9408 0.0000
# 3 16.4520 45.8377 100.7109 0.0000 5.2305 0.0000
# 4 0.0000 0.0000 0.0000 19.6968 0.0000 -3.1781
# 5 -1.3178 -2.9408 5.2305 0.0000 40.3664 0.0000
# 6 0.0000 0.0000 0.0000 -3.1781 0.0000 11.0817
#
#
#
# Elastic Compliance Matrix: (Units=1/GPa)
#
#
# Indices 1 2 3 4 5 6 
#
# 1 0.017962 -0.000349 -0.002824 0.000000 0.000927 0.000000
# 2 -0.000349 0.013868 -0.006350 0.000000 0.001822 0.000000
# 3 -0.002824 -0.006350 0.013400 0.000000 -0.002291 0.000000
# 4 0.000000 0.000000 0.000000 0.053233 0.000000 0.015267
# 5 0.000927 0.001822 -0.002291 0.000000 0.025233 0.000000
# 6 0.000000 0.000000 0.000000 0.015267 0.000000 0.094618
#
#
# Mechanical properties :
#
#
# Convention : Reuss Voigt Hill
#
# Bulk Modulus (GPa) = 38.18924 43.98474 41.08699
# Shear Modulus (GPa) = 20.31812 26.32637 23.32225
#
# Velocity S-wave (km/s) = 2.99017 3.40369 3.20361
# Velocity P-wave (km/s) = 5.35975 5.89937 5.63603
#
# Compressibility (1/GPa) = 0.02618538
#
# Stress axis : x y z
#
# Youngs Moduli (GPa) = 55.67457 72.10604 74.62871
#
# Poissons Ratio (x) = 0.02516 0.21071
# Poissons Ratio (y) = 0.01943 0.47387
# Poissons Ratio (z) = 0.15720 0.45785
#
# Static dielectric constant tensor:
#      x y z
#    x 1.934080 0.000000 -0.034430 
#    y 0.000000 1.956110 0.000000 
#    z -0.034430 0.000000 1.899520 
# 
# From -- ./inp_files/156108.got.cif
#   From: 2010.05.17/outbox.cif.g08.bks.cpg/sg12_79_cif.got.tgz:156108.got - 2010.06.03 13:09:07.
