data_PCOD9202973
_publ_section_title
;
Structure prediction by ZEFSAII (Michael W. Deem and Ramdas Pophale) SiO2 
 PCOD9202973
Probable space group: C 2/M
;
_chemical_formula_sum "Si O2"
_cell_formula_units_Z 58
_cell_length_a 22.204112
_cell_length_b 22.535380
_cell_length_c 5.152548
_cell_angle_alpha 90.000000
_cell_angle_beta 59.647639
_cell_angle_gamma 90.000000
_cell_volume 2224.835884
_symmetry_space_group_name_H-M "C 2/M"
_symmetry_group_IT_number 12
_symmetry_cell_setting 'monoclinic'
loop_
_space_group_symop_operation_xyz
x,y,z
-x,y,-z
-x,-y,-z
x,-y,z
1/2+x,1/2+y,z
1/2-x,1/2+y,-z
1/2-x,1/2-y,-z
1/2+x,1/2-y,z
loop_
_atom_site_type_symbol
_atom_site_label
_atom_site_fract_x
_atom_site_fract_y
_atom_site_fract_z
Si Si1 0.245252 0.177781 0.246175
Si Si2 0.078513 0.392306 0.617367
Si Si3 0.399976 0.695116 0.182162
Si Si4 0.000000 0.500000 0.500000
Si Si5 0.541992 0.406032 0.664444
Si Si6 0.095184 0.687393 0.090989
Si Si7 0.339247 0.394514 0.923233
Si Si8 0.721314 0.937044 0.489142
O O1 0.178519 0.207674 0.532435
O O2 0.322118 0.203617 0.055847
O O3 0.213439 0.158150 0.043469
O O4 0.263714 0.116066 0.348658
O O5 0.030020 0.446839 0.633166
O O6 0.076911 0.361953 0.908365
O O7 0.156787 0.419413 0.446481
O O8 0.073815 0.339825 0.413905
O O9 0.445353 0.664645 0.310403
O O10 0.431477 0.751149 0.968701
O O11 0.390766 0.639543 0.005991
O O12 0.500000 0.420999 0.500000
O O13 0.621147 0.421829 0.409769
O O14 0.500000 0.430940 0.000000
O O15 0.291438 0.440064 0.172610
O O16 0.704205 0.000000 0.654765
#
# Coordination Sequence:
#
# PCOD9202973 Si02
#       8
#     8   8   8   2   8   8   8   8
#     4   9  20  36  61  99 137 177 220 277 369 414
#     4  11  26  45  71  96 130 183 236 287 351 407
#     4  10  22  38  65  98 141 178 220 284 351 416
#     4  12  28  58  72  98 140 198 244 300 358 388
#     4  11  22  40  62  91 131 186 218 259 325 421
#     4  11  24  43  64 105 134 174 230 292 347 422
#     4  10  20  38  65 101 129 179 228 278 348 413
#     4  10  20  41  65  99 132 173 233 294 332 402
#
# _framework density 26.069337999999998
#
# number of rings (size 3 to 8) (size 9 to 14) (size 15 to 20)
#    0.000    1.655    3.448    0.414    3.862    2.759 
#    4.966    0.000    0.000    0.828    0.000    0.000 
#    0.000    0.000    0.000    0.000    0.000    0.000 
#
# Total GULP energy -161712.765784 kJ/mol
# GULP energy per Si atom -5576.302268 kJ/mol
# Density = 2.601000 g / cm^3
# Si number density = 26.069338 Si / 1000 Ang^3
#
#
#
# Elastic Constant Matrix: (Units=GPa)
#
#
# Indices 1 2 3 4 5 6 
#
# 1 115.6751 15.4032 15.6186 0.0000 14.9574 0.0000
# 2 15.4032 104.5808 6.9784 0.0000 7.6387 0.0000
# 3 15.6186 6.9784 96.1724 0.0000 17.0853 0.0000
# 4 0.0000 0.0000 0.0000 -23.2706 0.0000 -36.7251
# 5 14.9574 7.6387 17.0853 0.0000 39.2075 0.0000
# 6 0.0000 0.0000 0.0000 -36.7251 0.0000 -70.8923
#
#
#
# Elastic Compliance Matrix: (Units=1/GPa)
#
#
# Indices 1 2 3 4 5 6 
#
# 1 0.009293 -0.001094 -0.000908 0.000000 -0.002936 0.000000
# 2 -0.001094 0.009843 -0.000293 0.000000 -0.001373 0.000000
# 3 -0.000908 -0.000293 0.011376 0.000000 -0.004554 0.000000
# 4 0.000000 0.000000 0.000000 -0.235541 0.000000 0.122020
# 5 -0.002936 -0.001373 -0.004554 0.000000 0.028877 0.000000
# 6 0.000000 0.000000 0.000000 0.122020 0.000000 -0.077317
#
#
# Mechanical properties :
#
#
# Convention : Reuss Voigt Hill
#
# Bulk Modulus (GPa) = 38.57671 43.60320 41.08996
# Shear Modulus (GPa) = -20.81253 7.57079 -6.62087
#
# Velocity S-wave (km/s) = -2.82858 1.70599 -1.59538
# Velocity P-wave (km/s) = 2.04011 4.54342 3.52170
#
# Compressibility (1/GPa) = 0.02592238
#
# Stress axis : x y z
#
# Youngs Moduli (GPa) = 107.60983 101.59644 87.90674
#
# Poissons Ratio (x) = 0.11111 0.07983
# Poissons Ratio (y) = 0.11768 0.02573
# Poissons Ratio (z) = 0.09773 0.02974
#
# Static dielectric constant tensor:
#      x y z
#    x 2.145270 0.000000 -0.063620 
#    y 0.000000 1.981380 0.000000 
#    z -0.063620 0.000000 2.132730 
# 
# From -- ./inp_files/26032.got.cif
#   From: 2010.05.17/outbox.cif.g08.bks.cpg/sg12_14_cif.got.tgz:26032.got - 2010.06.03 13:09:07.
