data_PCOD9202660
_publ_section_title
;
Structure prediction by ZEFSAII (Michael W. Deem and Ramdas Pophale) SiO2 
 PCOD9202660
Probable space group: C 2/M
;
_chemical_formula_sum "Si O2"
_cell_formula_units_Z 56
_cell_length_a 20.642574
_cell_length_b 22.598727
_cell_length_c 4.968339
_cell_angle_alpha 90.000000
_cell_angle_beta 75.045967
_cell_angle_gamma 90.000000
_cell_volume 2239.216239
_symmetry_space_group_name_H-M "C 2/M"
_symmetry_group_IT_number 12
_symmetry_cell_setting 'monoclinic'
loop_
_space_group_symop_operation_xyz
x,y,z
-x,y,-z
-x,-y,-z
x,-y,z
1/2+x,1/2+y,z
1/2-x,1/2+y,-z
1/2-x,1/2-y,-z
1/2+x,1/2-y,z
loop_
_atom_site_type_symbol
_atom_site_label
_atom_site_fract_x
_atom_site_fract_y
_atom_site_fract_z
Si Si1 0.106063 0.671655 0.368981
Si Si2 0.712386 0.063334 0.734193
Si Si3 0.926656 0.601283 0.083968
Si Si4 0.752525 0.829375 0.347089
Si Si5 0.930344 0.849048 0.731311
Si Si6 0.883049 0.783231 0.305026
Si Si7 0.165261 0.063562 0.991188
O O1 0.088691 0.618093 0.590015
O O2 0.186206 0.681406 0.241301
O O3 0.085352 0.728232 0.569596
O O4 0.072162 0.657812 0.121065
O O5 0.638883 0.066272 0.948095
O O6 0.719639 0.130391 0.615676
O O7 0.709956 0.000000 0.573991
O O8 0.778407 0.057666 0.841232
O O9 0.000000 0.573417 0.000000
O O10 0.804567 0.774822 0.312704
O O11 0.804113 0.880130 0.191274
O O12 0.878548 0.829877 0.555307
O O13 0.000000 0.846000 0.500000
O O14 0.922574 0.807019 0.001869
O O15 0.907653 0.914391 0.840336
O O16 0.159803 0.000000 0.857493
#
# Coordination Sequence:
#
# PCOD9202660 Si02
#       7
#     8   8   8   8   8   8   8
#     4  11  23  40  65  93 126 170 215 265 325 384
#     4  10  20  38  64  92 127 171 216 266 324 386
#     4  11  24  42  62  93 133 169 216 268 319 384
#     4  10  20  38  62  96 130 162 212 279 317 388
#     4  11  24  42  62  93 133 168 215 269 321 384
#     4  11  23  40  65  93 126 170 215 266 327 383
#     4  10  20  38  64  92 127 172 217 265 324 386
#
# _framework density 25.008752000000001
#
# number of rings (size 3 to 8) (size 9 to 14) (size 15 to 20)
#    0.000    1.429    2.857    2.571    0.000    2.857 
#    0.000    4.286    0.000    5.143    0.000    0.000 
#    0.000    0.000    0.000    0.000    0.000    0.000 
#
# Total GULP energy -155924.225808 kJ/mol
# GULP energy per Si atom -5568.722350 kJ/mol
# Density = 2.495183 g / cm^3
# Si number density = 25.008752 Si / 1000 Ang^3
#
#
#
# Elastic Constant Matrix: (Units=GPa)
#
#
# Indices 1 2 3 4 5 6 
#
# 1 87.0096 20.3396 30.4173 0.0000 -20.0273 0.0000
# 2 20.3396 64.8884 28.9300 0.0000 -7.0097 0.0000
# 3 30.4173 28.9300 123.5566 0.0000 -6.6799 0.0000
# 4 0.0000 0.0000 0.0000 5.3473 0.0000 -14.7307
# 5 -20.0273 -7.0097 -6.6799 0.0000 44.2675 0.0000
# 6 0.0000 0.0000 0.0000 -14.7307 0.0000 22.3323
#
#
#
# Elastic Compliance Matrix: (Units=1/GPa)
#
#
# Indices 1 2 3 4 5 6 
#
# 1 0.014339 -0.002730 -0.002584 0.000000 0.005665 0.000000
# 2 -0.002730 0.017930 -0.003468 0.000000 0.001081 0.000000
# 3 -0.002584 -0.003468 0.009526 0.000000 -0.000281 0.000000
# 4 0.000000 0.000000 0.000000 -0.228871 0.000000 -0.150967
# 5 0.005665 0.001081 -0.000281 0.000000 0.025281 0.000000
# 6 0.000000 0.000000 0.000000 -0.150967 0.000000 -0.054802
#
#
# Mechanical properties :
#
#
# Convention : Reuss Voigt Hill
#
# Bulk Modulus (GPa) = 41.27091 48.31426 44.79259
# Shear Modulus (GPa) = -26.18413 27.44060 0.62824
#
# Velocity S-wave (km/s) = -3.23925 3.31605 0.50175
# Velocity P-wave (km/s) = 1.59628 5.83288 4.27613
#
# Compressibility (1/GPa) = 0.02423014
#
# Stress axis : x y z
#
# Youngs Moduli (GPa) = 69.74209 55.77357 104.97157
#
# Poissons Ratio (x) = 0.15228 0.27128
# Poissons Ratio (y) = 0.19042 0.36399
# Poissons Ratio (z) = 0.18024 0.19340
#
# Static dielectric constant tensor:
#      x y z
#    x 2.075940 0.000000 -0.037580 
#    y 0.000000 2.203090 0.000000 
#    z -0.037580 0.000000 2.034380 
# 
# From -- ./inp_files/21854.got.cif
#   From: 2010.05.17/outbox.cif.g08.bks.cpg/sg12_11_cif.got.tgz:21854.got - 2010.06.03 13:09:07.
