data_PCOD9202706
_publ_section_title
;
Structure prediction by ZEFSAII (Michael W. Deem and Ramdas Pophale) SiO2 
 PCOD9202706
Probable space group: C 2/M
;
_chemical_formula_sum "Si O2"
_cell_formula_units_Z 46
_cell_length_a 8.590325
_cell_length_b 26.410291
_cell_length_c 11.332609
_cell_angle_alpha 90.000000
_cell_angle_beta 123.895330
_cell_angle_gamma 90.000000
_cell_volume 2134.130591
_symmetry_space_group_name_H-M "C 2/M"
_symmetry_group_IT_number 12
_symmetry_cell_setting 'monoclinic'
loop_
_space_group_symop_operation_xyz
x,y,z
-x,y,-z
-x,-y,-z
x,-y,z
1/2+x,1/2+y,z
1/2-x,1/2+y,-z
1/2-x,1/2-y,-z
1/2+x,1/2-y,z
loop_
_atom_site_type_symbol
_atom_site_label
_atom_site_fract_x
_atom_site_fract_y
_atom_site_fract_z
Si Si1 0.651797 0.555727 0.459969
Si Si2 0.500000 0.500000 0.000000
Si Si3 0.888721 0.916677 0.131447
Si Si4 0.825667 0.662449 0.515325
Si Si5 0.935240 0.703317 0.183913
Si Si6 0.924359 0.189932 0.800326
Si Si7 0.000000 0.374480 0.000000
O O1 0.500000 0.557955 0.500000
O O2 0.742950 0.500000 0.500418
O O3 0.537411 0.561974 0.289536
O O4 0.785515 0.603940 0.528837
O O5 0.384449 0.455502 0.022821
O O6 0.684422 0.907830 0.100473
O O7 0.966156 0.861560 0.128125
O O8 0.884816 0.693621 0.654744
O O9 0.652050 0.683597 0.366495
O O10 0.000000 0.663929 0.500000
O O11 0.950514 0.760076 0.141890
O O12 0.751271 0.695997 0.186239
O O13 0.953010 0.661856 0.089780
#
# Coordination Sequence:
#
# PCOD9202706 Si02
#       7
#     8   2   8   8   8   8   4
#     4  10  20  38  63  87 120 158 206 261 313 363
#     4  12  24  44  66  84 126 160 212 252 316 368
#     4  11  24  43  63  92 121 170 211 259 311 371
#     4   9  20  38  62  91 124 160 207 259 310 370
#     4  11  22  39  61  97 129 170 204 256 313 375
#     4  10  22  40  66  91 129 163 213 262 314 366
#     4  12  26  40  64  90 130 162 214 254 306 388
#
# _framework density 21.554444
#
# number of rings (size 3 to 8) (size 9 to 14) (size 15 to 20)
#    0.000    1.565    0.870    3.652    0.000    5.565 
#    0.000    0.870    9.565    0.000    0.000    0.000 
#    0.000    0.000    0.000    0.000    0.000    0.000 
#
# Total GULP energy -128397.933098 kJ/mol
# GULP energy per Si atom -5582.518830 kJ/mol
# Density = 2.150539 g / cm^3
# Si number density = 21.554444 Si / 1000 Ang^3
#
#
#
# Elastic Constant Matrix: (Units=GPa)
#
#
# Indices 1 2 3 4 5 6 
#
# 1 60.8644 24.1616 9.0593 0.0000 -0.5220 0.0000
# 2 24.1616 138.0455 18.1649 0.0000 7.2156 0.0000
# 3 9.0593 18.1649 53.2091 0.0000 -1.4114 0.0000
# 4 0.0000 0.0000 0.0000 18.1145 0.0000 -11.5252
# 5 -0.5220 7.2156 -1.4114 0.0000 27.1332 0.0000
# 6 0.0000 0.0000 0.0000 -11.5252 0.0000 61.8317
#
#
#
# Elastic Compliance Matrix: (Units=1/GPa)
#
#
# Indices 1 2 3 4 5 6 
#
# 1 0.017899 -0.002920 -0.002024 0.000000 0.001015 0.000000
# 2 -0.002920 0.008189 -0.002361 0.000000 -0.002357 0.000000
# 3 -0.002024 -0.002361 0.019988 0.000000 0.001629 0.000000
# 4 0.000000 0.000000 0.000000 0.062632 0.000000 0.011674
# 5 0.001015 -0.002357 0.001629 0.000000 0.037586 0.000000
# 6 0.000000 0.000000 0.000000 0.011674 0.000000 0.018349
#
#
# Mechanical properties :
#
#
# Convention : Reuss Voigt Hill
#
# Bulk Modulus (GPa) = 31.77974 39.43229 35.60602
# Shear Modulus (GPa) = 26.35185 34.79811 30.57498
#
# Velocity S-wave (km/s) = 3.50032 4.02235 3.77038
# Velocity P-wave (km/s) = 5.57784 6.31715 5.95897
#
# Compressibility (1/GPa) = 0.03146659
#
# Stress axis : x y z
#
# Youngs Moduli (GPa) = 55.86942 122.11740 50.03108
#
# Poissons Ratio (x) = 0.35653 0.10125
# Poissons Ratio (y) = 0.16311 0.11812
# Poissons Ratio (z) = 0.11307 0.28832
#
# Static dielectric constant tensor:
#      x y z
#    x 1.737690 0.000000 0.014860 
#    y 0.000000 1.749330 0.000000 
#    z 0.014860 0.000000 1.840850 
# 
# From -- ./inp_files/123921.got.cif
#   From: 2010.05.17/outbox.cif.g08.bks.cpg/sg12_62_cif.got.tgz:123921.got - 2010.06.03 13:09:07.
