data_PCOD9202921
_publ_section_title
;
Structure prediction by ZEFSAII (Michael W. Deem and Ramdas Pophale) SiO2 
 PCOD9202921
Probable space group: C 2/M
;
_chemical_formula_sum "Si O2"
_cell_formula_units_Z 48
_cell_length_a 18.292188
_cell_length_b 13.455463
_cell_length_c 17.050144
_cell_angle_alpha 90.000000
_cell_angle_beta 31.512782
_cell_angle_gamma 90.000000
_cell_volume 2193.489296
_symmetry_space_group_name_H-M "C 2/M"
_symmetry_group_IT_number 12
_symmetry_cell_setting 'monoclinic'
loop_
_space_group_symop_operation_xyz
x,y,z
-x,y,-z
-x,-y,-z
x,-y,z
1/2+x,1/2+y,z
1/2-x,1/2+y,-z
1/2-x,1/2-y,-z
1/2+x,1/2-y,z
loop_
_atom_site_type_symbol
_atom_site_label
_atom_site_fract_x
_atom_site_fract_y
_atom_site_fract_z
Si Si1 0.141977 0.383810 0.320485
Si Si2 0.201348 0.386209 0.841329
Si Si3 0.521292 0.611558 0.595005
Si Si4 0.781455 0.214479 0.058588
Si Si5 0.218975 0.742312 0.688996
Si Si6 0.536230 0.611035 0.765960
O O1 0.167640 0.500000 0.287747
O O2 0.152749 0.330447 0.226216
O O3 0.255548 0.328551 0.270130
O O4 0.000000 0.372026 0.500000
O O5 0.164200 0.500000 0.889648
O O6 0.373184 0.379438 0.686084
O O7 0.162107 0.309117 0.944997
O O8 0.151254 0.345529 0.803156
O O9 0.577074 0.500000 0.526795
O O10 0.635671 0.694346 0.472128
O O11 0.493801 0.614945 0.713450
O O12 0.750000 0.250000 0.000000
O O13 0.899668 0.130499 0.943239
O O14 0.137449 0.797504 0.694646
O O15 0.595280 0.500000 0.726123
#
# Coordination Sequence:
#
# PCOD9202921 Si02
#       6
#     8   8   8   8   8   8
#     4  10  22  38  60  91 128 169 213 263 315 375
#     4  10  21  38  63  92 121 161 215 265 314 371
#     4  10  20  38  64  93 125 167 215 263 313 376
#     4  11  22  40  66  91 122 169 217 265 318 382
#     4  11  21  37  60  92 127 165 206 260 318 382
#     4  11  24  40  62  91 127 168 212 262 319 381
#
# _framework density 21.882943999999998
#
# number of rings (size 3 to 8) (size 9 to 14) (size 15 to 20)
#    0.000    1.500    1.667    4.500    0.000    4.667 
#    0.000    6.667    0.000    0.000    0.000    0.000 
#    0.000    0.000    0.000    0.000    0.000    0.000 
#
# Total GULP energy -134044.626984 kJ/mol
# GULP energy per Si atom -5585.192791 kJ/mol
# Density = 2.183314 g / cm^3
# Si number density = 21.882944 Si / 1000 Ang^3
#
#
#
# Elastic Constant Matrix: (Units=GPa)
#
#
# Indices 1 2 3 4 5 6 
#
# 1 69.8769 34.0423 29.6595 -0.0001 1.5707 0.0000
# 2 34.0423 151.0524 48.9304 -0.0001 13.4063 0.0000
# 3 29.6595 48.9304 94.6622 -0.0001 20.9320 0.0001
# 4 -0.0001 -0.0001 -0.0001 42.5403 0.0001 2.7011
# 5 1.5707 13.4063 20.9320 0.0001 24.7846 0.0000
# 6 0.0000 0.0000 0.0001 2.7011 0.0000 32.0223
#
#
#
# Elastic Compliance Matrix: (Units=1/GPa)
#
#
# Indices 1 2 3 4 5 6 
#
# 1 0.017742 -0.002737 -0.005192 0.000000 0.004742 0.000000
# 2 -0.002737 0.008395 -0.003094 0.000000 -0.001755 0.000000
# 3 -0.005192 -0.003094 0.016412 0.000000 -0.011858 0.000000
# 4 0.000000 0.000000 0.000000 0.023634 0.000000 -0.001994
# 5 0.004742 -0.001755 -0.011858 0.000000 0.051011 0.000000
# 6 0.000000 0.000000 0.000000 -0.001994 0.000000 0.031396
#
#
# Mechanical properties :
#
#
# Convention : Reuss Voigt Hill
#
# Bulk Modulus (GPa) = 48.77559 60.09509 54.43534
# Shear Modulus (GPa) = 28.17359 33.40005 30.78682
#
# Velocity S-wave (km/s) = 3.59202 3.91103 3.75492
# Velocity P-wave (km/s) = 6.28818 6.92218 6.61278
#
# Compressibility (1/GPa) = 0.02050206
#
# Stress axis : x y z
#
# Youngs Moduli (GPa) = 56.36418 119.11878 60.93080
#
# Poissons Ratio (x) = 0.32606 0.31638
# Poissons Ratio (y) = 0.15428 0.18850
# Poissons Ratio (z) = 0.29267 0.36852
#
# Static dielectric constant tensor:
#      x y z
#    x 1.797580 0.000000 -0.024250 
#    y 0.000000 1.808500 0.000000 
#    z -0.024250 0.000000 1.856400 
# 
# From -- ./inp_files/225097.got.cif
#   From: 2010.05.17/outbox.cif.g08.bks.cpg/sg12_113_cif.got.tgz:225097.got - 2010.06.03 13:09:07.
