data_PCOD9202577
_publ_section_title
;
Structure prediction by ZEFSAII (Michael W. Deem and Ramdas Pophale) SiO2 
 PCOD9202577
Probable space group: C 2/M
;
_chemical_formula_sum "Si O2"
_cell_formula_units_Z 44
_cell_length_a 28.691584
_cell_length_b 13.490593
_cell_length_c 12.775283
_cell_angle_alpha 90.000000
_cell_angle_beta 154.548229
_cell_angle_gamma 90.000000
_cell_volume 2125.069714
_symmetry_space_group_name_H-M "C 2/M"
_symmetry_group_IT_number 12
_symmetry_cell_setting 'monoclinic'
loop_
_space_group_symop_operation_xyz
x,y,z
-x,y,-z
-x,-y,-z
x,-y,z
1/2+x,1/2+y,z
1/2-x,1/2+y,-z
1/2-x,1/2-y,-z
1/2+x,1/2-y,z
loop_
_atom_site_type_symbol
_atom_site_label
_atom_site_fract_x
_atom_site_fract_y
_atom_site_fract_z
Si Si1 0.672826 0.120745 0.836503
Si Si2 0.136780 0.381476 0.147318
Si Si3 0.496918 0.119707 0.326332
Si Si4 0.886739 0.881370 0.590658
Si Si5 0.406109 0.379606 0.388198
Si Si6 0.000000 0.756851 0.000000
O O1 0.612805 0.152159 0.607935
O O2 0.593600 0.146432 0.771554
O O3 0.676456 0.000000 0.841033
O O4 0.793073 0.153040 0.108053
O O5 0.128985 0.500000 0.152579
O O6 0.258743 0.362321 0.353913
O O7 0.099472 0.314551 0.168181
O O8 0.049641 0.353670 0.880519
O O9 0.500710 0.000000 0.332715
O O10 0.915709 0.853207 0.529882
O O11 0.959255 0.825337 0.822489
O O12 0.901943 0.000000 0.631420
O O13 0.500000 0.347632 0.500000
O O14 0.405785 0.500000 0.387881
#
# Coordination Sequence:
#
# PCOD9202577 Si02
#       6
#     8   8   8   8   8   4
#     4   8  12  22  45  81 112 141 183 232 284 345
#     4  10  20  38  62  88 118 156 200 250 306 358
#     4   8  13  24  49  80 110 142 184 233 287 352
#     4  10  21  40  63  86 118 162 203 243 302 364
#     4   9  16  29  54  86 118 153 195 240 292 361
#     4  12  24  38  60  88 120 154 208 262 296 344
#
# _framework density 20.705203000000001
#
# number of rings (size 3 to 8) (size 9 to 14) (size 15 to 20)
#    0.000    2.727    1.818    2.182    0.000    0.000 
#    0.000    3.636    4.000   10.909    0.000    0.000 
#    0.000    0.000    0.000    0.000    0.000    0.364 
#
# Total GULP energy -122836.156347 kJ/mol
# GULP energy per Si atom -5583.461652 kJ/mol
# Density = 2.065808 g / cm^3
# Si number density = 20.705203 Si / 1000 Ang^3
#
#
#
# Elastic Constant Matrix: (Units=GPa)
#
#
# Indices 1 2 3 4 5 6 
#
# 1 120.8264 54.3589 62.9572 0.0000 0.1937 0.0000
# 2 54.3589 93.1139 43.6490 0.0000 -11.6321 0.0000
# 3 62.9572 43.6490 145.3185 0.0000 -4.6731 0.0000
# 4 0.0000 0.0000 0.0000 19.6606 0.0000 -15.5425
# 5 0.1937 -11.6321 -4.6731 0.0000 21.2267 0.0000
# 6 0.0000 0.0000 0.0000 -15.5425 0.0000 16.9846
#
#
#
# Elastic Compliance Matrix: (Units=1/GPa)
#
#
# Indices 1 2 3 4 5 6 
#
# 1 0.013238 -0.006444 -0.003945 0.000000 -0.004520 0.000000
# 2 -0.006444 0.016463 -0.001875 0.000000 0.008668 0.000000
# 3 -0.003945 -0.001875 0.009187 0.000000 0.001031 0.000000
# 4 0.000000 0.000000 0.000000 0.183899 0.000000 0.168285
# 5 -0.004520 0.008668 0.001031 0.000000 0.052128 0.000000
# 6 0.000000 0.000000 0.000000 0.168285 0.000000 0.212874
#
#
# Mechanical properties :
#
#
# Convention : Reuss Voigt Hill
#
# Bulk Modulus (GPa) = 69.63247 75.68765 72.66006
# Shear Modulus (GPa) = 9.66926 24.79398 17.23162
#
# Velocity S-wave (km/s) = 2.16335 3.46421 2.88798
# Velocity P-wave (km/s) = 6.32009 7.25502 6.80363
#
# Compressibility (1/GPa) = 0.01436112
#
# Stress axis : x y z
#
# Youngs Moduli (GPa) = 75.53913 60.74306 108.85145
#
# Poissons Ratio (x) = 0.39141 0.42944
# Poissons Ratio (y) = 0.48675 0.20405
# Poissons Ratio (z) = 0.29801 0.11387
#
# Static dielectric constant tensor:
#      x y z
#    x 1.712180 0.000000 -0.006760 
#    y 0.000000 1.785810 0.000000 
#    z -0.006760 0.000000 1.723300 
# 
# From -- ./inp_files/183590.got.cif
#   From: 2010.05.17/outbox.cif.g08.bks.cpg/sg12_92_cif.got.tgz:183590.got - 2010.06.03 13:09:07.
