data_PCOD9202593
_publ_section_title
;
Structure prediction by ZEFSAII (Michael W. Deem and Ramdas Pophale) SiO2 
 PCOD9202593
Probable space group: C 2/M
;
_chemical_formula_sum "Si O2"
_cell_formula_units_Z 48
_cell_length_a 15.128337
_cell_length_b 8.583421
_cell_length_c 18.786203
_cell_angle_alpha 90.000000
_cell_angle_beta 91.025386
_cell_angle_gamma 90.000000
_cell_volume 2439.052026
_symmetry_space_group_name_H-M "C 2/M"
_symmetry_group_IT_number 12
_symmetry_cell_setting 'monoclinic'
loop_
_space_group_symop_operation_xyz
x,y,z
-x,y,-z
-x,-y,-z
x,-y,z
1/2+x,1/2+y,z
1/2-x,1/2+y,-z
1/2-x,1/2-y,-z
1/2+x,1/2-y,z
loop_
_atom_site_type_symbol
_atom_site_label
_atom_site_fract_x
_atom_site_fract_y
_atom_site_fract_z
Si Si1 0.280827 0.813394 0.576140
Si Si2 0.965371 0.314465 0.077662
Si Si3 0.197014 0.185965 0.850621
Si Si4 0.116440 0.814435 0.178417
Si Si5 0.862025 0.810386 0.308610
Si Si6 0.062702 0.811898 0.335719
O O1 0.250000 0.750000 0.500000
O O2 0.211455 0.759275 0.635911
O O3 0.377326 0.755275 0.600953
O O4 0.279922 0.000000 0.574903
O O5 0.973428 0.500000 0.086006
O O6 0.027759 0.230911 0.135922
O O7 0.865396 0.263184 0.091604
O O8 0.000000 0.271633 0.000000
O O9 0.299034 0.233668 0.855403
O O10 0.162319 0.238793 0.771864
O O11 0.188455 0.000000 0.854888
O O12 0.105546 0.765033 0.260542
O O13 0.127991 0.000000 0.176970
O O14 0.960487 0.761070 0.332393
O O15 0.861829 0.000000 0.307770
O O16 0.063986 0.000000 0.339505
#
# Coordination Sequence:
#
# PCOD9202593 Si02
#       6
#     8   8   8   8   8   8
#     4  11  23  40  60  87 123 160 198 247 304 361
#     4  11  25  43  62  90 127 164 205 255 310 365
#     4  11  21  39  65  93 123 160 206 253 306 368
#     4  11  22  38  64  95 124 159 205 254 307 369
#     4   9  19  37  61  87 117 156 199 243 300 360
#     4  10  20  38  62  89 117 153 201 249 298 361
#
# _framework density 19.679777000000001
#
# number of rings (size 3 to 8) (size 9 to 14) (size 15 to 20)
#    0.000    1.500    3.333    2.000    0.000    3.333 
#    0.000    5.000    0.000    0.000    0.000    0.000 
#    0.000    0.000    0.000    0.000    0.000    0.000 
#
# Total GULP energy -134150.352285 kJ/mol
# GULP energy per Si atom -5589.598012 kJ/mol
# Density = 1.963498 g / cm^3
# Si number density = 19.679777 Si / 1000 Ang^3
#
#
#
# Elastic Constant Matrix: (Units=GPa)
#
#
# Indices 1 2 3 4 5 6 
#
# 1 66.8484 -6.4496 -26.9798 0.0000 -12.3446 0.0000
# 2 -6.4496 16.6906 6.8794 0.0000 -2.4371 0.0000
# 3 -26.9798 6.8794 27.8905 0.0000 -8.3899 0.0000
# 4 0.0000 0.0000 0.0000 25.9435 0.0000 3.3121
# 5 -12.3446 -2.4371 -8.3899 0.0000 27.8214 0.0000
# 6 0.0000 0.0000 0.0000 3.3121 0.0000 33.6438
#
#
#
# Elastic Compliance Matrix: (Units=1/GPa)
#
#
# Indices 1 2 3 4 5 6 
#
# 1 0.041321 0.000254 0.049963 0.000000 0.033424 0.000000
# 2 0.000254 0.066720 -0.015857 0.000000 0.001176 0.000000
# 3 0.049963 -0.015857 0.103761 0.000000 0.052070 0.000000
# 4 0.000000 0.000000 0.000000 0.039036 0.000000 -0.003843
# 5 0.033424 0.001176 0.052070 0.000000 0.066579 0.000000
# 6 0.000000 0.000000 0.000000 -0.003843 0.000000 0.030102
#
#
# Mechanical properties :
#
#
# Convention : Reuss Voigt Hill
#
# Bulk Modulus (GPa) = 3.56478 6.48107 5.02292
# Shear Modulus (GPa) = 13.42985 26.68037 20.05511
#
# Velocity S-wave (km/s) = 2.61515 3.68601 3.19575
# Velocity P-wave (km/s) = 3.30666 4.62774 4.02181
#
# Compressibility (1/GPa) = 0.28052246
#
# Stress axis : x y z
#
# Youngs Moduli (GPa) = 24.20082 14.98809 9.63754
#
# Poissons Ratio (x) = -0.00381 -0.48152
# Poissons Ratio (y) = -0.00616 0.15282
# Poissons Ratio (z) = -1.20915 0.23767
#
# Static dielectric constant tensor:
#      x y z
#    x 1.670100 0.000000 -0.010960 
#    y 0.000000 1.665560 0.000000 
#    z -0.010960 0.000000 1.673380 
# 
# From -- ./inp_files/267602.got.cif
#   From: 2010.05.17/outbox.cif.g08.bks.cpg/sg12_134_cif.got.tgz:267602.got - 2010.06.03 13:09:07.
