data_PCOD9202823
_publ_section_title
;
Structure prediction by ZEFSAII (Michael W. Deem and Ramdas Pophale) SiO2 
 PCOD9202823
Probable space group: C 2/M
;
_chemical_formula_sum "Si O2"
_cell_formula_units_Z 64
_cell_length_a 30.593370
_cell_length_b 21.677902
_cell_length_c 8.948042
_cell_angle_alpha 90.000000
_cell_angle_beta 30.080872
_cell_angle_gamma 90.000000
_cell_volume 2974.422133
_symmetry_space_group_name_H-M "C 2/M"
_symmetry_group_IT_number 12
_symmetry_cell_setting 'monoclinic'
loop_
_space_group_symop_operation_xyz
x,y,z
-x,y,-z
-x,-y,-z
x,-y,z
1/2+x,1/2+y,z
1/2-x,1/2+y,-z
1/2-x,1/2-y,-z
1/2+x,1/2-y,z
loop_
_atom_site_type_symbol
_atom_site_label
_atom_site_fract_x
_atom_site_fract_y
_atom_site_fract_z
Si Si1 0.578217 0.098700 0.381873
Si Si2 0.550752 0.759212 0.557718
Si Si3 0.638418 0.741491 0.986235
Si Si4 0.738920 0.616553 0.690041
Si Si5 0.233785 0.626760 0.715968
Si Si6 0.912685 0.154152 0.353890
Si Si7 0.407444 0.069107 0.329967
Si Si8 0.417173 0.427540 0.642035
O O1 0.500000 0.083083 0.500000
O O2 0.560321 0.168411 0.496559
O O3 0.586370 0.063463 0.511292
O O4 0.667580 0.094370 0.025813
O O5 0.600245 0.732564 0.266097
O O6 0.448315 0.742426 0.858064
O O7 0.590897 0.725708 0.581859
O O8 0.702182 0.685049 0.771133
O O9 0.686570 0.806799 0.831865
O O10 0.755253 0.592446 0.474145
O O11 0.829387 0.612501 0.509929
O O12 0.667566 0.582790 0.003535
O O13 0.327300 0.637233 0.513499
O O14 0.915247 0.113218 0.497794
O O15 0.000000 0.143972 0.000000
O O16 0.393650 0.000000 0.306756
O O17 0.500000 0.093249 0.000000
O O18 0.500000 0.410369 0.500000
O O19 0.424111 0.500000 0.582804
#
# Coordination Sequence:
#
# PCOD9202823 Si02
#       8
#     8   8   8   8   8   8   8   8
#     4  11  22  43  69  97 134 171 221 277 337 396
#     4  10  20  38  64  96 137 171 211 258 332 409
#     4  10  20  38  63  95 130 176 208 257 323 406
#     4  12  23  42  69  93 136 171 219 269 327 396
#     4  11  24  39  62 101 134 170 211 265 333 400
#     4  12  25  40  63  98 136 169 222 272 332 389
#     4  11  27  47  68  94 127 178 237 280 327 389
#     4  11  24  44  69  92 126 178 225 271 331 397
#
# _framework density 21.516784000000001
#
# number of rings (size 3 to 8) (size 9 to 14) (size 15 to 20)
#    0.000    1.000    3.750    4.500    1.750    2.000 
#    0.000    2.500    0.000    0.000    0.000    0.000 
#    0.000    0.000    0.000    0.000    0.000    0.000 
#
# Total GULP energy -178917.271191 kJ/mol
# GULP energy per Si atom -5591.164725 kJ/mol
# Density = 2.146781 g / cm^3
# Si number density = 21.516784 Si / 1000 Ang^3
#
#
#
# Elastic Constant Matrix: (Units=GPa)
#
#
# Indices 1 2 3 4 5 6 
#
# 1 130.7500 13.3540 68.2850 0.0000 1.0331 0.0000
# 2 13.3540 37.5354 16.5435 0.0000 7.3888 0.0000
# 3 68.2850 16.5435 167.2218 0.0000 -6.8166 0.0000
# 4 0.0000 0.0000 0.0000 -361.2631 0.0000 68.3555
# 5 1.0331 7.3888 -6.8166 0.0000 35.6982 0.0000
# 6 0.0000 0.0000 0.0000 68.3555 0.0000 0.1064
#
#
#
# Elastic Compliance Matrix: (Units=1/GPa)
#
#
# Indices 1 2 3 4 5 6 
#
# 1 0.009853 -0.001657 -0.003887 0.000000 -0.000684 0.000000
# 2 -0.001657 0.029636 -0.002523 0.000000 -0.006568 0.000000
# 3 -0.003887 -0.002523 0.007905 0.000000 0.002144 0.000000
# 4 0.000000 0.000000 0.000000 -0.000023 0.000000 0.014510
# 5 -0.000684 -0.006568 0.002144 0.000000 0.029801 0.000000
# 6 0.000000 0.000000 0.000000 0.014510 0.000000 0.076686
#
#
# Mechanical properties :
#
#
# Convention : Reuss Voigt Hill
#
# Bulk Modulus (GPa) = 31.99154 59.09691 45.54422
# Shear Modulus (GPa) = 27.71411 -49.27006 -10.77797
#
# Velocity S-wave (km/s) = 3.59280 -4.79042 -2.24053
# Velocity P-wave (km/s) = 5.66669 1.75283 3.81044
#
# Compressibility (1/GPa) = 0.03125826
#
# Stress axis : x y z
#
# Youngs Moduli (GPa) = 101.49078 33.74273 126.50994
#
# Poissons Ratio (x) = 0.05592 0.49180
# Poissons Ratio (y) = 0.16821 0.31917
# Poissons Ratio (z) = 0.39454 0.08513
#
# Static dielectric constant tensor:
#      x y z
#    x 1.765280 0.000000 0.018020 
#    y 0.000000 1.810740 0.000000 
#    z 0.018020 0.000000 1.764940 
# 
# From -- ./inp_files/113629.got.cif
#   From: 2010.05.17/outbox.cif.g08.bks.cpg/sg12_57_cif.got.tgz:113629.got - 2010.06.03 13:09:07.
