data_PCOD9202470
_publ_section_title
;
Structure prediction by ZEFSAII (Michael W. Deem and Ramdas Pophale) SiO2 
 PCOD9202470
Probable space group: C 2/M
;
_chemical_formula_sum "Si O2"
_cell_formula_units_Z 54
_cell_length_a 20.117633
_cell_length_b 20.870733
_cell_length_c 5.305394
_cell_angle_alpha 90.000000
_cell_angle_beta 73.759340
_cell_angle_gamma 90.000000
_cell_volume 2138.684098
_symmetry_space_group_name_H-M "C 2/M"
_symmetry_group_IT_number 12
_symmetry_cell_setting 'monoclinic'
loop_
_space_group_symop_operation_xyz
x,y,z
-x,y,-z
-x,-y,-z
x,-y,z
1/2+x,1/2+y,z
1/2-x,1/2+y,-z
1/2-x,1/2-y,-z
1/2+x,1/2-y,z
loop_
_atom_site_type_symbol
_atom_site_label
_atom_site_fract_x
_atom_site_fract_y
_atom_site_fract_z
Si Si1 0.000000 0.500000 0.500000
Si Si2 0.651101 0.223059 0.058239
Si Si3 0.092726 0.594051 0.131499
Si Si4 0.616855 0.426295 0.196983
Si Si5 0.817010 0.429763 0.453215
Si Si6 0.276918 0.661492 0.206560
Si Si7 0.077718 0.188922 0.532906
Si Si8 0.500000 0.630994 0.000000
O O1 0.023195 0.556309 0.269223
O O2 0.591325 0.170421 0.080755
O O3 0.717232 0.181809 0.073898
O O4 0.625645 0.263633 0.327469
O O5 0.680305 0.272193 0.816998
O O6 0.135484 0.578184 0.346229
O O7 0.135669 0.570590 0.844067
O O8 0.629754 0.500000 0.232119
O O9 0.609477 0.381449 0.447221
O O10 0.676023 0.393693 0.965291
O O11 0.542624 0.414441 0.140977
O O12 0.783017 0.500000 0.505120
O O13 0.763173 0.371145 0.519419
O O14 0.000000 0.195418 0.500000
O O15 0.057159 0.181217 0.842380
#
# Coordination Sequence:
#
# PCOD9202470 Si02
#       8
#     2   8   8   8   8   8   8   4
#     4  12  24  46  68 106 132 194 226 292 334 426
#     4   9  20  43  62  96 122 179 217 283 332 413
#     4  11  25  41  69  93 140 171 235 275 344 398
#     4  10  20  38  61  92 122 172 209 272 331 408
#     4  11  21  44  64  99 132 178 215 293 334 412
#     4   9  20  40  66  89 133 164 227 268 344 401
#     4   9  20  39  60  88 128 163 216 266 333 396
#     4  10  21  38  60  90 128 161 214 276 320 405
#
# _framework density 25.249171
#
# number of rings (size 3 to 8) (size 9 to 14) (size 15 to 20)
#    0.000    2.074    1.481    0.667    1.037    5.037 
#   29.333    0.000    0.000    0.000    0.000    0.000 
#    0.000    0.000    0.000    0.000    0.000    0.000 
#
# Total GULP energy -150440.807028 kJ/mol
# GULP energy per Si atom -5571.881742 kJ/mol
# Density = 2.519170 g / cm^3
# Si number density = 25.249171 Si / 1000 Ang^3
#
#
#
# Elastic Constant Matrix: (Units=GPa)
#
#
# Indices 1 2 3 4 5 6 
#
# 1 73.0038 6.7221 19.2988 0.0000 -11.6455 0.0000
# 2 6.7221 186.1670 50.1650 0.0000 -24.6651 0.0000
# 3 19.2988 50.1650 161.5492 0.0000 -26.8017 0.0000
# 4 0.0000 0.0000 0.0000 33.1174 0.0000 -36.2786
# 5 -11.6455 -24.6651 -26.8017 0.0000 30.0723 0.0000
# 6 0.0000 0.0000 0.0000 -36.2786 0.0000 96.2156
#
#
#
# Elastic Compliance Matrix: (Units=1/GPa)
#
#
# Indices 1 2 3 4 5 6 
#
# 1 0.014753 0.000429 -0.001044 0.000000 0.005135 0.000000
# 2 0.000429 0.006256 -0.001309 0.000000 0.004131 0.000000
# 3 -0.001044 -0.001309 0.007600 0.000000 0.005296 0.000000
# 4 0.000000 0.000000 0.000000 0.051445 0.000000 0.019397
# 5 0.005135 0.004131 0.005296 0.000000 0.043350 0.000000
# 6 0.000000 0.000000 0.000000 0.019397 0.000000 0.017707
#
#
# Mechanical properties :
#
#
# Convention : Reuss Voigt Hill
#
# Bulk Modulus (GPa) = 40.38413 63.67687 52.03050
# Shear Modulus (GPa) = 32.63467 54.85001 43.74234
#
# Velocity S-wave (km/s) = 3.59904 4.66590 4.16676
# Velocity P-wave (km/s) = 5.77060 7.36897 6.61821
#
# Compressibility (1/GPa) = 0.02476220
#
# Stress axis : x y z
#
# Youngs Moduli (GPa) = 67.78082 159.84825 131.58482
#
# Poissons Ratio (x) = -0.06855 0.13734
# Poissons Ratio (y) = -0.02907 0.17218
# Poissons Ratio (z) = 0.07075 0.20916
#
# Static dielectric constant tensor:
#      x y z
#    x 2.152140 0.000000 0.040590 
#    y 0.000000 2.009530 0.000000 
#    z 0.040590 0.000000 2.076010 
# 
# From -- ./inp_files/29140.got.cif
#   From: 2010.05.17/outbox.cif.g08.bks.cpg/sg12_15_cif.got.tgz:29140.got - 2010.06.03 13:09:07.
