data_PCOD9202620
_publ_section_title
;
Structure prediction by ZEFSAII (Michael W. Deem and Ramdas Pophale) SiO2 
 PCOD9202620
Probable space group: C 2/M
;
_chemical_formula_sum "Si O2"
_cell_formula_units_Z 64
_cell_length_a 26.600942
_cell_length_b 18.969769
_cell_length_c 10.596887
_cell_angle_alpha 90.000000
_cell_angle_beta 34.039849
_cell_angle_gamma 90.000000
_cell_volume 2993.274083
_symmetry_space_group_name_H-M "C 2/M"
_symmetry_group_IT_number 12
_symmetry_cell_setting 'monoclinic'
loop_
_space_group_symop_operation_xyz
x,y,z
-x,y,-z
-x,-y,-z
x,-y,z
1/2+x,1/2+y,z
1/2-x,1/2+y,-z
1/2-x,1/2-y,-z
1/2+x,1/2-y,z
loop_
_atom_site_type_symbol
_atom_site_label
_atom_site_fract_x
_atom_site_fract_y
_atom_site_fract_z
Si Si1 0.119902 0.578194 0.701382
Si Si2 0.890733 0.676378 0.041749
Si Si3 0.598228 0.211589 0.345883
Si Si4 0.025396 0.819012 0.094599
Si Si5 0.517576 0.081047 0.649626
Si Si6 0.241070 0.199725 0.189009
Si Si7 0.133668 0.918756 0.503714
Si Si8 0.826733 0.077484 0.280574
O O1 0.102832 0.500000 0.795163
O O2 0.064513 0.583692 0.689257
O O3 0.224584 0.579845 0.451888
O O4 0.103285 0.639987 0.835010
O O5 0.959158 0.741179 0.885869
O O6 0.921337 0.616800 0.878186
O O7 0.790987 0.704989 0.220299
O O8 0.500000 0.240037 0.500000
O O9 0.573666 0.132893 0.443107
O O10 0.654565 0.251851 0.339248
O O11 0.675573 0.214039 0.077782
O O12 0.953752 0.869209 0.310357
O O13 0.117905 0.861699 0.899977
O O14 0.000000 0.812363 0.000000
O O15 0.512852 0.000000 0.619671
O O16 0.203540 0.120015 0.266909
O O17 0.168992 0.916881 0.575698
O O18 0.116579 0.000000 0.507811
O O19 0.866327 0.000000 0.168716
#
# Coordination Sequence:
#
# PCOD9202620 Si02
#       8
#     8   8   8   8   8   8   8   8
#     4  10  21  37  58  94 140 173 202 253 320 385
#     4  12  22  38  62  97 131 167 205 258 316 390
#     4  11  25  49  67  92 124 167 216 275 326 370
#     4  10  21  34  54  90 128 173 208 246 304 378
#     4  11  24  41  65  93 128 172 213 257 317 383
#     4  11  25  42  69  95 120 167 216 263 327 377
#     4  10  20  38  62  90 123 160 212 260 306 371
#     4   9  18  34  55  86 130 170 205 249 307 372
#
# _framework density 21.381269
#
# number of rings (size 3 to 8) (size 9 to 14) (size 15 to 20)
#    0.000    1.500    2.500    2.625    1.750    5.250 
#    0.000    0.000    0.000    0.375    0.000    0.000 
#    0.000    0.000    0.000    0.000    0.000    0.000 
#
# Total GULP energy -178584.101182 kJ/mol
# GULP energy per Si atom -5580.753162 kJ/mol
# Density = 2.133260 g / cm^3
# Si number density = 21.381269 Si / 1000 Ang^3
#
#
#
# Elastic Constant Matrix: (Units=GPa)
#
#
# Indices 1 2 3 4 5 6 
#
# 1 85.8629 37.8887 27.0034 0.0000 -29.2533 0.0000
# 2 37.8887 122.3454 34.4136 0.0000 -19.3178 0.0000
# 3 27.0034 34.4136 84.2169 0.0000 -25.1649 0.0000
# 4 0.0000 0.0000 0.0000 25.5434 0.0000 -3.3168
# 5 -29.2533 -19.3178 -25.1649 0.0000 32.9358 0.0000
# 6 0.0000 0.0000 0.0000 -3.3168 0.0000 24.9717
#
#
#
# Elastic Compliance Matrix: (Units=1/GPa)
#
#
# Indices 1 2 3 4 5 6 
#
# 1 0.017859 -0.003285 -0.000285 0.000000 0.013718 0.000000
# 2 -0.003285 0.010121 -0.002826 0.000000 0.000860 0.000000
# 3 -0.000285 -0.002826 0.016262 0.000000 0.010515 0.000000
# 4 0.000000 0.000000 0.000000 0.039836 0.000000 0.005291
# 5 0.013718 0.000860 0.010515 0.000000 0.051085 0.000000
# 6 0.000000 0.000000 0.000000 0.005291 0.000000 0.040748
#
#
# Mechanical properties :
#
#
# Convention : Reuss Voigt Hill
#
# Bulk Modulus (GPa) = 31.79450 54.55962 43.17706
# Shear Modulus (GPa) = 25.10209 29.56481 27.33345
#
# Velocity S-wave (km/s) = 3.43012 3.72256 3.57933
# Velocity P-wave (km/s) = 5.53084 6.63698 6.10899
#
# Compressibility (1/GPa) = 0.03145198
#
# Stress axis : x y z
#
# Youngs Moduli (GPa) = 55.99334 98.80059 61.49274
#
# Poissons Ratio (x) = 0.32451 0.01753
# Poissons Ratio (y) = 0.18391 0.17376
# Poissons Ratio (z) = 0.01596 0.27918
#
# Static dielectric constant tensor:
#      x y z
#    x 1.833770 0.000000 0.003320 
#    y 0.000000 1.783360 0.000000 
#    z 0.003320 0.000000 1.799080 
# 
# From -- ./inp_files/190012.got.cif
#   From: 2010.05.17/outbox.cif.g08.bks.cpg/sg12_96_cif.got.tgz:190012.got - 2010.06.03 13:09:07.
