data_PCOD9202782
_publ_section_title
;
Structure prediction by ZEFSAII (Michael W. Deem and Ramdas Pophale) SiO2 
 PCOD9202782
Probable space group: C 2/M
;
_chemical_formula_sum "Si O2"
_cell_formula_units_Z 64
_cell_length_a 14.878730
_cell_length_b 8.910433
_cell_length_c 28.345162
_cell_angle_alpha 90.000000
_cell_angle_beta 129.622823
_cell_angle_gamma 90.000000
_cell_volume 2894.546630
_symmetry_space_group_name_H-M "C 2/M"
_symmetry_group_IT_number 12
_symmetry_cell_setting 'monoclinic'
loop_
_space_group_symop_operation_xyz
x,y,z
-x,y,-z
-x,-y,-z
x,-y,z
1/2+x,1/2+y,z
1/2-x,1/2+y,-z
1/2-x,1/2-y,-z
1/2+x,1/2-y,z
loop_
_atom_site_type_symbol
_atom_site_label
_atom_site_fract_x
_atom_site_fract_y
_atom_site_fract_z
Si Si1 0.874603 0.175030 0.047148
Si Si2 0.932837 0.675280 0.364940
Si Si3 0.131863 0.826196 0.562428
Si Si4 0.653959 0.674149 0.854366
Si Si5 0.121205 0.821330 0.100633
Si Si6 0.052541 0.323309 0.265582
Si Si7 0.647762 0.677434 0.393322
Si Si8 0.203403 0.824651 0.235641
O O1 0.901285 0.184685 0.112007
O O2 0.987043 0.232214 0.056219
O O3 0.862491 0.000000 0.031177
O O4 0.750000 0.250000 0.000000
O O5 0.962530 0.500000 0.377685
O O6 0.866766 0.728467 0.389661
O O7 0.840739 0.696505 0.291668
O O8 0.048808 0.771196 0.396586
O O9 0.228432 0.759847 0.559779
O O10 0.000000 0.817511 0.500000
O O11 0.159502 0.000000 0.581846
O O12 0.653398 0.500000 0.840021
O O13 0.785701 0.735509 0.899933
O O14 0.576008 0.771298 0.793066
O O15 0.167801 0.800693 0.169835
O O16 0.122957 0.000000 0.090937
O O17 0.055153 0.500000 0.276345
O O18 0.098322 0.233644 0.326213
O O19 0.133688 0.280389 0.248255
O O20 0.663027 0.500000 0.399172
O O21 0.176569 0.000000 0.238411
#
# Coordination Sequence:
#
# PCOD9202782 Si02
#       8
#     8   8   8   8   8   8   8   8
#     4  10  23  42  63  86 121 163 206 258 308 363
#     4  11  23  40  67  98 129 166 208 260 317 375
#     4  11  25  45  67  93 127 167 215 267 316 371
#     4  11  23  41  63  91 125 161 204 254 311 370
#     4  10  21  40  63  90 125 162 203 251 308 369
#     4  12  23  37  63  95 128 164 205 252 310 377
#     4  12  25  42  66  95 130 169 211 259 313 376
#     4  10  20  38  63  91 127 163 199 250 313 372
#
# _framework density 22.110541999999999
#
# number of rings (size 3 to 8) (size 9 to 14) (size 15 to 20)
#    0.000    1.125    2.500    4.125    0.000    5.500 
#    0.000    2.500    0.000    0.000    0.000    0.000 
#    0.000    0.000    0.000    0.000    0.000    0.000 
#
# Total GULP energy -179114.464507 kJ/mol
# GULP energy per Si atom -5597.327016 kJ/mol
# Density = 2.206022 g / cm^3
# Si number density = 22.110542 Si / 1000 Ang^3
#
#
#
# Elastic Constant Matrix: (Units=GPa)
#
#
# Indices 1 2 3 4 5 6 
#
# 1 113.8880 23.7147 3.8353 0.0000 29.8514 0.0000
# 2 23.7147 73.6626 13.8012 0.0000 18.6109 0.0000
# 3 3.8353 13.8012 55.4151 0.0000 21.7785 0.0000
# 4 0.0000 0.0000 0.0000 26.6248 0.0000 6.6224
# 5 29.8514 18.6109 21.7785 0.0000 40.1377 0.0000
# 6 0.0000 0.0000 0.0000 6.6224 0.0000 38.0198
#
#
#
# Elastic Compliance Matrix: (Units=1/GPa)
#
#
# Indices 1 2 3 4 5 6 
#
# 1 0.011582 -0.001955 0.003450 0.000000 -0.009580 0.000000
# 2 -0.001955 0.015781 -0.001895 0.000000 -0.004836 0.000000
# 3 0.003450 -0.001895 0.024076 0.000000 -0.014751 0.000000
# 4 0.000000 0.000000 0.000000 0.039260 0.000000 -0.006838
# 5 -0.009580 -0.004836 -0.014751 0.000000 0.042285 0.000000
# 6 0.000000 0.000000 0.000000 -0.006838 0.000000 0.027493
#
#
# Mechanical properties :
#
#
# Convention : Reuss Voigt Hill
#
# Bulk Modulus (GPa) = 19.74690 36.18534 27.96612
# Shear Modulus (GPa) = 28.06516 34.39742 31.23129
#
# Velocity S-wave (km/s) = 3.56660 3.94852 3.76241
# Velocity P-wave (km/s) = 5.09031 6.09827 5.61695
#
# Compressibility (1/GPa) = 0.05064087
#
# Stress axis : x y z
#
# Youngs Moduli (GPa) = 86.33800 63.36558 41.53530
#
# Poissons Ratio (x) = 0.12387 -0.14330
# Poissons Ratio (y) = 0.16878 0.07870
# Poissons Ratio (z) = -0.29788 0.12006
#
# Static dielectric constant tensor:
#      x y z
#    x 1.809520 0.000000 0.011790 
#    y 0.000000 1.736670 0.000000 
#    z 0.011790 0.000000 1.841010 
# 
# From -- ./inp_files/375627.got.cif
#   From: 2010.05.17/outbox.cif.g08.bks.cpg/sg12_188_cif.got.tgz:375627.got - 2010.06.03 13:09:07.
