data_PCOD9202748
_publ_section_title
;
Structure prediction by ZEFSAII (Michael W. Deem and Ramdas Pophale) SiO2 
 PCOD9202748
Probable space group: C 2/M
;
_chemical_formula_sum "Si O2"
_cell_formula_units_Z 40
_cell_length_a 24.371366
_cell_length_b 8.581136
_cell_length_c 13.972356
_cell_angle_alpha 90.000000
_cell_angle_beta 36.230604
_cell_angle_gamma 90.000000
_cell_volume 1727.065007
_symmetry_space_group_name_H-M "C 2/M"
_symmetry_group_IT_number 12
_symmetry_cell_setting 'monoclinic'
loop_
_space_group_symop_operation_xyz
x,y,z
-x,y,-z
-x,-y,-z
x,-y,z
1/2+x,1/2+y,z
1/2-x,1/2+y,-z
1/2-x,1/2-y,-z
1/2+x,1/2-y,z
loop_
_atom_site_type_symbol
_atom_site_label
_atom_site_fract_x
_atom_site_fract_y
_atom_site_fract_z
Si Si1 0.532664 0.680522 0.086140
Si Si2 0.804102 0.813309 0.832087
Si Si3 0.638950 0.820104 0.761367
Si Si4 0.007776 0.183572 0.337361
Si Si5 0.195093 0.681696 0.373741
O O1 0.551733 0.500000 0.034756
O O2 0.423925 0.717479 0.220851
O O3 0.552571 0.704187 0.169249
O O4 0.588568 0.789637 0.934991
O O5 0.773755 0.735894 0.775924
O O6 0.913157 0.777725 0.697385
O O7 0.794273 0.000000 0.839941
O O8 0.750000 0.750000 0.000000
O O9 0.744066 0.769260 0.632259
O O10 0.632874 0.000000 0.742317
O O11 0.913437 0.278874 0.470612
O O12 0.983979 0.000000 0.381650
O O13 0.211438 0.500000 0.362445
#
# Coordination Sequence:
#
# PCOD9202748 Si02
#       5
#     8   8   8   8   8
#     4  10  20  38  63  90 121 155 197 246 296 353
#     4  11  23  41  65  91 121 156 197 242 292 354
#     4  11  22  38  61  88 120 158 201 246 295 352
#     4  10  23  41  61  87 120 157 194 240 298 356
#     4  12  25  40  60  87 120 158 200 247 298 350
#
# _framework density 23.160679999999999
#
# number of rings (size 3 to 8) (size 9 to 14) (size 15 to 20)
#    0.000    1.200    0.000    7.800    0.000    8.000 
#    0.000    0.000    0.000    0.000    0.000    0.000 
#    0.000    0.000    0.000    0.000    0.000    0.000 
#
# Total GULP energy -112021.583616 kJ/mol
# GULP energy per Si atom -5601.079181 kJ/mol
# Density = 2.310797 g / cm^3
# Si number density = 23.160680 Si / 1000 Ang^3
#
#
#
# Elastic Constant Matrix: (Units=GPa)
#
#
# Indices 1 2 3 4 5 6 
#
# 1 90.2061 0.8062 -10.5905 -0.0003 -9.2525 0.0001
# 2 0.8062 58.9055 3.2444 -0.0005 -10.0561 0.0005
# 3 -10.5905 3.2444 58.4002 -0.0004 -11.2466 0.0003
# 4 -0.0003 -0.0005 -0.0004 30.0738 0.0003 -0.6876
# 5 -9.2525 -10.0561 -11.2466 0.0003 36.9978 -0.0002
# 6 0.0001 0.0005 0.0003 -0.6876 -0.0002 24.0683
#
#
#
# Elastic Compliance Matrix: (Units=1/GPa)
#
#
# Indices 1 2 3 4 5 6 
#
# 1 0.011824 0.000350 0.002881 0.000000 0.003928 0.000000
# 2 0.000350 0.017813 0.000025 0.000000 0.004937 0.000000
# 3 0.002881 0.000025 0.018890 0.000000 0.006469 0.000000
# 4 0.000000 0.000000 0.000000 0.033273 0.000000 0.000951
# 5 0.003928 0.004937 0.006469 0.000000 0.031319 0.000000
# 6 0.000000 0.000000 0.000000 0.000951 0.000000 0.041576
#
#
# Mechanical properties :
#
#
# Convention : Reuss Voigt Hill
#
# Bulk Modulus (GPa) = 18.16913 21.60354 19.88634
# Shear Modulus (GPa) = 30.02467 32.49809 31.26138
#
# Velocity S-wave (km/s) = 3.60441 3.74994 3.67790
# Velocity P-wave (km/s) = 5.01839 5.30069 5.16147
#
# Compressibility (1/GPa) = 0.05503840
#
# Stress axis : x y z
#
# Youngs Moduli (GPa) = 84.57565 56.13892 52.93745
#
# Poissons Ratio (x) = -0.01965 -0.15252
# Poissons Ratio (y) = -0.02960 -0.00130
# Poissons Ratio (z) = -0.24367 -0.00138
#
# Static dielectric constant tensor:
#      x y z
#    x 1.841760 0.000000 -0.015240 
#    y 0.000000 1.775020 0.000000 
#    z -0.015240 0.000000 1.940150 
# 
# From -- ./inp_files/242832.got.cif
#   From: 2010.05.17/outbox.cif.g08.bks.cpg/sg12_122_cif.got.tgz:242832.got - 2010.06.03 13:09:07.
