data_PCOD9202656
_publ_section_title
;
Structure prediction by ZEFSAII (Michael W. Deem and Ramdas Pophale) SiO2 
 PCOD9202656
Probable space group: C 2/M
;
_chemical_formula_sum "Si O2"
_cell_formula_units_Z 44
_cell_length_a 18.987440
_cell_length_b 21.705342
_cell_length_c 5.082239
_cell_angle_alpha 90.000000
_cell_angle_beta 61.326841
_cell_angle_gamma 90.000000
_cell_volume 1837.686500
_symmetry_space_group_name_H-M "C 2/M"
_symmetry_group_IT_number 12
_symmetry_cell_setting 'monoclinic'
loop_
_space_group_symop_operation_xyz
x,y,z
-x,y,-z
-x,-y,-z
x,-y,z
1/2+x,1/2+y,z
1/2-x,1/2+y,-z
1/2-x,1/2-y,-z
1/2+x,1/2-y,z
loop_
_atom_site_type_symbol
_atom_site_label
_atom_site_fract_x
_atom_site_fract_y
_atom_site_fract_z
Si Si1 0.691653 0.757681 0.850852
Si Si2 0.777522 0.426694 0.008375
Si Si3 0.680288 0.425875 0.694788
Si Si4 0.947354 0.840063 0.856941
Si Si5 0.058804 0.500000 0.645132
Si Si6 0.405369 0.118472 0.135894
O O1 0.750000 0.750000 0.500000
O O2 0.640901 0.817455 0.836014
O O3 0.750000 0.750000 0.000000
O O4 0.623621 0.708398 0.046702
O O5 0.770248 0.500000 0.004036
O O6 0.715223 0.405537 0.350618
O O7 0.866923 0.414874 0.950506
O O8 0.742243 0.400887 0.802938
O O9 0.679251 0.500000 0.692605
O O10 0.595079 0.400644 0.943305
O O11 0.000000 0.850014 0.500000
O O12 0.000000 0.814312 0.000000
O O13 0.106993 0.563652 0.621246
O O14 0.000000 0.500000 0.500000
O O15 0.000000 0.500000 0.000000
O O16 0.500000 0.132072 0.000000
#
# Coordination Sequence:
#
# PCOD9202656 Si02
#       6
#     8   8   8   8   4   8
#     4  12  27  48  73  99 140 193 250 298 366 442
#     4  10  20  38  62  94 136 181 228 278 349 434
#     4  10  22  40  65  96 135 184 236 290 360 441
#     4  12  25  44  69 101 137 177 237 309 373 426
#     4  10  24  42  66 106 150 186 224 292 374 446
#     4  11  24  44  70 105 144 189 242 301 370 448
#
# _framework density 23.943145999999999
#
# number of rings (size 3 to 8) (size 9 to 14) (size 15 to 20)
#    0.000    1.091    0.909    4.909    0.000    6.545 
#    0.000    1.818    0.000    0.000    0.000    0.000 
#    0.000    0.000    0.000    0.000    0.000    0.000 
#
# Total GULP energy -122615.557978 kJ/mol
# GULP energy per Si atom -5573.434454 kJ/mol
# Density = 2.388865 g / cm^3
# Si number density = 23.943146 Si / 1000 Ang^3
#
#
#
# Elastic Constant Matrix: (Units=GPa)
#
#
# Indices 1 2 3 4 5 6 
#
# 1 170.9535 38.7869 44.3361 0.0000 -5.2400 0.0000
# 2 38.7869 112.7494 29.8422 0.0000 -8.9514 0.0000
# 3 44.3361 29.8422 130.0609 0.0000 -3.3206 0.0000
# 4 0.0000 0.0000 0.0000 -6.4156 0.0000 -1.2526
# 5 -5.2400 -8.9514 -3.3206 0.0000 46.7587 0.0000
# 6 0.0000 0.0000 0.0000 -1.2526 0.0000 42.9115
#
#
#
# Elastic Compliance Matrix: (Units=1/GPa)
#
#
# Indices 1 2 3 4 5 6 
#
# 1 0.006755 -0.001804 -0.001882 0.000000 0.000278 0.000000
# 2 -0.001804 0.010054 -0.001651 0.000000 0.001605 0.000000
# 3 -0.001882 -0.001651 0.008711 0.000000 0.000092 0.000000
# 4 0.000000 0.000000 0.000000 -0.154987 0.000000 -0.004524
# 5 0.000278 0.001605 0.000092 0.000000 0.021731 0.000000
# 6 0.000000 0.000000 0.000000 -0.004524 0.000000 0.023172
#
#
# Mechanical properties :
#
#
# Convention : Reuss Voigt Hill
#
# Bulk Modulus (GPa) = 67.35086 71.07713 69.21400
# Shear Modulus (GPa) = -72.52646 36.70417 -17.91115
#
# Velocity S-wave (km/s) = -5.50971 3.91957 -2.73805
# Velocity P-wave (km/s) = 3.50504 7.08761 4.35597
#
# Compressibility (1/GPa) = 0.01484762
#
# Stress axis : x y z
#
# Youngs Moduli (GPa) = 148.03050 99.46115 114.79246
#
# Poissons Ratio (x) = 0.17940 0.21602
# Poissons Ratio (y) = 0.26701 0.18953
# Poissons Ratio (z) = 0.27857 0.16421
#
# Static dielectric constant tensor:
#      x y z
#    x 1.903920 0.000000 -0.127260 
#    y 0.000000 2.106300 0.000000 
#    z -0.127260 0.000000 1.988530 
# 
# From -- ./inp_files/16799.got.cif
#   From: 2010.05.17/outbox.cif.g08.bks.cpg/sg12_9_cif.got.tgz:16799.got - 2010.06.03 13:09:07.
