data_PCOD9202610
_publ_section_title
;
Structure prediction by ZEFSAII (Michael W. Deem and Ramdas Pophale) SiO2 
 PCOD9202610
Probable space group: C 2/M
;
_chemical_formula_sum "Si O2"
_cell_formula_units_Z 64
_cell_length_a 8.850159
_cell_length_b 28.635390
_cell_length_c 13.529013
_cell_angle_alpha 90.000000
_cell_angle_beta 101.011427
_cell_angle_gamma 90.000000
_cell_volume 3365.503301
_symmetry_space_group_name_H-M "C 2/M"
_symmetry_group_IT_number 12
_symmetry_cell_setting 'monoclinic'
loop_
_space_group_symop_operation_xyz
x,y,z
-x,y,-z
-x,-y,-z
x,-y,z
1/2+x,1/2+y,z
1/2-x,1/2+y,-z
1/2-x,1/2-y,-z
1/2+x,1/2-y,z
loop_
_atom_site_type_symbol
_atom_site_label
_atom_site_fract_x
_atom_site_fract_y
_atom_site_fract_z
Si Si1 0.454178 0.105529 0.108960
Si Si2 0.023943 0.797702 0.120266
Si Si3 0.595832 0.645071 0.724774
Si Si4 0.136072 0.196008 0.437051
Si Si5 0.610941 0.202397 0.805044
Si Si6 0.652323 0.799123 0.367957
Si Si7 0.830664 0.946128 0.987125
Si Si8 0.744759 0.946497 0.208462
O O1 0.447906 0.158946 0.138153
O O2 0.574565 0.075960 0.188223
O O3 0.500000 0.101808 0.000000
O O4 0.286685 0.083085 0.092247
O O5 0.937761 0.839156 0.167586
O O6 0.950863 0.750256 0.155261
O O7 0.205029 0.798008 0.168950
O O8 0.000000 0.799708 0.000000
O O9 0.444160 0.658353 0.643285
O O10 0.733917 0.677525 0.698513
O O11 0.645509 0.591358 0.726233
O O12 0.283824 0.181318 0.519949
O O13 0.173680 0.243365 0.383129
O O14 0.000000 0.207800 0.500000
O O15 0.522954 0.195401 0.689484
O O16 0.786206 0.946889 0.096926
O O17 0.830116 0.000000 0.952775
O O18 0.000000 0.926448 0.000000
O O19 0.751104 0.000000 0.244387
#
# Coordination Sequence:
#
# PCOD9202610 Si02
#       8
#     8   8   8   8   8   8   8   8
#     4  10  21  34  56  78 114 154 205 244 299 351
#     4  12  28  39  56  83 131 172 206 234 288 356
#     4  11  22  39  60  87 123 160 201 248 298 356
#     4   9  20  36  65  90 119 150 192 254 307 348
#     4  12  24  38  57  84 121 163 202 241 290 361
#     4  10  20  38  62  90 117 151 197 249 302 351
#     4   9  19  35  55  80 109 148 206 263 302 340
#     4  10  21  36  58  82 115 156 200 251 304 357
#
# _framework density 19.016472
#
# number of rings (size 3 to 8) (size 9 to 14) (size 15 to 20)
#    0.000    1.625    2.500    1.875    7.000    1.500 
#    0.000    0.000    0.000    3.375    0.000    0.000 
#    0.000    1.500    0.000    0.000    0.000    0.000 
#
# Total GULP energy -178669.743126 kJ/mol
# GULP energy per Si atom -5583.429473 kJ/mol
# Density = 1.897319 g / cm^3
# Si number density = 19.016472 Si / 1000 Ang^3
#
#
#
# Elastic Constant Matrix: (Units=GPa)
#
#
# Indices 1 2 3 4 5 6 
#
# 1 74.2054 31.5969 21.6640 0.0000 21.6496 0.0000
# 2 31.5969 119.5513 31.7938 0.0000 12.3763 0.0000
# 3 21.6640 31.7938 75.7205 0.0000 20.4780 0.0000
# 4 0.0000 0.0000 0.0000 14.7817 0.0000 4.5361
# 5 21.6496 12.3763 20.4780 0.0000 35.1181 0.0000
# 6 0.0000 0.0000 0.0000 4.5361 0.0000 23.6169
#
#
#
# Elastic Compliance Matrix: (Units=1/GPa)
#
#
# Indices 1 2 3 4 5 6 
#
# 1 0.017983 -0.003484 -0.001206 0.000000 -0.009155 0.000000
# 2 -0.003484 0.010134 -0.003411 0.000000 0.000566 0.000000
# 3 -0.001206 -0.003411 0.017165 0.000000 -0.008063 0.000000
# 4 0.000000 0.000000 0.000000 0.071888 0.000000 -0.013807
# 5 -0.009155 0.000566 -0.008063 0.000000 0.038621 0.000000
# 6 0.000000 0.000000 0.000000 -0.013807 0.000000 0.044994
#
#
# Mechanical properties :
#
#
# Convention : Reuss Voigt Hill
#
# Bulk Modulus (GPa) = 34.39025 48.84297 41.61661
# Shear Modulus (GPa) = 22.05737 26.99819 24.52778
#
# Velocity S-wave (km/s) = 3.40944 3.77201 3.59530
# Velocity P-wave (km/s) = 5.79851 6.68664 6.25835
#
# Compressibility (1/GPa) = 0.02907800
#
# Stress axis : x y z
#
# Youngs Moduli (GPa) = 55.60883 98.67641 58.25977
#
# Poissons Ratio (x) = 0.34382 0.07027
# Poissons Ratio (y) = 0.19376 0.19874
# Poissons Ratio (z) = 0.06707 0.33661
#
# Static dielectric constant tensor:
#      x y z
#    x 1.705220 0.000000 0.004520 
#    y 0.000000 1.641930 0.000000 
#    z 0.004520 0.000000 1.685210 
# 
# From -- ./inp_files/199902.got.cif
#   From: 2010.05.17/outbox.cif.g08.bks.cpg/sg12_100_cif.got.tgz:199902.got - 2010.06.03 13:09:07.
