data_PCOD9202674
_publ_section_title
;
Structure prediction by ZEFSAII (Michael W. Deem and Ramdas Pophale) SiO2 
 PCOD9202674
Probable space group: C 2/M
;
_chemical_formula_sum "Si O2"
_cell_formula_units_Z 56
_cell_length_a 8.067111
_cell_length_b 28.698474
_cell_length_c 19.067125
_cell_angle_alpha 90.000000
_cell_angle_beta 34.662486
_cell_angle_gamma 90.000000
_cell_volume 2510.595066
_symmetry_space_group_name_H-M "C 2/M"
_symmetry_group_IT_number 12
_symmetry_cell_setting 'monoclinic'
loop_
_space_group_symop_operation_xyz
x,y,z
-x,y,-z
-x,-y,-z
x,-y,z
1/2+x,1/2+y,z
1/2-x,1/2+y,-z
1/2-x,1/2-y,-z
1/2+x,1/2-y,z
loop_
_atom_site_type_symbol
_atom_site_label
_atom_site_fract_x
_atom_site_fract_y
_atom_site_fract_z
Si Si1 0.824955 0.718592 0.359450
Si Si2 0.798849 0.415523 0.635120
Si Si3 0.850599 0.187706 0.276205
Si Si4 0.369074 0.355084 0.946021
Si Si5 0.654574 0.450890 0.120258
Si Si6 0.671090 0.944585 0.642820
Si Si7 0.492439 0.859460 0.800311
O O1 0.500000 0.724063 0.500000
O O2 0.928413 0.768640 0.296357
O O3 0.051451 0.700307 0.338746
O O4 0.812592 0.680740 0.301154
O O5 0.717989 0.360885 0.661108
O O6 0.494302 0.442377 0.752491
O O7 0.000000 0.428662 0.500000
O O8 0.971948 0.428505 0.646207
O O9 0.101762 0.177940 0.131269
O O10 0.414290 0.407310 0.903226
O O11 0.670169 0.347202 0.882581
O O12 0.074721 0.355196 0.093848
O O13 0.543546 0.500000 0.130537
O O14 0.000000 0.452446 0.000000
O O15 0.596850 0.909174 0.732767
O O16 0.000000 0.937714 0.500000
O O17 0.635280 0.000000 0.670671
#
# Coordination Sequence:
#
# PCOD9202674 Si02
#       7
#     8   8   8   8   8   8   8
#     4  11  21  38  61  89 123 160 202 254 311 368
#     4  11  23  42  65  91 131 169 208 261 320 376
#     4  10  22  41  61  90 123 159 208 256 308 378
#     4   9  20  39  59  86 119 158 202 249 306 370
#     4  10  21  39  60  86 122 161 207 258 307 372
#     4  11  23  40  64  96 128 164 211 262 318 376
#     4  10  20  38  63  84 123 160 198 252 307 366
#
# _framework density 22.305468000000001
#
# number of rings (size 3 to 8) (size 9 to 14) (size 15 to 20)
#    0.000    1.714    4.286    1.714    0.000    3.429 
#    5.143    4.286    3.143    0.000    0.000    0.000 
#    0.000    0.000    0.000    0.000    0.000    0.000 
#
# Total GULP energy -156330.086157 kJ/mol
# GULP energy per Si atom -5583.217363 kJ/mol
# Density = 2.225470 g / cm^3
# Si number density = 22.305468 Si / 1000 Ang^3
#
#
#
# Elastic Constant Matrix: (Units=GPa)
#
#
# Indices 1 2 3 4 5 6 
#
# 1 24.1257 1.6001 23.5662 0.0003 -0.0147 -0.0001
# 2 1.6001 123.3755 42.7897 -0.0003 10.7392 0.0000
# 3 23.5662 42.7897 160.8615 0.0045 24.0281 -0.0011
# 4 0.0003 -0.0003 0.0045 157.4893 -0.0015 -35.5804
# 5 -0.0147 10.7392 24.0281 -0.0015 24.9794 0.0003
# 6 -0.0001 0.0000 -0.0011 -35.5804 0.0003 22.0839
#
#
#
# Elastic Compliance Matrix: (Units=1/GPa)
#
#
# Indices 1 2 3 4 5 6 
#
# 1 0.050129 0.001782 -0.009001 0.000000 0.007922 0.000000
# 2 0.001782 0.009063 -0.002441 0.000000 -0.001548 0.000000
# 3 -0.009001 -0.002441 0.009376 0.000000 -0.007974 0.000000
# 4 0.000000 0.000000 0.000000 0.009984 0.000001 0.016085
# 5 0.007922 -0.001548 -0.007974 0.000001 0.048374 0.000000
# 6 0.000000 0.000000 0.000000 0.016085 0.000000 0.071197
#
#
# Mechanical properties :
#
#
# Convention : Reuss Voigt Hill
#
# Bulk Modulus (GPa) = 20.30535 49.36385 34.83460
# Shear Modulus (GPa) = 21.38050 56.93763 39.15907
#
# Velocity S-wave (km/s) = 3.09938 5.05784 4.19451
# Velocity P-wave (km/s) = 4.68308 7.50252 6.25376
#
# Compressibility (1/GPa) = 0.04924811
#
# Stress axis : x y z
#
# Youngs Moduli (GPa) = 19.94866 110.33293 106.65966
#
# Poissons Ratio (x) = -0.19663 0.96006
# Poissons Ratio (y) = -0.03555 0.26034
# Poissons Ratio (z) = 0.17956 0.26930
#
# Static dielectric constant tensor:
#      x y z
#    x 1.961220 0.000000 -0.183450 
#    y 0.000000 1.795240 0.000000 
#    z -0.183450 0.000000 2.503810 
# 
# From -- ./inp_files/302974.got.cif
#   From: 2010.05.17/outbox.cif.g08.bks.cpg/sg12_152_cif.got.tgz:302974.got - 2010.06.03 13:09:07.
