data_PCOD9202388
_publ_section_title
;
Structure prediction by ZEFSAII (Michael W. Deem and Ramdas Pophale) SiO2 
 PCOD9202388
Probable space group: C 2/M
;
_chemical_formula_sum "Si O2"
_cell_formula_units_Z 64
_cell_length_a 32.789318
_cell_length_b 7.798075
_cell_length_c 25.219211
_cell_angle_alpha 90.000000
_cell_angle_beta 27.167082
_cell_angle_gamma 90.000000
_cell_volume 2944.250064
_symmetry_space_group_name_H-M "C 2/M"
_symmetry_group_IT_number 12
_symmetry_cell_setting 'monoclinic'
loop_
_space_group_symop_operation_xyz
x,y,z
-x,y,-z
-x,-y,-z
x,-y,z
1/2+x,1/2+y,z
1/2-x,1/2+y,-z
1/2-x,1/2-y,-z
1/2+x,1/2-y,z
loop_
_atom_site_type_symbol
_atom_site_label
_atom_site_fract_x
_atom_site_fract_y
_atom_site_fract_z
Si Si1 0.024839 0.211555 0.144440
Si Si2 0.906263 0.792980 0.633783
Si Si3 0.846187 0.206048 0.411713
Si Si4 0.757153 0.291808 0.252447
Si Si5 0.553598 0.803009 0.298420
Si Si6 0.354912 0.707063 0.521073
Si Si7 0.544573 0.301043 0.001649
Si Si8 0.657891 0.307773 0.078987
O O1 0.107676 0.272736 0.085921
O O2 0.931744 0.265617 0.279359
O O3 0.027495 0.000000 0.141556
O O4 0.026446 0.270524 0.081503
O O5 0.822759 0.742638 0.694533
O O6 0.893963 0.734031 0.708309
O O7 0.000000 0.731031 0.500000
O O8 0.910509 0.000000 0.629360
O O9 0.750000 0.250000 0.500000
O O10 0.849210 0.272885 0.468145
O O11 0.853484 0.000000 0.405540
O O12 0.765875 0.500000 0.241070
O O13 0.724271 0.238190 0.348826
O O14 0.849911 0.211024 0.129127
O O15 0.451446 0.761262 0.430435
O O16 0.586190 0.697916 0.209912
O O17 0.563581 0.000000 0.271736
O O18 0.353833 0.500000 0.522130
O O19 0.514998 0.500000 0.037967
O O20 0.500000 0.223384 0.000000
O O21 0.677334 0.500000 0.039529
O O22 0.750000 0.250000 0.000000
#
# Coordination Sequence:
#
# PCOD9202388 Si02
#       8
#     8   8   8   8   8   8   8   8
#     4   9  20  41  64  86 120 162 202 246 303 366
#     4  10  20  38  61  85 120 164 200 241 300 366
#     4  10  21  38  63  90 118 154 196 250 311 365
#     4  10  22  39  62  89 117 157 208 251 300 360
#     4  12  24  37  58  90 125 159 201 252 307 367
#     4  10  20  40  63  85 119 162 202 248 310 370
#     4  10  23  42  63  87 120 163 204 250 310 367
#     4  11  23  42  64  87 121 164 210 257 308 367
#
# _framework density 21.737283000000001
#
# number of rings (size 3 to 8) (size 9 to 14) (size 15 to 20)
#    0.000    1.750    2.500    1.500    3.500    2.000 
#    0.000    1.250    0.000    0.000    0.000    0.000 
#    0.000    0.000    0.000    0.000    0.000    0.000 
#
# Total GULP energy -178708.324350 kJ/mol
# GULP energy per Si atom -5584.635136 kJ/mol
# Density = 2.168781 g / cm^3
# Si number density = 21.737283 Si / 1000 Ang^3
#
#
#
# Elastic Constant Matrix: (Units=GPa)
#
#
# Indices 1 2 3 4 5 6 
#
# 1 179.2726 8.5498 65.2831 -0.0071 15.5038 0.0055
# 2 8.5498 20.8262 -0.8251 0.0095 1.6610 -0.0064
# 3 65.2831 -0.8251 78.1939 0.0043 5.4989 0.0147
# 4 -0.0071 0.0095 0.0043 20.4087 0.0060 -11.0821
# 5 15.5038 1.6610 5.4989 0.0060 38.2348 -0.0046
# 6 0.0055 -0.0064 0.0147 -11.0821 -0.0046 11.3287
#
#
#
# Elastic Compliance Matrix: (Units=1/GPa)
#
#
# Indices 1 2 3 4 5 6 
#
# 1 0.008479 -0.003575 -0.006956 0.000017 -0.002282 0.000018
# 2 -0.003575 0.049724 0.003595 -0.000025 -0.001228 0.000000
# 3 -0.006956 0.003595 0.018636 -0.000039 -0.000016 -0.000057
# 4 0.000017 -0.000025 -0.000039 0.104516 -0.000004 0.102241
# 5 -0.002282 -0.001228 -0.000016 -0.000004 0.027135 0.000007
# 6 0.000018 0.000000 -0.000057 0.102241 0.000007 0.188287
#
#
# Mechanical properties :
#
#
# Convention : Reuss Voigt Hill
#
# Bulk Modulus (GPa) = 15.88107 47.14537 31.51322
# Shear Modulus (GPa) = 11.58376 27.68009 19.63193
#
# Velocity S-wave (km/s) = 2.31096 3.57233 3.00850
# Velocity P-wave (km/s) = 3.80033 6.22505 5.15722
#
# Compressibility (1/GPa) = 0.06296806
#
# Stress axis : x y z
#
# Youngs Moduli (GPa) = 117.93621 20.11085 53.66092
#
# Poissons Ratio (x) = 0.07189 0.37328
# Poissons Ratio (y) = 0.42157 -0.19293
# Poissons Ratio (z) = 0.82041 -0.07231
#
# Static dielectric constant tensor:
#      x y z
#    x 1.844930 -0.000020 0.003690 
#    y -0.000020 1.804030 0.000020 
#    z 0.003690 0.000020 1.756380 
# 
# From -- ./inp_files/353307.got.cif
#   From: 2010.05.17/outbox.cif.g08.bks.cpg/sg12_177_cif.got.tgz:353307.got - 2010.06.03 13:09:07.
