data_PCOD9202199
_publ_section_title
;
Structure prediction by ZEFSAII (Michael W. Deem and Ramdas Pophale) SiO2 
 PCOD9202199
Probable space group: C 2/M
;
_chemical_formula_sum "Si O2"
_cell_formula_units_Z 44
_cell_length_a 8.844893
_cell_length_b 16.283916
_cell_length_c 17.292543
_cell_angle_alpha 90.000000
_cell_angle_beta 60.517830
_cell_angle_gamma 90.000000
_cell_volume 2168.120985
_symmetry_space_group_name_H-M "C 2/M"
_symmetry_group_IT_number 12
_symmetry_cell_setting 'monoclinic'
loop_
_space_group_symop_operation_xyz
x,y,z
-x,y,-z
-x,-y,-z
x,-y,z
1/2+x,1/2+y,z
1/2-x,1/2+y,-z
1/2-x,1/2-y,-z
1/2+x,1/2-y,z
loop_
_atom_site_type_symbol
_atom_site_label
_atom_site_fract_x
_atom_site_fract_y
_atom_site_fract_z
Si Si1 0.781341 0.729558 0.690285
Si Si2 0.791863 0.000000 0.548897
Si Si3 0.924968 0.500000 0.929978
Si Si4 0.306512 0.838792 0.015021
Si Si5 0.240338 0.000000 0.264349
Si Si6 0.913167 0.848235 0.779837
Si Si7 0.666726 0.176700 0.570619
O O1 0.820427 0.770014 0.763299
O O2 0.615658 0.671005 0.735212
O O3 0.732557 0.800752 0.640683
O O4 0.959203 0.686023 0.620018
O O5 0.722604 0.000000 0.654504
O O6 0.728628 0.913460 0.529931
O O7 0.000000 0.000000 0.500000
O O8 0.083080 0.500000 0.830279
O O9 0.820171 0.414575 0.951503
O O10 0.000000 0.500000 0.000000
O O11 0.176561 0.864796 0.115974
O O12 0.500000 0.828598 0.000000
O O13 0.250000 0.750000 0.000000
O O14 0.127927 0.922215 0.266984
O O15 0.750000 0.250000 0.500000
#
# Coordination Sequence:
#
# PCOD9202199 Si02
#       7
#     8   4   4   8   4   8   8
#     4  10  23  38  63  91 128 168 215 264 328 384
#     4  12  26  41  68  98 124 171 218 266 333 395
#     4  10  20  38  59  91 124 172 209 260 311 380
#     4  11  21  37  62  94 128 169 216 262 315 384
#     4  12  22  41  65  91 129 168 219 266 324 397
#     4  11  21  38  62  93 126 170 214 262 318 385
#     4  11  23  44  64  93 129 168 214 275 327 392
#
# _framework density 20.294070000000001
#
# number of rings (size 3 to 8) (size 9 to 14) (size 15 to 20)
#    0.000    1.091    5.455    2.727    2.545    0.727 
#    0.000    2.273    0.000    1.091    0.000    0.000 
#    0.000    0.000    0.000    0.000    0.000    0.000 
#
# Total GULP energy -122911.909780 kJ/mol
# GULP energy per Si atom -5586.904990 kJ/mol
# Density = 2.024788 g / cm^3
# Si number density = 20.294070 Si / 1000 Ang^3
#
#
#
# Elastic Constant Matrix: (Units=GPa)
#
#
# Indices 1 2 3 4 5 6 
#
# 1 85.5640 47.9018 34.7782 0.0000 -33.3985 0.0000
# 2 47.9018 158.9725 24.3247 0.0000 -29.1291 0.0000
# 3 34.7782 24.3247 87.6540 0.0000 -23.7287 0.0000
# 4 0.0000 0.0000 0.0000 27.6649 0.0000 2.0224
# 5 -33.3985 -29.1291 -23.7287 0.0000 33.1289 0.0000
# 6 0.0000 0.0000 0.0000 2.0224 0.0000 25.0040
#
#
#
# Elastic Compliance Matrix: (Units=1/GPa)
#
#
# Indices 1 2 3 4 5 6 
#
# 1 0.020924 -0.002828 -0.003076 0.000000 0.016404 0.000000
# 2 -0.002828 0.007890 0.000048 0.000000 0.004121 0.000000
# 3 -0.003076 0.000048 0.014623 0.000000 0.007415 0.000000
# 4 0.000000 0.000000 0.000000 0.036362 0.000000 -0.002941
# 5 0.016404 0.004121 0.007415 0.000000 0.055657 0.000000
# 6 0.000000 0.000000 0.000000 -0.002941 0.000000 0.040232
#
#
# Mechanical properties :
#
#
# Convention : Reuss Voigt Hill
#
# Bulk Modulus (GPa) = 31.52188 60.68887 46.10538
# Shear Modulus (GPa) = 25.25570 32.17195 28.71382
#
# Velocity S-wave (km/s) = 3.53156 3.98589 3.76558
# Velocity P-wave (km/s) = 5.67410 7.15211 6.45555
#
# Compressibility (1/GPa) = 0.03172399
#
# Stress axis : x y z
#
# Youngs Moduli (GPa) = 47.79207 126.73708 68.38566
#
# Poissons Ratio (x) = 0.35846 0.21038
# Poissons Ratio (y) = 0.13517 -0.00329
# Poissons Ratio (z) = 0.14703 -0.00610
#
# Static dielectric constant tensor:
#      x y z
#    x 1.704480 0.000000 0.040990 
#    y 0.000000 1.767490 0.000000 
#    z 0.040990 0.000000 1.723400 
# 
# From -- ./inp_files/195478.got.cif
#   From: 2010.05.17/outbox.cif.g08.bks.cpg/sg12_98_cif.got.tgz:195478.got - 2010.06.03 13:09:07.
