data_PCOD9202476
_publ_section_title
;
Structure prediction by ZEFSAII (Michael W. Deem and Ramdas Pophale) SiO2 
 PCOD9202476
Probable space group: C 2/M
;
_chemical_formula_sum "Si O2"
_cell_formula_units_Z 58
_cell_length_a 21.288754
_cell_length_b 19.299359
_cell_length_c 6.672444
_cell_angle_alpha 90.000000
_cell_angle_beta 109.762350
_cell_angle_gamma 90.000000
_cell_volume 2579.973801
_symmetry_space_group_name_H-M "C 2/M"
_symmetry_group_IT_number 12
_symmetry_cell_setting 'monoclinic'
loop_
_space_group_symop_operation_xyz
x,y,z
-x,y,-z
-x,-y,-z
x,-y,z
1/2+x,1/2+y,z
1/2-x,1/2+y,-z
1/2-x,1/2-y,-z
1/2+x,1/2-y,z
loop_
_atom_site_type_symbol
_atom_site_label
_atom_site_fract_x
_atom_site_fract_y
_atom_site_fract_z
Si Si1 0.677440 0.421562 0.525942
Si Si2 0.274341 0.682965 0.751563
Si Si3 0.424697 0.879151 0.227541
Si Si4 0.905572 0.754621 0.970348
Si Si5 0.072623 0.848974 0.674677
Si Si6 0.500000 0.000000 0.500000
Si Si7 0.779338 0.578003 0.975610
Si Si8 0.374857 0.782608 0.499380
O O1 0.670117 0.500000 0.439031
O O2 0.683047 0.363250 0.360790
O O3 0.620299 0.407572 0.632177
O O4 0.746296 0.416279 0.723172
O O5 0.294720 0.790513 0.419850
O O6 0.324085 0.740537 0.896237
O O7 0.253030 0.632657 0.908705
O O8 0.439274 0.809555 0.120469
O O9 0.477024 0.939012 0.315735
O O10 0.402809 0.851380 0.424813
O O11 0.357865 0.909516 0.056275
O O12 0.930249 0.827610 0.093215
O O13 0.088779 0.737969 0.257454
O O14 0.108108 0.779952 0.629644
O O15 0.000000 0.856424 0.500000
O O16 0.766304 0.500000 0.036642
#
# Coordination Sequence:
#
# PCOD9202476 Si02
#       8
#     8   8   8   8   8   2   8   8
#     4  11  23  40  66  95 132 170 216 272 333 402
#     4  11  21  38  67 101 131 157 214 285 342 390
#     4  10  24  39  66  90 130 177 220 270 320 392
#     4  11  22  40  67  96 124 167 218 275 337 387
#     4  11  25  42  61  91 131 176 218 270 324 399
#     4  12  24  52  62  92 144 182 228 266 306 400
#     4  10  20  38  61  93 129 173 211 264 338 392
#     4  10  23  40  67  99 131 163 217 282 339 386
#
# _framework density 22.480848999999999
#
# number of rings (size 3 to 8) (size 9 to 14) (size 15 to 20)
#    0.000    1.379    3.448    1.655    5.793    2.483 
#    0.000    1.379    0.000    0.828    0.000    0.000 
#    0.000    0.000    0.000    0.000    0.000    0.000 
#
# Total GULP energy -161658.718313 kJ/mol
# GULP energy per Si atom -5574.438563 kJ/mol
# Density = 2.242968 g / cm^3
# Si number density = 22.480849 Si / 1000 Ang^3
#
#
#
# Elastic Constant Matrix: (Units=GPa)
#
#
# Indices 1 2 3 4 5 6 
#
# 1 53.1305 21.4374 21.3170 0.0000 16.7593 0.0000
# 2 21.4374 81.8177 12.2447 0.0000 7.9458 0.0000
# 3 21.3170 12.2447 97.4094 0.0000 12.9129 0.0000
# 4 0.0000 0.0000 0.0000 36.1126 0.0000 4.9928
# 5 16.7593 7.9458 12.9129 0.0000 28.4656 0.0000
# 6 0.0000 0.0000 0.0000 4.9928 0.0000 11.3075
#
#
#
# Elastic Compliance Matrix: (Units=1/GPa)
#
#
# Indices 1 2 3 4 5 6 
#
# 1 0.026196 -0.005142 -0.003439 0.000000 -0.012428 0.000000
# 2 -0.005142 0.013702 -0.000523 0.000000 -0.000560 0.000000
# 3 -0.003439 -0.000523 0.011487 0.000000 -0.003040 0.000000
# 4 0.000000 0.000000 0.000000 0.029492 0.000000 -0.013022
# 5 -0.012428 -0.000560 -0.003040 0.000000 0.043983 0.000000
# 6 0.000000 0.000000 0.000000 -0.013022 0.000000 0.094187
#
#
# Mechanical properties :
#
#
# Convention : Reuss Voigt Hill
#
# Bulk Modulus (GPa) = 30.14050 38.03954 34.09002
# Shear Modulus (GPa) = 20.13577 27.00102 23.56839
#
# Velocity S-wave (km/s) = 2.99605 3.46940 3.24138
# Velocity P-wave (km/s) = 5.04031 5.74514 5.40422
#
# Compressibility (1/GPa) = 0.03317795
#
# Stress axis : x y z
#
# Youngs Moduli (GPa) = 38.17327 72.98058 87.05272
#
# Poissons Ratio (x) = 0.37528 0.29937
# Poissons Ratio (y) = 0.19629 0.04552
# Poissons Ratio (z) = 0.13127 0.03816
#
# Static dielectric constant tensor:
#      x y z
#    x 1.882920 0.000000 -0.043000 
#    y 0.000000 1.838900 0.000000 
#    z -0.043000 0.000000 1.873840 
# 
# From -- ./inp_files/88051.got.cif
#   From: 2010.05.17/outbox.cif.g08.bks.cpg/sg12_45_cif.got.tgz:88051.got - 2010.06.03 13:09:07.
