data_PCOD9202685
_publ_section_title
;
Structure prediction by ZEFSAII (Michael W. Deem and Ramdas Pophale) SiO2 
 PCOD9202685
Probable space group: C 2/M
;
_chemical_formula_sum "Si O2"
_cell_formula_units_Z 56
_cell_length_a 27.133807
_cell_length_b 17.176517
_cell_length_c 11.463484
_cell_angle_alpha 90.000000
_cell_angle_beta 33.884257
_cell_angle_gamma 90.000000
_cell_volume 2978.657717
_symmetry_space_group_name_H-M "C 2/M"
_symmetry_group_IT_number 12
_symmetry_cell_setting 'monoclinic'
loop_
_space_group_symop_operation_xyz
x,y,z
-x,y,-z
-x,-y,-z
x,-y,z
1/2+x,1/2+y,z
1/2-x,1/2+y,-z
1/2-x,1/2-y,-z
1/2+x,1/2-y,z
loop_
_atom_site_type_symbol
_atom_site_label
_atom_site_fract_x
_atom_site_fract_y
_atom_site_fract_z
Si Si1 0.574873 0.500000 0.527083
Si Si2 0.639514 0.814213 0.545631
Si Si3 0.875726 0.000000 0.841531
Si Si4 0.278682 0.341212 0.085924
Si Si5 0.655820 0.910732 0.744356
Si Si6 0.023742 0.590639 0.224477
Si Si7 0.817447 0.860006 0.583845
Si Si8 0.170866 0.678026 0.067278
O O1 0.470357 0.500000 0.717624
O O2 0.612147 0.500000 0.321851
O O3 0.612036 0.424539 0.519452
O O4 0.732245 0.835528 0.301846
O O5 0.636826 0.850029 0.679643
O O6 0.561201 0.855915 0.628428
O O7 0.637825 0.720821 0.542116
O O8 0.823973 0.077069 0.978181
O O9 0.344302 0.268589 0.934621
O O10 0.202880 0.329999 0.136474
O O11 0.749817 0.891317 0.618923
O O12 0.654724 0.000000 0.702205
O O13 0.582651 0.905572 0.990222
O O14 0.001404 0.500000 0.289098
O O15 0.088037 0.625011 0.197254
O O16 0.754072 0.845209 0.821085
#
# Coordination Sequence:
#
# PCOD9202685 Si02
#       8
#     4   8   4   8   8   8   8   8
#     4  11  22  40  63  92 107 151 210 239 287 331
#     4  11  23  36  58  88 121 155 188 235 296 351
#     4  11  24  36  65  87 120 151 192 247 284 352
#     4  10  22  38  57  84 121 155 184 236 296 356
#     4  10  20  38  63  86 113 150 197 244 281 341
#     4  10  22  37  61  87 113 152 196 246 279 341
#     4  10  20  39  63  83 111 151 200 244 282 344
#     4   9  20  39  58  83 115 151 195 234 295 340
#
# _framework density 18.800414
#
# number of rings (size 3 to 8) (size 9 to 14) (size 15 to 20)
#    0.000    1.857    2.143    1.286    6.000    1.714 
#    0.000    0.714    0.000    0.857    0.000    0.000 
#    0.000    0.000    0.000    0.000    0.000    0.000 
#
# Total GULP energy -156396.408300 kJ/mol
# GULP energy per Si atom -5585.586011 kJ/mol
# Density = 1.875762 g / cm^3
# Si number density = 18.800414 Si / 1000 Ang^3
#
#
#
# Elastic Constant Matrix: (Units=GPa)
#
#
# Indices 1 2 3 4 5 6 
#
# 1 45.1411 23.9969 1.2685 0.0000 -8.7804 0.0000
# 2 23.9969 159.9927 36.9234 0.0000 -23.7389 0.0000
# 3 1.2685 36.9234 23.1632 0.0000 -9.5148 0.0000
# 4 0.0000 0.0000 0.0000 16.4083 0.0000 4.8649
# 5 -8.7804 -23.7389 -9.5148 0.0000 21.9063 0.0000
# 6 0.0000 0.0000 0.0000 4.8649 0.0000 25.4939
#
#
#
# Elastic Compliance Matrix: (Units=1/GPa)
#
#
# Indices 1 2 3 4 5 6 
#
# 1 0.026366 -0.004901 0.010380 0.000000 0.009765 0.000000
# 2 -0.004901 0.011215 -0.016339 0.000000 0.003092 0.000000
# 3 0.010380 -0.016339 0.076784 0.000000 0.019805 0.000000
# 4 0.000000 0.000000 0.000000 0.064600 0.000000 -0.012327
# 5 0.009765 0.003092 0.019805 0.000000 0.061516 0.000000
# 6 0.000000 0.000000 0.000000 -0.012327 0.000000 0.041578
#
#
# Mechanical properties :
#
#
# Convention : Reuss Voigt Hill
#
# Bulk Modulus (GPa) = 10.79387 39.18606 24.98997
# Shear Modulus (GPa) = 14.94061 23.83558 19.38810
#
# Velocity S-wave (km/s) = 2.82209 3.56451 3.21481
# Velocity P-wave (km/s) = 4.04632 6.15056 5.20587
#
# Compressibility (1/GPa) = 0.09264517
#
# Stress axis : x y z
#
# Youngs Moduli (GPa) = 37.92776 89.16779 13.02361
#
# Poissons Ratio (x) = 0.43703 -0.13519
# Poissons Ratio (y) = 0.18589 0.21279
# Poissons Ratio (z) = -0.39369 1.45687
#
# Static dielectric constant tensor:
#      x y z
#    x 1.635820 0.000000 0.008230 
#    y 0.000000 1.641440 0.000000 
#    z 0.008230 0.000000 1.628890 
# 
# From -- ./inp_files/183499.got.cif
#   From: 2010.05.17/outbox.cif.g08.bks.cpg/sg12_92_cif.got.tgz:183499.got - 2010.06.03 13:09:07.
