data_PCOD9202087
_publ_section_title
;
Structure prediction by ZEFSAII (Michael W. Deem and Ramdas Pophale) SiO2 
 PCOD9202087
Probable space group: C 2/M
;
_chemical_formula_sum "Si O2"
_cell_formula_units_Z 64
_cell_length_a 21.367756
_cell_length_b 17.151235
_cell_length_c 9.021828
_cell_angle_alpha 90.000000
_cell_angle_beta 89.797380
_cell_angle_gamma 90.000000
_cell_volume 3306.329566
_symmetry_space_group_name_H-M "C 2/M"
_symmetry_group_IT_number 12
_symmetry_cell_setting 'monoclinic'
loop_
_space_group_symop_operation_xyz
x,y,z
-x,y,-z
-x,-y,-z
x,-y,z
1/2+x,1/2+y,z
1/2-x,1/2+y,-z
1/2-x,1/2-y,-z
1/2+x,1/2-y,z
loop_
_atom_site_type_symbol
_atom_site_label
_atom_site_fract_x
_atom_site_fract_y
_atom_site_fract_z
Si Si1 0.446907 0.235202 0.874600
Si Si2 0.389312 0.177649 0.364082
Si Si3 0.822424 0.818594 0.932344
Si Si4 0.441732 0.690533 0.566472
Si Si5 0.286014 0.910246 0.536638
Si Si6 0.004815 0.587536 0.820938
Si Si7 0.333912 0.586000 0.658164
Si Si8 0.722120 0.287747 0.762476
O O1 0.380976 0.259886 0.941843
O O2 0.457887 0.291243 0.736046
O O3 0.449013 0.149489 0.800118
O O4 0.500000 0.241127 0.000000
O O5 0.432210 0.232852 0.466047
O O6 0.351781 0.117386 0.468462
O O7 0.433220 0.131535 0.244681
O O8 0.335654 0.235792 0.298601
O O9 0.838000 0.891903 0.830173
O O10 0.770528 0.772629 0.837051
O O11 0.801396 0.837848 0.097222
O O12 0.500000 0.644318 0.500000
O O13 0.376090 0.646826 0.569415
O O14 0.236339 0.910501 0.401761
O O15 0.258212 0.844389 0.648067
O O16 0.288400 0.000000 0.594024
O O17 0.000040 0.500000 0.759058
O O18 0.000000 0.579742 0.000000
O O19 0.358461 0.500000 0.630978
#
# Coordination Sequence:
#
# PCOD9202087 Si02
#       8
#     8   8   8   8   8   8   8   8
#     4  10  20  38  58  84 117 157 198 244 287 347
#     4  12  21  39  63  89 119 160 196 253 293 361
#     4  10  22  37  61  89 116 158 208 240 296 353
#     4  11  22  37  62  91 112 157 207 244 295 358
#     4  11  22  37  61  91 124 159 193 244 310 359
#     4  10  21  37  58  86 120 158 197 239 297 358
#     4  10  21  39  60  86 122 156 194 252 306 356
#     4  11  21  38  62  89 118 157 201 250 289 354
#
# _framework density 19.356811
#
# number of rings (size 3 to 8) (size 9 to 14) (size 15 to 20)
#    0.000    1.375    3.750    3.750    0.000    0.750 
#    0.000    3.750    0.000    7.500    0.000    0.000 
#    0.000    0.000    0.000    0.000    0.000    0.000 
#
# Total GULP energy -178273.945713 kJ/mol
# GULP energy per Si atom -5571.060804 kJ/mol
# Density = 1.931275 g / cm^3
# Si number density = 19.356811 Si / 1000 Ang^3
#
#
#
# Elastic Constant Matrix: (Units=GPa)
#
#
# Indices 1 2 3 4 5 6 
#
# 1 74.6815 10.5874 30.5701 0.0000 -4.5842 0.0000
# 2 10.5874 69.0100 31.7963 0.0000 -9.9739 0.0000
# 3 30.5701 31.7963 80.3485 0.0000 -15.5067 0.0000
# 4 0.0000 0.0000 0.0000 6.7585 0.0000 10.1616
# 5 -4.5842 -9.9739 -15.5067 0.0000 41.5469 0.0000
# 6 0.0000 0.0000 0.0000 10.1616 0.0000 2.9310
#
#
#
# Elastic Compliance Matrix: (Units=1/GPa)
#
#
# Indices 1 2 3 4 5 6 
#
# 1 0.015880 0.000391 -0.006294 0.000000 -0.000503 0.000000
# 2 0.000391 0.017852 -0.006873 0.000000 0.001764 0.000000
# 3 -0.006294 -0.006873 0.018436 0.000000 0.004536 0.000000
# 4 0.000000 0.000000 0.000000 -0.035123 0.000000 0.121770
# 5 -0.000503 0.001764 0.004536 0.000000 0.026130 0.000000
# 6 0.000000 0.000000 0.000000 0.121770 0.000000 -0.080989
#
#
# Mechanical properties :
#
#
# Convention : Reuss Voigt Hill
#
# Bulk Modulus (GPa) = 37.57081 41.10530 39.33806
# Shear Modulus (GPa) = -1474.75813 20.31970 -727.21922
#
# Velocity S-wave (km/s) = -27.63213 3.24349 -19.40379
# Velocity P-wave (km/s) = 31.60055 5.94211 21.94637
#
# Compressibility (1/GPa) = 0.02661641
#
# Stress axis : x y z
#
# Youngs Moduli (GPa) = 62.97173 56.01511 54.24265
#
# Poissons Ratio (x) = -0.02189 0.34138
# Poissons Ratio (y) = -0.02461 0.37281
# Poissons Ratio (z) = 0.39632 0.38499
#
# Static dielectric constant tensor:
#      x y z
#    x 1.694290 0.000000 -0.019790 
#    y 0.000000 1.698240 0.000000 
#    z -0.019790 0.000000 1.697760 
# 
# From -- ./inp_files/97736.got.cif
#   From: 2010.05.17/outbox.cif.g08.bks.cpg/sg12_49_cif.got.tgz:97736.got - 2010.06.03 13:09:07.
