data_PCOD9202934
_publ_section_title
;
Structure prediction by ZEFSAII (Michael W. Deem and Ramdas Pophale) SiO2 
 PCOD9202934
Probable space group: C 2/M
;
_chemical_formula_sum "Si O2"
_cell_formula_units_Z 48
_cell_length_a 14.390769
_cell_length_b 16.356117
_cell_length_c 9.521298
_cell_angle_alpha 90.000000
_cell_angle_beta 90.068204
_cell_angle_gamma 90.000000
_cell_volume 2241.093938
_symmetry_space_group_name_H-M "C 2/M"
_symmetry_group_IT_number 12
_symmetry_cell_setting 'monoclinic'
loop_
_space_group_symop_operation_xyz
x,y,z
-x,y,-z
-x,-y,-z
x,-y,z
1/2+x,1/2+y,z
1/2-x,1/2+y,-z
1/2-x,1/2-y,-z
1/2+x,1/2-y,z
loop_
_atom_site_type_symbol
_atom_site_label
_atom_site_fract_x
_atom_site_fract_y
_atom_site_fract_z
Si Si1 0.693515 0.282619 0.867876
Si Si2 0.479450 0.834416 0.160481
Si Si3 0.442527 0.411094 0.141669
Si Si4 0.398786 0.089547 0.428292
Si Si5 0.651116 0.229110 0.359161
Si Si6 0.922494 0.094564 0.618413
O O1 0.594472 0.237968 0.860285
O O2 0.657956 0.374122 0.884437
O O3 0.755000 0.274493 0.730156
O O4 0.750000 0.250000 0.000000
O O5 0.422617 0.894200 0.265030
O O6 0.569860 0.803481 0.249302
O O7 0.500000 0.863535 0.000000
O O8 0.425456 0.500000 0.203723
O O9 0.518160 0.376206 0.247698
O O10 0.500000 0.414595 0.000000
O O11 0.500000 0.085478 0.500000
O O12 0.352264 0.165699 0.510157
O O13 0.353259 0.000000 0.446943
O O14 0.638479 0.323818 0.407462
O O15 0.000000 0.089405 0.500000
O O16 0.884732 0.000000 0.637500
#
# Coordination Sequence:
#
# PCOD9202934 Si02
#       6
#     8   8   8   8   8   8
#     4  12  23  37  63  96 125 165 218 261 321 389
#     4  11  21  40  64  89 125 166 218 265 320 384
#     4  10  21  39  63  90 125 165 209 264 323 382
#     4   9  21  41  64  90 124 171 218 262 320 387
#     4  11  22  39  66  92 130 170 208 271 327 388
#     4  10  20  38  64  94 126 162 207 262 327 389
#
# _framework density 21.418111
#
# number of rings (size 3 to 8) (size 9 to 14) (size 15 to 20)
#    0.000    1.500    3.333    3.000    0.000    1.667 
#    0.000    1.667    0.000    0.000    0.000    0.000 
#    0.000    0.000    0.000    0.000    0.000    0.000 
#
# Total GULP energy -133662.851727 kJ/mol
# GULP energy per Si atom -5569.285489 kJ/mol
# Density = 2.136936 g / cm^3
# Si number density = 21.418111 Si / 1000 Ang^3
#
#
#
# Elastic Constant Matrix: (Units=GPa)
#
#
# Indices 1 2 3 4 5 6 
#
# 1 70.0598 25.3891 27.3976 0.0000 -7.9479 0.0000
# 2 25.3891 135.2745 44.3180 0.0000 -13.7152 0.0000
# 3 27.3976 44.3180 137.4175 0.0000 -19.0209 0.0000
# 4 0.0000 0.0000 0.0000 24.1719 0.0000 -8.6202
# 5 -7.9479 -13.7152 -19.0209 0.0000 37.3063 0.0000
# 6 0.0000 0.0000 0.0000 -8.6202 0.0000 14.4062
#
#
#
# Elastic Compliance Matrix: (Units=1/GPa)
#
#
# Indices 1 2 3 4 5 6 
#
# 1 0.016116 -0.002113 -0.002328 0.000000 0.001470 0.000000
# 2 -0.002113 0.008658 -0.002144 0.000000 0.001640 0.000000
# 3 -0.002328 -0.002144 0.008882 0.000000 0.003244 0.000000
# 4 0.000000 0.000000 0.000000 0.052593 0.000000 0.031470
# 5 0.001470 0.001640 0.003244 0.000000 0.029375 0.000000
# 6 0.000000 0.000000 0.000000 0.031470 0.000000 0.088245
#
#
# Mechanical properties :
#
#
# Convention : Reuss Voigt Hill
#
# Bulk Modulus (GPa) = 48.81548 59.66237 54.23892
# Shear Modulus (GPa) = 22.33455 31.55335 26.94395
#
# Velocity S-wave (km/s) = 3.23273 3.84240 3.55068
# Velocity P-wave (km/s) = 6.06425 6.89942 6.49527
#
# Compressibility (1/GPa) = 0.02048531
#
# Stress axis : x y z
#
# Youngs Moduli (GPa) = 62.04821 115.50579 112.59007
#
# Poissons Ratio (x) = 0.24407 0.26215
# Poissons Ratio (y) = 0.13111 0.24138
# Poissons Ratio (z) = 0.14447 0.24763
#
# Static dielectric constant tensor:
#      x y z
#    x 1.791780 0.000000 0.052590 
#    y 0.000000 1.978070 0.000000 
#    z 0.052590 0.000000 1.776180 
# 
# From -- ./inp_files/61678.got.cif
#   From: 2010.05.17/outbox.cif.g08.bks.cpg/sg12_31_cif.got.tgz:61678.got - 2010.06.03 13:09:07.
