data_PCOD9202912
_publ_section_title
;
Structure prediction by ZEFSAII (Michael W. Deem and Ramdas Pophale) SiO2 
 PCOD9202912
Probable space group: C 2/M
;
_chemical_formula_sum "Si O2"
_cell_formula_units_Z 42
_cell_length_a 14.277203
_cell_length_b 12.486574
_cell_length_c 15.226583
_cell_angle_alpha 90.000000
_cell_angle_beta 131.588545
_cell_angle_gamma 90.000000
_cell_volume 2030.253694
_symmetry_space_group_name_H-M "C 2/M"
_symmetry_group_IT_number 12
_symmetry_cell_setting 'monoclinic'
loop_
_space_group_symop_operation_xyz
x,y,z
-x,y,-z
-x,-y,-z
x,-y,z
1/2+x,1/2+y,z
1/2-x,1/2+y,-z
1/2-x,1/2-y,-z
1/2+x,1/2-y,z
loop_
_atom_site_type_symbol
_atom_site_label
_atom_site_fract_x
_atom_site_fract_y
_atom_site_fract_z
Si Si1 0.412566 0.126469 0.650526
Si Si2 0.225229 0.838932 0.693734
Si Si3 0.648183 0.879024 0.576044
Si Si4 0.859878 0.312029 0.950181
Si Si5 0.500000 0.500000 0.500000
Si Si6 0.321683 0.876727 0.123415
O O1 0.330583 0.138824 0.686002
O O2 0.342572 0.162277 0.518708
O O3 0.552247 0.170057 0.752359
O O4 0.430198 0.000000 0.646265
O O5 0.203525 0.711073 0.672730
O O6 0.276619 0.864787 0.821900
O O7 0.103000 0.906309 0.592572
O O8 0.500000 0.885092 0.500000
O O9 0.699913 0.000000 0.617713
O O10 0.797290 0.196530 0.930692
O O11 0.851747 0.371891 0.038054
O O12 0.000000 0.304669 0.000000
O O13 0.302976 0.000000 0.138298
#
# Coordination Sequence:
#
# PCOD9202912 Si02
#       6
#     8   8   8   8   2   8
#     4  10  20  38  64  92 126 170 224 270 335 402
#     4  12  23  42  65  94 135 172 219 279 334 399
#     4  10  21  38  61  90 124 172 218 266 329 394
#     4  11  24  43  69  98 132 177 228 278 337 397
#     4  12  28  40  60 104 130 168 212 280 346 384
#     4  10  23  42  67  99 133 177 226 279 331 399
#
# _framework density 20.687071
#
# number of rings (size 3 to 8) (size 9 to 14) (size 15 to 20)
#    0.000    1.333    3.810    1.714    1.333    3.048 
#    0.000    0.000    0.000    0.000    0.000    0.000 
#    0.000    0.000    0.000    0.000    0.000    0.000 
#
# Total GULP energy -117022.259619 kJ/mol
# GULP energy per Si atom -5572.488553 kJ/mol
# Density = 2.063999 g / cm^3
# Si number density = 20.687071 Si / 1000 Ang^3
#
#
#
# Elastic Constant Matrix: (Units=GPa)
#
#
# Indices 1 2 3 4 5 6 
#
# 1 80.1050 8.2994 26.3057 0.0000 -4.8757 0.0000
# 2 8.2994 88.2757 27.1595 0.0000 10.2558 0.0000
# 3 26.3057 27.1595 90.6734 0.0000 2.9522 0.0000
# 4 0.0000 0.0000 0.0000 14.9581 0.0000 3.0043
# 5 -4.8757 10.2558 2.9522 0.0000 41.4532 0.0000
# 6 0.0000 0.0000 0.0000 3.0043 0.0000 18.0412
#
#
#
# Elastic Compliance Matrix: (Units=1/GPa)
#
#
# Indices 1 2 3 4 5 6 
#
# 1 0.013959 -0.000308 -0.004023 0.000000 0.002004 0.000000
# 2 -0.000308 0.012824 -0.003656 0.000000 -0.002949 0.000000
# 3 -0.004023 -0.003656 0.013308 0.000000 -0.000516 0.000000
# 4 0.000000 0.000000 0.000000 0.069167 0.000000 -0.011518
# 5 0.002004 -0.002949 -0.000516 0.000000 0.025126 0.000000
# 6 0.000000 0.000000 0.000000 -0.011518 0.000000 0.057347
#
#
# Mechanical properties :
#
#
# Convention : Reuss Voigt Hill
#
# Bulk Modulus (GPa) = 41.46310 42.50928 41.98619
# Shear Modulus (GPa) = 23.17588 28.04314 25.60951
#
# Velocity S-wave (km/s) = 3.35073 3.68582 3.52226
# Velocity P-wave (km/s) = 5.92084 6.22150 6.07303
#
# Compressibility (1/GPa) = 0.02411783
#
# Stress axis : x y z
#
# Youngs Moduli (GPa) = 71.64090 77.97578 75.14522
#
# Poissons Ratio (x) = 0.02398 0.30229
# Poissons Ratio (y) = 0.02203 0.27474
# Poissons Ratio (z) = 0.28819 0.28509
#
# Static dielectric constant tensor:
#      x y z
#    x 1.759060 0.000000 -0.061520 
#    y 0.000000 1.742290 0.000000 
#    z -0.061520 0.000000 1.783050 
# 
# From -- ./inp_files/270007.got.cif
#   From: 2010.05.17/outbox.cif.g08.bks.cpg/sg12_136_cif.got.tgz:270007.got - 2010.06.03 13:09:07.
