data_PCOD9202421
_publ_section_title
;
Structure prediction by ZEFSAII (Michael W. Deem and Ramdas Pophale) SiO2 
 PCOD9202421
Probable space group: C 2/M
;
_chemical_formula_sum "Si O2"
_cell_formula_units_Z 64
_cell_length_a 29.538843
_cell_length_b 7.708656
_cell_length_c 14.930046
_cell_angle_alpha 90.000000
_cell_angle_beta 47.601659
_cell_angle_gamma 90.000000
_cell_volume 2510.550779
_symmetry_space_group_name_H-M "C 2/M"
_symmetry_group_IT_number 12
_symmetry_cell_setting 'monoclinic'
loop_
_space_group_symop_operation_xyz
x,y,z
-x,y,-z
-x,-y,-z
x,-y,z
1/2+x,1/2+y,z
1/2-x,1/2+y,-z
1/2-x,1/2-y,-z
1/2+x,1/2-y,z
loop_
_atom_site_type_symbol
_atom_site_label
_atom_site_fract_x
_atom_site_fract_y
_atom_site_fract_z
Si Si1 0.901489 0.298761 0.877677
Si Si2 0.365199 0.705287 0.241638
Si Si3 0.861634 0.198237 0.741152
Si Si4 0.101875 0.709958 0.611447
Si Si5 0.042784 0.301985 0.517604
Si Si6 0.269179 0.706096 0.124594
Si Si7 0.764886 0.289440 0.627237
Si Si8 0.542401 0.799624 0.020328
O O1 0.917902 0.500000 0.845681
O O2 0.899952 0.218697 0.781318
O O3 0.831646 0.288166 0.006607
O O4 0.944603 0.224244 0.899005
O O5 0.364704 0.500000 0.224557
O O6 0.405404 0.741565 0.275748
O O7 0.295002 0.764024 0.349378
O O8 0.392893 0.796867 0.118160
O O9 0.891728 0.305579 0.620499
O O10 0.791754 0.253838 0.850847
O O11 0.862175 0.000000 0.712046
O O12 0.100942 0.500000 0.607311
O O13 0.054063 0.773495 0.600558
O O14 0.169531 0.775314 0.492908
O O15 0.020604 0.500000 0.558936
O O16 0.000000 0.214644 0.500000
O O17 0.279791 0.500000 0.110575
O O18 0.250743 0.760462 0.249904
O O19 0.768455 0.500000 0.619965
O O20 0.522043 0.000000 0.059467
O O21 0.500000 0.715446 0.000000
#
# Coordination Sequence:
#
# PCOD9202421 Si02
#       8
#     8   8   8   8   8   8   8   8
#     4  11  23  40  63  91 121 157 202 248 302 361
#     4  11  22  37  59  91 123 154 193 242 300 354
#     4  12  25  40  61  91 125 160 199 246 304 361
#     4  10  20  38  61  87 119 157 196 238 293 354
#     4  10  22  42  66  88 115 158 208 254 299 349
#     4  11  20  38  64  90 123 157 198 245 300 363
#     4   9  18  34  59  87 118 154 190 235 292 350
#     4  10  23  43  64  86 115 156 206 253 294 348
#
# _framework density 25.492414
#
# number of rings (size 3 to 8) (size 9 to 14) (size 15 to 20)
#    0.000    1.500    2.500    3.000    0.000    2.500 
#    0.000    5.625    0.000    0.000    0.000    0.000 
#    0.000    0.000    0.000    0.000    0.000    0.000 
#
# Total GULP energy -179079.357629 kJ/mol
# GULP energy per Si atom -5596.229926 kJ/mol
# Density = 2.543439 g / cm^3
# Si number density = 25.492414 Si / 1000 Ang^3
#
#
#
# Elastic Constant Matrix: (Units=GPa)
#
#
# Indices 1 2 3 4 5 6 
#
# 1 171.8551 -2.7404 25.2886 0.0000 30.1314 0.0001
# 2 -2.7404 69.5277 1.6104 0.0000 2.9188 0.0001
# 3 25.2886 1.6104 97.2139 -0.0001 16.2761 0.0000
# 4 0.0000 0.0000 -0.0001 16.4174 0.0000 4.1519
# 5 30.1314 2.9188 16.2761 0.0000 46.6124 0.0000
# 6 0.0001 0.0001 0.0000 4.1519 0.0000 6.9921
#
#
#
# Elastic Compliance Matrix: (Units=1/GPa)
#
#
# Indices 1 2 3 4 5 6 
#
# 1 0.006681 0.000455 -0.001081 0.000000 -0.003970 0.000000
# 2 0.000455 0.014452 -0.000167 0.000000 -0.001141 0.000000
# 3 -0.001081 -0.000167 0.011101 0.000000 -0.003167 0.000000
# 4 0.000000 0.000000 0.000000 0.071674 0.000000 -0.042560
# 5 -0.003970 -0.001141 -0.003167 0.000000 0.025197 0.000000
# 6 0.000000 0.000000 0.000000 -0.042560 0.000000 0.168290
#
#
# Mechanical properties :
#
#
# Convention : Reuss Voigt Hill
#
# Bulk Modulus (GPa) = 32.62726 42.99045 37.80885
# Shear Modulus (GPa) = 16.17089 34.96693 25.56891
#
# Velocity S-wave (km/s) = 2.52135 3.70761 3.17045
# Velocity P-wave (km/s) = 4.61550 5.93541 5.31658
#
# Compressibility (1/GPa) = 0.03064922
#
# Stress axis : x y z
#
# Youngs Moduli (GPa) = 149.67326 69.19241 90.08392
#
# Poissons Ratio (x) = -0.03148 0.09737
# Poissons Ratio (y) = -0.06811 0.01502
# Poissons Ratio (z) = 0.16178 0.01154
#
# Static dielectric constant tensor:
#      x y z
#    x 2.078740 0.000000 -0.038750 
#    y 0.000000 1.952920 0.000000 
#    z -0.038750 0.000000 1.991240 
# 
# From -- ./inp_files/249676.got.cif
#   From: 2010.05.17/outbox.cif.g08.bks.cpg/sg12_125_cif.got.tgz:249676.got - 2010.06.03 13:09:07.
