data_PCOD9202998
_publ_section_title
;
Structure prediction by ZEFSAII (Michael W. Deem and Ramdas Pophale) SiO2 
 PCOD9202998
Probable space group: C 2/M
;
_chemical_formula_sum "Si O2"
_cell_formula_units_Z 56
_cell_length_a 14.361498
_cell_length_b 18.196465
_cell_length_c 17.324344
_cell_angle_alpha 90.000000
_cell_angle_beta 141.878231
_cell_angle_gamma 90.000000
_cell_volume 2794.887557
_symmetry_space_group_name_H-M "C 2/M"
_symmetry_group_IT_number 12
_symmetry_cell_setting 'monoclinic'
loop_
_space_group_symop_operation_xyz
x,y,z
-x,y,-z
-x,-y,-z
x,-y,z
1/2+x,1/2+y,z
1/2-x,1/2+y,-z
1/2-x,1/2-y,-z
1/2+x,1/2-y,z
loop_
_atom_site_type_symbol
_atom_site_label
_atom_site_fract_x
_atom_site_fract_y
_atom_site_fract_z
Si Si1 0.315690 0.229107 0.460245
Si Si2 0.182542 0.419413 0.614231
Si Si3 0.024541 0.581785 0.108695
Si Si4 0.605679 0.252259 0.729592
Si Si5 0.927100 0.734714 0.117768
Si Si6 0.844875 0.135658 0.359966
Si Si7 0.879034 0.844384 0.862585
O O1 0.250000 0.250000 0.500000
O O2 0.262628 0.149516 0.399866
O O3 0.493910 0.218097 0.593367
O O4 0.300310 0.294225 0.386707
O O5 0.224569 0.500000 0.611831
O O6 0.270771 0.403231 0.751313
O O7 0.000000 0.418432 0.500000
O O8 0.965637 0.500000 0.090018
O O9 0.198650 0.586179 0.251300
O O10 0.952245 0.652623 0.102382
O O11 0.000000 0.590650 0.000000
O O12 0.534857 0.243908 0.767206
O O13 0.622406 0.333161 0.704738
O O14 0.765542 0.211948 0.831196
O O15 0.024303 0.792900 0.132388
O O16 0.750000 0.750000 0.000000
O O17 0.000000 0.106613 0.500000
O O18 0.000000 0.877431 0.000000
#
# Coordination Sequence:
#
# PCOD9202998 Si02
#       7
#     8   8   8   8   8   8   8
#     4  11  20  37  64  93 125 162 213 266 309 373
#     4  11  22  40  63  90 128 170 207 254 323 387
#     4  11  23  41  63  92 130 168 210 265 327 381
#     4  11  20  36  63  95 123 156 217 260 309 367
#     4  12  23  38  66  95 124 169 219 265 315 383
#     4  10  20  38  65  91 124 163 208 261 314 376
#     4  12  22  40  64  93 125 164 219 265 316 374
#
# _framework density 20.036584999999999
#
# number of rings (size 3 to 8) (size 9 to 14) (size 15 to 20)
#    0.000    0.857    5.714    3.429    0.000    0.571 
#    0.000    4.286    0.000    8.571    0.000    0.000 
#    0.000    0.000    0.000    0.000    0.000    0.000 
#
# Total GULP energy -156134.083066 kJ/mol
# GULP energy per Si atom -5576.217252 kJ/mol
# Density = 1.999098 g / cm^3
# Si number density = 20.036585 Si / 1000 Ang^3
#
#
#
# Elastic Constant Matrix: (Units=GPa)
#
#
# Indices 1 2 3 4 5 6 
#
# 1 87.1881 37.3734 17.4547 -0.0002 -9.9927 -0.0001
# 2 37.3734 107.4493 37.8895 -0.0004 -4.4927 -0.0002
# 3 17.4547 37.8895 142.1723 -0.0007 6.4519 -0.0006
# 4 -0.0002 -0.0004 -0.0007 9.2396 -0.0003 3.3700
# 5 -9.9927 -4.4927 6.4519 -0.0003 37.6936 -0.0002
# 6 -0.0001 -0.0002 -0.0006 3.3700 -0.0002 17.2963
#
#
#
# Elastic Compliance Matrix: (Units=1/GPa)
#
#
# Indices 1 2 3 4 5 6 
#
# 1 0.013888 -0.004460 -0.000665 0.000000 0.003264 0.000000
# 2 -0.004460 0.011814 -0.002632 0.000000 0.000676 0.000000
# 3 -0.000665 -0.002632 0.007900 0.000000 -0.001842 0.000000
# 4 0.000000 0.000000 0.000000 0.116509 0.000001 -0.022701
# 5 0.003264 0.000676 -0.001842 0.000001 0.027791 0.000000
# 6 0.000000 0.000000 0.000000 -0.022701 0.000000 0.062239
#
#
# Mechanical properties :
#
#
# Convention : Reuss Voigt Hill
#
# Bulk Modulus (GPa) = 55.27769 58.02720 56.65245
# Shear Modulus (GPa) = 19.10698 29.11873 24.11285
#
# Velocity S-wave (km/s) = 3.09140 3.81632 3.47283
# Velocity P-wave (km/s) = 6.35536 6.96007 6.66458
#
# Compressibility (1/GPa) = 0.01809048
#
# Stress axis : x y z
#
# Youngs Moduli (GPa) = 72.00282 84.64366 126.57793
#
# Poissons Ratio (x) = 0.37750 0.08413
# Poissons Ratio (y) = 0.32112 0.33311
# Poissons Ratio (z) = 0.04786 0.22276
#
# Static dielectric constant tensor:
#      x y z
#    x 1.733250 0.000000 -0.007780 
#    y 0.000000 1.688110 0.000000 
#    z -0.007780 0.000000 1.866340 
# 
# From -- ./inp_files/271451.got.cif
#   From: 2010.05.17/outbox.cif.g08.bks.cpg/sg12_136_cif.got.tgz:271451.got - 2010.06.03 13:09:07.
