data_PCOD9202170
_publ_section_title
;
Structure prediction by ZEFSAII (Michael W. Deem and Ramdas Pophale) SiO2 
 PCOD9202170
Probable space group: C 2/M
;
_chemical_formula_sum "Si O2"
_cell_formula_units_Z 46
_cell_length_a 13.634177
_cell_length_b 21.695035
_cell_length_c 7.907415
_cell_angle_alpha 90.000000
_cell_angle_beta 124.178162
_cell_angle_gamma 90.000000
_cell_volume 1935.013873
_symmetry_space_group_name_H-M "C 2/M"
_symmetry_group_IT_number 12
_symmetry_cell_setting 'monoclinic'
loop_
_space_group_symop_operation_xyz
x,y,z
-x,y,-z
-x,-y,-z
x,-y,z
1/2+x,1/2+y,z
1/2-x,1/2+y,-z
1/2-x,1/2-y,-z
1/2+x,1/2-y,z
loop_
_atom_site_type_symbol
_atom_site_label
_atom_site_fract_x
_atom_site_fract_y
_atom_site_fract_z
Si Si1 0.000000 0.257427 0.000000
Si Si2 0.336909 0.146201 0.009789
Si Si3 0.077775 0.599677 0.344228
Si Si4 0.813335 0.072211 0.358694
Si Si5 0.404298 0.318446 0.628703
Si Si6 0.175197 0.706298 0.637523
Si Si7 0.000000 0.500000 0.500000
O O1 0.003869 0.213831 0.838305
O O2 0.110739 0.304705 0.077314
O O3 0.446074 0.097390 0.138928
O O4 0.319590 0.182509 0.167826
O O5 0.219763 0.108821 0.844390
O O6 0.185583 0.581787 0.328342
O O7 0.086509 0.666889 0.433752
O O8 0.085537 0.553193 0.505608
O O9 0.905218 0.112209 0.560211
O O10 0.840181 0.000000 0.367622
O O11 0.297101 0.309222 0.659408
O O12 0.367444 0.275678 0.434303
#
# Coordination Sequence:
#
# PCOD9202170 Si02
#       7
#     4   8   8   8   8   8   2
#     4  12  22  38  62  88 116 150 208 256 308 348
#     4  12  21  34  60  93 120 156 193 249 305 370
#     4  11  20  33  54  89 126 164 196 238 293 369
#     4  11  24  39  57  84 128 166 197 242 302 362
#     4  10  23  41  58  85 117 160 202 259 296 352
#     4  10  20  38  59  85 125 154 202 246 302 352
#     4  12  20  28  54  88 132 170 198 224 300 372
#
# _framework density 23.772438999999999
#
# number of rings (size 3 to 8) (size 9 to 14) (size 15 to 20)
#    0.000    1.043    6.087    2.087    1.217    3.478 
#    0.000    0.435    0.000    0.000    0.000    6.087 
#    0.000    0.000    0.000    0.000    0.000    0.000 
#
# Total GULP energy -128220.742167 kJ/mol
# GULP energy per Si atom -5574.814877 kJ/mol
# Density = 2.371833 g / cm^3
# Si number density = 23.772439 Si / 1000 Ang^3
#
#
#
# Elastic Constant Matrix: (Units=GPa)
#
#
# Indices 1 2 3 4 5 6 
#
# 1 60.0594 -4.8463 7.5887 0.0000 -21.4939 0.0000
# 2 -4.8463 175.2335 59.3902 0.0000 -6.7261 0.0000
# 3 7.5887 59.3902 82.8831 0.0000 -15.4214 0.0000
# 4 0.0000 0.0000 0.0000 462.0714 0.0000 -252.0811
# 5 -21.4939 -6.7261 -15.4214 0.0000 44.0774 0.0000
# 6 0.0000 0.0000 0.0000 -252.0811 0.0000 165.5937
#
#
#
# Elastic Compliance Matrix: (Units=1/GPa)
#
#
# Indices 1 2 3 4 5 6 
#
# 1 0.020378 0.001260 -0.000946 0.000000 0.009799 0.000000
# 2 0.001260 0.007641 -0.005625 0.000000 -0.000188 0.000000
# 3 -0.000946 -0.005625 0.017047 0.000000 0.004645 0.000000
# 4 0.000000 0.000000 0.000000 0.012766 0.000000 0.019434
# 5 0.009799 -0.000188 0.004645 0.000000 0.029062 0.000000
# 6 0.000000 0.000000 0.000000 0.019434 0.000000 0.035623
#
#
# Mechanical properties :
#
#
# Convention : Reuss Voigt Hill
#
# Bulk Modulus (GPa) = 29.03256 49.16014 39.09635
# Shear Modulus (GPa) = 34.57338 151.41805 92.99572
#
# Velocity S-wave (km/s) = 3.81773 7.98956 6.26131
# Velocity P-wave (km/s) = 5.62784 10.28762 8.29179
#
# Compressibility (1/GPa) = 0.03444408
#
# Stress axis : x y z
#
# Youngs Moduli (GPa) = 49.07239 130.87489 58.66183
#
# Poissons Ratio (x) = -0.16493 0.05547
# Poissons Ratio (y) = -0.06184 0.33000
# Poissons Ratio (z) = 0.04640 0.73622
#
# Static dielectric constant tensor:
#      x y z
#    x 1.983600 0.000000 0.014410 
#    y 0.000000 1.883120 0.000000 
#    z 0.014410 0.000000 2.110440 
# 
# From -- ./inp_files/77742.got.cif
#   From: 2010.05.17/outbox.cif.g08.bks.cpg/sg12_39_cif.got.tgz:77742.got - 2010.06.03 13:09:07.
