data_PCOD9202537
_publ_section_title
;
Structure prediction by ZEFSAII (Michael W. Deem and Ramdas Pophale) SiO2 
 PCOD9202537
Probable space group: C 2/M
;
_chemical_formula_sum "Si O2"
_cell_formula_units_Z 64
_cell_length_a 31.517378
_cell_length_b 8.840345
_cell_length_c 19.971887
_cell_angle_alpha 90.000000
_cell_angle_beta 37.782832
_cell_angle_gamma 90.000000
_cell_volume 3409.299839
_symmetry_space_group_name_H-M "C 2/M"
_symmetry_group_IT_number 12
_symmetry_cell_setting 'monoclinic'
loop_
_space_group_symop_operation_xyz
x,y,z
-x,y,-z
-x,-y,-z
x,-y,z
1/2+x,1/2+y,z
1/2-x,1/2+y,-z
1/2-x,1/2-y,-z
1/2+x,1/2-y,z
loop_
_atom_site_type_symbol
_atom_site_label
_atom_site_fract_x
_atom_site_fract_y
_atom_site_fract_z
Si Si1 0.300840 0.319877 0.991424
Si Si2 0.958872 0.175327 0.754298
Si Si3 0.051643 0.324080 0.744816
Si Si4 0.190332 0.821134 0.529283
Si Si5 0.307042 0.682761 0.138152
Si Si6 0.545092 0.818634 0.007530
Si Si7 0.036823 0.178293 0.520786
Si Si8 0.679536 0.818534 0.394353
O O1 0.288981 0.500000 0.007223
O O2 0.379244 0.293414 0.869129
O O3 0.250000 0.250000 0.000000
O O4 0.294913 0.265643 0.076108
O O5 0.006124 0.289000 0.736663
O O6 0.981282 0.187956 0.649763
O O7 0.973114 0.000000 0.757466
O O8 0.072306 0.500000 0.722100
O O9 0.118690 0.221009 0.654954
O O10 0.002698 0.289182 0.868464
O O11 0.250000 0.750000 0.500000
O O12 0.188658 0.751209 0.456834
O O13 0.198691 0.000000 0.513481
O O14 0.311370 0.500000 0.131411
O O15 0.243263 0.725009 0.266052
O O16 0.379950 0.744816 0.075044
O O17 0.555110 0.000000 0.989139
O O18 0.500000 0.767312 0.000000
O O19 0.107024 0.261611 0.454168
O O20 0.000000 0.236664 0.500000
O O21 0.053674 0.000000 0.490345
O O22 0.678546 0.000000 0.401191
#
# Coordination Sequence:
#
# PCOD9202537 Si02
#       8
#     8   8   8   8   8   8   8   8
#     4  10  22  39  60  88 122 160 205 253 303 363
#     4  10  20  38  62  86 118 159 205 256 305 362
#     4  11  22  39  64  93 124 158 202 256 306 361
#     4  12  26  44  66  92 124 163 205 252 307 368
#     4  10  23  42  61  87 124 163 203 251 304 363
#     4  10  23  41  62  92 124 159 204 250 298 357
#     4  10  22  39  61  90 121 162 210 253 307 367
#     4  11  24  42  62  91 126 162 207 256 311 367
#
# _framework density 18.772182999999998
#
# number of rings (size 3 to 8) (size 9 to 14) (size 15 to 20)
#    0.000    1.500    2.500    1.875    3.500    3.000 
#    0.000    0.000    0.000    0.000    0.000    0.000 
#    0.000    0.000    0.000    0.000    0.000    0.000 
#
# Total GULP energy -178755.024706 kJ/mol
# GULP energy per Si atom -5586.094522 kJ/mol
# Density = 1.872946 g / cm^3
# Si number density = 18.772183 Si / 1000 Ang^3
#
#
#
# Elastic Constant Matrix: (Units=GPa)
#
#
# Indices 1 2 3 4 5 6 
#
# 1 123.0905 38.9889 40.4251 -0.0122 1.2608 0.0077
# 2 38.9889 51.7191 46.7320 0.0142 -3.9737 -0.0021
# 3 40.4251 46.7320 95.0064 -0.0106 -3.8167 0.0072
# 4 -0.0122 0.0142 -0.0106 23.2779 0.0022 -8.4690
# 5 1.2608 -3.9737 -3.8167 0.0022 23.7148 -0.0015
# 6 0.0077 -0.0021 0.0072 -8.4690 -0.0015 31.7445
#
#
#
# Elastic Compliance Matrix: (Units=1/GPa)
#
#
# Indices 1 2 3 4 5 6 
#
# 1 0.010822 -0.007340 -0.001074 0.000010 -0.001978 0.000000
# 2 -0.007340 0.040010 -0.016378 -0.000037 0.004458 -0.000001
# 3 -0.001074 -0.016378 0.019054 0.000018 0.000379 0.000000
# 4 0.000010 -0.000037 0.000018 0.047577 -0.000007 0.012693
# 5 -0.001978 0.004458 0.000379 -0.000007 0.043081 0.000001
# 6 0.000000 -0.000001 0.000000 0.012693 0.000001 0.034888
#
#
# Mechanical properties :
#
#
# Convention : Reuss Voigt Hill
#
# Bulk Modulus (GPa) = 49.25580 58.01200 53.63390
# Shear Modulus (GPa) = 19.85844 25.32543 22.59193
#
# Velocity S-wave (km/s) = 3.25601 3.67699 3.47288
# Velocity P-wave (km/s) = 6.35855 6.99980 6.68687
#
# Compressibility (1/GPa) = 0.02030218
#
# Stress axis : x y z
#
# Youngs Moduli (GPa) = 92.40477 24.99394 52.48319
#
# Poissons Ratio (x) = 0.18346 0.05636
# Poissons Ratio (y) = 0.67825 0.85956
# Poissons Ratio (z) = 0.09922 0.40935
#
# Static dielectric constant tensor:
#      x y z
#    x 1.634500 -0.000010 0.027840 
#    y -0.000010 1.640200 -0.000010 
#    z 0.027840 -0.000010 1.599940 
# 
# From -- ./inp_files/295573.got.cif
#   From: 2010.05.17/outbox.cif.g08.bks.cpg/sg12_148_cif.got.tgz:295573.got - 2010.06.03 13:09:07.
