data_PCOD9202901
_publ_section_title
;
Structure prediction by ZEFSAII (Michael W. Deem and Ramdas Pophale) SiO2 
 PCOD9202901
Probable space group: C 2/M
;
_chemical_formula_sum "Si O2"
_cell_formula_units_Z 58
_cell_length_a 14.505899
_cell_length_b 18.919540
_cell_length_c 10.936158
_cell_angle_alpha 90.000000
_cell_angle_beta 91.216603
_cell_angle_gamma 90.000000
_cell_volume 3000.696595
_symmetry_space_group_name_H-M "C 2/M"
_symmetry_group_IT_number 12
_symmetry_cell_setting 'monoclinic'
loop_
_space_group_symop_operation_xyz
x,y,z
-x,y,-z
-x,-y,-z
x,-y,z
1/2+x,1/2+y,z
1/2-x,1/2+y,-z
1/2-x,1/2-y,-z
1/2+x,1/2-y,z
loop_
_atom_site_type_symbol
_atom_site_label
_atom_site_fract_x
_atom_site_fract_y
_atom_site_fract_z
Si Si1 0.349555 0.706273 0.816683
Si Si2 0.237742 0.082915 0.046505
Si Si3 0.313685 0.581938 0.240393
Si Si4 0.600448 0.811539 0.966384
Si Si5 0.198832 0.288883 0.607921
Si Si6 0.052615 0.211567 0.736983
Si Si7 0.678837 0.923074 0.456315
Si Si8 0.000000 0.500000 0.500000
O O1 0.336480 0.630933 0.883989
O O2 0.356991 0.767284 0.919453
O O3 0.261967 0.719447 0.728941
O O4 0.442859 0.706434 0.740182
O O5 0.239378 0.000000 0.080761
O O6 0.218630 0.087412 0.900741
O O7 0.333147 0.125007 0.070454
O O8 0.340018 0.500000 0.261258
O O9 0.396823 0.636092 0.262802
O O10 0.230551 0.598859 0.333245
O O11 0.500000 0.839819 0.000000
O O12 0.581971 0.754306 0.860061
O O13 0.250000 0.250000 0.500000
O O14 0.098812 0.256179 0.629975
O O15 0.193322 0.369241 0.565665
O O16 0.570179 0.939440 0.443466
O O17 0.718846 0.000000 0.492311
#
# Coordination Sequence:
#
# PCOD9202901 Si02
#       8
#     8   8   8   8   8   8   8   2
#     4  11  24  40  65  91 128 168 209 264 332 367
#     4  11  22  38  65  95 126 167 210 259 323 387
#     4  10  20  38  64  91 126 165 212 259 316 381
#     4  10  21  41  63  90 125 166 207 261 329 383
#     4  12  24  40  64  93 125 166 218 270 303 384
#     4  11  22  41  65  95 123 166 214 266 319 387
#     4   9  21  42  61  90 127 168 209 260 320 372
#     4   8  20  44  68  84 120 182 216 252 324 384
#
# _framework density 19.328844
#
# number of rings (size 3 to 8) (size 9 to 14) (size 15 to 20)
#    0.414    1.103    4.138    1.241    0.000    3.034 
#    2.483    1.379    0.000    1.655    0.000    0.000 
#    0.000    0.000    0.000    0.000    0.000    0.000 
#
# Total GULP energy -161513.525281 kJ/mol
# GULP energy per Si atom -5569.431906 kJ/mol
# Density = 1.928485 g / cm^3
# Si number density = 19.328844 Si / 1000 Ang^3
#
#
#
# Elastic Constant Matrix: (Units=GPa)
#
#
# Indices 1 2 3 4 5 6 
#
# 1 106.3911 30.6075 19.9918 0.0000 -35.7391 0.0000
# 2 30.6075 94.3341 5.5919 0.0000 -6.9986 0.0000
# 3 19.9918 5.5919 34.6509 0.0000 -13.5972 0.0000
# 4 0.0000 0.0000 0.0000 31.4564 0.0000 -10.2885
# 5 -35.7391 -6.9986 -13.5972 0.0000 30.4533 0.0000
# 6 0.0000 0.0000 0.0000 -10.2885 0.0000 24.6692
#
#
#
# Elastic Compliance Matrix: (Units=1/GPa)
#
#
# Indices 1 2 3 4 5 6 
#
# 1 0.017057 -0.004065 -0.002057 0.000000 0.018165 0.000000
# 2 -0.004065 0.011778 -0.000443 0.000000 -0.002261 0.000000
# 3 -0.002057 -0.000443 0.035318 0.000000 0.013253 0.000000
# 4 0.000000 0.000000 0.000000 0.036811 0.000000 0.015352
# 5 0.018165 -0.002261 0.013253 0.000000 0.059553 0.000000
# 6 0.000000 0.000000 0.000000 0.015352 0.000000 0.046939
#
#
# Mechanical properties :
#
#
# Convention : Reuss Voigt Hill
#
# Bulk Modulus (GPa) = 19.59856 38.63984 29.11920
# Shear Modulus (GPa) = 21.04419 29.26143 25.15281
#
# Velocity S-wave (km/s) = 3.30319 3.89507 3.61128
# Velocity P-wave (km/s) = 4.97088 6.34531 5.69968
#
# Compressibility (1/GPa) = 0.05102416
#
# Stress axis : x y z
#
# Youngs Moduli (GPa) = 58.62564 84.90434 28.31393
#
# Poissons Ratio (x) = 0.34512 0.05824
# Poissons Ratio (y) = 0.23830 0.01254
# Poissons Ratio (z) = 0.12060 0.03760
#
# Static dielectric constant tensor:
#      x y z
#    x 1.678530 0.000000 -0.021110 
#    y 0.000000 1.700260 0.000000 
#    z -0.021110 0.000000 1.686240 
# 
# From -- ./inp_files/145570.got.cif
#   From: 2010.05.17/outbox.cif.g08.bks.cpg/sg12_73_cif.got.tgz:145570.got - 2010.06.03 13:09:07.
