data_PCOD9202649
_publ_section_title
;
Structure prediction by ZEFSAII (Michael W. Deem and Ramdas Pophale) SiO2 
 PCOD9202649
Probable space group: C 2/M
;
_chemical_formula_sum "Si O2"
_cell_formula_units_Z 32
_cell_length_a 6.934631
_cell_length_b 27.195550
_cell_length_c 11.015306
_cell_angle_alpha 90.000000
_cell_angle_beta 138.455981
_cell_angle_gamma 90.000000
_cell_volume 1377.714348
_symmetry_space_group_name_H-M "C 2/M"
_symmetry_group_IT_number 12
_symmetry_cell_setting 'monoclinic'
loop_
_space_group_symop_operation_xyz
x,y,z
-x,y,-z
-x,-y,-z
x,-y,z
1/2+x,1/2+y,z
1/2-x,1/2+y,-z
1/2-x,1/2-y,-z
1/2+x,1/2-y,z
loop_
_atom_site_type_symbol
_atom_site_label
_atom_site_fract_x
_atom_site_fract_y
_atom_site_fract_z
Si Si1 0.536980 0.187859 0.843875
Si Si2 0.000000 0.397888 0.000000
Si Si3 0.500000 0.131243 0.500000
Si Si4 0.084314 0.943545 0.180183
Si Si5 0.370748 0.707553 0.754087
O O1 0.440940 0.136057 0.852620
O O2 0.320824 0.234074 0.726903
O O3 0.708309 0.187271 0.797447
O O4 0.787591 0.201712 0.061221
O O5 0.291353 0.428526 0.113456
O O6 0.657297 0.093523 0.664754
O O7 0.755568 0.171758 0.594711
O O8 0.163256 0.000000 0.242356
O O9 0.000000 0.938636 0.000000
#
# Coordination Sequence:
#
# PCOD9202649 Si02
#       5
#     8   4   4   8   8
#     4  10  20  38  62  93 139 185 223 271 330 411
#     4  12  21  42  74 102 134 188 227 280 346 414
#     4  12  23  42  72 104 138 184 225 288 350 402
#     4  11  26  49  74 101 135 179 234 294 352 408
#     4  10  21  37  61  96 139 183 226 269 334 404
#
# _framework density 23.226877000000002
#
# number of rings (size 3 to 8) (size 9 to 14) (size 15 to 20)
#    0.000    1.250    2.500    5.250    0.000    1.000 
#    0.000    3.750    0.000    9.000    0.000    0.000 
#    0.000    0.000    0.000    0.000    0.000    0.000 
#
# Total GULP energy -89280.662678 kJ/mol
# GULP energy per Si atom -5580.041417 kJ/mol
# Density = 2.317401 g / cm^3
# Si number density = 23.226877 Si / 1000 Ang^3
#
#
#
# Elastic Constant Matrix: (Units=GPa)
#
#
# Indices 1 2 3 4 5 6 
#
# 1 80.2072 32.9143 6.8915 0.0000 5.6559 0.0000
# 2 32.9143 191.2819 78.4312 0.0000 -2.4007 0.0000
# 3 6.8915 78.4312 116.7726 0.0000 5.2162 0.0000
# 4 0.0000 0.0000 0.0000 167.6078 0.0000 104.7848
# 5 5.6559 -2.4007 5.2162 0.0000 9.5912 0.0000
# 6 0.0000 0.0000 0.0000 104.7848 0.0000 115.2687
#
#
#
# Elastic Compliance Matrix: (Units=1/GPa)
#
#
# Indices 1 2 3 4 5 6 
#
# 1 0.014427 -0.003387 0.001887 0.000000 -0.010381 0.000000
# 2 -0.003387 0.008209 -0.005632 0.000000 0.007114 0.000000
# 3 0.001887 -0.005632 0.012655 0.000000 -0.009405 0.000000
# 4 0.000000 0.000000 0.000000 0.013821 0.000000 -0.012564
# 5 -0.010381 0.007114 -0.009405 0.000000 0.117279 0.000000
# 6 0.000000 0.000000 0.000000 -0.012564 0.000000 0.020097
#
#
# Mechanical properties :
#
#
# Convention : Reuss Voigt Hill
#
# Bulk Modulus (GPa) = 47.55385 69.41507 58.48446
# Shear Modulus (GPa) = 24.06619 76.49518 50.28069
#
# Velocity S-wave (km/s) = 3.22240 5.74503 4.65775
# Velocity P-wave (km/s) = 5.86201 8.59987 7.35938
#
# Compressibility (1/GPa) = 0.02102879
#
# Stress axis : x y z
#
# Youngs Moduli (GPa) = 69.31275 121.81731 79.02082
#
# Poissons Ratio (x) = 0.41254 -0.14910
# Poissons Ratio (y) = 0.23473 0.44501
# Poissons Ratio (z) = -0.13078 0.68602
#
# Static dielectric constant tensor:
#      x y z
#    x 1.967830 0.000000 -0.039210 
#    y 0.000000 1.899430 0.000000 
#    z -0.039210 0.000000 1.987260 
# 
# From -- ./inp_files/200069.got.cif
#   From: 2010.05.17/outbox.cif.g08.bks.cpg/sg12_101_cif.got.tgz:200069.got - 2010.06.03 13:09:07.
