data_PCOD9202157
_publ_section_title
;
Structure prediction by ZEFSAII (Michael W. Deem and Ramdas Pophale) SiO2 
 PCOD9202157
Probable space group: C 2/M
;
_chemical_formula_sum "Si O2"
_cell_formula_units_Z 48
_cell_length_a 15.031100
_cell_length_b 12.218799
_cell_length_c 20.677761
_cell_angle_alpha 90.000000
_cell_angle_beta 144.955325
_cell_angle_gamma 90.000000
_cell_volume 2180.706967
_symmetry_space_group_name_H-M "C 2/M"
_symmetry_group_IT_number 12
_symmetry_cell_setting 'monoclinic'
loop_
_space_group_symop_operation_xyz
x,y,z
-x,y,-z
-x,-y,-z
x,-y,z
1/2+x,1/2+y,z
1/2-x,1/2+y,-z
1/2-x,1/2-y,-z
1/2+x,1/2-y,z
loop_
_atom_site_type_symbol
_atom_site_label
_atom_site_fract_x
_atom_site_fract_y
_atom_site_fract_z
Si Si1 0.845292 0.880882 0.365113
Si Si2 0.672713 0.628158 0.969983
Si Si3 0.678171 0.666528 0.255628
Si Si4 0.488791 0.701316 0.652806
Si Si5 0.206939 0.622111 0.821145
Si Si6 0.820692 0.617407 0.469021
O O1 0.708999 0.793971 0.288695
O O2 0.000000 0.859478 0.500000
O O3 0.901410 0.875168 0.324253
O O4 0.790107 0.000000 0.351623
O O5 0.731898 0.500000 0.988388
O O6 0.497977 0.632510 0.839555
O O7 0.750000 0.750000 0.000000
O O8 0.673373 0.628965 0.048682
O O9 0.723759 0.639348 0.209211
O O10 0.798217 0.617353 0.378774
O O11 0.583734 0.780477 0.756286
O O12 0.351090 0.637827 0.604752
O O13 0.419131 0.785898 0.558311
O O14 0.139128 0.500000 0.784179
O O15 0.880642 0.500000 0.525783
#
# Coordination Sequence:
#
# PCOD9202157 Si02
#       6
#     8   8   8   8   8   8
#     4  10  20  38  59  84 120 161 201 246 303 370
#     4  11  24  43  66  92 124 164 208 256 310 366
#     4  11  22  38  61  91 119 154 202 255 304 363
#     4  10  21  36  54  84 117 154 199 247 294 363
#     4  10  21  38  61  86 117 157 202 249 302 363
#     4  11  21  34  54  82 116 153 192 244 305 355
#
# _framework density 22.011209999999998
#
# number of rings (size 3 to 8) (size 9 to 14) (size 15 to 20)
#    0.000    1.500    1.667    4.000    0.000    2.000 
#    0.000    6.667    0.000    5.000    0.000    0.000 
#    0.000    0.000    0.000    0.000    0.000    0.000 
#
# Total GULP energy -133796.547229 kJ/mol
# GULP energy per Si atom -5574.856135 kJ/mol
# Density = 2.196111 g / cm^3
# Si number density = 22.011210 Si / 1000 Ang^3
#
#
#
# Elastic Constant Matrix: (Units=GPa)
#
#
# Indices 1 2 3 4 5 6 
#
# 1 39.2839 22.5057 0.4247 0.0000 -13.4249 0.0000
# 2 22.5057 144.5123 24.1152 0.0000 -3.2804 0.0000
# 3 0.4247 24.1152 99.1556 0.0002 -19.1824 0.0000
# 4 0.0000 0.0000 0.0002 26.6822 0.0001 -2.3709
# 5 -13.4249 -3.2804 -19.1824 0.0001 31.7433 0.0000
# 6 0.0000 0.0000 0.0000 -2.3709 0.0000 -5.5822
#
#
#
# Elastic Compliance Matrix: (Units=1/GPa)
#
#
# Indices 1 2 3 4 5 6 
#
# 1 0.034372 -0.005720 0.004464 0.000000 0.016643 0.000000
# 2 -0.005720 0.008168 -0.002567 0.000000 -0.003126 0.000000
# 3 0.004464 -0.002567 0.012461 0.000000 0.009153 0.000000
# 4 0.000000 0.000000 0.000000 0.036115 0.000000 -0.015339
# 5 0.016643 -0.003126 0.009153 0.000000 0.043749 0.000000
# 6 0.000000 0.000000 0.000000 -0.015339 0.000000 -0.172626
#
#
# Mechanical properties :
#
#
# Convention : Reuss Voigt Hill
#
# Bulk Modulus (GPa) = 21.11728 41.89367 31.50548
# Shear Modulus (GPa) = -348.92609 26.29574 -161.31517
#
# Velocity S-wave (km/s) = -12.60421 3.46012 -8.57011
# Velocity P-wave (km/s) = 14.21994 5.91925 9.14246
#
# Compressibility (1/GPa) = 0.04735457
#
# Stress axis : x y z
#
# Youngs Moduli (GPa) = 29.09346 122.42898 80.25077
#
# Poissons Ratio (x) = 0.70029 -0.35821
# Poissons Ratio (y) = 0.16641 0.20599
# Poissons Ratio (z) = -0.12986 0.31425
#
# Static dielectric constant tensor:
#      x y z
#    x 1.812220 0.000000 -0.020000 
#    y 0.000000 1.891110 0.000000 
#    z -0.020000 0.000000 1.789270 
# 
# From -- ./inp_files/153566.got.cif
#   From: 2010.05.17/outbox.cif.g08.bks.cpg/sg12_77_cif.got.tgz:153566.got - 2010.06.03 13:09:07.
