data_PCOD9202283
_publ_section_title
;
Structure prediction by ZEFSAII (Michael W. Deem and Ramdas Pophale) SiO2 
 PCOD9202283
Probable space group: C 2/M
;
_chemical_formula_sum "Si O2"
_cell_formula_units_Z 56
_cell_length_a 9.141754
_cell_length_b 22.513719
_cell_length_c 18.380183
_cell_angle_alpha 90.000000
_cell_angle_beta 130.345831
_cell_angle_gamma 90.000000
_cell_volume 2883.151512
_symmetry_space_group_name_H-M "C 2/M"
_symmetry_group_IT_number 12
_symmetry_cell_setting 'monoclinic'
loop_
_space_group_symop_operation_xyz
x,y,z
-x,y,-z
-x,-y,-z
x,-y,z
1/2+x,1/2+y,z
1/2-x,1/2+y,-z
1/2-x,1/2-y,-z
1/2+x,1/2-y,z
loop_
_atom_site_type_symbol
_atom_site_label
_atom_site_fract_x
_atom_site_fract_y
_atom_site_fract_z
Si Si1 0.778277 0.349015 0.413253
Si Si2 0.262248 0.240251 0.206754
Si Si3 0.296882 0.605176 0.453638
Si Si4 0.537744 0.624359 0.095027
Si Si5 0.667524 0.218228 0.333360
Si Si6 0.350775 0.069152 0.299530
Si Si7 0.776401 0.696766 0.948330
O O1 0.699934 0.381239 0.459395
O O2 0.692051 0.284301 0.372327
O O3 0.774343 0.390327 0.341332
O O4 0.000000 0.337111 0.500000
O O5 0.116863 0.192049 0.128155
O O6 0.450888 0.202740 0.286199
O O7 0.196038 0.276118 0.255911
O O8 0.315949 0.282466 0.157412
O O9 0.500000 0.574253 0.500000
O O10 0.296755 0.667914 0.410084
O O11 0.084234 0.578240 0.366692
O O12 0.703142 0.585488 0.186410
O O13 0.327624 0.635787 0.062196
O O14 0.500000 0.607454 0.000000
O O15 0.326113 0.000000 0.309172
O O16 0.750000 0.750000 0.000000
O O17 0.000000 0.689405 0.000000
#
# Coordination Sequence:
#
# PCOD9202283 Si02
#       7
#     8   8   8   8   8   8   8
#     4  10  20  38  60  87 121 168 208 250 314 379
#     4  12  19  31  54  85 130 168 196 233 306 376
#     4  11  23  37  63  98 128 161 202 264 326 379
#     4  12  23  40  61  87 124 166 215 261 310 374
#     4  12  20  33  56  92 133 164 194 251 314 388
#     4  11  25  46  66  87 122 173 225 264 306 373
#     4  12  20  32  55  90 125 164 202 253 311 378
#
# _framework density 19.423190000000002
#
# number of rings (size 3 to 8) (size 9 to 14) (size 15 to 20)
#    0.000    0.571    7.143    2.571    0.000    3.143 
#    0.000    0.000    0.000    0.429    0.000    0.000 
#    0.000    0.000    0.000    0.000    0.000    0.000 
#
# Total GULP energy -156114.192358 kJ/mol
# GULP energy per Si atom -5575.506870 kJ/mol
# Density = 1.937898 g / cm^3
# Si number density = 19.423190 Si / 1000 Ang^3
#
#
#
# Elastic Constant Matrix: (Units=GPa)
#
#
# Indices 1 2 3 4 5 6 
#
# 1 103.5652 1.0909 38.5694 0.0000 5.8523 0.0000
# 2 1.0909 48.6675 25.6940 0.0000 3.0310 0.0000
# 3 38.5694 25.6940 114.0355 0.0000 -7.3897 0.0000
# 4 0.0000 0.0000 0.0000 7.7931 0.0000 3.6544
# 5 5.8523 3.0310 -7.3897 0.0000 37.1205 0.0000
# 6 0.0000 0.0000 0.0000 3.6544 0.0000 11.4004
#
#
#
# Elastic Compliance Matrix: (Units=1/GPa)
#
#
# Indices 1 2 3 4 5 6 
#
# 1 0.011516 0.002362 -0.004617 0.000000 -0.002927 0.000000
# 2 0.002362 0.024138 -0.006473 0.000000 -0.003632 0.000000
# 3 -0.004617 -0.006473 0.012026 0.000000 0.003650 0.000000
# 4 0.000000 0.000000 0.000000 0.151019 0.000000 -0.048410
# 5 -0.002927 -0.003632 0.003650 0.000000 0.028424 0.000000
# 6 0.000000 0.000000 0.000000 -0.048410 0.000000 0.103234
#
#
# Mechanical properties :
#
#
# Convention : Reuss Voigt Hill
#
# Bulk Modulus (GPa) = 33.08667 44.10851 38.59759
# Shear Modulus (GPa) = 13.97089 24.65705 19.31397
#
# Velocity S-wave (km/s) = 2.68487 3.56682 3.15680
# Velocity P-wave (km/s) = 5.16555 6.30249 5.76213
#
# Compressibility (1/GPa) = 0.03022365
#
# Stress axis : x y z
#
# Youngs Moduli (GPa) = 86.83866 41.42819 83.15589
#
# Poissons Ratio (x) = -0.09783 0.38390
# Poissons Ratio (y) = -0.20507 0.53825
# Poissons Ratio (z) = 0.40090 0.26816
#
# Static dielectric constant tensor:
#      x y z
#    x 1.767280 0.000000 0.055040 
#    y 0.000000 1.692000 0.000000 
#    z 0.055040 0.000000 1.756050 
# 
# From -- ./inp_files/259257.got.cif
#   From: 2010.05.17/outbox.cif.g08.bks.cpg/sg12_130_cif.got.tgz:259257.got - 2010.06.03 13:09:07.
