data_PCOD9202036
_publ_section_title
;
Structure prediction by ZEFSAII (Michael W. Deem and Ramdas Pophale) SiO2 
 PCOD9202036
Probable space group: C 2/M
;
_chemical_formula_sum "Si O2"
_cell_formula_units_Z 56
_cell_length_a 9.314133
_cell_length_b 20.735164
_cell_length_c 14.669662
_cell_angle_alpha 90.000000
_cell_angle_beta 99.338709
_cell_angle_gamma 90.000000
_cell_volume 2795.603201
_symmetry_space_group_name_H-M "C 2/M"
_symmetry_group_IT_number 12
_symmetry_cell_setting 'monoclinic'
loop_
_space_group_symop_operation_xyz
x,y,z
-x,y,-z
-x,-y,-z
x,-y,z
1/2+x,1/2+y,z
1/2-x,1/2+y,-z
1/2-x,1/2-y,-z
1/2+x,1/2-y,z
loop_
_atom_site_type_symbol
_atom_site_label
_atom_site_fract_x
_atom_site_fract_y
_atom_site_fract_z
Si Si1 0.473326 0.326188 0.706174
Si Si2 0.882929 0.712829 0.563588
Si Si3 0.437961 0.239079 0.867906
Si Si4 0.786582 0.638722 0.721550
Si Si5 0.638132 0.573756 0.193684
Si Si6 0.728776 0.835676 0.943974
Si Si7 0.711079 0.571360 0.884372
O O1 0.439366 0.269570 0.634562
O O2 0.504014 0.293035 0.807382
O O3 0.615986 0.359864 0.684348
O O4 0.353606 0.379995 0.716983
O O5 0.750000 0.750000 0.500000
O O6 0.856377 0.653096 0.630521
O O7 0.000000 0.694953 0.500000
O O8 0.332225 0.199594 0.789521
O O9 0.567815 0.192284 0.911640
O O10 0.344459 0.278170 0.933443
O O11 0.795831 0.581474 0.796968
O O12 0.681728 0.500000 0.211994
O O13 0.730065 0.609330 0.125448
O O14 0.464829 0.572956 0.149038
O O15 0.747891 0.871276 0.042277
O O16 0.744941 0.500000 0.925216
#
# Coordination Sequence:
#
# PCOD9202036 Si02
#       7
#     8   8   8   8   8   8   8
#     4   9  18  35  57  86 121 154 190 242 300 355
#     4  11  21  35  60  91 123 146 179 239 308 373
#     4  10  21  36  54  86 126 159 197 246 307 348
#     4  10  20  38  57  84 118 155 193 240 302 359
#     4   9  19  37  60  83 115 163 212 249 286 341
#     4  11  21  37  56  88 122 162 208 252 292 345
#     4  10  22  41  61  83 116 165 213 251 288 342
#
# _framework density 20.031455999999999
#
# number of rings (size 3 to 8) (size 9 to 14) (size 15 to 20)
#    0.000    2.000    2.857    0.857    0.000    2.286 
#   12.857    2.143    0.000    1.714    0.000    0.000 
#    0.000    0.000    0.000    0.000    0.000    0.000 
#
# Total GULP energy -156017.355518 kJ/mol
# GULP energy per Si atom -5572.048411 kJ/mol
# Density = 1.998586 g / cm^3
# Si number density = 20.031456 Si / 1000 Ang^3
#
#
#
# Elastic Constant Matrix: (Units=GPa)
#
#
# Indices 1 2 3 4 5 6 
#
# 1 61.1619 13.7854 41.0699 0.0000 -28.6852 0.0000
# 2 13.7854 84.4721 29.8268 0.0000 -16.4884 0.0000
# 3 41.0699 29.8268 111.8090 0.0000 -38.7606 0.0000
# 4 0.0000 0.0000 0.0000 22.6889 0.0000 -7.4411
# 5 -28.6852 -16.4884 -38.7606 0.0000 32.5673 0.0000
# 6 0.0000 0.0000 0.0000 -7.4411 0.0000 17.8937
#
#
#
# Elastic Compliance Matrix: (Units=1/GPa)
#
#
# Indices 1 2 3 4 5 6 
#
# 1 0.028473 0.000693 -0.003112 0.000000 0.021726 0.000000
# 2 0.000693 0.013433 -0.002160 0.000000 0.004841 0.000000
# 3 -0.003112 -0.002160 0.015890 0.000000 0.015077 0.000000
# 4 0.000000 0.000000 0.000000 0.051035 0.000000 0.021223
# 5 0.021726 0.004841 0.015077 0.000000 0.070237 0.000000
# 6 0.000000 0.000000 0.000000 0.021223 0.000000 0.064711
#
#
# Mechanical properties :
#
#
# Convention : Reuss Voigt Hill
#
# Bulk Modulus (GPa) = 20.55997 47.42302 33.99149
# Shear Modulus (GPa) = 18.57707 26.14738 22.36223
#
# Velocity S-wave (km/s) = 3.04862 3.61684 3.34482
# Velocity P-wave (km/s) = 4.76217 6.41620 5.65004
#
# Compressibility (1/GPa) = 0.04863821
#
# Stress axis : x y z
#
# Youngs Moduli (GPa) = 35.12078 74.44566 62.93329
#
# Poissons Ratio (x) = -0.05159 0.19584
# Poissons Ratio (y) = -0.02434 0.13592
# Poissons Ratio (z) = 0.10929 0.16079
#
# Static dielectric constant tensor:
#      x y z
#    x 1.723990 0.000000 -0.020080 
#    y 0.000000 1.726360 0.000000 
#    z -0.020080 0.000000 1.758910 
# 
# From -- ./inp_files/197519.got.cif
#   From: 2010.05.17/outbox.cif.g08.bks.cpg/sg12_99_cif.got.tgz:197519.got - 2010.06.03 13:09:07.
