data_PCOD9202077
_publ_section_title
;
Structure prediction by ZEFSAII (Michael W. Deem and Ramdas Pophale) SiO2 
 PCOD9202077
Probable space group: C 2/M
;
_chemical_formula_sum "Si O2"
_cell_formula_units_Z 36
_cell_length_a 5.054394
_cell_length_b 27.749294
_cell_length_c 13.236618
_cell_angle_alpha 90.000000
_cell_angle_beta 75.696699
_cell_angle_gamma 90.000000
_cell_volume 1798.964180
_symmetry_space_group_name_H-M "C 2/M"
_symmetry_group_IT_number 12
_symmetry_cell_setting 'monoclinic'
loop_
_space_group_symop_operation_xyz
x,y,z
-x,y,-z
-x,-y,-z
x,-y,z
1/2+x,1/2+y,z
1/2-x,1/2+y,-z
1/2-x,1/2-y,-z
1/2+x,1/2-y,z
loop_
_atom_site_type_symbol
_atom_site_label
_atom_site_fract_x
_atom_site_fract_y
_atom_site_fract_z
Si Si1 0.797771 0.000000 0.424388
Si Si2 0.288176 0.370763 0.743275
Si Si3 0.970149 0.282108 0.117649
Si Si4 0.802958 0.055595 0.926092
Si Si5 0.841877 0.397368 0.621153
O O1 0.500000 0.000000 0.500000
O O2 0.802876 0.049946 0.364664
O O3 0.000000 0.000000 0.500000
O O4 0.158298 0.322180 0.799283
O O5 0.328606 0.407421 0.832430
O O6 0.583898 0.362749 0.664127
O O7 0.070345 0.392761 0.685304
O O8 0.761383 0.237230 0.127537
O O9 0.000000 0.301348 0.000000
O O10 0.861621 0.000000 0.889622
O O11 0.500000 0.057013 0.000000
O O12 0.000000 0.068474 0.000000
O O13 0.000000 0.390805 0.500000
#
# Coordination Sequence:
#
# PCOD9202077 Si02
#       5
#     4   8   8   8   8
#     4  10  20  38  58  82 120 164 212 260 300 338
#     4  12  23  38  67  90 121 167 209 254 311 383
#     4  10  22  41  66  95 123 153 201 264 318 370
#     4  10  22  38  56  85 126 161 197 244 299 377
#     4  11  24  39  60  90 126 166 211 266 301 356
#
# _framework density 20.011517999999999
#
# number of rings (size 3 to 8) (size 9 to 14) (size 15 to 20)
#    0.000    1.333    0.000    6.667    3.111    2.667 
#    0.000    0.000    0.000   13.333    0.000    0.000 
#    0.000    0.000    0.000    0.000    0.000    0.000 
#
# Total GULP energy -100620.526154 kJ/mol
# GULP energy per Si atom -5590.029231 kJ/mol
# Density = 1.996597 g / cm^3
# Si number density = 20.011518 Si / 1000 Ang^3
#
#
#
# Elastic Constant Matrix: (Units=GPa)
#
#
# Indices 1 2 3 4 5 6 
#
# 1 140.8855 6.5704 42.4741 0.0000 14.0529 0.0000
# 2 6.5704 36.1965 45.5507 0.0000 5.8587 0.0000
# 3 42.4741 45.5507 99.4730 0.0000 -3.0691 0.0000
# 4 0.0000 0.0000 0.0000 26.0700 0.0000 -13.3271
# 5 14.0529 5.8587 -3.0691 0.0000 42.7816 0.0000
# 6 0.0000 0.0000 0.0000 -13.3271 0.0000 22.2009
#
#
#
# Elastic Compliance Matrix: (Units=1/GPa)
#
#
# Indices 1 2 3 4 5 6 
#
# 1 0.009980 0.010966 -0.009451 0.000000 -0.005458 0.000000
# 2 0.010966 0.082961 -0.043229 0.000000 -0.018064 0.000000
# 3 -0.009451 -0.043229 0.034238 0.000000 0.011481 0.000000
# 4 0.000000 0.000000 0.000000 0.055341 0.000000 0.033221
# 5 -0.005458 -0.018064 0.011481 0.000000 0.028465 0.000000
# 6 0.000000 0.000000 0.000000 0.033221 0.000000 0.064985
#
#
# Mechanical properties :
#
#
# Convention : Reuss Voigt Hill
#
# Bulk Modulus (GPa) = 22.85708 51.74948 37.30328
# Shear Modulus (GPa) = 13.36955 30.34115 21.85535
#
# Velocity S-wave (km/s) = 2.58755 3.89805 3.30834
# Velocity P-wave (km/s) = 4.51376 6.79527 5.76843
#
# Compressibility (1/GPa) = 0.04375012
#
# Stress axis : x y z
#
# Youngs Moduli (GPa) = 100.19675 12.05383 29.20704
#
# Poissons Ratio (x) = -0.13218 0.27604
# Poissons Ratio (y) = -1.09871 1.26260
# Poissons Ratio (z) = 0.94699 0.52108
#
# Static dielectric constant tensor:
#      x y z
#    x 1.679430 0.000000 -0.020740 
#    y 0.000000 1.753850 0.000000 
#    z -0.020740 0.000000 1.693910 
# 
# From -- ./inp_files/115378.got.cif
#   From: 2010.05.17/outbox.cif.g08.bks.cpg/sg12_58_cif.got.tgz:115378.got - 2010.06.03 13:09:07.
