data_PCOD9202522
_publ_section_title
;
Structure prediction by ZEFSAII (Michael W. Deem and Ramdas Pophale) SiO2 
 PCOD9202522
Probable space group: C 2/M
;
_chemical_formula_sum "Si O2"
_cell_formula_units_Z 48
_cell_length_a 13.419764
_cell_length_b 25.665928
_cell_length_c 18.656369
_cell_angle_alpha 90.000000
_cell_angle_beta 159.434084
_cell_angle_gamma 90.000000
_cell_volume 2257.294707
_symmetry_space_group_name_H-M "C 2/M"
_symmetry_group_IT_number 12
_symmetry_cell_setting 'monoclinic'
loop_
_space_group_symop_operation_xyz
x,y,z
-x,y,-z
-x,-y,-z
x,-y,z
1/2+x,1/2+y,z
1/2-x,1/2+y,-z
1/2-x,1/2-y,-z
1/2+x,1/2-y,z
loop_
_atom_site_type_symbol
_atom_site_label
_atom_site_fract_x
_atom_site_fract_y
_atom_site_fract_z
Si Si1 0.525484 0.218792 0.900505
Si Si2 0.620435 0.325544 0.185190
Si Si3 0.045678 0.646970 0.716501
Si Si4 0.031486 0.163269 0.294113
Si Si5 0.729100 0.941881 0.090904
Si Si6 0.825972 0.391618 0.704645
O O1 0.311621 0.264227 0.779398
O O2 0.376953 0.168998 0.763860
O O3 0.750000 0.250000 0.000000
O O4 0.739587 0.195043 0.103180
O O5 0.621132 0.335446 0.270387
O O6 0.817754 0.362476 0.269814
O O7 0.308722 0.331503 0.939686
O O8 0.774529 0.681540 0.511649
O O9 0.913796 0.604630 0.680890
O O10 0.955192 0.103225 0.257268
O O11 0.846547 0.000000 0.163141
O O12 0.500000 0.941155 0.000000
O O13 0.547748 0.925119 0.899392
O O14 0.500000 0.405216 0.500000
#
# Coordination Sequence:
#
# PCOD9202522 Si02
#       6
#     8   8   8   8   8   8
#     4   9  18  38  51  79 128 156 200 242 275 343
#     4  10  21  40  56  87 124 161 203 238 283 353
#     4  11  21  37  60  86 117 161 196 239 296 343
#     4  10  20  38  62  85 119 158 196 247 297 347
#     4  10  21  41  64  87 119 153 191 247 308 359
#     4  11  22  39  58  89 122 155 201 248 294 351
#
# _framework density 21.264393999999999
#
# number of rings (size 3 to 8) (size 9 to 14) (size 15 to 20)
#    0.000    1.833    5.000    1.500    0.000    3.667 
#   18.000    0.833    0.000    4.000    0.000    0.000 
#    0.000    0.000    0.000    0.000    0.000    0.000 
#
# Total GULP energy -133703.825800 kJ/mol
# GULP energy per Si atom -5570.992742 kJ/mol
# Density = 2.121599 g / cm^3
# Si number density = 21.264394 Si / 1000 Ang^3
#
#
#
# Elastic Constant Matrix: (Units=GPa)
#
#
# Indices 1 2 3 4 5 6 
#
# 1 101.5245 7.7355 8.5351 0.0252 -1.0674 0.0167
# 2 7.7355 80.3077 1.0181 0.0261 4.5506 0.0210
# 3 8.5351 1.0181 90.6593 -0.0173 -16.6758 -0.0030
# 4 0.0252 0.0261 -0.0173 0.0861 -0.0013 -0.9680
# 5 -1.0674 4.5506 -16.6758 -0.0013 32.3771 0.0055
# 6 0.0167 0.0210 -0.0030 -0.9680 0.0055 5.4543
#
#
#
# Elastic Compliance Matrix: (Units=1/GPa)
#
#
# Indices 1 2 3 4 5 6 
#
# 1 0.010000 -0.000952 -0.000933 0.003155 -0.000017 0.000532
# 2 -0.000952 0.012663 -0.000425 0.004184 -0.002030 0.000699
# 3 -0.000933 -0.000425 0.012292 -0.003042 0.006360 -0.000535
# 4 0.003155 0.004184 -0.003042-11.663692 -0.002184 -2.070130
# 5 -0.000017 -0.002030 0.006360 -0.002184 0.034446 -0.000411
# 6 0.000532 0.000699 -0.000535 -2.070130 -0.000411 -0.184074
#
#
# Mechanical properties :
#
#
# Convention : Reuss Voigt Hill
#
# Bulk Modulus (GPa) = 32.96573 34.11874 33.54224
# Shear Modulus (GPa) = -0.42504 24.59702 12.08599
#
# Velocity S-wave (km/s) = -0.44757 3.40475 2.38663
# Velocity P-wave (km/s) = 3.90760 5.61572 4.83765
#
# Compressibility (1/GPa) = 0.03033453
#
# Stress axis : x y z
#
# Youngs Moduli (GPa) = 100.00249 78.97244 81.35233
#
# Poissons Ratio (x) = 0.07515 0.07592
# Poissons Ratio (y) = 0.09516 0.03459
# Poissons Ratio (z) = 0.09333 0.03358
#
# Static dielectric constant tensor:
#      x y z
#    x 1.858110 -0.000010 0.040090 
#    y -0.000010 1.765700 -0.000010 
#    z 0.040090 -0.000010 1.826500 
# 
# From -- ./inp_files/312605.got.cif
#   From: 2010.05.17/outbox.cif.g08.bks.cpg/sg12_157_cif.got.tgz:312605.got - 2010.06.03 13:09:07.
