data_PCOD9202608
_publ_section_title
;
Structure prediction by ZEFSAII (Michael W. Deem and Ramdas Pophale) SiO2 
 PCOD9202608
Probable space group: C 2/M
;
_chemical_formula_sum "Si O2"
_cell_formula_units_Z 32
_cell_length_a 5.127026
_cell_length_b 24.768653
_cell_length_c 12.630074
_cell_angle_alpha 90.000000
_cell_angle_beta 102.964448
_cell_angle_gamma 90.000000
_cell_volume 1563.003184
_symmetry_space_group_name_H-M "C 2/M"
_symmetry_group_IT_number 12
_symmetry_cell_setting 'monoclinic'
loop_
_space_group_symop_operation_xyz
x,y,z
-x,y,-z
-x,-y,-z
x,-y,z
1/2+x,1/2+y,z
1/2-x,1/2+y,-z
1/2-x,1/2-y,-z
1/2+x,1/2-y,z
loop_
_atom_site_type_symbol
_atom_site_label
_atom_site_fract_x
_atom_site_fract_y
_atom_site_fract_z
Si Si1 0.199061 0.870061 0.193938
Si Si2 0.308787 0.060851 0.785877
Si Si3 0.500000 0.288168 0.000000
Si Si4 0.292590 0.000000 0.576122
Si Si5 0.550836 0.785011 0.628348
O O1 0.433873 0.904397 0.159530
O O2 0.338052 0.836362 0.300286
O O3 0.965808 0.909408 0.212671
O O4 0.069974 0.826600 0.104150
O O5 0.327158 0.049971 0.660507
O O6 0.311290 0.000000 0.831804
O O7 0.250000 0.250000 0.000000
O O8 0.500000 0.000000 0.500000
O O9 0.000000 0.000000 0.500000
O O10 0.500000 0.796695 0.500000
O O11 0.777460 0.738273 0.652479
#
# Coordination Sequence:
#
# PCOD9202608 Si02
#       5
#     8   8   4   4   8
#     4  12  22  42  65  92 127 173 215 267 331 389
#     4  10  24  40  62  91 133 163 218 265 316 391
#     4  12  26  44  69 100 129 166 224 282 330 384
#     4  10  20  38  62  89 130 171 212 268 311 366
#     4  10  21  37  58  86 121 158 205 260 321 390
#
# _framework density 20.473407999999999
#
# number of rings (size 3 to 8) (size 9 to 14) (size 15 to 20)
#    0.750    0.500    0.000    6.750    0.000    3.000 
#    0.000    3.750    0.000    0.000    0.000    0.000 
#    0.000    0.000    0.000    0.000    0.000    0.000 
#
# Total GULP energy -89444.588079 kJ/mol
# GULP energy per Si atom -5590.286755 kJ/mol
# Density = 2.042681 g / cm^3
# Si number density = 20.473408 Si / 1000 Ang^3
#
#
#
# Elastic Constant Matrix: (Units=GPa)
#
#
# Indices 1 2 3 4 5 6 
#
# 1 136.3571 55.7931 27.8638 0.0000 16.5820 0.0000
# 2 55.7931 138.1213 45.4712 0.0000 17.4830 0.0000
# 3 27.8638 45.4712 38.2738 0.0000 12.4269 0.0000
# 4 0.0000 0.0000 0.0000 15.5059 0.0000 -5.7314
# 5 16.5820 17.4830 12.4269 0.0000 23.9439 0.0000
# 6 0.0000 0.0000 0.0000 -5.7314 0.0000 23.6045
#
#
#
# Elastic Compliance Matrix: (Units=1/GPa)
#
#
# Indices 1 2 3 4 5 6 
#
# 1 0.009292 -0.002404 -0.002874 0.000000 -0.003189 0.000000
# 2 -0.002404 0.012565 -0.012916 0.000000 -0.000806 0.000000
# 3 -0.002874 -0.012916 0.047934 0.000000 -0.013457 0.000000
# 4 0.000000 0.000000 0.000000 0.070851 0.000000 0.017203
# 5 -0.003189 -0.000806 -0.013457 0.000000 0.051545 0.000000
# 6 0.000000 0.000000 0.000000 0.017203 0.000000 0.046542
#
#
# Mechanical properties :
#
#
# Convention : Reuss Voigt Hill
#
# Bulk Modulus (GPa) = 29.93674 63.44538 46.69106
# Shear Modulus (GPa) = 17.46714 24.85247 21.15981
#
# Velocity S-wave (km/s) = 2.92406 3.48787 3.21834
# Velocity P-wave (km/s) = 5.10433 6.87581 6.05520
#
# Compressibility (1/GPa) = 0.03340378
#
# Stress axis : x y z
#
# Youngs Moduli (GPa) = 107.61659 79.58404 20.86204
#
# Poissons Ratio (x) = 0.19131 0.05995
# Poissons Ratio (y) = 0.25870 0.26946
# Poissons Ratio (z) = 0.30925 1.02793
#
# Static dielectric constant tensor:
#      x y z
#    x 1.686200 0.000000 0.003270 
#    y 0.000000 1.718720 0.000000 
#    z 0.003270 0.000000 1.742640 
# 
# From -- ./inp_files/114879.got.cif
#   From: 2010.05.17/outbox.cif.g08.bks.cpg/sg12_58_cif.got.tgz:114879.got - 2010.06.03 13:09:07.
