data_PCOD9202684
_publ_section_title
;
Structure prediction by ZEFSAII (Michael W. Deem and Ramdas Pophale) SiO2 
 PCOD9202684
Probable space group: C 2/M
;
_chemical_formula_sum "Si O2"
_cell_formula_units_Z 48
_cell_length_a 15.779096
_cell_length_b 15.869102
_cell_length_c 16.931451
_cell_angle_alpha 90.000000
_cell_angle_beta 32.255676
_cell_angle_gamma 90.000000
_cell_volume 2262.686906
_symmetry_space_group_name_H-M "C 2/M"
_symmetry_group_IT_number 12
_symmetry_cell_setting 'monoclinic'
loop_
_space_group_symop_operation_xyz
x,y,z
-x,y,-z
-x,-y,-z
x,-y,z
1/2+x,1/2+y,z
1/2-x,1/2+y,-z
1/2-x,1/2-y,-z
1/2+x,1/2-y,z
loop_
_atom_site_type_symbol
_atom_site_label
_atom_site_fract_x
_atom_site_fract_y
_atom_site_fract_z
Si Si1 0.369031 0.402990 0.883715
Si Si2 0.826152 0.593127 0.174105
Si Si3 0.321129 0.762329 0.671760
Si Si4 0.616820 0.740199 0.671048
Si Si5 0.023230 0.592875 0.170334
Si Si6 0.677780 0.402644 0.892678
O O1 0.420359 0.500000 0.834147
O O2 0.499710 0.338472 0.751221
O O3 0.189722 0.394130 0.992397
O O4 0.336672 0.387024 0.002475
O O5 0.765558 0.500000 0.198313
O O6 0.714303 0.673511 0.256760
O O7 0.875432 0.588115 0.227602
O O8 0.000000 0.607341 0.000000
O O9 0.500000 0.764470 0.500000
O O10 0.201751 0.769298 0.690167
O O11 0.285175 0.837594 0.760541
O O12 0.750000 0.750000 0.500000
O O13 0.511785 0.825138 0.751632
O O14 0.037892 0.500000 0.197214
O O15 0.725501 0.500000 0.842091
O O16 0.500000 0.392499 0.000000
#
# Coordination Sequence:
#
# PCOD9202684 Si02
#       6
#     8   8   8   8   8   8
#     4  10  21  39  64  89 113 150 197 242 289 344
#     4   9  19  37  61  85 110 147 195 242 286 336
#     4  11  24  37  56  85 122 155 191 236 291 343
#     4  11  24  38  55  85 121 156 188 232 290 348
#     4   9  20  38  59  85 113 146 190 238 286 339
#     4  10  20  38  63  86 112 151 199 245 286 337
#
# _framework density 21.213718
#
# number of rings (size 3 to 8) (size 9 to 14) (size 15 to 20)
#    0.000    2.000    1.667    1.000    4.667    2.667 
#    0.000    0.000    0.000    0.000    0.000    0.000 
#    0.000    0.000    0.000    0.000    0.000    0.000 
#
# Total GULP energy -134020.207006 kJ/mol
# GULP energy per Si atom -5584.175292 kJ/mol
# Density = 2.116543 g / cm^3
# Si number density = 21.213718 Si / 1000 Ang^3
#
#
#
# Elastic Constant Matrix: (Units=GPa)
#
#
# Indices 1 2 3 4 5 6 
#
# 1 69.8980 15.3245 3.0583 0.0016 -3.2080 -0.0006
# 2 15.3245 196.7068 134.3564 0.0026 -8.3873 -0.0015
# 3 3.0583 134.3564 130.5050 0.0028 -4.6091 -0.0018
# 4 0.0016 0.0026 0.0028 -15.8711 -0.0019 1.4151
# 5 -3.2080 -8.3873 -4.6091 -0.0019 27.8271 0.0009
# 6 -0.0006 -0.0015 -0.0018 1.4151 0.0009 8.0083
#
#
#
# Elastic Compliance Matrix: (Units=1/GPa)
#
#
# Indices 1 2 3 4 5 6 
#
# 1 0.014906 -0.003029 0.002814 0.000001 0.001272 0.000001
# 2 -0.003029 0.017885 -0.018271 -0.000001 0.002015 -0.000001
# 3 0.002814 -0.018271 0.026378 0.000002 -0.000814 0.000002
# 4 0.000001 -0.000001 0.000002 -0.062030 -0.000004 0.010961
# 5 0.001272 0.002015 -0.000814 -0.000004 0.036556 -0.000003
# 6 0.000001 -0.000001 0.000002 0.010961 -0.000003 0.122934
#
#
# Mechanical properties :
#
#
# Convention : Reuss Voigt Hill
#
# Bulk Modulus (GPa) = 45.05055 78.06535 61.55795
# Shear Modulus (GPa) = 24.87588 20.28423 22.58005
#
# Velocity S-wave (km/s) = 3.42809 3.09558 3.26607
# Velocity P-wave (km/s) = 6.07879 7.04671 6.58057
#
# Compressibility (1/GPa) = 0.02219729
#
# Stress axis : x y z
#
# Youngs Moduli (GPa) = 67.08752 55.91263 37.91073
#
# Poissons Ratio (x) = 0.16937 -0.10669
# Poissons Ratio (y) = 0.20322 0.69266
# Poissons Ratio (z) = -0.18880 1.02156
#
# Static dielectric constant tensor:
#      x y z
#    x 1.911950 0.000000 0.024590 
#    y 0.000000 1.770210 0.000000 
#    z 0.024590 0.000000 1.696500 
# 
# From -- ./inp_files/105023.got.cif
#   From: 2010.05.17/outbox.cif.g08.bks.cpg/sg12_53_cif.got.tgz:105023.got - 2010.06.03 13:09:07.
