data_PCOD9202257
_publ_section_title
;
Structure prediction by ZEFSAII (Michael W. Deem and Ramdas Pophale) SiO2 
 PCOD9202257
Probable space group: C 2/M
;
_chemical_formula_sum "Si O2"
_cell_formula_units_Z 50
_cell_length_a 14.551537
_cell_length_b 7.850753
_cell_length_c 21.129606
_cell_angle_alpha 90.000000
_cell_angle_beta 103.474809
_cell_angle_gamma 90.000000
_cell_volume 2347.409694
_symmetry_space_group_name_H-M "C 2/M"
_symmetry_group_IT_number 12
_symmetry_cell_setting 'monoclinic'
loop_
_space_group_symop_operation_xyz
x,y,z
-x,y,-z
-x,-y,-z
x,-y,z
1/2+x,1/2+y,z
1/2-x,1/2+y,-z
1/2-x,1/2-y,-z
1/2+x,1/2-y,z
loop_
_atom_site_type_symbol
_atom_site_label
_atom_site_fract_x
_atom_site_fract_y
_atom_site_fract_z
Si Si1 0.821850 0.794493 0.283890
Si Si2 0.000000 0.000000 0.500000
Si Si3 0.759024 0.794984 0.074408
Si Si4 0.762826 0.696271 0.410661
Si Si5 0.435317 0.703705 0.185499
Si Si6 0.358922 0.795519 0.829411
Si Si7 0.092645 0.304240 0.452025
O O1 0.813042 0.722571 0.352237
O O2 0.906463 0.735701 0.251324
O O3 0.725674 0.746092 0.231352
O O4 0.824842 0.000000 0.289823
O O5 0.981367 0.847283 0.551137
O O6 0.855996 0.732832 0.123100
O O7 0.673291 0.735052 0.105973
O O8 0.760080 0.000000 0.077911
O O9 0.750000 0.750000 0.000000
O O10 0.738508 0.500000 0.415985
O O11 0.836107 0.740383 0.478010
O O12 0.663940 0.793652 0.403894
O O13 0.424480 0.500000 0.186180
O O14 0.539809 0.740390 0.178967
O O15 0.359824 0.000000 0.831064
O O16 0.058549 0.500000 0.451435
#
# Coordination Sequence:
#
# PCOD9202257 Si02
#       7
#     8   2   8   8   8   8   8
#     4   9  19  36  57  77 108 150 187 226 283 341
#     4  12  22  40  60  94 116 150 194 248 294 346
#     4   9  19  35  54  77 107 142 180 222 273 333
#     4  10  20  38  60  85 110 153 195 232 284 355
#     4   9  19  36  54  77 108 143 182 227 277 332
#     4   9  19  36  54  77 109 143 182 228 277 332
#     4  10  22  39  61  85 121 153 191 242 298 347
#
# _framework density 21.300075
#
# number of rings (size 3 to 8) (size 9 to 14) (size 15 to 20)
#    0.000    2.560    0.800    2.640    2.240    3.200 
#    2.880    6.400    0.000    0.000    0.000    0.000 
#    0.000    0.000    0.000    0.000    0.000    0.000 
#
# Total GULP energy -139221.931659 kJ/mol
# GULP energy per Si atom -5568.877266 kJ/mol
# Density = 2.125160 g / cm^3
# Si number density = 21.300075 Si / 1000 Ang^3
#
#
#
# Elastic Constant Matrix: (Units=GPa)
#
#
# Indices 1 2 3 4 5 6 
#
# 1 118.0237 27.9878 25.2010 0.0000 -35.8051 0.0000
# 2 27.9878 39.8250 -6.4086 0.0000 0.1161 0.0000
# 3 25.2010 -6.4086 82.2780 0.0000 -33.5156 0.0000
# 4 0.0000 0.0000 0.0000 25.9045 0.0000 -9.2929
# 5 -35.8051 0.1161 -33.5156 0.0000 23.4151 0.0000
# 6 0.0000 0.0000 0.0000 -9.2929 0.0000 23.6418
#
#
#
# Elastic Compliance Matrix: (Units=1/GPa)
#
#
# Indices 1 2 3 4 5 6 
#
# 1 0.034120 -0.020659 0.022149 0.000000 0.083981 0.000000
# 2 -0.020659 0.038356 -0.008708 0.000000 -0.044245 0.000000
# 3 0.022149 -0.008708 0.044385 0.000000 0.097444 0.000000
# 4 0.000000 0.000000 0.000000 0.044940 0.000000 0.017665
# 5 0.083981 -0.044245 0.097444 0.000000 0.310824 0.000000
# 6 0.000000 0.000000 0.000000 0.017665 0.000000 0.049241
#
#
# Mechanical properties :
#
#
# Convention : Reuss Voigt Hill
#
# Bulk Modulus (GPa) = 9.76310 37.07635 23.41972
# Shear Modulus (GPa) = 8.76512 27.48204 18.12358
#
# Velocity S-wave (km/s) = 2.03076 3.59588 2.92013
# Velocity P-wave (km/s) = 3.17682 5.88939 4.73165
#
# Compressibility (1/GPa) = 0.10242647
#
# Stress axis : x y z
#
# Youngs Moduli (GPa) = 29.30847 26.07145 22.53020
#
# Poissons Ratio (x) = 0.53861 -0.49903
# Poissons Ratio (y) = 0.60548 0.19619
# Poissons Ratio (z) = -0.64917 0.22702
#
# Static dielectric constant tensor:
#      x y z
#    x 1.919340 0.000000 0.023160 
#    y 0.000000 1.795880 0.000000 
#    z 0.023160 0.000000 1.802240 
# 
# From -- ./inp_files/308543.got.cif
#   From: 2010.05.17/outbox.cif.g08.bks.cpg/sg12_155_cif.got.tgz:308543.got - 2010.06.03 13:09:07.
