data_PCOD9202767
_publ_section_title
;
Structure prediction by ZEFSAII (Michael W. Deem and Ramdas Pophale) SiO2 
 PCOD9202767
Probable space group: C 2/M
;
_chemical_formula_sum "Si O2"
_cell_formula_units_Z 52
_cell_length_a 14.622464
_cell_length_b 9.493616
_cell_length_c 26.742839
_cell_angle_alpha 90.000000
_cell_angle_beta 138.964939
_cell_angle_gamma 90.000000
_cell_volume 2437.295458
_symmetry_space_group_name_H-M "C 2/M"
_symmetry_group_IT_number 12
_symmetry_cell_setting 'monoclinic'
loop_
_space_group_symop_operation_xyz
x,y,z
-x,y,-z
-x,-y,-z
x,-y,z
1/2+x,1/2+y,z
1/2-x,1/2+y,-z
1/2-x,1/2-y,-z
1/2+x,1/2-y,z
loop_
_atom_site_type_symbol
_atom_site_label
_atom_site_fract_x
_atom_site_fract_y
_atom_site_fract_z
Si Si1 0.719387 0.670207 0.143851
Si Si2 0.224137 0.000000 0.472791
Si Si3 0.243102 0.334371 0.650750
Si Si4 0.059909 0.834286 0.174618
Si Si5 0.288673 0.831282 0.066197
Si Si6 0.946334 0.270307 0.562893
Si Si7 0.480637 0.163730 0.692751
O O1 0.725029 0.500000 0.148364
O O2 0.605973 0.709895 0.138005
O O3 0.695904 0.706530 0.076423
O O4 0.871654 0.718760 0.225431
O O5 0.124570 0.121752 0.457018
O O6 0.330745 0.122674 0.495638
O O7 0.241565 0.500000 0.637819
O O8 0.310752 0.325111 0.734429
O O9 0.352887 0.252781 0.661474
O O10 0.088383 0.272687 0.590120
O O11 0.940926 0.727966 0.142666
O O12 0.014425 0.000000 0.155418
O O13 0.286434 0.000000 0.058581
O O14 0.250000 0.750000 0.000000
O O15 0.982366 0.328605 0.633561
O O16 0.463760 0.000000 0.700322
#
# Coordination Sequence:
#
# PCOD9202767 Si02
#       7
#     8   4   8   8   8   8   8
#     4   9  19  37  62  89 120 161 207 248 296 364
#     4  10  24  42  68  86 128 168 206 242 314 386
#     4  11  22  37  62  95 125 158 205 261 312 356
#     4  10  20  38  63  91 121 159 206 254 301 359
#     4  11  23  41  61  89 128 165 200 250 309 366
#     4  11  22  45  64  89 125 170 202 254 311 370
#     4  11  21  38  64  93 122 161 211 257 304 359
#
# _framework density 21.335122999999999
#
# number of rings (size 3 to 8) (size 9 to 14) (size 15 to 20)
#    0.000    1.538    4.615    0.462    2.154    0.615 
#    0.000   10.000    0.000    0.000    0.000    0.000 
#    0.000    0.000    0.000    0.000    0.000    0.000 
#
# Total GULP energy -144793.441641 kJ/mol
# GULP energy per Si atom -5568.978525 kJ/mol
# Density = 2.128656 g / cm^3
# Si number density = 21.335123 Si / 1000 Ang^3
#
#
#
# Elastic Constant Matrix: (Units=GPa)
#
#
# Indices 1 2 3 4 5 6 
#
# 1 85.2848 -6.2222 -7.3247 0.0000 -9.7117 0.0000
# 2 -6.2222 69.7902 7.4377 0.0000 3.2660 0.0000
# 3 -7.3247 7.4377 37.1624 0.0000 -16.2835 0.0000
# 4 0.0000 0.0000 0.0000 19.8132 0.0000 -7.5011
# 5 -9.7117 3.2660 -16.2835 0.0000 40.2768 0.0000
# 6 0.0000 0.0000 0.0000 -7.5011 0.0000 17.9400
#
#
#
# Elastic Compliance Matrix: (Units=1/GPa)
#
#
# Indices 1 2 3 4 5 6 
#
# 1 0.012702 0.000419 0.004553 0.000000 0.004869 0.000000
# 2 0.000419 0.014935 -0.004123 0.000000 -0.002777 0.000000
# 3 0.004553 -0.004123 0.035558 0.000000 0.015808 0.000000
# 4 0.000000 0.000000 0.000000 0.059964 0.000000 0.025072
# 5 0.004869 -0.002777 0.015808 0.000000 0.032619 0.000000
# 6 0.000000 0.000000 0.000000 0.025072 0.000000 0.066224
#
#
# Mechanical properties :
#
#
# Convention : Reuss Voigt Hill
#
# Bulk Modulus (GPa) = 15.40984 20.00210 17.70597
# Shear Modulus (GPa) = 20.66673 28.82911 24.74792
#
# Velocity S-wave (km/s) = 3.11573 3.67992 3.40952
# Velocity P-wave (km/s) = 4.49245 5.23940 4.88024
#
# Compressibility (1/GPa) = 0.06489362
#
# Stress axis : x y z
#
# Youngs Moduli (GPa) = 78.73043 66.95481 28.12285
#
# Poissons Ratio (x) = -0.02807 -0.12805
# Poissons Ratio (y) = -0.03301 0.11596
# Poissons Ratio (z) = -0.35848 0.27608
#
# Static dielectric constant tensor:
#      x y z
#    x 1.778730 0.000000 -0.048670 
#    y 0.000000 1.699110 0.000000 
#    z -0.048670 0.000000 1.868030 
# 
# From -- ./inp_files/375288.got.cif
#   From: 2010.05.17/outbox.cif.g08.bks.cpg/sg12_188_cif.got.tgz:375288.got - 2010.06.03 13:09:07.
