data_PCOD9202475
_publ_section_title
;
Structure prediction by ZEFSAII (Michael W. Deem and Ramdas Pophale) SiO2 
 PCOD9202475
Probable space group: C 2/M
;
_chemical_formula_sum "Si O2"
_cell_formula_units_Z 50
_cell_length_a 10.526377
_cell_length_b 27.384644
_cell_length_c 7.382008
_cell_angle_alpha 90.000000
_cell_angle_beta 72.954175
_cell_angle_gamma 90.000000
_cell_volume 2034.466299
_symmetry_space_group_name_H-M "C 2/M"
_symmetry_group_IT_number 12
_symmetry_cell_setting 'monoclinic'
loop_
_space_group_symop_operation_xyz
x,y,z
-x,y,-z
-x,-y,-z
x,-y,z
1/2+x,1/2+y,z
1/2-x,1/2+y,-z
1/2-x,1/2-y,-z
1/2+x,1/2-y,z
loop_
_atom_site_type_symbol
_atom_site_label
_atom_site_fract_x
_atom_site_fract_y
_atom_site_fract_z
Si Si1 0.837492 0.921161 0.301270
Si Si2 0.500000 0.500000 0.000000
Si Si3 0.901363 0.552613 0.369851
Si Si4 0.239087 0.334592 0.130056
Si Si5 0.590078 0.741671 0.782487
Si Si6 0.064053 0.152231 0.263940
Si Si7 0.641218 0.846514 0.785091
O O1 0.748867 0.946960 0.489753
O O2 0.966158 0.892789 0.320855
O O3 0.735886 0.879409 0.267901
O O4 0.897189 0.957581 0.126060
O O5 0.924114 0.500000 0.266463
O O6 0.917322 0.601726 0.247129
O O7 0.000000 0.554149 0.500000
O O8 0.374272 0.346547 0.963672
O O9 0.137069 0.336679 0.005725
O O10 0.268990 0.282516 0.211289
O O11 0.519981 0.701744 0.687234
O O12 0.599746 0.796402 0.705077
O O13 0.500000 0.744992 0.000000
O O14 0.800359 0.150097 0.681152
#
# Coordination Sequence:
#
# PCOD9202475 Si02
#       7
#     8   2   8   8   8   8   8
#     4  11  19  39  66  93 127 159 214 273 329 381
#     4  12  16  32  70 106  98 160 228 254 330 374
#     4  11  27  48  61  82 132 187 216 258 326 395
#     4   8  17  34  59  97 131 153 208 276 318 371
#     4   9  16  31  63  95 131 171 204 260 330 378
#     4   8  18  35  58  97 130 146 205 279 319 367
#     4  10  20  38  61  93 129 171 216 260 321 399
#
# _framework density 24.576471999999999
#
# number of rings (size 3 to 8) (size 9 to 14) (size 15 to 20)
#    0.960    1.440    2.400    1.440    0.000    1.920 
#    8.640    4.000    0.000    2.400    0.000    0.000 
#    0.000    0.000    0.000    0.000    0.000    0.000 
#
# Total GULP energy -139220.377008 kJ/mol
# GULP energy per Si atom -5568.815080 kJ/mol
# Density = 2.452053 g / cm^3
# Si number density = 24.576472 Si / 1000 Ang^3
#
#
#
# Elastic Constant Matrix: (Units=GPa)
#
#
# Indices 1 2 3 4 5 6 
#
# 1 89.4322 56.2379 -4.4695 0.0000 2.3239 0.0000
# 2 56.2379 240.3062 15.2347 0.0000 10.7410 0.0000
# 3 -4.4695 15.2347 48.3468 0.0000 -6.2517 0.0000
# 4 0.0000 0.0000 0.0000 31.0549 0.0000 -24.7936
# 5 2.3239 10.7410 -6.2517 0.0000 30.0200 0.0000
# 6 0.0000 0.0000 0.0000 -24.7936 0.0000 45.3315
#
#
#
# Elastic Compliance Matrix: (Units=1/GPa)
#
#
# Indices 1 2 3 4 5 6 
#
# 1 0.013361 -0.003305 0.002359 0.000000 0.000640 0.000000
# 2 -0.003305 0.005166 -0.002198 0.000000 -0.002050 0.000000
# 3 0.002359 -0.002198 0.022273 0.000000 0.005242 0.000000
# 4 0.000000 0.000000 0.000000 0.057161 0.000000 0.031264
# 5 0.000640 -0.002050 0.005242 0.000000 0.035087 0.000000
# 6 0.000000 0.000000 0.000000 0.031264 0.000000 0.039159
#
#
# Mechanical properties :
#
#
# Convention : Reuss Voigt Hill
#
# Bulk Modulus (GPa) = 28.97592 56.89904 42.93748
# Shear Modulus (GPa) = 26.31589 42.02008 34.16798
#
# Velocity S-wave (km/s) = 3.27582 4.13942 3.73268
# Velocity P-wave (km/s) = 5.11114 6.78590 6.00717
#
# Compressibility (1/GPa) = 0.03451141
#
# Stress axis : x y z
#
# Youngs Moduli (GPa) = 74.84319 193.57916 44.89813
#
# Poissons Ratio (x) = 0.63979 -0.10593
# Poissons Ratio (y) = 0.24736 0.09871
# Poissons Ratio (z) = -0.17658 0.42558
#
# Static dielectric constant tensor:
#      x y z
#    x 2.022130 0.000000 -0.002950 
#    y 0.000000 1.936520 0.000000 
#    z -0.002950 0.000000 2.017470 
# 
# From -- ./inp_files/53105.got.cif
#   From: 2010.05.17/outbox.cif.g08.bks.cpg/sg12_27_cif.got.tgz:53105.got - 2010.06.03 13:09:07.
