data_PCOD9202446
_publ_section_title
;
Structure prediction by ZEFSAII (Michael W. Deem and Ramdas Pophale) SiO2 
 PCOD9202446
Probable space group: C 2/M
;
_chemical_formula_sum "Si O2"
_cell_formula_units_Z 48
_cell_length_a 9.619844
_cell_length_b 15.037544
_cell_length_c 16.969859
_cell_angle_alpha 90.000000
_cell_angle_beta 96.458532
_cell_angle_gamma 90.000000
_cell_volume 2439.260328
_symmetry_space_group_name_H-M "C 2/M"
_symmetry_group_IT_number 12
_symmetry_cell_setting 'monoclinic'
loop_
_space_group_symop_operation_xyz
x,y,z
-x,y,-z
-x,-y,-z
x,-y,z
1/2+x,1/2+y,z
1/2-x,1/2+y,-z
1/2-x,1/2-y,-z
1/2+x,1/2-y,z
loop_
_atom_site_type_symbol
_atom_site_label
_atom_site_fract_x
_atom_site_fract_y
_atom_site_fract_z
Si Si1 0.651261 0.500000 0.053938
Si Si2 0.536188 0.307961 0.647180
Si Si3 0.530132 0.500000 0.813637
Si Si4 0.833458 0.500000 0.498113
Si Si5 0.575306 0.500000 0.373038
Si Si6 0.195210 0.311543 0.426312
Si Si7 0.727367 0.307752 0.076441
Si Si8 0.954287 0.805757 0.168633
O O1 0.608897 0.500000 0.142859
O O2 0.733573 0.409303 0.047608
O O3 0.500000 0.500000 0.000000
O O4 0.484978 0.402563 0.606462
O O5 0.700500 0.300972 0.640828
O O6 0.457367 0.225599 0.602627
O O7 0.500008 0.302406 0.737381
O O8 0.474440 0.500000 0.721206
O O9 0.605813 0.407455 0.839919
O O10 0.735970 0.500000 0.413319
O O11 0.799285 0.412024 0.544852
O O12 0.000000 0.500000 0.500000
O O13 0.250000 0.250000 0.500000
O O14 0.844173 0.271078 0.143299
O O15 0.579018 0.298721 0.112662
O O16 0.750000 0.250000 0.000000
#
# Coordination Sequence:
#
# PCOD9202446 Si02
#       8
#     4   8   4   4   4   8   8   8
#     4  10  20  38  61  88 123 164 202 236 288 368
#     4  11  23  41  62  89 120 165 207 259 312 371
#     4   8  18  37  61  87 112 162 204 239 297 370
#     4  12  25  41  58  92 124 159 207 269 330 363
#     4  10  21  38  65  83 119 160 213 250 307 384
#     4  12  24  39  61  86 120 158 210 261 314 371
#     4  11  21  38  63  93 123 159 203 248 297 360
#     4  10  21  39  62  90 122 159 204 249 304 365
#
# _framework density 19.678097000000001
#
# number of rings (size 3 to 8) (size 9 to 14) (size 15 to 20)
#    0.000    1.333    1.667    5.500    0.000    0.667 
#    0.000    2.500    0.000    0.000    0.000    0.000 
#    0.000    0.000    0.000    0.000    0.000    0.000 
#
# Total GULP energy -133784.249452 kJ/mol
# GULP energy per Si atom -5574.343727 kJ/mol
# Density = 1.963331 g / cm^3
# Si number density = 19.678097 Si / 1000 Ang^3
#
#
#
# Elastic Constant Matrix: (Units=GPa)
#
#
# Indices 1 2 3 4 5 6 
#
# 1 82.1956 37.7024 10.1593 0.0000 2.6931 0.0000
# 2 37.7024 180.2725 31.6251 0.0000 12.7491 0.0000
# 3 10.1593 31.6251 53.1448 0.0000 -7.2037 0.0000
# 4 0.0000 0.0000 0.0000 27.5976 0.0000 4.9014
# 5 2.6931 12.7491 -7.2037 0.0000 30.7725 0.0000
# 6 0.0000 0.0000 0.0000 4.9014 0.0000 30.4472
#
#
#
# Elastic Compliance Matrix: (Units=1/GPa)
#
#
# Indices 1 2 3 4 5 6 
#
# 1 0.013509 -0.002612 -0.001076 0.000000 -0.000352 0.000000
# 2 -0.002612 0.007096 -0.004225 0.000000 -0.003701 0.000000
# 3 -0.001076 -0.004225 0.022501 0.000000 0.007112 0.000000
# 4 0.000000 0.000000 0.000000 0.037302 0.000000 -0.006005
# 5 -0.000352 -0.003701 0.007112 0.000000 0.035725 0.000000
# 6 0.000000 0.000000 0.000000 -0.006005 0.000000 0.033810
#
#
# Mechanical properties :
#
#
# Convention : Reuss Voigt Hill
#
# Bulk Modulus (GPa) = 36.65707 52.73183 44.69445
# Shear Modulus (GPa) = 28.59410 33.50519 31.04965
#
# Velocity S-wave (km/s) = 3.81608 4.13081 3.97656
# Velocity P-wave (km/s) = 6.17134 7.04321 6.62164
#
# Compressibility (1/GPa) = 0.02727987
#
# Stress axis : x y z
#
# Youngs Moduli (GPa) = 74.02739 140.91927 44.44343
#
# Poissons Ratio (x) = 0.36801 0.04782
# Poissons Ratio (y) = 0.19332 0.18778
# Poissons Ratio (z) = 0.07965 0.59541
#
# Static dielectric constant tensor:
#      x y z
#    x 1.684990 0.000000 0.002310 
#    y 0.000000 1.747390 0.000000 
#    z 0.002310 0.000000 1.730840 
# 
# From -- ./inp_files/255846.got.cif
#   From: 2010.05.17/outbox.cif.g08.bks.cpg/sg12_128_cif.got.tgz:255846.got - 2010.06.03 13:09:07.
