data_PCOD9202854
_publ_section_title
;
Structure prediction by ZEFSAII (Michael W. Deem and Ramdas Pophale) SiO2 
 PCOD9202854
Probable space group: C 2/M
;
_chemical_formula_sum "Si O2"
_cell_formula_units_Z 56
_cell_length_a 8.694774
_cell_length_b 30.967655
_cell_length_c 19.803146
_cell_angle_alpha 90.000000
_cell_angle_beta 29.803349
_cell_angle_gamma 90.000000
_cell_volume 2650.200695
_symmetry_space_group_name_H-M "C 2/M"
_symmetry_group_IT_number 12
_symmetry_cell_setting 'monoclinic'
loop_
_space_group_symop_operation_xyz
x,y,z
-x,y,-z
-x,-y,-z
x,-y,z
1/2+x,1/2+y,z
1/2-x,1/2+y,-z
1/2-x,1/2-y,-z
1/2+x,1/2-y,z
loop_
_atom_site_type_symbol
_atom_site_label
_atom_site_fract_x
_atom_site_fract_y
_atom_site_fract_z
Si Si1 0.737807 0.051120 0.469200
Si Si2 0.444061 0.100979 0.701316
Si Si3 0.251466 0.910718 0.034111
Si Si4 0.629589 0.799041 0.641098
Si Si5 0.363452 0.753358 0.222442
Si Si6 0.551145 0.950760 0.796796
Si Si7 0.643226 0.816094 0.017775
O O1 0.500000 0.062966 0.500000
O O2 0.674082 0.079244 0.559968
O O3 0.096143 0.057105 0.312903
O O4 0.691787 0.000000 0.501467
O O5 0.503697 0.152216 0.683695
O O6 0.482475 0.080459 0.760576
O O7 0.100015 0.088602 0.806799
O O8 0.500000 0.915676 0.000000
O O9 0.328316 0.943692 0.945264
O O10 0.268827 0.863437 0.991548
O O11 0.531713 0.773292 0.746528
O O12 0.464983 0.770041 0.646862
O O13 0.000000 0.800534 0.500000
O O14 0.395714 0.793871 0.160357
O O15 0.580626 0.717024 0.104587
O O16 0.531327 0.000000 0.780000
O O17 0.500000 0.824085 0.000000
#
# Coordination Sequence:
#
# PCOD9202854 Si02
#       7
#     8   8   8   8   8   8   8
#     4  10  22  43  70  98 130 173 219 262 318 390
#     4  12  24  42  66  98 132 172 215 266 328 388
#     4  11  24  41  64  96 131 168 219 270 324 383
#     4  12  25  42  62  91 129 166 212 261 320 379
#     4  11  22  40  62  89 118 163 210 260 317 377
#     4  11  24  42  65  97 134 173 215 268 326 383
#     4  10  20  38  64  88 119 157 208 265 315 373
#
# _framework density 21.130476000000002
#
# number of rings (size 3 to 8) (size 9 to 14) (size 15 to 20)
#    0.000    1.000    2.857    4.286    0.000    3.143 
#    0.000    2.143    0.000    0.000    0.000    0.000 
#    0.000    0.000    0.000    0.000    0.000    0.000 
#
# Total GULP energy -156344.015708 kJ/mol
# GULP energy per Si atom -5583.714847 kJ/mol
# Density = 2.108238 g / cm^3
# Si number density = 21.130476 Si / 1000 Ang^3
#
#
#
# Elastic Constant Matrix: (Units=GPa)
#
#
# Indices 1 2 3 4 5 6 
#
# 1 63.7322 15.6608 -0.6193 0.0002 -0.9277 0.0000
# 2 15.6608 60.3230 11.5356 0.0000 8.5999 0.0000
# 3 -0.6193 11.5356 69.8088 0.0013 -15.2288 0.0002
# 4 0.0002 0.0000 0.0013 29.4911 -0.0002 -0.6942
# 5 -0.9277 8.5999 -15.2288 -0.0002 31.6203 0.0000
# 6 0.0000 0.0000 0.0002 -0.6942 0.0000 29.4562
#
#
#
# Elastic Compliance Matrix: (Units=1/GPa)
#
#
# Indices 1 2 3 4 5 6 
#
# 1 0.016994 -0.005088 0.001567 0.000000 0.002637 0.000000
# 2 -0.005088 0.020024 -0.005112 0.000000 -0.008057 0.000000
# 3 0.001567 -0.005112 0.017316 -0.000001 0.009776 0.000000
# 4 0.000000 0.000000 -0.000001 0.033927 0.000000 0.000800
# 5 0.002637 -0.008057 0.009776 0.000000 0.038602 0.000000
# 6 0.000000 0.000000 0.000000 0.000800 0.000000 0.033968
#
#
# Mechanical properties :
#
#
# Convention : Reuss Voigt Hill
#
# Bulk Modulus (GPa) = 26.97625 27.44646 27.21135
# Shear Modulus (GPa) = 26.25305 29.26597 27.75951
#
# Velocity S-wave (km/s) = 3.52863 3.72561 3.62846
# Velocity P-wave (km/s) = 5.42180 5.61464 5.51906
#
# Compressibility (1/GPa) = 0.03706965
#
# Stress axis : x y z
#
# Youngs Moduli (GPa) = 58.84284 49.93891 57.74981
#
# Poissons Ratio (x) = 0.25407 -0.09048
# Poissons Ratio (y) = 0.29936 0.29521
# Poissons Ratio (z) = -0.09219 0.25528
#
# Static dielectric constant tensor:
#      x y z
#    x 1.983610 0.000000 0.019680 
#    y 0.000000 1.759600 0.000000 
#    z 0.019680 0.000000 1.799000 
# 
# From -- ./inp_files/303012.got.cif
#   From: 2010.05.17/outbox.cif.g08.bks.cpg/sg12_152_cif.got.tgz:303012.got - 2010.06.03 13:09:07.
