data_PCOD9202058
_publ_section_title
;
Structure prediction by ZEFSAII (Michael W. Deem and Ramdas Pophale) SiO2 
 PCOD9202058
Probable space group: C 2/M
;
_chemical_formula_sum "Si O2"
_cell_formula_units_Z 56
_cell_length_a 13.888566
_cell_length_b 10.014945
_cell_length_c 20.854076
_cell_angle_alpha 90.000000
_cell_angle_beta 117.058939
_cell_angle_gamma 90.000000
_cell_volume 2583.151581
_symmetry_space_group_name_H-M "C 2/M"
_symmetry_group_IT_number 12
_symmetry_cell_setting 'monoclinic'
loop_
_space_group_symop_operation_xyz
x,y,z
-x,y,-z
-x,-y,-z
x,-y,z
1/2+x,1/2+y,z
1/2-x,1/2+y,-z
1/2-x,1/2-y,-z
1/2+x,1/2-y,z
loop_
_atom_site_type_symbol
_atom_site_label
_atom_site_fract_x
_atom_site_fract_y
_atom_site_fract_z
Si Si1 0.075910 0.195439 0.968633
Si Si2 0.555001 0.845568 0.174805
Si Si3 0.015356 0.658431 0.706811
Si Si4 0.372165 0.651547 0.469886
Si Si5 0.759137 0.860728 0.087367
Si Si6 0.792262 0.844974 0.248610
Si Si7 0.182734 0.844693 0.395160
O O1 0.135438 0.133499 0.925236
O O2 0.996948 0.295422 0.906393
O O3 0.178976 0.248090 0.039205
O O4 0.000000 0.133289 0.000000
O O5 0.478391 0.835520 0.213454
O O6 0.673082 0.788974 0.228653
O O7 0.579673 0.000000 0.172761
O O8 0.008991 0.500000 0.687796
O O9 0.909656 0.744585 0.657976
O O10 0.114301 0.740572 0.706083
O O11 0.500000 0.677111 0.500000
O O12 0.349974 0.500000 0.438269
O O13 0.296021 0.767330 0.418236
O O14 0.341305 0.648354 0.535751
O O15 0.789329 0.850738 0.170250
O O16 0.697811 0.000000 0.058443
O O17 0.810395 0.000000 0.276046
O O18 0.179665 0.000000 0.370986
#
# Coordination Sequence:
#
# PCOD9202058 Si02
#       7
#     8   8   8   8   8   8   8
#     4  11  20  34  55  79 107 135 184 238 299 358
#     4  10  21  36  56  79 107 146 193 239 290 351
#     4  11  23  40  58  81 117 157 195 237 287 342
#     4   9  19  38  65  95 126 158 194 233 277 328
#     4  10  21  34  53  78 104 137 178 234 296 354
#     4  10  20  38  58  79 106 143 193 241 288 343
#     4  10  21  38  62  92 123 158 196 235 280 329
#
# _framework density 21.678944000000001
#
# number of rings (size 3 to 8) (size 9 to 14) (size 15 to 20)
#    0.000    1.857    2.857    1.286    0.000    2.857 
#    0.000    7.857    0.000    0.000    0.000    0.000 
#    0.000    0.000    0.000    0.000    0.000    0.000 
#
# Total GULP energy -155965.853582 kJ/mol
# GULP energy per Si atom -5570.209056 kJ/mol
# Density = 2.162960 g / cm^3
# Si number density = 21.678944 Si / 1000 Ang^3
#
#
#
# Elastic Constant Matrix: (Units=GPa)
#
#
# Indices 1 2 3 4 5 6 
#
# 1 120.7775 31.8721 7.7809 0.0000 15.2879 0.0000
# 2 31.8721 112.2100 28.9772 0.0000 27.8584 0.0000
# 3 7.7809 28.9772 57.3794 0.0000 4.8156 0.0000
# 4 0.0000 0.0000 0.0000 29.1440 0.0000 7.2376
# 5 15.2879 27.8584 4.8156 0.0000 39.2125 0.0000
# 6 0.0000 0.0000 0.0000 7.2376 0.0000 18.7701
#
#
#
# Elastic Compliance Matrix: (Units=1/GPa)
#
#
# Indices 1 2 3 4 5 6 
#
# 1 0.009088 -0.002061 -0.000017 0.000000 -0.002076 0.000000
# 2 -0.002061 0.012826 -0.005558 0.000000 -0.007626 0.000000
# 3 -0.000017 -0.005558 0.020112 0.000000 0.001485 0.000000
# 4 0.000000 0.000000 0.000000 0.037946 0.000000 -0.014632
# 5 -0.002076 -0.007626 0.001485 0.000000 0.031547 0.000000
# 6 0.000000 0.000000 0.000000 -0.014632 0.000000 0.058918
#
#
# Mechanical properties :
#
#
# Convention : Reuss Voigt Hill
#
# Bulk Modulus (GPa) = 37.37816 47.51413 42.44614
# Shear Modulus (GPa) = 25.69020 32.20777 28.94899
#
# Velocity S-wave (km/s) = 3.44616 3.85862 3.65821
# Velocity P-wave (km/s) = 5.75446 6.46658 6.12089
#
# Compressibility (1/GPa) = 0.02675359
#
# Stress axis : x y z
#
# Youngs Moduli (GPa) = 110.04030 77.96756 49.72109
#
# Poissons Ratio (x) = 0.16071 0.00085
# Poissons Ratio (y) = 0.22683 0.27633
# Poissons Ratio (z) = 0.00188 0.43332
#
# Static dielectric constant tensor:
#      x y z
#    x 1.830620 0.000000 -0.000090 
#    y 0.000000 1.841870 0.000000 
#    z -0.000090 0.000000 1.784890 
# 
# From -- ./inp_files/335317.got.cif
#   From: 2010.05.17/outbox.cif.g08.bks.cpg/sg12_168_cif.got.tgz:335317.got - 2010.06.03 13:09:07.
