data_PCOD9202720
_publ_section_title
;
Structure prediction by ZEFSAII (Michael W. Deem and Ramdas Pophale) SiO2 
 PCOD9202720
Probable space group: C 2/M
;
_chemical_formula_sum "Si O2"
_cell_formula_units_Z 40
_cell_length_a 13.419719
_cell_length_b 13.564178
_cell_length_c 25.110863
_cell_angle_alpha 90.000000
_cell_angle_beta 25.353699
_cell_angle_gamma 90.000000
_cell_volume 1957.267924
_symmetry_space_group_name_H-M "C 2/M"
_symmetry_group_IT_number 12
_symmetry_cell_setting 'monoclinic'
loop_
_space_group_symop_operation_xyz
x,y,z
-x,y,-z
-x,-y,-z
x,-y,z
1/2+x,1/2+y,z
1/2-x,1/2+y,-z
1/2-x,1/2-y,-z
1/2+x,1/2-y,z
loop_
_atom_site_type_symbol
_atom_site_label
_atom_site_fract_x
_atom_site_fract_y
_atom_site_fract_z
Si Si1 0.015934 0.216848 0.143768
Si Si2 0.266122 0.382418 0.861561
Si Si3 0.204287 0.110095 0.275655
Si Si4 0.862990 0.787181 0.510889
Si Si5 0.959732 0.380090 0.655081
O O1 0.886482 0.319012 0.214702
O O2 0.815934 0.149320 0.212158
O O3 0.077275 0.167076 0.169762
O O4 0.250000 0.250000 0.000000
O O5 0.277626 0.500000 0.864136
O O6 0.328561 0.363470 0.770289
O O7 0.000000 0.350913 0.000000
O O8 0.974270 0.127648 0.419915
O O9 0.289903 0.000000 0.235390
O O10 0.596917 0.826019 0.637705
O O11 0.000000 0.785882 0.500000
O O12 0.927546 0.683642 0.449384
O O13 0.983964 0.500000 0.640781
#
# Coordination Sequence:
#
# PCOD9202720 Si02
#       5
#     8   8   8   8   8
#     4  11  22  37  61  95 129 161 204 271 322 373
#     4  10  20  38  63  88 120 166 213 259 316 380
#     4  10  22  39  62  89 121 168 217 255 315 393
#     4  10  23  44  66  93 131 173 211 268 332 385
#     4  10  23  41  65  97 129 165 220 271 319 383
#
# _framework density 20.43665
#
# number of rings (size 3 to 8) (size 9 to 14) (size 15 to 20)
#    0.000    1.800    2.000    1.200    0.000   12.400 
#    0.000    0.000    0.000    1.800    0.000    0.000 
#    0.000    0.000    0.000    0.000    0.000    0.000 
#
# Total GULP energy -111437.731429 kJ/mol
# GULP energy per Si atom -5571.886571 kJ/mol
# Density = 2.039014 g / cm^3
# Si number density = 20.436650 Si / 1000 Ang^3
#
#
#
# Elastic Constant Matrix: (Units=GPa)
#
#
# Indices 1 2 3 4 5 6 
#
# 1 153.2256 51.9405 32.4619 0.0057 -26.8727 -0.0011
# 2 51.9405 139.7513 28.9463 0.0080 -20.2067 -0.0029
# 3 32.4619 28.9463 68.7879 0.0756 -26.5445 -0.0180
# 4 0.0057 0.0080 0.0756 -7.7781 -0.0181 2.2594
# 5 -26.8727 -20.2067 -26.5445 -0.0181 35.4459 0.0017
# 6 -0.0011 -0.0029 -0.0180 2.2594 0.0017 35.9635
#
#
#
# Elastic Compliance Matrix: (Units=1/GPa)
#
#
# Indices 1 2 3 4 5 6 
#
# 1 0.008271 -0.002204 -0.001464 -0.000019 0.003918 0.000000
# 2 -0.002204 0.008631 -0.001882 -0.000015 0.001840 0.000001
# 3 -0.001464 -0.001882 0.021346 0.000172 0.013804 -0.000001
# 4 -0.000019 -0.000015 0.000172 -0.126261 0.000041 0.007932
# 5 0.003918 0.001840 0.013804 0.000041 0.042568 0.000003
# 6 0.000000 0.000001 -0.000001 0.007932 0.000003 0.027308
#
#
# Mechanical properties :
#
#
# Convention : Reuss Voigt Hill
#
# Bulk Modulus (GPa) = 36.83439 65.38469 51.10954
# Shear Modulus (GPa) = 2485.67070 29.28732 1257.47901
#
# Velocity S-wave (km/s) = 34.91305 3.78971 24.83227
# Velocity P-wave (km/s) = 40.53753 7.15629 29.10759
#
# Compressibility (1/GPa) = 0.02714854
#
# Stress axis : x y z
#
# Youngs Moduli (GPa) = 120.90884 115.86708 46.84626
#
# Poissons Ratio (x) = 0.25541 0.06857
# Poissons Ratio (y) = 0.26652 0.08814
# Poissons Ratio (z) = 0.17698 0.21801
#
# Static dielectric constant tensor:
#      x y z
#    x 1.593880 -0.000020 -0.310490 
#    y -0.000020 1.727350 -0.000050 
#    z -0.310490 -0.000050 1.473390 
# 
# From -- ./inp_files/335983.got.cif
#   From: 2010.05.17/outbox.cif.g08.bks.cpg/sg12_168_cif.got.tgz:335983.got - 2010.06.03 13:09:07.
