data_PCOD9202336
_publ_section_title
;
Structure prediction by ZEFSAII (Michael W. Deem and Ramdas Pophale) SiO2 
 PCOD9202336
Probable space group: C 2/M
;
_chemical_formula_sum "Si O2"
_cell_formula_units_Z 48
_cell_length_a 29.739942
_cell_length_b 8.427351
_cell_length_c 8.247238
_cell_angle_alpha 90.000000
_cell_angle_beta 102.966931
_cell_angle_gamma 90.000000
_cell_volume 2014.287480
_symmetry_space_group_name_H-M "C 2/M"
_symmetry_group_IT_number 12
_symmetry_cell_setting 'monoclinic'
loop_
_space_group_symop_operation_xyz
x,y,z
-x,y,-z
-x,-y,-z
x,-y,z
1/2+x,1/2+y,z
1/2-x,1/2+y,-z
1/2-x,1/2-y,-z
1/2+x,1/2-y,z
loop_
_atom_site_type_symbol
_atom_site_label
_atom_site_fract_x
_atom_site_fract_y
_atom_site_fract_z
Si Si1 0.277233 0.815148 0.869209
Si Si2 0.888665 0.815682 0.251467
Si Si3 0.859632 0.311220 0.746203
Si Si4 0.441725 0.191067 0.603932
Si Si5 0.304385 0.816899 0.365292
Si Si6 0.529804 0.189404 0.871535
O O1 0.326444 0.741411 0.857661
O O2 0.240519 0.789251 0.694711
O O3 0.284240 0.000000 0.901090
O O4 0.250000 0.750000 0.000000
O O5 0.921170 0.781803 0.434625
O O6 0.842220 0.720257 0.256081
O O7 0.920597 0.761553 0.128140
O O8 0.877240 0.000000 0.231466
O O9 0.863893 0.500000 0.781386
O O10 0.910473 0.259388 0.734295
O O11 0.830557 0.292220 0.555718
O O12 0.494721 0.214109 0.692561
O O13 0.434729 0.000000 0.571752
O O14 0.290435 0.000000 0.342354
O O15 0.536153 0.000000 0.896678
O O16 0.500000 0.247769 0.000000
#
# Coordination Sequence:
#
# PCOD9202336 Si02
#       6
#     8   8   8   8   8   8
#     4  11  22  36  54  82 117 150 183 222 273 329
#     4  11  22  36  56  83 112 142 180 228 280 330
#     4   8  17  34  57  81 106 140 184 231 274 321
#     4   9  18  36  59  81 106 141 186 229 270 322
#     4  10  20  38  61  82 105 140 186 232 277 325
#     4  10  21  36  56  82 112 149 189 226 268 323
#
# _framework density 23.829765999999999
#
# number of rings (size 3 to 8) (size 9 to 14) (size 15 to 20)
#    0.000    2.167    0.000    4.500    0.000    4.333 
#    0.000   10.833    0.000    0.000    0.000    0.000 
#    0.000    0.000    0.000    0.000    0.000    0.000 
#
# Total GULP energy -134170.282077 kJ/mol
# GULP energy per Si atom -5590.428420 kJ/mol
# Density = 2.377553 g / cm^3
# Si number density = 23.829766 Si / 1000 Ang^3
#
#
#
# Elastic Constant Matrix: (Units=GPa)
#
#
# Indices 1 2 3 4 5 6 
#
# 1 143.3361 6.9526 18.4986 0.0000 -29.4027 0.0000
# 2 6.9526 29.2949 7.9610 0.0000 -7.7702 0.0000
# 3 18.4986 7.9610 52.3451 0.0000 -19.0618 0.0000
# 4 0.0000 0.0000 0.0000 3.0431 0.0000 -5.8467
# 5 -29.4027 -7.7702 -19.0618 0.0000 50.3116 0.0000
# 6 0.0000 0.0000 0.0000 -5.8467 0.0000 23.0583
#
#
#
# Elastic Compliance Matrix: (Units=1/GPa)
#
#
# Indices 1 2 3 4 5 6 
#
# 1 0.008009 -0.000463 -0.001255 0.000000 0.004134 0.000000
# 2 -0.000463 0.036342 -0.003965 0.000000 0.003840 0.000000
# 3 -0.001255 -0.003965 0.022807 0.000000 0.007295 0.000000
# 4 0.000000 0.000000 0.000000 0.640756 0.000000 0.162470
# 5 0.004134 0.003840 0.007295 0.000000 0.025649 0.000000
# 6 0.000000 0.000000 0.000000 0.162470 0.000000 0.084564
#
#
# Mechanical properties :
#
#
# Convention : Reuss Voigt Hill
#
# Bulk Modulus (GPa) = 17.92391 32.42227 25.17309
# Shear Modulus (GPa) = 5.89560 28.05354 16.97457
#
# Velocity S-wave (km/s) = 1.57462 3.43483 2.67184
# Velocity P-wave (km/s) = 3.29300 5.41904 4.48385
#
# Compressibility (1/GPa) = 0.05579138
#
# Stress axis : x y z
#
# Youngs Moduli (GPa) = 124.86057 27.51669 43.84612
#
# Poissons Ratio (x) = 0.01275 0.05501
# Poissons Ratio (y) = 0.05786 0.17385
# Poissons Ratio (z) = 0.15665 0.10911
#
# Static dielectric constant tensor:
#      x y z
#    x 1.929810 0.000000 -0.019530 
#    y 0.000000 1.823440 0.000000 
#    z -0.019530 0.000000 2.028020 
# 
# From -- ./inp_files/108643.got.cif
#   From: 2010.05.17/outbox.cif.g08.bks.cpg/sg12_55_cif.got.tgz:108643.got - 2010.06.03 13:09:07.
