data_PCOD9202804
_publ_section_title
;
Structure prediction by ZEFSAII (Michael W. Deem and Ramdas Pophale) SiO2 
 PCOD9202804
Probable space group: C 2/M
;
_chemical_formula_sum "Si O2"
_cell_formula_units_Z 64
_cell_length_a 12.397956
_cell_length_b 15.013863
_cell_length_c 26.680751
_cell_angle_alpha 90.000000
_cell_angle_beta 37.670213
_cell_angle_gamma 90.000000
_cell_volume 3035.036862
_symmetry_space_group_name_H-M "C 2/M"
_symmetry_group_IT_number 12
_symmetry_cell_setting 'monoclinic'
loop_
_space_group_symop_operation_xyz
x,y,z
-x,y,-z
-x,-y,-z
x,-y,z
1/2+x,1/2+y,z
1/2-x,1/2+y,-z
1/2-x,1/2-y,-z
1/2+x,1/2-y,z
loop_
_atom_site_type_symbol
_atom_site_label
_atom_site_fract_x
_atom_site_fract_y
_atom_site_fract_z
Si Si1 0.306642 0.603160 0.285131
Si Si2 0.484566 0.264150 0.298868
Si Si3 0.439290 0.144308 0.465381
Si Si4 0.109485 0.097497 0.010527
Si Si5 0.442831 0.659321 0.423293
Si Si6 0.793998 0.596144 0.340807
Si Si7 0.862082 0.783279 0.164794
Si Si8 0.021028 0.598463 0.834863
O O1 0.360993 0.500000 0.265211
O O2 0.403795 0.661638 0.292043
O O3 0.342735 0.653272 0.220044
O O4 0.097865 0.609292 0.373005
O O5 0.510890 0.306563 0.343895
O O6 0.348282 0.181924 0.352613
O O7 0.668491 0.223429 0.211322
O O8 0.500000 0.124171 0.500000
O O9 0.425640 0.250942 0.462505
O O10 0.244689 0.113786 0.519952
O O11 0.021506 0.175630 0.074623
O O12 0.088935 0.000000 0.043597
O O13 0.312097 0.106743 0.920273
O O14 0.000000 0.094723 0.000000
O O15 0.593864 0.603407 0.394843
O O16 0.824068 0.500000 0.354118
O O17 0.914662 0.601589 0.246249
O O18 0.899350 0.682403 0.166591
O O19 0.075574 0.500000 0.833741
#
# Coordination Sequence:
#
# PCOD9202804 Si02
#       8
#     8   8   8   8   8   8   8   8
#     4  12  26  42  63  97 130 168 217 266 321 388
#     4  12  21  42  62  92 127 167 210 266 320 379
#     4  11  21  40  66  90 126 170 218 265 324 380
#     4  10  22  39  64  98 127 166 218 267 319 381
#     4  11  21  39  67  91 127 169 212 267 325 381
#     4  11  22  39  64  94 126 166 213 261 319 382
#     4  12  23  42  68  91 134 173 214 263 333 377
#     4  10  20  38  63  93 128 165 215 261 311 384
#
# _framework density 21.087057999999999
#
# number of rings (size 3 to 8) (size 9 to 14) (size 15 to 20)
#    0.000    0.875    6.250    1.500    0.000    3.750 
#    0.000    0.000    0.000    3.750    0.000    0.000 
#    0.000    0.000    0.000    0.000    0.000    0.000 
#
# Total GULP energy -178844.771019 kJ/mol
# GULP energy per Si atom -5588.899094 kJ/mol
# Density = 2.103906 g / cm^3
# Si number density = 21.087058 Si / 1000 Ang^3
#
#
#
# Elastic Constant Matrix: (Units=GPa)
#
#
# Indices 1 2 3 4 5 6 
#
# 1 48.7320 30.8178 4.4676 0.0002 -23.3747 0.0000
# 2 30.8178 134.5048 8.8688 -0.0003 -5.7275 0.0002
# 3 4.4676 8.8688 72.3097 -0.0024 -7.7307 0.0004
# 4 0.0002 -0.0003 -0.0024 0.5100 0.0003 10.1841
# 5 -23.3747 -5.7275 -7.7307 0.0003 27.5997 -0.0001
# 6 0.0000 0.0002 0.0004 10.1841 -0.0001 1.1730
#
#
#
# Elastic Compliance Matrix: (Units=1/GPa)
#
#
# Indices 1 2 3 4 5 6 
#
# 1 0.042189 -0.008333 0.002114 0.000000 0.034594 -0.000002
# 2 -0.008333 0.009189 -0.001199 0.000000 -0.005486 0.000000
# 3 0.002114 -0.001199 0.014443 -0.000001 0.005587 0.000003
# 4 0.000000 0.000000 -0.000001 -0.011375 0.000000 0.098762
# 5 0.034594 -0.005486 0.005587 0.000000 0.065957 -0.000002
# 6 -0.000002 0.000000 0.000003 0.098762 -0.000002 -0.004946
#
#
# Mechanical properties :
#
#
# Convention : Reuss Voigt Hill
#
# Bulk Modulus (GPa) = 19.61311 38.20613 28.90962
# Shear Modulus (GPa) = 33.94695 19.94934 26.94814
#
# Velocity S-wave (km/s) = 4.01664 3.07912 3.57872
# Velocity P-wave (km/s) = 5.55270 5.54968 5.55119
#
# Compressibility (1/GPa) = 0.05098632
#
# Stress axis : x y z
#
# Youngs Moduli (GPa) = 23.70272 108.82197 69.23703
#
# Poissons Ratio (x) = 0.90679 -0.14635
# Poissons Ratio (y) = 0.19751 0.08300
# Poissons Ratio (z) = -0.05010 0.13045
#
# Static dielectric constant tensor:
#      x y z
#    x 1.755420 0.000000 -0.032100 
#    y 0.000000 1.776620 0.000000 
#    z -0.032100 0.000000 1.830730 
# 
# From -- ./inp_files/358396.got.cif
#   From: 2010.05.17/outbox.cif.g08.bks.cpg/sg12_180_cif.got.tgz:358396.got - 2010.06.03 13:09:07.
