data_PCOD9202244
_publ_section_title
;
Structure prediction by ZEFSAII (Michael W. Deem and Ramdas Pophale) SiO2 
 PCOD9202244
Probable space group: C 2/M
;
_chemical_formula_sum "Si O2"
_cell_formula_units_Z 40
_cell_length_a 17.483026
_cell_length_b 12.641588
_cell_length_c 11.201828
_cell_angle_alpha 90.000000
_cell_angle_beta 62.023633
_cell_angle_gamma 90.000000
_cell_volume 2186.438484
_symmetry_space_group_name_H-M "C 2/M"
_symmetry_group_IT_number 12
_symmetry_cell_setting 'monoclinic'
loop_
_space_group_symop_operation_xyz
x,y,z
-x,y,-z
-x,-y,-z
x,-y,z
1/2+x,1/2+y,z
1/2-x,1/2+y,-z
1/2-x,1/2-y,-z
1/2+x,1/2-y,z
loop_
_atom_site_type_symbol
_atom_site_label
_atom_site_fract_x
_atom_site_fract_y
_atom_site_fract_z
Si Si1 0.985064 0.376320 0.380666
Si Si2 0.174539 0.278318 0.649000
Si Si3 0.117488 0.738371 0.141225
Si Si4 0.726373 0.127198 0.859782
Si Si5 0.963692 0.878389 0.161456
O O1 0.968750 0.500000 0.405141
O O2 0.903538 0.331221 0.368212
O O3 0.000000 0.326865 0.500000
O O4 0.075195 0.355344 0.247910
O O5 0.250000 0.250000 0.500000
O O6 0.208695 0.350279 0.733157
O O7 0.127811 0.178512 0.747925
O O8 0.189910 0.807229 0.155757
O O9 0.037911 0.817255 0.178171
O O10 0.152342 0.683524 0.994912
O O11 0.731856 0.000000 0.876882
O O12 0.957228 0.000000 0.201525
O O13 0.000000 0.873363 0.000000
#
# Coordination Sequence:
#
# PCOD9202244 Si02
#       5
#     8   8   8   8   8
#     4  10  21  38  59  82 115 156 197 239 292 350
#     4  11  23  39  59  88 122 154 195 251 296 353
#     4  10  21  38  58  86 116 154 194 246 287 351
#     4  11  22  37  59  87 119 154 196 242 298 353
#     4  10  20  38  60  84 114 154 197 237 290 350
#
# _framework density 18.294591
#
# number of rings (size 3 to 8) (size 9 to 14) (size 15 to 20)
#    0.000    1.600    2.000    3.000    0.000    1.600 
#    0.000    4.000    0.000    6.600    0.000    0.000 
#    0.000    0.000    0.000    0.000    0.000    0.000 
#
# Total GULP energy -111447.278800 kJ/mol
# GULP energy per Si atom -5572.363940 kJ/mol
# Density = 1.825295 g / cm^3
# Si number density = 18.294591 Si / 1000 Ang^3
#
#
#
# Elastic Constant Matrix: (Units=GPa)
#
#
# Indices 1 2 3 4 5 6 
#
# 1 64.8292 50.5436 43.4836 0.0000 3.5555 0.0000
# 2 50.5436 71.5569 27.9683 0.0000 -1.4399 0.0000
# 3 43.4836 27.9683 119.9790 0.0000 -5.1521 0.0000
# 4 0.0000 0.0000 0.0000 19.4953 0.0000 0.1818
# 5 3.5555 -1.4399 -5.1521 0.0000 37.7315 0.0000
# 6 0.0000 0.0000 0.0000 0.1818 0.0000 23.3628
#
#
#
# Elastic Compliance Matrix: (Units=1/GPa)
#
#
# Indices 1 2 3 4 5 6 
#
# 1 0.043220 -0.026876 -0.009675 0.000000 -0.006419 0.000000
# 2 -0.026876 0.032089 0.002436 0.000000 0.004090 0.000000
# 3 -0.009675 0.002436 0.011383 0.000000 0.002559 0.000000
# 4 0.000000 0.000000 0.000000 0.051298 0.000000 -0.000399
# 5 -0.006419 0.004090 0.002559 0.000000 0.027613 0.000000
# 6 0.000000 0.000000 0.000000 -0.000399 0.000000 0.042806
#
#
# Mechanical properties :
#
#
# Convention : Reuss Voigt Hill
#
# Bulk Modulus (GPa) = 54.16348 55.59512 54.87930
# Shear Modulus (GPa) = 17.68075 25.07590 21.37832
#
# Velocity S-wave (km/s) = 3.11215 3.70628 3.42213
# Velocity P-wave (km/s) = 6.52568 6.98356 6.75850
#
# Compressibility (1/GPa) = 0.01846263
#
# Stress axis : x y z
#
# Youngs Moduli (GPa) = 23.13735 31.16360 87.84866
#
# Poissons Ratio (x) = 0.83755 0.84991
# Poissons Ratio (y) = 0.62184 -0.21400
# Poissons Ratio (z) = 0.22385 -0.07591
#
# Static dielectric constant tensor:
#      x y z
#    x 1.622350 0.000000 0.019050 
#    y 0.000000 1.624720 0.000000 
#    z 0.019050 0.000000 1.661070 
# 
# From -- ./inp_files/153304.got.cif
#   From: 2010.05.17/outbox.cif.g08.bks.cpg/sg12_77_cif.got.tgz:153304.got - 2010.06.03 13:09:07.
