data_PCOD9202178
_publ_section_title
;
Structure prediction by ZEFSAII (Michael W. Deem and Ramdas Pophale) SiO2 
 PCOD9202178
Probable space group: C 2/M
;
_chemical_formula_sum "Si O2"
_cell_formula_units_Z 64
_cell_length_a 14.018524
_cell_length_b 26.443462
_cell_length_c 8.736270
_cell_angle_alpha 90.000000
_cell_angle_beta 104.976699
_cell_angle_gamma 90.000000
_cell_volume 3128.511202
_symmetry_space_group_name_H-M "C 2/M"
_symmetry_group_IT_number 12
_symmetry_cell_setting 'monoclinic'
loop_
_space_group_symop_operation_xyz
x,y,z
-x,y,-z
-x,-y,-z
x,-y,z
1/2+x,1/2+y,z
1/2-x,1/2+y,-z
1/2-x,1/2-y,-z
1/2+x,1/2-y,z
loop_
_atom_site_type_symbol
_atom_site_label
_atom_site_fract_x
_atom_site_fract_y
_atom_site_fract_z
Si Si1 0.710126 0.868926 0.393741
Si Si2 0.274198 0.085396 0.060124
Si Si3 0.417495 0.557181 0.862264
Si Si4 0.405309 0.855973 0.352938
Si Si5 0.609162 0.560080 0.478587
Si Si6 0.779750 0.814222 0.135982
Si Si7 0.916138 0.730242 0.098471
Si Si8 0.591213 0.056775 0.148140
O O1 0.679451 0.849981 0.549798
O O2 0.797590 0.910281 0.419805
O O3 0.750356 0.825700 0.298530
O O4 0.617681 0.899128 0.277969
O O5 0.187597 0.055164 0.103021
O O6 0.358021 0.102188 0.217859
O O7 0.222348 0.134625 0.964571
O O8 0.320632 0.056482 0.937550
O O9 0.454141 0.500000 0.842577
O O10 0.401801 0.582450 0.695217
O O11 0.500000 0.582045 0.000000
O O12 0.500000 0.867452 0.500000
O O13 0.430249 0.809248 0.246849
O O14 0.500000 0.566093 0.500000
O O15 0.632456 0.500000 0.490227
O O16 0.881167 0.783801 0.155045
O O17 0.683174 0.786573 0.029748
O O18 0.000000 0.731014 0.000000
O O19 0.576534 0.000000 0.206757
O O20 0.500000 0.070219 0.000000
#
# Coordination Sequence:
#
# PCOD9202178 Si02
#       8
#     8   8   8   8   8   8   8   8
#     4  11  21  39  60  91 125 156 199 250 303 354
#     4  10  20  38  59  87 120 155 204 249 291 349
#     4  10  21  36  58  84 115 159 207 248 286 344
#     4  11  22  37  64  91 118 157 195 246 304 368
#     4  10  22  39  57  83 122 165 200 240 298 353
#     4   9  22  38  62  87 113 155 195 243 302 355
#     4  10  21  43  63  86 116 152 195 245 300 370
#     4  10  21  36  57  86 124 167 208 246 288 345
#
# _framework density 20.457014999999998
#
# number of rings (size 3 to 8) (size 9 to 14) (size 15 to 20)
#    0.000    1.875    1.250    2.250    3.500    4.500 
#    0.000    1.875    0.000    3.000    0.000    0.000 
#    0.000    0.000    0.000    0.000    0.000    0.000 
#
# Total GULP energy -178193.149916 kJ/mol
# GULP energy per Si atom -5568.535935 kJ/mol
# Density = 2.041045 g / cm^3
# Si number density = 20.457015 Si / 1000 Ang^3
#
#
#
# Elastic Constant Matrix: (Units=GPa)
#
#
# Indices 1 2 3 4 5 6 
#
# 1 82.5456 27.2427 35.5883 0.0000 -7.2419 0.0000
# 2 27.2427 58.3128 24.6833 0.0000 -5.2170 0.0000
# 3 35.5883 24.6833 104.6818 0.0000 -19.6130 0.0000
# 4 0.0000 0.0000 0.0000 10.3859 0.0000 -8.3379
# 5 -7.2419 -5.2170 -19.6130 0.0000 41.3123 0.0000
# 6 0.0000 0.0000 0.0000 -8.3379 0.0000 10.6187
#
#
#
# Elastic Compliance Matrix: (Units=1/GPa)
#
#
# Indices 1 2 3 4 5 6 
#
# 1 0.015705 -0.005638 -0.003981 0.000000 0.000151 0.000000
# 2 -0.005638 0.021078 -0.003007 0.000000 0.000246 0.000000
# 3 -0.003981 -0.003007 0.012528 0.000000 0.004870 0.000000
# 4 0.000000 0.000000 0.000000 0.260488 0.000000 0.204537
# 5 0.000151 0.000246 0.004870 0.000000 0.026575 0.000000
# 6 0.000000 0.000000 0.000000 0.204537 0.000000 0.254778
#
#
# Mechanical properties :
#
#
# Convention : Reuss Voigt Hill
#
# Bulk Modulus (GPa) = 41.56808 46.72987 44.14897
# Shear Modulus (GPa) = 8.00737 22.99843 15.50290
#
# Velocity S-wave (km/s) = 1.98059 3.35659 2.75585
# Velocity P-wave (km/s) = 5.05907 6.15750 5.63511
#
# Compressibility (1/GPa) = 0.02405692
#
# Stress axis : x y z
#
# Youngs Moduli (GPa) = 63.67342 47.44305 79.82243
#
# Poissons Ratio (x) = 0.26750 0.31781
# Poissons Ratio (y) = 0.35901 0.24004
# Poissons Ratio (z) = 0.25351 0.14267
#
# Static dielectric constant tensor:
#      x y z
#    x 1.502690 0.000000 -0.122440 
#    y 0.000000 1.783210 0.000000 
#    z -0.122440 0.000000 1.710790 
# 
# From -- ./inp_files/54718.got.cif
#   From: 2010.05.17/outbox.cif.g08.bks.cpg/sg12_28_cif.got.tgz:54718.got - 2010.06.03 13:09:07.
