data_PCOD9202406
_publ_section_title
;
Structure prediction by ZEFSAII (Michael W. Deem and Ramdas Pophale) SiO2 
 PCOD9202406
Probable space group: C 2/M
;
_chemical_formula_sum "Si O2"
_cell_formula_units_Z 50
_cell_length_a 7.725459
_cell_length_b 12.170744
_cell_length_c 25.562601
_cell_angle_alpha 90.000000
_cell_angle_beta 112.283866
_cell_angle_gamma 90.000000
_cell_volume 2224.010242
_symmetry_space_group_name_H-M "C 2/M"
_symmetry_group_IT_number 12
_symmetry_cell_setting 'monoclinic'
loop_
_space_group_symop_operation_xyz
x,y,z
-x,y,-z
-x,-y,-z
x,-y,z
1/2+x,1/2+y,z
1/2-x,1/2+y,-z
1/2-x,1/2-y,-z
1/2+x,1/2-y,z
loop_
_atom_site_type_symbol
_atom_site_label
_atom_site_fract_x
_atom_site_fract_y
_atom_site_fract_z
Si Si1 0.584604 0.881126 0.284672
Si Si2 0.328704 0.374602 0.020413
Si Si3 0.057901 0.879833 0.151753
Si Si4 0.323129 0.302732 0.218630
Si Si5 0.306174 0.153699 0.591303
Si Si6 0.500000 0.500000 0.500000
Si Si7 0.849805 0.617487 0.436332
O O1 0.443340 0.779791 0.268279
O O2 0.694561 0.870928 0.242786
O O3 0.716612 0.870894 0.350188
O O4 0.490327 0.000000 0.276868
O O5 0.233734 0.500000 0.004772
O O6 0.408181 0.369639 0.088346
O O7 0.500000 0.382161 0.000000
O O8 0.250000 0.250000 0.000000
O O9 0.955383 0.871040 0.195871
O O10 0.201241 0.778999 0.168268
O O11 0.148272 0.000000 0.155858
O O12 0.289543 0.282912 0.579809
O O13 0.515041 0.118993 0.598378
O O14 0.148757 0.094261 0.539099
O O15 0.751283 0.500000 0.432042
O O16 0.000000 0.628480 0.500000
#
# Coordination Sequence:
#
# PCOD9202406 Si02
#       7
#     8   8   8   8   8   2   8
#     4  11  22  40  60  85 116 149 191 248 299 356
#     4  10  21  37  59  91 129 167 210 252 301 357
#     4  10  20  38  61  86 121 161 201 252 297 350
#     4  10  22  38  60  87 114 153 204 246 302 354
#     4  12  24  42  63  88 119 152 190 238 298 359
#     4  12  24  40  68  88 120 156 190 234 302 372
#     4  11  24  41  60  86 113 146 187 229 278 352
#
# _framework density 22.481911
#
# number of rings (size 3 to 8) (size 9 to 14) (size 15 to 20)
#    0.000    1.280    2.400    3.360    0.000    0.320 
#    0.000    8.000    0.000    0.000    0.000    0.000 
#    0.000    0.000    0.000    0.000    0.000    0.000 
#
# Total GULP energy -139366.948361 kJ/mol
# GULP energy per Si atom -5574.677934 kJ/mol
# Density = 2.243074 g / cm^3
# Si number density = 22.481911 Si / 1000 Ang^3
#
#
#
# Elastic Constant Matrix: (Units=GPa)
#
#
# Indices 1 2 3 4 5 6 
#
# 1 20.3064 6.9377 -3.9793 0.0000 -1.6183 0.0000
# 2 6.9377 192.8674 37.3906 0.0000 10.5299 0.0000
# 3 -3.9793 37.3906 73.8384 0.0000 -0.4694 0.0000
# 4 0.0000 0.0000 0.0000 -41.5930 0.0000 -44.6291
# 5 -1.6183 10.5299 -0.4694 0.0000 24.7768 0.0000
# 6 0.0000 0.0000 0.0000 -44.6291 0.0000 -22.1459
#
#
#
# Elastic Compliance Matrix: (Units=1/GPa)
#
#
# Indices 1 2 3 4 5 6 
#
# 1 0.051465 -0.002940 0.004292 0.000000 0.004692 0.000000
# 2 -0.002940 0.006076 -0.003253 0.000000 -0.002836 0.000000
# 3 0.004292 -0.003253 0.015434 0.000000 0.001955 0.000000
# 4 0.000000 0.000000 0.000000 0.020685 0.000000 -0.041684
# 5 0.004692 -0.002836 0.001955 0.000000 0.041909 0.000000
# 6 0.000000 0.000000 0.000000 -0.041684 0.000000 0.038849
#
#
# Mechanical properties :
#
#
# Convention : Reuss Voigt Hill
#
# Bulk Modulus (GPa) = 14.45639 40.85668 27.65654
# Shear Modulus (GPa) = 24.84132 8.65179 16.74655
#
# Velocity S-wave (km/s) = 3.32768 1.96385 2.73223
# Velocity P-wave (km/s) = 4.60530 4.83268 4.72036
#
# Compressibility (1/GPa) = 0.06917354
#
# Stress axis : x y z
#
# Youngs Moduli (GPa) = 19.43071 164.57660 64.79092
#
# Poissons Ratio (x) = 0.48377 -0.27808
# Poissons Ratio (y) = 0.05712 0.21079
# Poissons Ratio (z) = -0.08340 0.53542
#
# Static dielectric constant tensor:
#      x y z
#    x 1.844080 0.000000 -0.024880 
#    y 0.000000 1.857660 0.000000 
#    z -0.024880 0.000000 1.820080 
# 
# From -- ./inp_files/355474.got.cif
#   From: 2010.05.17/outbox.cif.g08.bks.cpg/sg12_178_cif.got.tgz:355474.got - 2010.06.03 13:09:07.
