data_PCOD9202020
_publ_section_title
;
Structure prediction by ZEFSAII (Michael W. Deem and Ramdas Pophale) SiO2 
 PCOD9202020
Probable space group: C 2/M
;
_chemical_formula_sum "Si O2"
_cell_formula_units_Z 56
_cell_length_a 14.651434
_cell_length_b 9.328946
_cell_length_c 26.388209
_cell_angle_alpha 90.000000
_cell_angle_beta 114.154388
_cell_angle_gamma 90.000000
_cell_volume 3291.015096
_symmetry_space_group_name_H-M "C 2/M"
_symmetry_group_IT_number 12
_symmetry_cell_setting 'monoclinic'
loop_
_space_group_symop_operation_xyz
x,y,z
-x,y,-z
-x,-y,-z
x,-y,z
1/2+x,1/2+y,z
1/2-x,1/2+y,-z
1/2-x,1/2-y,-z
1/2+x,1/2-y,z
loop_
_atom_site_type_symbol
_atom_site_label
_atom_site_fract_x
_atom_site_fract_y
_atom_site_fract_z
Si Si1 0.573760 0.327851 0.762073
Si Si2 0.486906 0.327581 0.851590
Si Si3 0.086151 0.665233 0.561899
Si Si4 0.293853 0.328118 0.058576
Si Si5 0.707752 0.172466 0.148941
Si Si6 0.736507 0.829134 0.443406
Si Si7 0.480795 0.168617 0.645915
O O1 0.570324 0.500000 0.756999
O O2 0.511349 0.289536 0.798616
O O3 0.690071 0.288592 0.797971
O O4 0.528343 0.255873 0.702367
O O5 0.473878 0.500000 0.851148
O O6 0.589510 0.291954 0.904872
O O7 0.389856 0.249889 0.851647
O O8 0.122268 0.500000 0.565220
O O9 0.172825 0.776741 0.570464
O O10 0.000000 0.682978 0.500000
O O11 0.041276 0.684670 0.607325
O O12 0.288427 0.500000 0.051152
O O13 0.232162 0.292315 0.095739
O O14 0.250000 0.250000 0.000000
O O15 0.695759 0.000000 0.149587
O O16 0.750000 0.750000 0.500000
O O17 0.632330 0.788391 0.393374
O O18 0.735948 0.000000 0.451247
O O19 0.480651 0.000000 0.659026
#
# Coordination Sequence:
#
# PCOD9202020 Si02
#       7
#     8   8   8   8   8   8   8
#     4   9  20  38  56  76 106 140 178 222 268 319
#     4   9  19  36  56  78 107 144 182 222 267 316
#     4  10  20  38  57  76 107 141 171 213 266 319
#     4   9  19  35  53  78 113 147 181 221 265 313
#     4   9  19  36  56  78 107 143 180 223 268 313
#     4  11  22  37  56  80 107 138 175 215 263 321
#     4  10  22  38  56  79 109 140 174 220 271 321
#
# _framework density 17.016027000000001
#
# number of rings (size 3 to 8) (size 9 to 14) (size 15 to 20)
#    0.000    2.429    1.429    2.143    0.000    6.000 
#    0.000   11.429    0.000    0.000    0.000    0.000 
#    0.000    0.000    0.000    0.000    0.000    0.000 
#
# Total GULP energy -156200.254021 kJ/mol
# GULP energy per Si atom -5578.580501 kJ/mol
# Density = 1.697730 g / cm^3
# Si number density = 17.016027 Si / 1000 Ang^3
#
#
#
# Elastic Constant Matrix: (Units=GPa)
#
#
# Indices 1 2 3 4 5 6 
#
# 1 134.1336 55.2299 72.9167 0.0000 7.5551 0.0000
# 2 55.2299 42.1660 64.0968 0.0000 4.2079 0.0000
# 3 72.9167 64.0968 166.7510 0.0000 4.2224 0.0000
# 4 0.0000 0.0000 0.0000 35.6390 0.0000 -0.9909
# 5 7.5551 4.2079 4.2224 0.0000 10.1275 0.0000
# 6 0.0000 0.0000 0.0000 -0.9909 0.0000 37.9788
#
#
#
# Elastic Compliance Matrix: (Units=1/GPa)
#
#
# Indices 1 2 3 4 5 6 
#
# 1 0.016740 -0.025545 0.002573 0.000000 -0.002948 0.000000
# 2 -0.025545 0.098287 -0.026336 0.000000 -0.010800 0.000000
# 3 0.002573 -0.026336 0.014924 0.000000 0.002801 0.000000
# 4 0.000000 0.000000 0.000000 0.028080 0.000000 0.000733
# 5 -0.002948 -0.010800 0.002801 0.000000 0.104260 0.000000
# 6 0.000000 0.000000 0.000000 0.000733 0.000000 0.026350
#
#
# Mechanical properties :
#
#
# Convention : Reuss Voigt Hill
#
# Bulk Modulus (GPa) = 31.91235 80.83750 56.37492
# Shear Modulus (GPa) = 12.57226 26.80287 19.68756
#
# Velocity S-wave (km/s) = 2.72113 3.97313 3.40516
# Velocity P-wave (km/s) = 5.35422 8.28598 6.97586
#
# Compressibility (1/GPa) = 0.03133583
#
# Stress axis : x y z
#
# Youngs Moduli (GPa) = 59.73553 10.17434 67.00579
#
# Poissons Ratio (x) = 0.25990 -0.17243
# Poissons Ratio (y) = 1.52592 1.76469
# Poissons Ratio (z) = -0.15372 0.26795
#
# Static dielectric constant tensor:
#      x y z
#    x 1.568510 0.000000 -0.003600 
#    y 0.000000 1.564530 0.000000 
#    z -0.003600 0.000000 1.553830 
# 
# From -- ./inp_files/337834.got.cif
#   From: 2010.05.17/outbox.cif.g08.bks.cpg/sg12_169_cif.got.tgz:337834.got - 2010.06.03 13:09:07.
