data_PCOD9202216
_publ_section_title
;
Structure prediction by ZEFSAII (Michael W. Deem and Ramdas Pophale) SiO2 
 PCOD9202216
Probable space group: C 2/M
;
_chemical_formula_sum "Si O2"
_cell_formula_units_Z 56
_cell_length_a 20.587612
_cell_length_b 7.633445
_cell_length_c 27.918576
_cell_angle_alpha 90.000000
_cell_angle_beta 144.923992
_cell_angle_gamma 90.000000
_cell_volume 2521.347815
_symmetry_space_group_name_H-M "C 2/M"
_symmetry_group_IT_number 12
_symmetry_cell_setting 'monoclinic'
loop_
_space_group_symop_operation_xyz
x,y,z
-x,y,-z
-x,-y,-z
x,-y,z
1/2+x,1/2+y,z
1/2-x,1/2+y,-z
1/2-x,1/2-y,-z
1/2+x,1/2-y,z
loop_
_atom_site_type_symbol
_atom_site_label
_atom_site_fract_x
_atom_site_fract_y
_atom_site_fract_z
Si Si1 0.714757 0.212164 0.751866
Si Si2 0.881373 0.703682 0.207350
Si Si3 0.968364 0.294936 0.429375
Si Si4 0.445721 0.208325 0.848995
Si Si5 0.394927 0.214962 0.711127
Si Si6 0.695863 0.790814 0.018710
Si Si7 0.300948 0.291141 0.478430
O O1 0.657155 0.280367 0.765443
O O2 0.642140 0.279494 0.663021
O O3 0.844796 0.260087 0.824681
O O4 0.709017 0.000000 0.748977
O O5 0.908244 0.500000 0.232465
O O6 0.776884 0.713691 0.107927
O O7 0.993527 0.776161 0.250098
O O8 0.944254 0.500000 0.422995
O O9 0.074913 0.281740 0.457907
O O10 0.000000 0.216337 0.500000
O O11 0.407313 0.275464 0.773429
O O12 0.461051 0.000000 0.852406
O O13 0.567152 0.276409 0.939341
O O14 0.284864 0.271180 0.615054
O O15 0.393631 0.000000 0.710935
O O16 0.695251 0.000000 0.025543
O O17 0.750000 0.750000 0.000000
O O18 0.309376 0.500000 0.480040
O O19 0.250000 0.250000 0.500000
#
# Coordination Sequence:
#
# PCOD9202216 Si02
#       7
#     8   8   8   8   8   8   8
#     4  10  22  38  58  85 118 156 190 233 291 344
#     4  10  20  38  60  81 115 155 192 232 282 343
#     4  10  21  39  61  85 118 155 195 245 295 344
#     4  10  21  38  60  83 112 147 187 236 283 339
#     4   9  18  36  59  81 108 150 193 233 286 341
#     4  11  22  38  61  88 115 147 188 236 288 338
#     4  11  22  36  58  85 116 153 196 242 291 348
#
# _framework density 22.210342000000001
#
# number of rings (size 3 to 8) (size 9 to 14) (size 15 to 20)
#    0.000    1.857    1.429    2.571    0.000    5.429 
#    0.000    6.429    0.000    0.000    0.000    0.000 
#    0.000    0.000    0.000    0.000    0.000    0.000 
#
# Total GULP energy -156509.172827 kJ/mol
# GULP energy per Si atom -5589.613315 kJ/mol
# Density = 2.215979 g / cm^3
# Si number density = 22.210342 Si / 1000 Ang^3
#
#
#
# Elastic Constant Matrix: (Units=GPa)
#
#
# Indices 1 2 3 4 5 6 
#
# 1 57.7361 -16.7650 -14.1518 -0.0001 10.2654 -0.0005
# 2 -16.7650 42.6118 -13.1930 -0.0007 -2.0031 0.0020
# 3 -14.1518 -13.1930 78.2071 0.0002 17.0996 -0.0004
# 4 -0.0001 -0.0007 0.0002 17.5349 -0.0001 4.1397
# 5 10.2654 -2.0031 17.0996 -0.0001 33.6278 -0.0001
# 6 -0.0005 0.0020 -0.0004 4.1397 -0.0001 20.9134
#
#
#
# Elastic Compliance Matrix: (Units=1/GPa)
#
#
# Indices 1 2 3 4 5 6 
#
# 1 0.025165 0.012187 0.009148 0.000001 -0.011608 -0.000001
# 2 0.012187 0.030679 0.008770 0.000002 -0.006352 -0.000003
# 3 0.009148 0.008770 0.018471 0.000000 -0.011663 0.000000
# 4 0.000001 0.000002 0.000000 0.059825 0.000000 -0.011842
# 5 -0.011608 -0.006352 -0.011663 0.000000 0.038833 0.000000
# 6 -0.000001 -0.000003 0.000000 -0.011842 0.000000 0.050160
#
#
# Mechanical properties :
#
#
# Convention : Reuss Voigt Hill
#
# Bulk Modulus (GPa) = 7.43360 10.03725 8.73543
# Shear Modulus (GPa) = 24.06557 29.25952 26.66254
#
# Velocity S-wave (km/s) = 3.29527 3.63351 3.46852
# Velocity P-wave (km/s) = 4.22287 4.70449 4.47017
#
# Compressibility (1/GPa) = 0.13452433
#
# Stress axis : x y z
#
# Youngs Moduli (GPa) = 39.73768 32.59539 54.13844
#
# Poissons Ratio (x) = -0.39725 -0.49523
# Poissons Ratio (y) = -0.48430 -0.47477
# Poissons Ratio (z) = -0.36350 -0.28585
#
# Static dielectric constant tensor:
#      x y z
#    x 1.799850 0.000000 -0.020060 
#    y 0.000000 1.906400 0.000000 
#    z -0.020060 0.000000 1.796290 
# 
# From -- ./inp_files/380724.got.cif
#   From: 2010.05.17/outbox.cif.g08.bks.cpg/sg12_191_cif.got.tgz:380724.got - 2010.06.03 13:09:07.
