data_PCOD9202028
_publ_section_title
;
Structure prediction by ZEFSAII (Michael W. Deem and Ramdas Pophale) SiO2 
 PCOD9202028
Probable space group: C 2/M
;
_chemical_formula_sum "Si O2"
_cell_formula_units_Z 48
_cell_length_a 13.986946
_cell_length_b 22.696934
_cell_length_c 11.255098
_cell_angle_alpha 90.000000
_cell_angle_beta 136.744167
_cell_angle_gamma 90.000000
_cell_volume 2448.459599
_symmetry_space_group_name_H-M "C 2/M"
_symmetry_group_IT_number 12
_symmetry_cell_setting 'monoclinic'
loop_
_space_group_symop_operation_xyz
x,y,z
-x,y,-z
-x,-y,-z
x,-y,z
1/2+x,1/2+y,z
1/2-x,1/2+y,-z
1/2-x,1/2-y,-z
1/2+x,1/2-y,z
loop_
_atom_site_type_symbol
_atom_site_label
_atom_site_fract_x
_atom_site_fract_y
_atom_site_fract_z
Si Si1 0.643673 0.500000 0.199495
Si Si2 0.345336 0.803008 0.912310
Si Si3 0.252457 0.813129 0.568379
Si Si4 0.951438 0.625945 0.221064
Si Si5 0.925593 0.875980 0.764597
Si Si6 0.578652 0.000000 0.697832
Si Si7 0.199691 0.171856 0.112894
O O1 0.638137 0.440537 0.271370
O O2 0.762925 0.500000 0.207362
O O3 0.500000 0.500000 0.000000
O O4 0.251591 0.810602 0.710517
O O5 0.314924 0.739183 0.939467
O O6 0.500000 0.797654 0.000000
O O7 0.359492 0.854317 0.022596
O O8 0.250000 0.750000 0.500000
O O9 0.396392 0.845801 0.658917
O O10 0.121509 0.849847 0.402033
O O11 0.957120 0.557278 0.256846
O O12 0.858600 0.652564 0.243416
O O13 0.852465 0.835448 0.799524
O O14 0.089889 0.869148 0.941041
O O15 0.500000 0.000000 0.500000
#
# Coordination Sequence:
#
# PCOD9202028 Si02
#       7
#     4   8   8   8   8   4   8
#     4  12  20  36  59  85 119 155 188 235 302 355
#     4  10  20  38  57  81 116 158 189 239 300 357
#     4  11  22  39  59  82 116 152 197 247 294 354
#     4  11  24  38  59  88 120 156 197 244 305 353
#     4  11  20  35  59  87 117 151 190 239 299 345
#     4  12  24  38  58  91 123 149 205 259 289 346
#     4  11  19  37  61  87 120 148 196 244 299 360
#
# _framework density 19.604163
#
# number of rings (size 3 to 8) (size 9 to 14) (size 15 to 20)
#    0.000    1.000    6.667    2.500    0.000    0.000 
#    0.000    7.083    0.000    0.000    0.000    3.500 
#    0.000    0.000    0.000    0.000    0.000    0.000 
#
# Total GULP energy -133908.540844 kJ/mol
# GULP energy per Si atom -5579.522535 kJ/mol
# Density = 1.955954 g / cm^3
# Si number density = 19.604163 Si / 1000 Ang^3
#
#
#
# Elastic Constant Matrix: (Units=GPa)
#
#
# Indices 1 2 3 4 5 6 
#
# 1 49.7151 26.9240 -3.4012 0.0000 11.5396 0.0000
# 2 26.9240 157.5734 31.8041 0.0000 -19.8642 0.0000
# 3 -3.4012 31.8041 73.6891 0.0000 -15.8298 0.0000
# 4 0.0000 0.0000 0.0000 21.9693 0.0000 -5.0933
# 5 11.5396 -19.8642 -15.8298 0.0000 29.3515 0.0000
# 6 0.0000 0.0000 0.0000 -5.0933 0.0000 13.8848
#
#
#
# Elastic Compliance Matrix: (Units=1/GPa)
#
#
# Indices 1 2 3 4 5 6 
#
# 1 0.027229 -0.006707 0.000992 0.000000 -0.014709 0.000000
# 2 -0.006707 0.008935 -0.002602 0.000000 0.007281 0.000000
# 3 0.000992 -0.002602 0.016148 0.000000 0.006558 0.000000
# 4 0.000000 0.000000 0.000000 0.049749 0.000000 0.018249
# 5 -0.014709 0.007281 0.006558 0.000000 0.048317 0.000000
# 6 0.000000 0.000000 0.000000 0.018249 0.000000 0.078715
#
#
# Mechanical properties :
#
#
# Convention : Reuss Voigt Hill
#
# Bulk Modulus (GPa) = 28.02867 43.51459 35.77163
# Shear Modulus (GPa) = 19.40835 28.08450 23.74642
#
# Velocity S-wave (km/s) = 3.14986 3.78905 3.48414
# Velocity P-wave (km/s) = 5.24949 6.43330 5.87131
#
# Compressibility (1/GPa) = 0.03567775
#
# Stress axis : x y z
#
# Youngs Moduli (GPa) = 36.72552 111.91631 61.92664
#
# Poissons Ratio (x) = 0.75062 -0.06141
# Poissons Ratio (y) = 0.24632 0.16113
# Poissons Ratio (z) = -0.03642 0.29120
#
# Static dielectric constant tensor:
#      x y z
#    x 1.665210 0.000000 -0.027310 
#    y 0.000000 1.767290 0.000000 
#    z -0.027310 0.000000 1.749580 
# 
# From -- ./inp_files/148070.got.cif
#   From: 2010.05.17/outbox.cif.g08.bks.cpg/sg12_75_cif.got.tgz:148070.got - 2010.06.03 13:09:07.
