data_PCOD9202865
_publ_section_title
;
Structure prediction by ZEFSAII (Michael W. Deem and Ramdas Pophale) SiO2 
 PCOD9202865
Probable space group: C 2/M
;
_chemical_formula_sum "Si O2"
_cell_formula_units_Z 48
_cell_length_a 15.952085
_cell_length_b 18.502156
_cell_length_c 12.611933
_cell_angle_alpha 90.000000
_cell_angle_beta 141.566562
_cell_angle_gamma 90.000000
_cell_volume 2313.854125
_symmetry_space_group_name_H-M "C 2/M"
_symmetry_group_IT_number 12
_symmetry_cell_setting 'monoclinic'
loop_
_space_group_symop_operation_xyz
x,y,z
-x,y,-z
-x,-y,-z
x,-y,z
1/2+x,1/2+y,z
1/2-x,1/2+y,-z
1/2-x,1/2-y,-z
1/2+x,1/2-y,z
loop_
_atom_site_type_symbol
_atom_site_label
_atom_site_fract_x
_atom_site_fract_y
_atom_site_fract_z
Si Si1 0.852939 0.760805 0.701996
Si Si2 0.634270 0.193808 0.906221
Si Si3 0.343981 0.130179 0.853269
Si Si4 0.312092 0.584311 0.636786
Si Si5 0.589676 0.579903 0.498756
Si Si6 0.503260 0.080915 0.630221
O O1 0.750000 0.750000 0.500000
O O2 0.821706 0.704969 0.765856
O O3 0.849076 0.843675 0.738786
O O4 0.000188 0.736440 0.809323
O O5 0.593352 0.143105 0.768743
O O6 0.750000 0.250000 0.000000
O O7 0.681695 0.143339 0.049515
O O8 0.238198 0.077550 0.695620
O O9 0.500000 0.108373 0.000000
O O10 0.345686 0.500000 0.698631
O O11 0.383479 0.603169 0.595059
O O12 0.148513 0.586068 0.472272
O O13 0.500000 0.619664 0.500000
O O14 0.529014 0.500000 0.426453
O O15 0.500000 0.087455 0.500000
O O16 0.553636 0.000000 0.705243
#
# Coordination Sequence:
#
# PCOD9202865 Si02
#       6
#     8   8   8   8   8   8
#     4  11  20  39  63  88 119 165 217 256 299 380
#     4  11  25  37  57  94 127 161 201 259 329 376
#     4  10  22  38  56  85 125 161 199 252 318 372
#     4  10  20  38  64  89 118 158 212 265 305 352
#     4  10  21  36  59  92 123 158 206 251 303 377
#     4  10  22  42  67  93 122 167 226 268 307 381
#
# _framework density 20.744609000000001
#
# number of rings (size 3 to 8) (size 9 to 14) (size 15 to 20)
#    0.000    1.667    3.333    1.000    4.667    1.000 
#    0.000    0.833    0.000    4.500    0.000    0.000 
#    0.000    0.000    0.000    0.000    0.000    0.000 
#
# Total GULP energy -133764.774781 kJ/mol
# GULP energy per Si atom -5573.532283 kJ/mol
# Density = 2.069739 g / cm^3
# Si number density = 20.744609 Si / 1000 Ang^3
#
#
#
# Elastic Constant Matrix: (Units=GPa)
#
#
# Indices 1 2 3 4 5 6 
#
# 1 77.2236 15.4516 -8.0506 0.0000 -6.4266 0.0000
# 2 15.4516 137.1539 21.1630 0.0000 5.1928 0.0000
# 3 -8.0506 21.1630 30.9661 0.0000 -5.5677 0.0000
# 4 0.0000 0.0000 0.0000 3.0342 0.0000 20.0826
# 5 -6.4266 5.1928 -5.5677 0.0000 9.5264 0.0000
# 6 0.0000 0.0000 0.0000 20.0826 0.0000 -0.6784
#
#
#
# Elastic Compliance Matrix: (Units=1/GPa)
#
#
# Indices 1 2 3 4 5 6 
#
# 1 0.016586 -0.004288 0.010811 0.000000 0.019844 0.000000
# 2 -0.004288 0.009943 -0.010509 0.000000 -0.014454 0.000000
# 3 0.010811 -0.010509 0.049867 0.000000 0.042166 0.000000
# 4 0.000000 0.000000 0.000000 0.001674 0.000000 0.049541
# 5 0.019844 -0.014454 0.042166 0.000000 0.150881 0.000000
# 6 0.000000 0.000000 0.000000 0.049541 0.000000 -0.007485
#
#
# Mechanical properties :
#
#
# Convention : Reuss Voigt Hill
#
# Bulk Modulus (GPa) = 14.61487 33.60794 24.11141
# Shear Modulus (GPa) = 19.82190 16.82842 18.32516
#
# Velocity S-wave (km/s) = 3.09450 2.85128 2.97538
# Velocity P-wave (km/s) = 4.45291 5.20343 4.84273
#
# Compressibility (1/GPa) = 0.06842344
#
# Stress axis : x y z
#
# Youngs Moduli (GPa) = 60.29229 100.57378 20.05322
#
# Poissons Ratio (x) = 0.43126 -0.21679
# Poissons Ratio (y) = 0.25853 0.21074
# Poissons Ratio (z) = -0.65179 1.05692
#
# Static dielectric constant tensor:
#      x y z
#    x 1.780010 0.000000 -0.009100 
#    y 0.000000 1.770730 0.000000 
#    z -0.009100 0.000000 1.723040 
# 
# From -- ./inp_files/148008.got.cif
#   From: 2010.05.17/outbox.cif.g08.bks.cpg/sg12_75_cif.got.tgz:148008.got - 2010.06.03 13:09:07.
