data_PCOD9202357
_publ_section_title
;
Structure prediction by ZEFSAII (Michael W. Deem and Ramdas Pophale) SiO2 
 PCOD9202357
Probable space group: C 2/M
;
_chemical_formula_sum "Si O2"
_cell_formula_units_Z 48
_cell_length_a 14.868544
_cell_length_b 8.088469
_cell_length_c 19.717625
_cell_angle_alpha 90.000000
_cell_angle_beta 55.590475
_cell_angle_gamma 90.000000
_cell_volume 1956.381820
_symmetry_space_group_name_H-M "C 2/M"
_symmetry_group_IT_number 12
_symmetry_cell_setting 'monoclinic'
loop_
_space_group_symop_operation_xyz
x,y,z
-x,y,-z
-x,-y,-z
x,-y,z
1/2+x,1/2+y,z
1/2-x,1/2+y,-z
1/2-x,1/2-y,-z
1/2+x,1/2-y,z
loop_
_atom_site_type_symbol
_atom_site_label
_atom_site_fract_x
_atom_site_fract_y
_atom_site_fract_z
Si Si1 0.443315 0.196855 0.317211
Si Si2 0.355854 0.694418 0.861324
Si Si3 0.201772 0.805591 0.816469
Si Si4 0.598134 0.798147 0.366778
Si Si5 0.782027 0.689076 0.560262
Si Si6 0.027310 0.691477 0.062076
O O1 0.539948 0.233982 0.223890
O O2 0.491282 0.250570 0.370525
O O3 0.332074 0.291947 0.350626
O O4 0.422230 0.000000 0.327195
O O5 0.348356 0.500000 0.852848
O O6 0.250866 0.775432 0.870842
O O7 0.382983 0.728293 0.927988
O O8 0.299474 0.754088 0.724919
O O9 0.091198 0.706623 0.852203
O O10 0.179963 0.000000 0.816290
O O11 0.626200 0.735115 0.429814
O O12 0.595139 0.000000 0.370220
O O13 0.813281 0.500000 0.538135
O O14 0.750000 0.750000 0.500000
O O15 0.058016 0.500000 0.039817
O O16 0.000000 0.766612 0.000000
#
# Coordination Sequence:
#
# PCOD9202357 Si02
#       6
#     8   8   8   8   8   8
#     4  10  20  38  61  84 109 144 190 238 285 335
#     4  11  22  38  61  88 117 151 190 235 289 348
#     4  10  20  38  63  88 113 147 193 243 292 341
#     4   8  18  36  58  80 107 144 184 226 277 336
#     4  11  22  37  55  81 115 151 189 231 285 345
#     4  11  24  40  58  84 118 155 195 239 286 339
#
# _framework density 24.535088999999999
#
# number of rings (size 3 to 8) (size 9 to 14) (size 15 to 20)
#    0.000    1.833    0.000    5.500    0.000    4.000 
#    0.000   12.500    0.000    0.000    0.000    0.000 
#    0.000    0.000    0.000    0.000    0.000    0.000 
#
# Total GULP energy -134254.509809 kJ/mol
# GULP energy per Si atom -5593.937909 kJ/mol
# Density = 2.447925 g / cm^3
# Si number density = 24.535089 Si / 1000 Ang^3
#
#
#
# Elastic Constant Matrix: (Units=GPa)
#
#
# Indices 1 2 3 4 5 6 
#
# 1 147.2412 -8.3903 36.0304 0.0000 29.4414 0.0000
# 2 -8.3903 37.6032 1.2484 0.0000 10.1165 0.0000
# 3 36.0304 1.2484 65.1618 0.0000 22.6333 0.0000
# 4 0.0000 0.0000 0.0000 22.8294 0.0000 5.4175
# 5 29.4414 10.1165 22.6333 0.0000 52.6972 0.0000
# 6 0.0000 0.0000 0.0000 5.4175 0.0000 20.0641
#
#
#
# Elastic Compliance Matrix: (Units=1/GPa)
#
#
# Indices 1 2 3 4 5 6 
#
# 1 0.008594 0.003084 -0.003453 0.000000 -0.003911 0.000000
# 2 0.003084 0.029285 0.000335 0.000000 -0.007489 0.000000
# 3 -0.003453 0.000335 0.019512 0.000000 -0.006516 0.000000
# 4 0.000000 0.000000 0.000000 0.046802 0.000000 -0.012637
# 5 -0.003911 -0.007489 -0.006516 0.000000 0.025397 0.000000
# 6 0.000000 0.000000 0.000000 -0.012637 0.000000 0.053252
#
#
# Mechanical properties :
#
#
# Convention : Reuss Voigt Hill
#
# Bulk Modulus (GPa) = 17.44458 34.19812 25.82135
# Shear Modulus (GPa) = 24.75010 33.85932 29.30471
#
# Velocity S-wave (km/s) = 3.17955 3.71891 3.45976
# Velocity P-wave (km/s) = 4.53926 5.69290 5.14850
#
# Compressibility (1/GPa) = 0.05732440
#
# Stress axis : x y z
#
# Youngs Moduli (GPa) = 116.35766 34.14673 51.24960
#
# Poissons Ratio (x) = -0.10532 0.17696
# Poissons Ratio (y) = -0.35888 -0.01716
# Poissons Ratio (z) = 0.40176 -0.01143
#
# Static dielectric constant tensor:
#      x y z
#    x 1.925550 0.000000 0.035730 
#    y 0.000000 1.851320 0.000000 
#    z 0.035730 0.000000 2.066200 
# 
# From -- ./inp_files/308313.got.cif
#   From: 2010.05.17/outbox.cif.g08.bks.cpg/sg12_155_cif.got.tgz:308313.got - 2010.06.03 13:09:07.
