data_PCOD9202272
_publ_section_title
;
Structure prediction by ZEFSAII (Michael W. Deem and Ramdas Pophale) SiO2 
 PCOD9202272
Probable space group: C 2/M
;
_chemical_formula_sum "Si O2"
_cell_formula_units_Z 56
_cell_length_a 23.384083
_cell_length_b 11.303214
_cell_length_c 11.650028
_cell_angle_alpha 90.000000
_cell_angle_beta 76.503593
_cell_angle_gamma 90.000000
_cell_volume 2994.244885
_symmetry_space_group_name_H-M "C 2/M"
_symmetry_group_IT_number 12
_symmetry_cell_setting 'monoclinic'
loop_
_space_group_symop_operation_xyz
x,y,z
-x,y,-z
-x,-y,-z
x,-y,z
1/2+x,1/2+y,z
1/2-x,1/2+y,-z
1/2-x,1/2-y,-z
1/2+x,1/2-y,z
loop_
_atom_site_type_symbol
_atom_site_label
_atom_site_fract_x
_atom_site_fract_y
_atom_site_fract_z
Si Si1 0.570578 0.359390 0.472464
Si Si2 0.114857 0.132939 0.700826
Si Si3 0.871107 0.629907 0.667043
Si Si4 0.246101 0.202374 0.630940
Si Si5 0.653875 0.786089 0.076232
Si Si6 0.744905 0.135011 0.850048
Si Si7 0.429996 0.638836 0.036662
O O1 0.500000 0.358699 0.500000
O O2 0.588866 0.500000 0.442762
O O3 0.592286 0.321537 0.589551
O O4 0.596346 0.253542 0.381462
O O5 0.185328 0.131353 0.667873
O O6 0.092404 0.187613 0.829862
O O7 0.090483 0.000000 0.715582
O O8 0.896737 0.500000 0.622815
O O9 0.806351 0.638523 0.639150
O O10 0.863897 0.634279 0.807943
O O11 0.250000 0.250000 0.500000
O O12 0.238666 0.304275 0.729739
O O13 0.702213 0.697376 0.106837
O O14 0.687372 0.850171 0.956208
O O15 0.600157 0.712886 0.049326
O O16 0.759403 0.000000 0.826960
O O17 0.412086 0.500000 0.034716
O O18 0.500000 0.644507 0.000000
#
# Coordination Sequence:
#
# PCOD9202272 Si02
#       7
#     8   8   8   8   8   8   8
#     4  10  23  42  65  90 122 164 209 255 302 360
#     4  10  20  38  60  86 120 153 197 254 310 358
#     4  11  24  39  62  92 125 164 205 251 308 374
#     4  11  21  38  58  88 121 158 199 247 304 369
#     4  10  21  38  57  82 120 152 198 246 305 364
#     4  10  21  36  58  83 113 155 197 243 297 360
#     4  10  21  36  61  90 115 153 205 260 311 365
#
# _framework density 18.702545000000001
#
# number of rings (size 3 to 8) (size 9 to 14) (size 15 to 20)
#    0.000    1.714    2.857    1.286    2.000    4.286 
#    0.000    0.000    0.000    1.714    0.000    0.000 
#    0.000    0.000    0.000    0.000    0.000    0.000 
#
# Total GULP energy -156036.282775 kJ/mol
# GULP energy per Si atom -5572.724385 kJ/mol
# Density = 1.865998 g / cm^3
# Si number density = 18.702545 Si / 1000 Ang^3
#
#
#
# Elastic Constant Matrix: (Units=GPa)
#
#
# Indices 1 2 3 4 5 6 
#
# 1 68.6324 21.7006 26.3701 0.0000 -2.3669 0.0000
# 2 21.7006 104.5928 43.2655 0.0000 2.8351 0.0000
# 3 26.3701 43.2655 117.1689 0.0000 15.2593 0.0000
# 4 0.0000 0.0000 0.0000 8.0599 0.0000 -10.1724
# 5 -2.3669 2.8351 15.2593 0.0000 24.5452 0.0000
# 6 0.0000 0.0000 0.0000 -10.1724 0.0000 46.6627
#
#
#
# Elastic Compliance Matrix: (Units=1/GPa)
#
#
# Indices 1 2 3 4 5 6 
#
# 1 0.016730 -0.002131 -0.003504 0.000000 0.004038 0.000000
# 2 -0.002131 0.011600 -0.003920 0.000000 0.000892 0.000000
# 3 -0.003504 -0.003920 0.011703 0.000000 -0.007161 0.000000
# 4 0.000000 0.000000 0.000000 0.171165 0.000000 0.037314
# 5 0.004038 0.000892 -0.007161 0.000000 0.045479 0.000000
# 6 0.000000 0.000000 0.000000 0.037314 0.000000 0.029565
#
#
# Mechanical properties :
#
#
# Convention : Reuss Voigt Hill
#
# Bulk Modulus (GPa) = 47.79384 52.56292 50.17838
# Shear Modulus (GPa) = 16.00882 29.12410 22.56646
#
# Velocity S-wave (km/s) = 2.92887 3.95045 3.47738
# Velocity P-wave (km/s) = 6.08670 6.99813 6.55827
#
# Compressibility (1/GPa) = 0.02092320
#
# Stress axis : x y z
#
# Youngs Moduli (GPa) = 59.77352 86.20392 85.44480
#
# Poissons Ratio (x) = 0.18370 0.29942
# Poissons Ratio (y) = 0.12737 0.33495
# Poissons Ratio (z) = 0.20946 0.33792
#
# Static dielectric constant tensor:
#      x y z
#    x 1.621420 0.000000 -0.008610 
#    y 0.000000 1.658680 0.000000 
#    z -0.008610 0.000000 1.688940 
# 
# From -- ./inp_files/165636.got.cif
#   From: 2010.05.17/outbox.cif.g08.bks.cpg/sg12_83_cif.got.tgz:165636.got - 2010.06.03 13:09:07.
