data_PCOD9202689
_publ_section_title
;
Structure prediction by ZEFSAII (Michael W. Deem and Ramdas Pophale) SiO2 
 PCOD9202689
Probable space group: C 2/M
;
_chemical_formula_sum "Si O2"
_cell_formula_units_Z 44
_cell_length_a 13.977818
_cell_length_b 10.640735
_cell_length_c 23.946712
_cell_angle_alpha 90.000000
_cell_angle_beta 138.439129
_cell_angle_gamma 90.000000
_cell_volume 2362.884129
_symmetry_space_group_name_H-M "C 2/M"
_symmetry_group_IT_number 12
_symmetry_cell_setting 'monoclinic'
loop_
_space_group_symop_operation_xyz
x,y,z
-x,y,-z
-x,-y,-z
x,-y,z
1/2+x,1/2+y,z
1/2-x,1/2+y,-z
1/2-x,1/2-y,-z
1/2+x,1/2-y,z
loop_
_atom_site_type_symbol
_atom_site_label
_atom_site_fract_x
_atom_site_fract_y
_atom_site_fract_z
Si Si1 0.735935 0.244269 0.804488
Si Si2 0.635688 0.360807 0.446108
Si Si3 0.682110 0.649796 0.659261
Si Si4 0.428373 0.289445 0.706254
Si Si5 0.074847 0.000000 0.092481
Si Si6 0.663391 0.000000 0.092489
Si Si7 0.042381 0.000000 0.838373
O O1 0.720907 0.275029 0.732594
O O2 0.577570 0.216653 0.760580
O O3 0.832472 0.125834 0.860380
O O4 0.801565 0.372862 0.858312
O O5 0.691694 0.500000 0.485298
O O6 0.750000 0.250000 0.500000
O O7 0.491732 0.336676 0.420002
O O8 0.591609 0.361370 0.361279
O O9 0.708371 0.500000 0.676639
O O10 0.787140 0.707776 0.658451
O O11 0.466338 0.382750 0.773772
O O12 0.974678 0.000000 0.103224
O O13 0.000000 0.000000 0.000000
O O14 0.500000 0.000000 0.000000
O O15 0.787916 0.000000 0.100279
#
# Coordination Sequence:
#
# PCOD9202689 Si02
#       7
#     8   8   8   8   4   4   4
#     4  10  21  38  60  84 119 155 200 247 294 361
#     4  10  22  41  61  90 127 159 197 249 301 350
#     4  10  20  38  63  86 116 159 205 246 289 360
#     4  10  20  39  64  86 114 163 207 239 293 359
#     4  12  24  40  56  93 131 149 187 268 318 338
#     4  10  20  40  60  82 109 161 205 239 293 363
#     4  10  20  40  64  82 117 162 202 243 292 368
#
# _framework density 18.621310999999999
#
# number of rings (size 3 to 8) (size 9 to 14) (size 15 to 20)
#    0.000    1.818    3.636    0.545    1.273    1.455 
#    9.818    5.455    0.000    0.000    0.000    0.000 
#    0.000    0.000    0.000    0.000    0.000    0.000 
#
# Total GULP energy -122653.979551 kJ/mol
# GULP energy per Si atom -5575.180889 kJ/mol
# Density = 1.857893 g / cm^3
# Si number density = 18.621311 Si / 1000 Ang^3
#
#
#
# Elastic Constant Matrix: (Units=GPa)
#
#
# Indices 1 2 3 4 5 6 
#
# 1 95.3024 35.2388 19.3995 0.0000 21.7427 0.0000
# 2 35.2388 108.6725 31.5276 0.0000 29.5797 0.0000
# 3 19.3995 31.5276 57.0962 0.0000 20.3793 0.0000
# 4 0.0000 0.0000 0.0000 51.1844 0.0000 4.4990
# 5 21.7427 29.5797 20.3793 0.0000 33.9756 0.0000
# 6 0.0000 0.0000 0.0000 4.4990 0.0000 24.4568
#
#
#
# Elastic Compliance Matrix: (Units=1/GPa)
#
#
# Indices 1 2 3 4 5 6 
#
# 1 0.012842 -0.002343 -0.001100 0.000000 -0.005519 0.000000
# 2 -0.002343 0.013136 -0.003704 0.000000 -0.007716 0.000000
# 3 -0.001100 -0.003704 0.023579 0.000000 -0.010215 0.000000
# 4 0.000000 0.000000 0.000000 0.019858 0.000000 -0.003653
# 5 -0.005519 -0.007716 -0.010215 0.000000 0.045809 0.000000
# 6 0.000000 0.000000 0.000000 -0.003653 0.000000 0.041560
#
#
# Mechanical properties :
#
#
# Convention : Reuss Voigt Hill
#
# Bulk Modulus (GPa) = 28.35682 48.15591 38.25636
# Shear Modulus (GPa) = 27.34724 33.58369 30.46546
#
# Velocity S-wave (km/s) = 3.83639 4.25138 4.04920
# Velocity P-wave (km/s) = 5.90636 7.07218 6.51540
#
# Compressibility (1/GPa) = 0.03526489
#
# Stress axis : x y z
#
# Youngs Moduli (GPa) = 77.86807 76.12436 42.41045
#
# Poissons Ratio (x) = 0.17836 0.04664
# Poissons Ratio (y) = 0.18245 0.15707
# Poissons Ratio (z) = 0.08564 0.28193
#
# Static dielectric constant tensor:
#      x y z
#    x 1.651770 0.000000 -0.003140 
#    y 0.000000 1.584660 0.000000 
#    z -0.003140 0.000000 1.641880 
# 
# From -- ./inp_files/245565.got.cif
#   From: 2010.05.17/outbox.cif.g08.bks.cpg/sg12_123_cif.got.tgz:245565.got - 2010.06.03 13:09:07.
