data_PCOD9202139
_publ_section_title
;
Structure prediction by ZEFSAII (Michael W. Deem and Ramdas Pophale) SiO2 
 PCOD9202139
Probable space group: C 2/M
;
_chemical_formula_sum "Si O2"
_cell_formula_units_Z 56
_cell_length_a 19.336008
_cell_length_b 8.610319
_cell_length_c 21.501064
_cell_angle_alpha 90.000000
_cell_angle_beta 58.871040
_cell_angle_gamma 90.000000
_cell_volume 3064.239920
_symmetry_space_group_name_H-M "C 2/M"
_symmetry_group_IT_number 12
_symmetry_cell_setting 'monoclinic'
loop_
_space_group_symop_operation_xyz
x,y,z
-x,y,-z
-x,-y,-z
x,-y,z
1/2+x,1/2+y,z
1/2-x,1/2+y,-z
1/2-x,1/2-y,-z
1/2+x,1/2-y,z
loop_
_atom_site_type_symbol
_atom_site_label
_atom_site_fract_x
_atom_site_fract_y
_atom_site_fract_z
Si Si1 0.989368 0.687846 0.431302
Si Si2 0.127430 0.677545 0.711839
Si Si3 0.288413 0.818856 0.203604
Si Si4 0.469904 0.812623 0.081618
Si Si5 0.033876 0.178168 0.174902
Si Si6 0.834009 0.815061 0.437017
Si Si7 0.113482 0.684362 0.262186
O O1 0.980655 0.500000 0.430063
O O2 0.059800 0.733992 0.348114
O O3 0.000000 0.721690 0.500000
O O4 0.908152 0.772231 0.447165
O O5 0.095081 0.500000 0.731696
O O6 0.199071 0.688630 0.727885
O O7 0.151527 0.719172 0.632233
O O8 0.058887 0.798897 0.761796
O O9 0.375996 0.764193 0.136636
O O10 0.207150 0.730695 0.224655
O O11 0.279214 0.000000 0.189942
O O12 0.529770 0.756926 0.108724
O O13 0.469086 0.000000 0.084313
O O14 0.500000 0.761923 0.000000
O O15 0.081511 0.249569 0.211237
O O16 0.057007 0.000000 0.157458
O O17 0.750000 0.750000 0.500000
O O18 0.830981 0.000000 0.427858
O O19 0.105745 0.500000 0.263156
#
# Coordination Sequence:
#
# PCOD9202139 Si02
#       7
#     8   8   8   8   8   8   8
#     4  10  23  42  60  82 114 154 199 249 300 349
#     4  10  20  38  59  82 112 149 193 242 290 343
#     4   9  20  36  58  87 118 148 188 239 288 344
#     4   9  19  39  65  90 119 156 194 236 290 348
#     4  11  21  35  59  88 117 152 193 236 286 345
#     4  12  25  39  58  83 113 150 194 245 297 351
#     4  11  22  37  59  84 118 157 196 243 293 349
#
# _framework density 18.27533
#
# number of rings (size 3 to 8) (size 9 to 14) (size 15 to 20)
#    0.000    1.714    1.429    4.286    2.000    4.000 
#    0.000    0.714    0.000    0.000    0.000    0.000 
#    0.000    0.000    0.000    0.000    0.000    0.000 
#
# Total GULP energy -156067.519648 kJ/mol
# GULP energy per Si atom -5573.839987 kJ/mol
# Density = 1.823373 g / cm^3
# Si number density = 18.275330 Si / 1000 Ang^3
#
#
#
# Elastic Constant Matrix: (Units=GPa)
#
#
# Indices 1 2 3 4 5 6 
#
# 1 129.8045 41.2192 62.2660 0.0000 10.4770 0.0002
# 2 41.2192 42.1679 19.1216 0.0000 5.8143 0.0002
# 3 62.2660 19.1216 99.6136 0.0000 27.0152 0.0000
# 4 0.0000 0.0000 0.0000 17.3053 0.0000 0.7618
# 5 10.4770 5.8143 27.0152 0.0000 25.2658 0.0000
# 6 0.0002 0.0002 0.0000 0.7618 0.0000 36.1879
#
#
#
# Elastic Compliance Matrix: (Units=1/GPa)
#
#
# Indices 1 2 3 4 5 6 
#
# 1 0.015154 -0.011616 -0.008822 0.000000 0.005821 0.000000
# 2 -0.011616 0.034894 0.002020 0.000000 -0.005373 0.000000
# 3 -0.008822 0.002020 0.020139 0.000000 -0.018340 0.000000
# 4 0.000000 0.000000 0.000000 0.057839 0.000000 -0.001218
# 5 0.005821 -0.005373 -0.018340 0.000000 0.058012 0.000000
# 6 0.000000 0.000000 0.000000 -0.001218 0.000000 0.027659
#
#
# Mechanical properties :
#
#
# Convention : Reuss Voigt Hill
#
# Bulk Modulus (GPa) = 29.98316 57.42216 43.70266
# Shear Modulus (GPa) = 19.10947 25.68374 22.39660
#
# Velocity S-wave (km/s) = 3.23715 3.75290 3.50453
# Velocity P-wave (km/s) = 5.51490 7.08998 6.35146
#
# Compressibility (1/GPa) = 0.03335206
#
# Stress axis : x y z
#
# Youngs Moduli (GPa) = 65.98848 28.65814 49.65462
#
# Poissons Ratio (x) = 0.33288 0.43803
# Poissons Ratio (y) = 0.76650 -0.10028
# Poissons Ratio (z) = 0.58212 -0.05788
#
# Static dielectric constant tensor:
#      x y z
#    x 1.629500 0.000000 -0.001330 
#    y 0.000000 1.637880 0.000000 
#    z -0.001330 0.000000 1.701110 
# 
# From -- ./inp_files/313797.got.cif
#   From: 2010.05.17/outbox.cif.g08.bks.cpg/sg12_157_cif.got.tgz:313797.got - 2010.06.03 13:09:07.
