data_PCOD9202597
_publ_section_title
;
Structure prediction by ZEFSAII (Michael W. Deem and Ramdas Pophale) SiO2 
 PCOD9202597
Probable space group: C 2/M
;
_chemical_formula_sum "Si O2"
_cell_formula_units_Z 50
_cell_length_a 28.979159
_cell_length_b 7.661617
_cell_length_c 13.188043
_cell_angle_alpha 90.000000
_cell_angle_beta 55.241068
_cell_angle_gamma 90.000000
_cell_volume 2405.607871
_symmetry_space_group_name_H-M "C 2/M"
_symmetry_group_IT_number 12
_symmetry_cell_setting 'monoclinic'
loop_
_space_group_symop_operation_xyz
x,y,z
-x,y,-z
-x,-y,-z
x,-y,z
1/2+x,1/2+y,z
1/2-x,1/2+y,-z
1/2-x,1/2-y,-z
1/2+x,1/2-y,z
loop_
_atom_site_type_symbol
_atom_site_label
_atom_site_fract_x
_atom_site_fract_y
_atom_site_fract_z
Si Si1 0.419362 0.198054 0.410085
Si Si2 0.627859 0.210341 0.964475
Si Si3 0.751053 0.290419 0.117794
Si Si4 0.629704 0.299505 0.321387
Si Si5 0.500000 0.500000 0.000000
Si Si6 0.452237 0.295555 0.748534
Si Si7 0.929408 0.290640 0.176421
O O1 0.394919 0.299953 0.535394
O O2 0.487036 0.208185 0.321628
O O3 0.400134 0.244792 0.320637
O O4 0.402276 0.000000 0.450804
O O5 0.585656 0.276619 0.103716
O O6 0.627003 0.000000 0.972441
O O7 0.690662 0.276080 0.908185
O O8 0.606802 0.254437 0.878040
O O9 0.752989 0.500000 0.129436
O O10 0.692319 0.222989 0.236736
O O11 0.750000 0.250000 0.000000
O O12 0.635965 0.500000 0.278373
O O13 0.585130 0.222016 0.297776
O O14 0.519551 0.655886 0.896333
O O15 0.463846 0.500000 0.715680
O O16 0.943655 0.500000 0.155970
#
# Coordination Sequence:
#
# PCOD9202597 Si02
#       7
#     8   8   8   8   2   8   8
#     4  11  24  40  58  82 122 163 202 247 300 371
#     4  10  21  38  61  86 124 160 197 250 311 363
#     4  10  20  38  62  89 118 157 198 254 310 357
#     4  10  22  39  58  86 121 156 200 253 301 362
#     4  12  22  36  68  90 118 176 206 244 326 350
#     4  11  22  35  57  88 121 154 194 250 301 361
#     4  10  24  41  57  92 129 161 211 259 301 371
#
# _framework density 20.784766999999999
#
# number of rings (size 3 to 8) (size 9 to 14) (size 15 to 20)
#    0.000    1.600    1.600    2.640    5.600    6.400 
#    0.000    0.800    0.000    0.000    0.000    0.000 
#    0.000    0.000    0.000    0.000    0.000    0.000 
#
# Total GULP energy -139343.039561 kJ/mol
# GULP energy per Si atom -5573.721582 kJ/mol
# Density = 2.073746 g / cm^3
# Si number density = 20.784767 Si / 1000 Ang^3
#
#
#
# Elastic Constant Matrix: (Units=GPa)
#
#
# Indices 1 2 3 4 5 6 
#
# 1 100.0597 3.1531 66.6804 0.0000 9.0967 0.0000
# 2 3.1531 47.7262 4.9936 0.0000 8.2573 -0.0001
# 3 66.6804 4.9936 127.6378 0.0000 8.9075 0.0000
# 4 0.0000 0.0000 0.0000 28.2557 0.0000 4.3650
# 5 9.0967 8.2573 8.9075 0.0000 31.4583 0.0000
# 6 0.0000 -0.0001 0.0000 4.3650 0.0000 12.4195
#
#
#
# Elastic Compliance Matrix: (Units=1/GPa)
#
#
# Indices 1 2 3 4 5 6 
#
# 1 0.015485 0.000203 -0.007939 0.000000 -0.002283 0.000000
# 2 0.000203 0.021979 -0.000570 0.000000 -0.005666 0.000000
# 3 -0.007939 -0.000570 0.012072 0.000000 -0.000973 0.000000
# 4 0.000000 0.000000 0.000000 0.037423 0.000000 -0.013153
# 5 -0.002283 -0.005666 -0.000973 0.000000 0.034211 0.000000
# 6 0.000000 0.000000 0.000000 -0.013153 0.000000 0.085141
#
#
# Mechanical properties :
#
#
# Convention : Reuss Voigt Hill
#
# Bulk Modulus (GPa) = 30.37240 47.23089 38.80164
# Shear Modulus (GPa) = 21.37669 27.79981 24.58825
#
# Velocity S-wave (km/s) = 3.21047 3.66116 3.44320
# Velocity P-wave (km/s) = 5.32798 6.37537 5.87506
#
# Compressibility (1/GPa) = 0.03292463
#
# Stress axis : x y z
#
# Youngs Moduli (GPa) = 64.57655 45.49700 82.83557
#
# Poissons Ratio (x) = -0.00922 0.65759
# Poissons Ratio (y) = -0.01308 0.04724
# Poissons Ratio (z) = 0.51264 0.02595
#
# Static dielectric constant tensor:
#      x y z
#    x 1.809520 0.000000 0.015040 
#    y 0.000000 1.764720 0.000000 
#    z 0.015040 0.000000 1.727450 
# 
# From -- ./inp_files/180534.got.cif
#   From: 2010.05.17/outbox.cif.g08.bks.cpg/sg12_91_cif.got.tgz:180534.got - 2010.06.03 13:09:07.
