data_PCOD9202658
_publ_section_title
;
Structure prediction by ZEFSAII (Michael W. Deem and Ramdas Pophale) SiO2 
 PCOD9202658
Probable space group: C 2/M
;
_chemical_formula_sum "Si O2"
_cell_formula_units_Z 64
_cell_length_a 9.418088
_cell_length_b 16.945433
_cell_length_c 30.558676
_cell_angle_alpha 90.000000
_cell_angle_beta 140.197439
_cell_angle_gamma 90.000000
_cell_volume 3121.962302
_symmetry_space_group_name_H-M "C 2/M"
_symmetry_group_IT_number 12
_symmetry_cell_setting 'monoclinic'
loop_
_space_group_symop_operation_xyz
x,y,z
-x,y,-z
-x,-y,-z
x,-y,z
1/2+x,1/2+y,z
1/2-x,1/2+y,-z
1/2-x,1/2-y,-z
1/2+x,1/2-y,z
loop_
_atom_site_type_symbol
_atom_site_label
_atom_site_fract_x
_atom_site_fract_y
_atom_site_fract_z
Si Si1 0.709237 0.188662 0.851571
Si Si2 0.862030 0.805006 0.590346
Si Si3 0.133318 0.592967 0.073830
Si Si4 0.221592 0.211668 0.275617
Si Si5 0.302070 0.091766 0.369464
Si Si6 0.163893 0.090996 0.190128
Si Si7 0.806699 0.862655 0.481530
Si Si8 0.383626 0.790399 0.071610
O O1 0.487227 0.234997 0.786653
O O2 0.739292 0.104032 0.835809
O O3 0.735508 0.195159 0.910301
O O4 0.907861 0.233243 0.874162
O O5 0.743284 0.864074 0.595551
O O6 0.885829 0.848432 0.549732
O O7 0.732478 0.724012 0.549155
O O8 0.088645 0.771960 0.664529
O O9 0.105908 0.500000 0.068814
O O10 0.396992 0.607043 0.131817
O O11 0.004714 0.630688 0.083733
O O12 0.000000 0.624164 0.000000
O O13 0.183906 0.148193 0.305667
O O14 0.282950 0.154046 0.249858
O O15 0.566423 0.097018 0.423760
O O16 0.232280 0.000000 0.352118
O O17 0.196924 0.000000 0.211397
O O18 0.000000 0.903148 0.500000
O O19 0.250000 0.750000 0.000000
#
# Coordination Sequence:
#
# PCOD9202658 Si02
#       8
#     8   8   8   8   8   8   8   8
#     4  12  23  40  64  94 125 168 218 266 326 389
#     4  10  21  38  64  92 125 165 217 260 307 376
#     4  10  21  39  61  88 125 168 208 258 329 392
#     4  11  22  41  65  89 124 169 220 262 315 390
#     4  11  24  40  65  96 127 165 213 266 316 370
#     4  11  23  41  63  90 128 168 210 268 330 386
#     4  10  20  38  62  95 127 168 207 254 316 376
#     4  12  23  39  65  97 128 163 220 275 321 386
#
# _framework density 20.499927
#
# number of rings (size 3 to 8) (size 9 to 14) (size 15 to 20)
#    0.000    1.125    2.500    5.625    0.000    2.750 
#    0.000    0.625    0.000    3.750    0.000    0.000 
#    0.000    0.000    0.000    0.000    0.000    0.000 
#
# Total GULP energy -178588.610606 kJ/mol
# GULP energy per Si atom -5580.894081 kJ/mol
# Density = 2.045327 g / cm^3
# Si number density = 20.499927 Si / 1000 Ang^3
#
#
#
# Elastic Constant Matrix: (Units=GPa)
#
#
# Indices 1 2 3 4 5 6 
#
# 1 86.5288 34.2434 12.7553 0.0000 -18.2518 0.0000
# 2 34.2434 55.7850 16.5831 0.0000 1.0293 0.0000
# 3 12.7553 16.5831 80.4156 0.0000 -7.2968 0.0000
# 4 0.0000 0.0000 0.0000 -7.7857 0.0000 6.3652
# 5 -18.2518 1.0293 -7.2968 0.0000 27.8837 0.0000
# 6 0.0000 0.0000 0.0000 6.3652 0.0000 23.6740
#
#
#
# Elastic Compliance Matrix: (Units=1/GPa)
#
#
# Indices 1 2 3 4 5 6 
#
# 1 0.019004 -0.012105 0.000667 0.000000 0.013061 0.000000
# 2 -0.012105 0.026893 -0.004543 0.000000 -0.010105 0.000000
# 3 0.000667 -0.004543 0.013645 0.000000 0.004175 0.000000
# 4 0.000000 0.000000 0.000000 -0.105295 0.000000 0.028311
# 5 0.013061 -0.010105 0.004175 0.000000 0.045878 0.000000
# 6 0.000000 0.000000 0.000000 0.028311 0.000000 0.034629
#
#
# Mechanical properties :
#
#
# Convention : Reuss Voigt Hill
#
# Bulk Modulus (GPa) = 36.25632 38.87700 37.56666
# Shear Modulus (GPa) = 65.86861 19.36422 42.61642
#
# Velocity S-wave (km/s) = 5.67458 3.07677 4.56439
# Velocity P-wave (km/s) = 7.78839 5.62385 6.79289
#
# Compressibility (1/GPa) = 0.02758140
#
# Stress axis : x y z
#
# Youngs Moduli (GPa) = 52.62106 37.18411 73.28563
#
# Poissons Ratio (x) = 0.45010 -0.04888
# Poissons Ratio (y) = 0.63696 0.33292
# Poissons Ratio (z) = -0.03510 0.16892
#
# Static dielectric constant tensor:
#      x y z
#    x 1.764250 0.000000 -0.038250 
#    y 0.000000 1.778810 0.000000 
#    z -0.038250 0.000000 1.781230 
# 
# From -- ./inp_files/373024.got.cif
#   From: 2010.05.17/outbox.cif.g08.bks.cpg/sg12_187_cif.got.tgz:373024.got - 2010.06.03 13:09:07.
