data_PCOD9202785
_publ_section_title
;
Structure prediction by ZEFSAII (Michael W. Deem and Ramdas Pophale) SiO2 
 PCOD9202785
Probable space group: C 2/M
;
_chemical_formula_sum "Si O2"
_cell_formula_units_Z 48
_cell_length_a 14.823370
_cell_length_b 19.467397
_cell_length_c 9.235865
_cell_angle_alpha 90.000000
_cell_angle_beta 108.356243
_cell_angle_gamma 90.000000
_cell_volume 2529.601268
_symmetry_space_group_name_H-M "C 2/M"
_symmetry_group_IT_number 12
_symmetry_cell_setting 'monoclinic'
loop_
_space_group_symop_operation_xyz
x,y,z
-x,y,-z
-x,-y,-z
x,-y,z
1/2+x,1/2+y,z
1/2-x,1/2+y,-z
1/2-x,1/2-y,-z
1/2+x,1/2-y,z
loop_
_atom_site_type_symbol
_atom_site_label
_atom_site_fract_x
_atom_site_fract_y
_atom_site_fract_z
Si Si1 0.501697 0.795625 0.328480
Si Si2 0.241849 0.921377 0.878292
Si Si3 0.677549 0.700381 0.376186
Si Si4 0.558401 0.921375 0.173968
Si Si5 0.284976 0.807819 0.127562
Si Si6 0.113461 0.081855 0.556454
O O1 0.500000 0.790491 0.500000
O O2 0.576536 0.739294 0.310126
O O3 0.538771 0.869245 0.292114
O O4 0.394286 0.791497 0.218315
O O5 0.332065 0.919262 0.816503
O O6 0.154776 0.896827 0.734555
O O7 0.224332 0.000000 0.911417
O O8 0.269284 0.877683 0.030956
O O9 0.750000 0.750000 0.500000
O O10 0.724925 0.689538 0.244380
O O11 0.659436 0.630941 0.458606
O O12 0.531397 0.000000 0.194398
O O13 0.500000 0.900659 0.000000
O O14 0.250000 0.750000 0.000000
O O15 0.000000 0.090089 0.500000
O O16 0.134935 0.000000 0.547224
#
# Coordination Sequence:
#
# PCOD9202785 Si02
#       6
#     8   8   8   8   8   8
#     4  12  25  41  63  93 130 167 212 266 317 384
#     4  10  22  42  67  94 127 166 210 261 319 385
#     4  12  25  42  66  96 130 171 220 270 322 385
#     4  10  20  38  63  91 128 169 206 250 314 389
#     4  12  26  41  63  93 129 169 212 263 325 379
#     4  10  23  45  71  95 127 174 221 269 323 384
#
# _framework density 18.975321999999998
#
# number of rings (size 3 to 8) (size 9 to 14) (size 15 to 20)
#    0.000    1.000    3.333    3.500    2.333    1.000 
#    0.000    0.000    0.000    3.000    0.000    0.000 
#    0.000    0.000    0.000    0.000    0.000    0.000 
#
# Total GULP energy -134138.566286 kJ/mol
# GULP energy per Si atom -5589.106929 kJ/mol
# Density = 1.893213 g / cm^3
# Si number density = 18.975322 Si / 1000 Ang^3
#
#
#
# Elastic Constant Matrix: (Units=GPa)
#
#
# Indices 1 2 3 4 5 6 
#
# 1 114.2998 49.3463 73.2977 0.0000 4.5775 0.0000
# 2 49.3463 85.8454 48.8805 0.0000 -9.8502 0.0000
# 3 73.2977 48.8805 108.8170 0.0000 17.6083 0.0000
# 4 0.0000 0.0000 0.0000 30.6306 0.0000 -1.4260
# 5 4.5775 -9.8502 17.6083 0.0000 42.7340 0.0000
# 6 0.0000 0.0000 0.0000 -1.4260 0.0000 26.0282
#
#
#
# Elastic Compliance Matrix: (Units=1/GPa)
#
#
# Indices 1 2 3 4 5 6 
#
# 1 0.016530 -0.003891 -0.009595 0.000000 0.001286 0.000000
# 2 -0.003891 0.018779 -0.007053 0.000000 0.007651 0.000000
# 3 -0.009595 -0.007053 0.020269 0.000000 -0.008950 0.000000
# 4 0.000000 0.000000 0.000000 0.032731 0.000000 0.001793
# 5 0.001286 0.007651 -0.008950 0.000000 0.028714 0.000000
# 6 0.000000 0.000000 0.000000 0.001793 0.000000 0.038518
#
#
# Mechanical properties :
#
#
# Convention : Reuss Voigt Hill
#
# Bulk Modulus (GPa) = 68.95987 72.44567 70.70277
# Shear Modulus (GPa) = 24.81978 29.04107 26.93043
#
# Velocity S-wave (km/s) = 3.62056 3.91636 3.77136
# Velocity P-wave (km/s) = 7.34157 7.66239 7.50370
#
# Compressibility (1/GPa) = 0.01450119
#
# Stress axis : x y z
#
# Youngs Moduli (GPa) = 60.49538 53.24976 49.33693
#
# Poissons Ratio (x) = 0.20721 0.47337
# Poissons Ratio (y) = 0.23540 0.34796
# Poissons Ratio (z) = 0.58043 0.37556
#
# Static dielectric constant tensor:
#      x y z
#    x 1.667750 0.000000 0.026670 
#    y 0.000000 2.926730 0.000000 
#    z 0.026670 0.000000 1.617900 
# 
# From -- ./inp_files/63600.got.cif
#   From: 2010.05.17/outbox.cif.g08.bks.cpg/sg12_32_cif.got.tgz:63600.got - 2010.06.03 13:09:07.
