data_PCOD9202583
_publ_section_title
;
Structure prediction by ZEFSAII (Michael W. Deem and Ramdas Pophale) SiO2 
 PCOD9202583
Probable space group: C 2/M
;
_chemical_formula_sum "Si O2"
_cell_formula_units_Z 48
_cell_length_a 27.370342
_cell_length_b 14.439586
_cell_length_c 12.328562
_cell_angle_alpha 90.000000
_cell_angle_beta 147.660951
_cell_angle_gamma 90.000000
_cell_volume 2606.411382
_symmetry_space_group_name_H-M "C 2/M"
_symmetry_group_IT_number 12
_symmetry_cell_setting 'monoclinic'
loop_
_space_group_symop_operation_xyz
x,y,z
-x,y,-z
-x,-y,-z
x,-y,z
1/2+x,1/2+y,z
1/2-x,1/2+y,-z
1/2-x,1/2-y,-z
1/2+x,1/2-y,z
loop_
_atom_site_type_symbol
_atom_site_label
_atom_site_fract_x
_atom_site_fract_y
_atom_site_fract_z
Si Si1 0.640185 0.721066 0.520557
Si Si2 0.461664 0.777293 0.318821
Si Si3 0.899508 0.889783 0.771673
Si Si4 0.263131 0.605793 0.714355
Si Si5 0.161037 0.103840 0.901688
Si Si6 0.712291 0.890910 0.057994
O O1 0.545102 0.743331 0.401615
O O2 0.624840 0.663181 0.382946
O O3 0.684841 0.818971 0.574575
O O4 0.712117 0.664120 0.730062
O O5 0.500000 0.824147 0.500000
O O6 0.407801 0.685166 0.255148
O O7 0.386104 0.841925 0.119906
O O8 0.829269 0.872902 0.737902
O O9 0.900262 0.000000 0.751690
O O10 0.000000 0.862630 0.000000
O O11 0.230166 0.500000 0.640922
O O12 0.316707 0.610356 0.929284
O O13 0.251566 0.115999 0.998577
O O14 0.125815 0.000000 0.812485
O O15 0.709335 0.000000 0.080988
#
# Coordination Sequence:
#
# PCOD9202583 Si02
#       6
#     8   8   8   8   8   8
#     4  12  23  39  66  89 125 163 205 252 309 367
#     4  12  23  37  61  92 129 163 207 250 305 368
#     4  10  22  40  63  92 118 150 204 258 308 362
#     4  10  21  39  62  86 118 159 203 249 298 361
#     4  10  20  38  62  88 122 159 202 252 303 356
#     4  11  24  41  61  92 129 165 205 253 307 367
#
# _framework density 18.416125000000001
#
# number of rings (size 3 to 8) (size 9 to 14) (size 15 to 20)
#    0.000    1.167    3.333    3.500    0.000    4.000 
#    0.000    0.000    0.000    0.500    0.000    0.000 
#    0.000    0.000    0.000    0.000    0.000    0.000 
#
# Total GULP energy -134062.312995 kJ/mol
# GULP energy per Si atom -5585.929708 kJ/mol
# Density = 1.837421 g / cm^3
# Si number density = 18.416125 Si / 1000 Ang^3
#
#
#
# Elastic Constant Matrix: (Units=GPa)
#
#
# Indices 1 2 3 4 5 6 
#
# 1 95.9368 48.5598 57.1189 0.0000 -11.0524 0.0000
# 2 48.5598 88.3973 52.1854 0.0000 17.3246 0.0000
# 3 57.1189 52.1854 105.2436 0.0000 6.1621 0.0000
# 4 0.0000 0.0000 0.0000 13.1332 0.0000 -8.9439
# 5 -11.0524 17.3246 6.1621 0.0000 30.4070 0.0000
# 6 0.0000 0.0000 0.0000 -8.9439 0.0000 19.8264
#
#
#
# Elastic Compliance Matrix: (Units=1/GPa)
#
#
# Indices 1 2 3 4 5 6 
#
# 1 0.022277 -0.010820 -0.007651 0.000000 0.015813 0.000000
# 2 -0.010820 0.023194 -0.004680 0.000000 -0.016199 0.000000
# 3 -0.007651 -0.004680 0.016174 0.000000 -0.003392 0.000000
# 4 0.000000 0.000000 0.000000 0.109908 0.000000 0.049580
# 5 0.015813 -0.016199 -0.003392 0.000000 0.048552 0.000000
# 6 0.000000 0.000000 0.000000 0.049580 0.000000 0.072804
#
#
# Mechanical properties :
#
#
# Convention : Reuss Voigt Hill
#
# Bulk Modulus (GPa) = 65.17878 67.25620 66.21749
# Shear Modulus (GPa) = 14.52118 21.45426 17.98772
#
# Velocity S-wave (km/s) = 2.81108 3.41687 3.12867
# Velocity P-wave (km/s) = 6.78272 7.22262 7.00612
#
# Compressibility (1/GPa) = 0.01534242
#
# Stress axis : x y z
#
# Youngs Moduli (GPa) = 44.88885 43.11462 61.82895
#
# Poissons Ratio (x) = 0.46649 0.47308
# Poissons Ratio (y) = 0.48569 0.28937
# Poissons Ratio (z) = 0.34346 0.20178
#
# Static dielectric constant tensor:
#      x y z
#    x 1.633520 0.000000 -0.008710 
#    y 0.000000 1.635910 0.000000 
#    z -0.008710 0.000000 1.638230 
# 
# From -- ./inp_files/142695.got.cif
#   From: 2010.05.17/outbox.cif.g08.bks.cpg/sg12_72_cif.got.tgz:142695.got - 2010.06.03 13:09:07.
