data_PCOD9202194
_publ_section_title
;
Structure prediction by ZEFSAII (Michael W. Deem and Ramdas Pophale) SiO2 
 PCOD9202194
Probable space group: C 2/M
;
_chemical_formula_sum "Si O2"
_cell_formula_units_Z 58
_cell_length_a 12.361884
_cell_length_b 17.768232
_cell_length_c 14.364182
_cell_angle_alpha 90.000000
_cell_angle_beta 64.122198
_cell_angle_gamma 90.000000
_cell_volume 2838.706578
_symmetry_space_group_name_H-M "C 2/M"
_symmetry_group_IT_number 12
_symmetry_cell_setting 'monoclinic'
loop_
_space_group_symop_operation_xyz
x,y,z
-x,y,-z
-x,-y,-z
x,-y,z
1/2+x,1/2+y,z
1/2-x,1/2+y,-z
1/2-x,1/2-y,-z
1/2+x,1/2-y,z
loop_
_atom_site_type_symbol
_atom_site_label
_atom_site_fract_x
_atom_site_fract_y
_atom_site_fract_z
Si Si1 0.370178 0.817751 0.051563
Si Si2 0.720474 0.663928 0.622663
Si Si3 0.881491 0.911367 0.165079
Si Si4 0.480048 0.697321 0.617046
Si Si5 0.716395 0.174583 0.711553
Si Si6 0.861871 0.151810 0.969031
Si Si7 0.000000 0.500000 0.500000
Si Si8 0.566556 0.865275 0.603967
O O1 0.345413 0.803020 0.169139
O O2 0.255004 0.858177 0.050602
O O3 0.500000 0.856574 0.000000
O O4 0.378362 0.739411 0.991359
O O5 0.709781 0.619629 0.723337
O O6 0.591231 0.655916 0.622876
O O7 0.732570 0.751312 0.642612
O O8 0.824319 0.644836 0.511372
O O9 0.014391 0.874753 0.124546
O O10 0.892364 0.000000 0.170767
O O11 0.844837 0.890664 0.073488
O O12 0.500000 0.695348 0.500000
O O13 0.354142 0.656579 0.684758
O O14 0.490534 0.786895 0.639709
O O15 0.632450 0.122173 0.678893
O O16 0.996748 0.433939 0.583671
#
# Coordination Sequence:
#
# PCOD9202194 Si02
#       8
#     8   8   8   8   8   8   2   8
#     4  11  21  37  62  93 127 152 205 271 318 360
#     4  11  20  35  58  95 121 151 211 252 301 365
#     4  11  22  40  63  89 126 165 209 253 317 382
#     4  11  18  36  62  89 120 155 203 257 307 348
#     4  11  20  37  62  90 123 159 201 262 316 356
#     4  10  20  38  59  91 121 161 203 259 319 365
#     4  12  24  44  56  82 130 166 206 234 302 386
#     4  11  23  37  60  87 124 165 199 253 301 367
#
# _framework density 20.431840999999999
#
# number of rings (size 3 to 8) (size 9 to 14) (size 15 to 20)
#    0.000    1.103    6.207    2.483    0.966    3.310 
#    2.483    0.000    7.586    2.897    0.000    0.000 
#    0.000    0.000    0.000    0.000    0.000    0.000 
#
# Total GULP energy -161601.310056 kJ/mol
# GULP energy per Si atom -5572.458967 kJ/mol
# Density = 2.038534 g / cm^3
# Si number density = 20.431841 Si / 1000 Ang^3
#
#
#
# Elastic Constant Matrix: (Units=GPa)
#
#
# Indices 1 2 3 4 5 6 
#
# 1 109.7132 2.4762 24.9446 0.0000 6.0684 0.0000
# 2 2.4762 45.5661 2.0996 0.0000 2.0994 0.0000
# 3 24.9446 2.0996 66.5157 0.0000 0.8559 0.0000
# 4 0.0000 0.0000 0.0000 11.6376 0.0000 4.6726
# 5 6.0684 2.0994 0.8559 0.0000 18.9131 0.0000
# 6 0.0000 0.0000 0.0000 4.6726 0.0000 1.7698
#
#
#
# Elastic Compliance Matrix: (Units=1/GPa)
#
#
# Indices 1 2 3 4 5 6 
#
# 1 0.010143 -0.000237 -0.003757 0.000000 -0.003058 0.000000
# 2 -0.000237 0.022094 -0.000578 0.000000 -0.002350 0.000000
# 3 -0.003757 -0.000578 0.016455 0.000000 0.000525 0.000000
# 4 0.000000 0.000000 0.000000 -1.431458 0.000000 3.779220
# 5 -0.003058 -0.002350 0.000525 0.000000 0.054092 0.000000
# 6 0.000000 0.000000 0.000000 3.779220 0.000000 -9.412571
#
#
# Mechanical properties :
#
#
# Convention : Reuss Voigt Hill
#
# Bulk Modulus (GPa) = 25.28646 31.20397 28.24521
# Shear Modulus (GPa) = -0.46647 19.28241 9.40797
#
# Velocity S-wave (km/s) = -0.47833 3.07537 2.14815
# Velocity P-wave (km/s) = 3.47819 5.28355 4.47290
#
# Compressibility (1/GPa) = 0.03954686
#
# Stress axis : x y z
#
# Youngs Moduli (GPa) = 98.58618 45.26125 60.77352
#
# Poissons Ratio (x) = 0.01074 0.22833
# Poissons Ratio (y) = 0.02339 0.03514
# Poissons Ratio (z) = 0.37040 0.02617
#
# Static dielectric constant tensor:
#      x y z
#    x 1.853900 0.000000 -0.019180 
#    y 0.000000 1.755800 0.000000 
#    z -0.019180 0.000000 1.724710 
# 
# From -- ./inp_files/207642.got.cif
#   From: 2010.05.17/outbox.cif.g08.bks.cpg/sg12_104_cif.got.tgz:207642.got - 2010.06.03 13:09:07.
