data_PCOD9202888
_publ_section_title
;
Structure prediction by ZEFSAII (Michael W. Deem and Ramdas Pophale) SiO2 
 PCOD9202888
Probable space group: C 2/M
;
_chemical_formula_sum "Si O2"
_cell_formula_units_Z 56
_cell_length_a 28.609022
_cell_length_b 8.486790
_cell_length_c 19.353027
_cell_angle_alpha 90.000000
_cell_angle_beta 35.866997
_cell_angle_gamma 90.000000
_cell_volume 2753.106859
_symmetry_space_group_name_H-M "C 2/M"
_symmetry_group_IT_number 12
_symmetry_cell_setting 'monoclinic'
loop_
_space_group_symop_operation_xyz
x,y,z
-x,y,-z
-x,-y,-z
x,-y,z
1/2+x,1/2+y,z
1/2-x,1/2+y,-z
1/2-x,1/2-y,-z
1/2+x,1/2-y,z
loop_
_atom_site_type_symbol
_atom_site_label
_atom_site_fract_x
_atom_site_fract_y
_atom_site_fract_z
Si Si1 0.876185 0.186202 0.957104
Si Si2 0.518842 0.187738 0.697488
Si Si3 0.533299 0.809780 0.386378
Si Si4 0.184380 0.188355 0.525476
Si Si5 0.206349 0.189312 0.198764
Si Si6 0.078403 0.310097 0.948002
Si Si7 0.253330 0.309786 0.695391
O O1 0.935405 0.263656 0.831342
O O2 0.874370 0.000000 0.949154
O O3 0.786053 0.251874 0.065399
O O4 0.911748 0.228699 0.989942
O O5 0.517344 0.243051 0.619343
O O6 0.594021 0.259183 0.647591
O O7 0.526150 0.000000 0.690227
O O8 0.500000 0.752019 0.500000
O O9 0.623833 0.753456 0.268629
O O10 0.532244 0.000000 0.388757
O O11 0.250000 0.250000 0.500000
O O12 0.206232 0.250384 0.422441
O O13 0.188087 0.000000 0.520735
O O14 0.212729 0.245015 0.271492
O O15 0.206445 0.000000 0.197784
O O16 0.076202 0.500000 0.962131
O O17 0.159043 0.274684 0.809215
O O18 0.000000 0.264369 0.000000
O O19 0.261253 0.500000 0.686061
#
# Coordination Sequence:
#
# PCOD9202888 Si02
#       7
#     8   8   8   8   8   8   8
#     4  11  23  39  59  87 123 159 200 253 304 356
#     4  11  24  42  62  86 121 162 202 248 305 367
#     4  10  22  40  64  94 125 157 198 252 308 357
#     4  11  23  39  59  86 120 159 202 248 300 357
#     4  10  20  38  64  91 119 158 203 246 300 363
#     4   9  18  34  59  86 114 155 199 243 296 358
#     4   8  17  34  55  83 115 151 194 238 289 353
#
# _framework density 20.340655999999999
#
# number of rings (size 3 to 8) (size 9 to 14) (size 15 to 20)
#    0.000    2.000    0.000    4.286    2.000    2.286 
#    0.000    6.429    0.000    0.000    0.000    0.000 
#    0.000    0.000    0.000    0.000    0.000    0.000 
#
# Total GULP energy -156438.153285 kJ/mol
# GULP energy per Si atom -5587.076903 kJ/mol
# Density = 2.029436 g / cm^3
# Si number density = 20.340656 Si / 1000 Ang^3
#
#
#
# Elastic Constant Matrix: (Units=GPa)
#
#
# Indices 1 2 3 4 5 6 
#
# 1 102.4285 19.4229 41.3043 -0.0058 -27.6739 0.0026
# 2 19.4229 33.6516 11.2907 -0.0125 -0.2512 0.0059
# 3 41.3043 11.2907 87.9728 -0.0088 -0.7346 0.0051
# 4 -0.0058 -0.0125 -0.0088 14.4726 0.0048 -2.9025
# 5 -27.6739 -0.2512 -0.7346 0.0048 27.1779 -0.0020
# 6 0.0026 0.0059 0.0051 -2.9025 -0.0020 22.7648
#
#
#
# Elastic Compliance Matrix: (Units=1/GPa)
#
#
# Indices 1 2 3 4 5 6 
#
# 1 0.020205 -0.008762 -0.008193 -0.000011 0.020271 0.000002
# 2 -0.008762 0.034854 -0.000431 0.000028 -0.008611 -0.000005
# 3 -0.008193 -0.000431 0.015203 0.000008 -0.007935 -0.000002
# 4 -0.000011 0.000028 0.000008 0.070909 -0.000022 0.009041
# 5 0.020271 -0.008611 -0.007935 -0.000022 0.057142 0.000004
# 6 0.000002 -0.000005 -0.000002 0.009041 0.000004 0.045080
#
#
# Mechanical properties :
#
#
# Convention : Reuss Voigt Hill
#
# Bulk Modulus (GPa) = 28.17701 40.89874 34.53787
# Shear Modulus (GPa) = 17.24172 23.01871 20.13022
#
# Velocity S-wave (km/s) = 2.91460 3.36767 3.14929
# Velocity P-wave (km/s) = 5.02087 5.93903 5.49915
#
# Compressibility (1/GPa) = 0.03548993
#
# Stress axis : x y z
#
# Youngs Moduli (GPa) = 49.49315 28.69125 65.77742
#
# Poissons Ratio (x) = 0.25138 0.53889
# Poissons Ratio (y) = 0.43364 0.02838
# Poissons Ratio (z) = 0.40548 0.01238
#
# Static dielectric constant tensor:
#      x y z
#    x 1.718110 0.000000 0.019620 
#    y 0.000000 1.685420 0.000000 
#    z 0.019620 0.000000 1.729340 
# 
# From -- ./inp_files/292400.got.cif
#   From: 2010.05.17/outbox.cif.g08.bks.cpg/sg12_147_cif.got.tgz:292400.got - 2010.06.03 13:09:07.
