data_PCOD9202111
_publ_section_title
;
Structure prediction by ZEFSAII (Michael W. Deem and Ramdas Pophale) SiO2 
 PCOD9202111
Probable space group: C 2/M
;
_chemical_formula_sum "Si O2"
_cell_formula_units_Z 36
_cell_length_a 15.779202
_cell_length_b 10.304240
_cell_length_c 12.567253
_cell_angle_alpha 90.000000
_cell_angle_beta 73.193595
_cell_angle_gamma 90.000000
_cell_volume 1956.066445
_symmetry_space_group_name_H-M "C 2/M"
_symmetry_group_IT_number 12
_symmetry_cell_setting 'monoclinic'
loop_
_space_group_symop_operation_xyz
x,y,z
-x,y,-z
-x,-y,-z
x,-y,z
1/2+x,1/2+y,z
1/2-x,1/2+y,-z
1/2-x,1/2-y,-z
1/2+x,1/2-y,z
loop_
_atom_site_type_symbol
_atom_site_label
_atom_site_fract_x
_atom_site_fract_y
_atom_site_fract_z
Si Si1 0.531953 0.235358 0.603906
Si Si2 0.080550 0.500000 0.735677
Si Si3 0.195939 0.852614 0.454237
Si Si4 0.626128 0.000000 0.135639
Si Si5 0.845623 0.772136 0.765085
Si Si6 0.223845 0.500000 0.877017
O O1 0.500000 0.177716 0.500000
O O2 0.598701 0.345611 0.541418
O O3 0.450340 0.290673 0.702390
O O4 0.579098 0.126201 0.659120
O O5 0.156502 0.500000 0.799077
O O6 0.981288 0.500000 0.823322
O O7 0.250000 0.750000 0.500000
O O8 0.193645 0.794562 0.337398
O O9 0.227822 0.000000 0.443045
O O10 0.659231 0.871467 0.185109
O O11 0.663983 0.000000 0.003447
O O12 0.790306 0.876555 0.852059
#
# Coordination Sequence:
#
# PCOD9202111 Si02
#       6
#     8   4   8   4   8   4
#     4   9  20  35  59  84 123 156 187 226 291 361
#     4  10  20  38  58  89 115 154 193 245 287 344
#     4  11  23  36  57  90 122 152 187 233 293 352
#     4  10  23  41  59  84 112 160 199 246 290 341
#     4  10  22  38  59  84 116 152 195 236 290 346
#     4  12  21  37  64  85 115 148 207 253 289 323
#
# _framework density 18.404283
#
# number of rings (size 3 to 8) (size 9 to 14) (size 15 to 20)
#    0.000    1.778    1.111    2.667    4.667    3.111 
#    0.000    0.000    0.000    0.000    0.000    9.333 
#    0.000    0.000    0.000    0.000    0.000    0.000 
#
# Total GULP energy -100302.664755 kJ/mol
# GULP energy per Si atom -5572.370264 kJ/mol
# Density = 1.836239 g / cm^3
# Si number density = 18.404283 Si / 1000 Ang^3
#
#
#
# Elastic Constant Matrix: (Units=GPa)
#
#
# Indices 1 2 3 4 5 6 
#
# 1 70.0254 66.4363 38.6014 0.0000 -3.1940 0.0000
# 2 66.4363 132.1247 63.9871 0.0000 3.1590 0.0000
# 3 38.6014 63.9871 117.3471 0.0000 -20.9353 0.0000
# 4 0.0000 0.0000 0.0000 19.9835 0.0000 -1.3820
# 5 -3.1940 3.1590 -20.9353 0.0000 27.3315 0.0000
# 6 0.0000 0.0000 0.0000 -1.3820 0.0000 29.2111
#
#
#
# Elastic Compliance Matrix: (Units=1/GPa)
#
#
# Indices 1 2 3 4 5 6 
#
# 1 0.028020 -0.013690 -0.001026 0.000000 0.004071 0.000000
# 2 -0.013690 0.018022 -0.006928 0.000000 -0.008989 0.000000
# 3 -0.001026 -0.006928 0.014778 0.000000 0.012000 0.000000
# 4 0.000000 0.000000 0.000000 0.050206 0.000000 0.002375
# 5 0.004071 -0.008989 0.012000 0.000000 0.047294 0.000000
# 6 0.000000 0.000000 0.000000 0.002375 0.000000 0.034346
#
#
# Mechanical properties :
#
#
# Convention : Reuss Voigt Hill
#
# Bulk Modulus (GPa) = 57.03620 73.06076 65.04848
# Shear Modulus (GPa) = 20.67856 25.33672 23.00764
#
# Velocity S-wave (km/s) = 3.35561 3.71438 3.53955
# Velocity P-wave (km/s) = 6.78760 7.62754 7.21980
#
# Compressibility (1/GPa) = 0.01753273
#
# Stress axis : x y z
#
# Youngs Moduli (GPa) = 35.68900 55.48767 67.66955
#
# Poissons Ratio (x) = 0.75960 0.06945
# Poissons Ratio (y) = 0.48857 0.46879
# Poissons Ratio (z) = 0.03663 0.38440
#
# Static dielectric constant tensor:
#      x y z
#    x 1.648530 0.000000 -0.102610 
#    y 0.000000 1.636270 0.000000 
#    z -0.102610 0.000000 1.548770 
# 
# From -- ./inp_files/140203.got.cif
#   From: 2010.05.17/outbox.cif.g08.bks.cpg/sg12_71_cif.got.tgz:140203.got - 2010.06.03 13:09:07.
