data_PCOD9202377
_publ_section_title
;
Structure prediction by ZEFSAII (Michael W. Deem and Ramdas Pophale) SiO2 
 PCOD9202377
Probable space group: C 2/M
;
_chemical_formula_sum "Si O2"
_cell_formula_units_Z 48
_cell_length_a 14.863566
_cell_length_b 8.448270
_cell_length_c 16.844904
_cell_angle_alpha 90.000000
_cell_angle_beta 79.532917
_cell_angle_gamma 90.000000
_cell_volume 2080.039744
_symmetry_space_group_name_H-M "C 2/M"
_symmetry_group_IT_number 12
_symmetry_cell_setting 'monoclinic'
loop_
_space_group_symop_operation_xyz
x,y,z
-x,y,-z
-x,-y,-z
x,-y,z
1/2+x,1/2+y,z
1/2-x,1/2+y,-z
1/2-x,1/2-y,-z
1/2+x,1/2-y,z
loop_
_atom_site_type_symbol
_atom_site_label
_atom_site_fract_x
_atom_site_fract_y
_atom_site_fract_z
Si Si1 0.046413 0.810824 0.357436
Si Si2 0.800217 0.310435 0.570127
Si Si3 0.469957 0.311192 0.128826
Si Si4 0.642547 0.186374 0.182364
Si Si5 0.632728 0.691548 0.693566
Si Si6 0.193329 0.314370 0.934428
O O1 0.100014 0.755040 0.426179
O O2 0.097690 0.739828 0.272144
O O3 0.940935 0.762666 0.362236
O O4 0.050176 0.000000 0.352158
O O5 0.803723 0.500000 0.568493
O O6 0.750000 0.250000 0.500000
O O7 0.732616 0.254879 0.652340
O O8 0.485377 0.500000 0.128931
O O9 0.566712 0.226336 0.127005
O O10 0.410268 0.260256 0.215910
O O11 0.403741 0.268662 0.066844
O O12 0.735892 0.276573 0.148204
O O13 0.661699 0.000000 0.180785
O O14 0.636317 0.500000 0.695805
O O15 0.178222 0.500000 0.944741
O O16 0.250000 0.250000 0.000000
#
# Coordination Sequence:
#
# PCOD9202377 Si02
#       6
#     8   8   8   8   8   8
#     4  10  20  38  61  85 110 146 193 241 288 342
#     4  11  22  37  55  81 115 153 191 235 290 351
#     4  10  20  39  64  90 116 150 195 246 296 347
#     4  11  22  39  62  90 120 154 193 239 291 350
#     4   8  18  36  59  81 109 147 187 228 282 342
#     4  12  25  41  60  87 120 158 198 241 291 348
#
# _framework density 23.076483
#
# number of rings (size 3 to 8) (size 9 to 14) (size 15 to 20)
#    0.000    1.667    0.000    6.500    0.000    2.667 
#    0.000   15.833    0.000    0.000    0.000    0.000 
#    0.000    0.000    0.000    0.000    0.000    0.000 
#
# Total GULP energy -134268.919809 kJ/mol
# GULP energy per Si atom -5594.538325 kJ/mol
# Density = 2.302396 g / cm^3
# Si number density = 23.076483 Si / 1000 Ang^3
#
#
#
# Elastic Constant Matrix: (Units=GPa)
#
#
# Indices 1 2 3 4 5 6 
#
# 1 120.6862 -1.0465 14.9003 0.0000 28.3873 0.0000
# 2 -1.0465 67.0213 -1.2059 0.0000 6.8280 0.0000
# 3 14.9003 -1.2059 51.5317 0.0000 23.6484 0.0000
# 4 0.0000 0.0000 0.0000 27.9997 0.0000 10.2599
# 5 28.3873 6.8280 23.6484 0.0000 45.4880 0.0000
# 6 0.0000 0.0000 0.0000 10.2599 0.0000 31.4536
#
#
#
# Elastic Compliance Matrix: (Units=1/GPa)
#
#
# Indices 1 2 3 4 5 6 
#
# 1 0.009752 0.000789 0.000060 0.000000 -0.006236 0.000000
# 2 0.000789 0.015350 0.001858 0.000000 -0.003762 0.000000
# 3 0.000060 0.001858 0.025711 0.000000 -0.013683 0.000000
# 4 0.000000 0.000000 0.000000 0.040563 0.000000 -0.013231
# 5 -0.006236 -0.003762 -0.013683 0.000000 0.033553 0.000000
# 6 0.000000 0.000000 0.000000 -0.013231 0.000000 0.036109
#
#
# Mechanical properties :
#
#
# Convention : Reuss Voigt Hill
#
# Bulk Modulus (GPa) = 17.78559 29.39278 23.58919
# Shear Modulus (GPa) = 28.67523 36.09437 32.38480
#
# Velocity S-wave (km/s) = 3.52890 3.95919 3.75022
# Velocity P-wave (km/s) = 4.93236 5.80215 5.38485
#
# Compressibility (1/GPa) = 0.05622529
#
# Stress axis : x y z
#
# Youngs Moduli (GPa) = 102.54245 65.14821 38.89415
#
# Poissons Ratio (x) = -0.05138 -0.00234
# Poissons Ratio (y) = -0.08087 -0.07225
# Poissons Ratio (z) = -0.00618 -0.12102
#
# Static dielectric constant tensor:
#      x y z
#    x 1.839540 0.000000 0.034600 
#    y 0.000000 1.772760 0.000000 
#    z 0.034600 0.000000 1.900790 
# 
# From -- ./inp_files/267662.got.cif
#   From: 2010.05.17/outbox.cif.g08.bks.cpg/sg12_134_cif.got.tgz:267662.got - 2010.06.03 13:09:07.
