data_PCOD9202557
_publ_section_title
;
Structure prediction by ZEFSAII (Michael W. Deem and Ramdas Pophale) SiO2 
 PCOD9202557
Probable space group: C 2/M
;
_chemical_formula_sum "Si O2"
_cell_formula_units_Z 48
_cell_length_a 9.857528
_cell_length_b 29.144029
_cell_length_c 8.602704
_cell_angle_alpha 90.000000
_cell_angle_beta 95.155978
_cell_angle_gamma 90.000000
_cell_volume 2461.454185
_symmetry_space_group_name_H-M "C 2/M"
_symmetry_group_IT_number 12
_symmetry_cell_setting 'monoclinic'
loop_
_space_group_symop_operation_xyz
x,y,z
-x,y,-z
-x,-y,-z
x,-y,z
1/2+x,1/2+y,z
1/2-x,1/2+y,-z
1/2-x,1/2-y,-z
1/2+x,1/2-y,z
loop_
_atom_site_type_symbol
_atom_site_label
_atom_site_fract_x
_atom_site_fract_y
_atom_site_fract_z
Si Si1 0.927942 0.811653 0.240071
Si Si2 0.346159 0.949300 0.418561
Si Si3 0.813125 0.640750 0.593200
Si Si4 0.060486 0.608893 0.842991
Si Si5 0.805259 0.179837 0.888885
Si Si6 0.158793 0.726710 0.619346
O O1 0.819133 0.839095 0.333217
O O2 0.639198 0.693222 0.937392
O O3 0.954236 0.763004 0.331872
O O4 0.070124 0.836137 0.210408
O O5 0.500000 0.951841 0.500000
O O6 0.280000 0.907742 0.508099
O O7 0.369599 0.931617 0.246844
O O8 0.284464 0.000000 0.423908
O O9 0.859234 0.676734 0.462567
O O10 0.937257 0.631315 0.727416
O O11 0.180280 0.645018 0.889700
O O12 0.000000 0.593241 0.000000
O O13 0.744288 0.221407 0.785285
O O14 0.250000 0.750000 0.500000
#
# Coordination Sequence:
#
# PCOD9202557 Si02
#       6
#     8   8   8   8   8   8
#     4  10  23  39  57  84 120 161 199 238 287 341
#     4   9  19  37  62  93 119 144 187 243 300 355
#     4  10  20  38  62  87 118 155 192 243 297 348
#     4  11  21  37  62  88 117 155 193 243 297 348
#     4  11  22  39  57  84 118 159 197 246 282 344
#     4  10  22  37  55  82 115 156 199 237 284 341
#
# _framework density 19.500665999999999
#
# number of rings (size 3 to 8) (size 9 to 14) (size 15 to 20)
#    0.000    1.833    3.333    0.500    0.000    7.000 
#    3.000    0.000    0.000    2.000    0.000    2.333 
#    0.000    0.000    0.000    0.000    0.000    0.000 
#
# Total GULP energy -133716.456762 kJ/mol
# GULP energy per Si atom -5571.519032 kJ/mol
# Density = 1.945628 g / cm^3
# Si number density = 19.500666 Si / 1000 Ang^3
#
#
#
# Elastic Constant Matrix: (Units=GPa)
#
#
# Indices 1 2 3 4 5 6 
#
# 1 81.2905 26.1863 29.6326 0.0000 -16.0247 0.0000
# 2 26.1863 105.9898 42.6740 0.0000 -13.1792 0.0000
# 3 29.6326 42.6740 113.0397 0.0000 -16.7720 0.0000
# 4 0.0000 0.0000 0.0000 10.2417 0.0000 -9.2938
# 5 -16.0247 -13.1792 -16.7720 0.0000 35.1188 0.0000
# 6 0.0000 0.0000 0.0000 -9.2938 0.0000 13.3430
#
#
#
# Elastic Compliance Matrix: (Units=1/GPa)
#
#
# Indices 1 2 3 4 5 6 
#
# 1 0.014794 -0.002101 -0.002368 0.000000 0.004831 0.000000
# 2 -0.002101 0.011605 -0.003580 0.000000 0.001687 0.000000
# 3 -0.002368 -0.003580 0.011257 0.000000 0.002952 0.000000
# 4 0.000000 0.000000 0.000000 0.265373 0.000000 0.184840
# 5 0.004831 0.001687 0.002952 0.000000 0.032722 0.000000
# 6 0.000000 0.000000 0.000000 0.184840 0.000000 0.203692
#
#
# Mechanical properties :
#
#
# Convention : Reuss Voigt Hill
#
# Bulk Modulus (GPa) = 46.38768 55.25621 50.82195
# Shear Modulus (GPa) = 8.88531 25.19583 17.04057
#
# Velocity S-wave (km/s) = 2.13689 3.59841 2.95929
# Velocity P-wave (km/s) = 5.47063 6.75735 6.14775
#
# Compressibility (1/GPa) = 0.02155745
#
# Stress axis : x y z
#
# Youngs Moduli (GPa) = 67.59522 86.16920 88.83533
#
# Poissons Ratio (x) = 0.18103 0.21038
# Poissons Ratio (y) = 0.14201 0.31804
# Poissons Ratio (z) = 0.16008 0.30849
#
# Static dielectric constant tensor:
#      x y z
#    x 1.739760 0.000000 0.032150 
#    y 0.000000 1.721490 0.000000 
#    z 0.032150 0.000000 1.708830 
# 
# From -- ./inp_files/78252.got.cif
#   From: 2010.05.17/outbox.cif.g08.bks.cpg/sg12_40_cif.got.tgz:78252.got - 2010.06.03 13:09:07.
