data_PCOD9202119
_publ_section_title
;
Structure prediction by ZEFSAII (Michael W. Deem and Ramdas Pophale) SiO2 
 PCOD9202119
Probable space group: C 2/M
;
_chemical_formula_sum "Si O2"
_cell_formula_units_Z 56
_cell_length_a 14.104362
_cell_length_b 10.392654
_cell_length_c 20.425623
_cell_angle_alpha 90.000000
_cell_angle_beta 89.665710
_cell_angle_gamma 90.000000
_cell_volume 2993.972690
_symmetry_space_group_name_H-M "C 2/M"
_symmetry_group_IT_number 12
_symmetry_cell_setting 'monoclinic'
loop_
_space_group_symop_operation_xyz
x,y,z
-x,y,-z
-x,-y,-z
x,-y,z
1/2+x,1/2+y,z
1/2-x,1/2+y,-z
1/2-x,1/2-y,-z
1/2+x,1/2-y,z
loop_
_atom_site_type_symbol
_atom_site_label
_atom_site_fract_x
_atom_site_fract_y
_atom_site_fract_z
Si Si1 0.490893 0.746823 0.224509
Si Si2 0.347687 0.349028 0.119331
Si Si3 0.616910 0.649673 0.336286
Si Si4 0.665514 0.151999 0.673981
Si Si5 0.609680 0.351957 0.020936
Si Si6 0.995961 0.349059 0.422262
Si Si7 0.639923 0.145207 0.134328
O O1 0.435698 0.693269 0.162003
O O2 0.556773 0.656300 0.269071
O O3 0.406642 0.794837 0.271547
O O4 0.565434 0.846590 0.193496
O O5 0.360021 0.500000 0.108947
O O6 0.341101 0.297071 0.045308
O O7 0.247982 0.328613 0.155827
O O8 0.617327 0.500000 0.358913
O O9 0.725555 0.695464 0.326061
O O10 0.564749 0.748518 0.385564
O O11 0.609689 0.174452 0.606044
O O12 0.670560 0.000000 0.685063
O O13 0.640297 0.500000 0.036514
O O14 0.500000 0.358537 0.000000
O O15 0.619243 0.254039 0.080627
O O16 0.019144 0.500000 0.406748
O O17 0.000000 0.333285 0.500000
O O18 0.637406 0.000000 0.106353
#
# Coordination Sequence:
#
# PCOD9202119 Si02
#       7
#     8   8   8   8   8   8   8
#     4  11  20  36  55  79 110 147 183 222 278 337
#     4  10  21  37  55  77 107 142 181 226 278 340
#     4  10  21  36  58  85 112 146 187 232 270 312
#     4   9  19  36  54  78 114 148 183 226 274 324
#     4  10  20  38  59  77 105 146 180 219 285 347
#     4   9  19  37  60  84 116 156 187 218 271 330
#     4  11  23  37  57  84 108 136 182 237 280 322
#
# _framework density 18.704246000000001
#
# number of rings (size 3 to 8) (size 9 to 14) (size 15 to 20)
#    0.000    2.000    1.429    2.143    0.000    2.286 
#    0.000    5.000    0.000    0.000    0.000    0.000 
#    0.000    0.000    0.000    0.000    0.000    0.000 
#
# Total GULP energy -155952.781971 kJ/mol
# GULP energy per Si atom -5569.742213 kJ/mol
# Density = 1.866167 g / cm^3
# Si number density = 18.704246 Si / 1000 Ang^3
#
#
#
# Elastic Constant Matrix: (Units=GPa)
#
#
# Indices 1 2 3 4 5 6 
#
# 1 143.6380 43.6476 41.9837 0.0000 -3.9279 0.0000
# 2 43.6476 75.8229 42.5637 0.0000 -3.0852 0.0000
# 3 41.9837 42.5637 83.9617 0.0000 5.9493 0.0000
# 4 0.0000 0.0000 0.0000 21.1028 0.0000 -1.3303
# 5 -3.9279 -3.0852 5.9493 0.0000 20.4943 0.0000
# 6 0.0000 0.0000 0.0000 -1.3303 0.0000 25.3380
#
#
#
# Elastic Compliance Matrix: (Units=1/GPa)
#
#
# Indices 1 2 3 4 5 6 
#
# 1 0.008894 -0.003441 -0.002846 0.000000 0.002013 0.000000
# 2 -0.003441 0.020418 -0.008986 0.000000 0.005023 0.000000
# 3 -0.002846 -0.008986 0.018402 0.000000 -0.007240 0.000000
# 4 0.000000 0.000000 0.000000 0.047545 0.000000 0.002496
# 5 0.002013 0.005023 -0.007240 0.000000 0.052038 0.000000
# 6 0.000000 0.000000 0.000000 0.002496 0.000000 0.039597
#
#
# Mechanical properties :
#
#
# Convention : Reuss Voigt Hill
#
# Bulk Modulus (GPa) = 58.24573 62.20140 60.22356
# Shear Modulus (GPa) = 22.40523 25.06887 23.73705
#
# Velocity S-wave (km/s) = 3.46478 3.66495 3.56627
# Velocity P-wave (km/s) = 6.87126 7.15797 7.01608
#
# Compressibility (1/GPa) = 0.01716864
#
# Stress axis : x y z
#
# Youngs Moduli (GPa) = 112.43149 48.97628 54.34257
#
# Poissons Ratio (x) = 0.16850 0.15466
# Poissons Ratio (y) = 0.38682 0.48834
# Poissons Ratio (z) = 0.31997 0.44011
#
# Static dielectric constant tensor:
#      x y z
#    x 1.671250 0.000000 -0.022160 
#    y 0.000000 1.649430 0.000000 
#    z -0.022160 0.000000 1.687710 
# 
# From -- ./inp_files/308920.got.cif
#   From: 2010.05.17/outbox.cif.g08.bks.cpg/sg12_155_cif.got.tgz:308920.got - 2010.06.03 13:09:07.
