data_PCOD9202103
_publ_section_title
;
Structure prediction by ZEFSAII (Michael W. Deem and Ramdas Pophale) SiO2 
 PCOD9202103
Probable space group: C 2/M
;
_chemical_formula_sum "Si O2"
_cell_formula_units_Z 36
_cell_length_a 20.516329
_cell_length_b 11.211442
_cell_length_c 9.132561
_cell_angle_alpha 90.000000
_cell_angle_beta 112.794230
_cell_angle_gamma 90.000000
_cell_volume 1936.593854
_symmetry_space_group_name_H-M "C 2/M"
_symmetry_group_IT_number 12
_symmetry_cell_setting 'monoclinic'
loop_
_space_group_symop_operation_xyz
x,y,z
-x,y,-z
-x,-y,-z
x,-y,z
1/2+x,1/2+y,z
1/2-x,1/2+y,-z
1/2-x,1/2-y,-z
1/2+x,1/2-y,z
loop_
_atom_site_type_symbol
_atom_site_label
_atom_site_fract_x
_atom_site_fract_y
_atom_site_fract_z
Si Si1 0.882358 0.500000 0.426859
Si Si2 0.016422 0.500000 0.759924
Si Si3 0.622588 0.367665 0.088570
Si Si4 0.207808 0.862838 0.893471
Si Si5 0.000000 0.688978 0.000000
Si Si6 0.770580 0.287741 0.355612
O O1 0.944944 0.500000 0.601150
O O2 0.832693 0.384792 0.402851
O O3 0.919190 0.500000 0.299020
O O4 0.016922 0.610435 0.872263
O O5 0.598339 0.500000 0.105872
O O6 0.699535 0.344777 0.224690
O O7 0.635793 0.361467 0.924542
O O8 0.567535 0.270190 0.090497
O O9 0.206402 0.825620 0.723186
O O10 0.236021 0.000000 0.935671
O O11 0.250000 0.750000 0.000000
O O12 0.750000 0.250000 0.500000
#
# Coordination Sequence:
#
# PCOD9202103 Si02
#       6
#     4   4   8   8   4   8
#     4  11  22  42  60  83 128 159 203 249 315 368
#     4  10  24  40  60  86 118 166 197 255 303 360
#     4  10  20  38  58  87 117 155 199 249 310 356
#     4   9  20  36  56  85 121 160 205 247 304 363
#     4  11  21  40  60  88 117 153 214 244 298 371
#     4  11  22  36  60  88 121 161 201 254 307 368
#
# _framework density 18.589338999999999
#
# number of rings (size 3 to 8) (size 9 to 14) (size 15 to 20)
#    0.000    1.778    1.111    3.000    3.111    0.000 
#   16.000    0.000    0.000    0.000    0.000   14.000 
#    0.000    0.000    0.000    0.000    0.000    0.000 
#
# Total GULP energy -100341.249552 kJ/mol
# GULP energy per Si atom -5574.513864 kJ/mol
# Density = 1.854703 g / cm^3
# Si number density = 18.589339 Si / 1000 Ang^3
#
#
#
# Elastic Constant Matrix: (Units=GPa)
#
#
# Indices 1 2 3 4 5 6 
#
# 1 108.7398 62.4115 50.1833 0.0000 -11.6475 0.0000
# 2 62.4115 152.7852 40.1408 0.0000 -11.5061 0.0000
# 3 50.1833 40.1408 90.7020 0.0000 -27.8216 0.0000
# 4 0.0000 0.0000 0.0000 15.5341 0.0000 0.4573
# 5 -11.6475 -11.5061 -27.8216 0.0000 39.2095 0.0000
# 6 0.0000 0.0000 0.0000 0.4573 0.0000 42.0861
#
#
#
# Elastic Compliance Matrix: (Units=1/GPa)
#
#
# Indices 1 2 3 4 5 6 
#
# 1 0.014577 -0.004330 -0.006659 0.000000 -0.001666 0.000000
# 2 -0.004330 0.008694 -0.001360 0.000000 0.000300 0.000000
# 3 -0.006659 -0.001360 0.018639 0.000000 0.010848 0.000000
# 4 0.000000 0.000000 0.000000 0.064395 0.000000 -0.000700
# 5 -0.001666 0.000300 0.010848 0.000000 0.032795 0.000000
# 6 0.000000 0.000000 0.000000 -0.000700 0.000000 0.023768
#
#
# Mechanical properties :
#
#
# Convention : Reuss Voigt Hill
#
# Bulk Modulus (GPa) = 58.10383 73.07758 65.59070
# Shear Modulus (GPa) = 25.86614 32.66536 29.26575
#
# Velocity S-wave (km/s) = 3.73426 4.19646 3.97209
# Velocity P-wave (km/s) = 7.06522 7.92952 7.50981
#
# Compressibility (1/GPa) = 0.01721057
#
# Stress axis : x y z
#
# Youngs Moduli (GPa) = 68.60354 115.02426 53.65116
#
# Poissons Ratio (x) = 0.49808 0.35729
# Poissons Ratio (y) = 0.29707 0.07295
# Poissons Ratio (z) = 0.45686 0.15639
#
# Static dielectric constant tensor:
#      x y z
#    x 1.631730 0.000000 -0.024240 
#    y 0.000000 1.363890 0.000000 
#    z -0.024240 0.000000 1.706010 
# 
# From -- ./inp_files/70876.got.cif
#   From: 2010.05.17/outbox.cif.g08.bks.cpg/sg12_36_cif.got.tgz:70876.got - 2010.06.03 13:09:07.
