data_PCOD9202308
_publ_section_title
;
Structure prediction by ZEFSAII (Michael W. Deem and Ramdas Pophale) SiO2 
 PCOD9202308
Probable space group: C 2/M
;
_chemical_formula_sum "Si O2"
_cell_formula_units_Z 44
_cell_length_a 7.950060
_cell_length_b 18.473963
_cell_length_c 19.971920
_cell_angle_alpha 90.000000
_cell_angle_beta 130.394312
_cell_angle_gamma 90.000000
_cell_volume 2233.977206
_symmetry_space_group_name_H-M "C 2/M"
_symmetry_group_IT_number 12
_symmetry_cell_setting 'monoclinic'
loop_
_space_group_symop_operation_xyz
x,y,z
-x,y,-z
-x,-y,-z
x,-y,z
1/2+x,1/2+y,z
1/2-x,1/2+y,-z
1/2-x,1/2-y,-z
1/2+x,1/2-y,z
loop_
_atom_site_type_symbol
_atom_site_label
_atom_site_fract_x
_atom_site_fract_y
_atom_site_fract_z
Si Si1 0.500000 0.384109 0.000000
Si Si2 0.789198 0.841330 0.199874
Si Si3 0.075756 0.157912 0.400642
Si Si4 0.923044 0.000000 0.214638
Si Si5 0.264346 0.500000 0.582999
Si Si6 0.245625 0.000000 0.970642
Si Si7 0.000000 0.754148 0.500000
Si Si8 0.326511 0.232353 0.095508
O O1 0.668948 0.432047 0.998023
O O2 0.344579 0.327590 0.919898
O O3 0.971300 0.823632 0.302252
O O4 0.558593 0.806894 0.159534
O O5 0.835263 0.805517 0.140168
O O6 0.789003 0.927793 0.197683
O O7 0.930885 0.192498 0.422085
O O8 0.304392 0.199838 0.466687
O O9 0.126253 0.072825 0.418078
O O10 0.927584 0.000000 0.135687
O O11 0.150421 0.000000 0.316678
O O12 0.000000 0.500000 0.500000
O O13 0.500000 0.000000 0.000000
O O14 0.250000 0.250000 0.000000
#
# Coordination Sequence:
#
# PCOD9202308 Si02
#       8
#     4   8   8   4   4   4   4   8
#     4  11  24  40  66  97 128 178 228 267 332 404
#     4  11  23  39  63  89 126 164 216 262 324 380
#     4  10  21  38  62  90 121 164 205 261 317 391
#     4  10  23  39  63  91 123 173 213 257 330 387
#     4  10  20  40  61  90 124 165 208 257 319 384
#     4  11  23  44  67  95 137 176 220 281 335 392
#     4  10  20  38  60  90 124 152 208 254 332 376
#     4  12  22  40  61  91 127 168 218 271 323 389
#
# _framework density 19.695815
#
# number of rings (size 3 to 8) (size 9 to 14) (size 15 to 20)
#    0.000    1.273    2.727    3.273    0.000    1.091 
#    0.000    1.818    0.000    0.000    0.000    0.000 
#    0.000    0.000    0.000    0.000    0.000    0.000 
#
# Total GULP energy -122524.955432 kJ/mol
# GULP energy per Si atom -5569.316156 kJ/mol
# Density = 1.965099 g / cm^3
# Si number density = 19.695815 Si / 1000 Ang^3
#
#
#
# Elastic Constant Matrix: (Units=GPa)
#
#
# Indices 1 2 3 4 5 6 
#
# 1 55.5582 37.6944 2.0271 0.0000 5.3865 0.0000
# 2 37.6944 143.6086 43.4835 0.0000 -0.9153 0.0000
# 3 2.0271 43.4835 54.8010 0.0000 3.2536 0.0000
# 4 0.0000 0.0000 0.0000 36.0753 0.0000 -0.9428
# 5 5.3865 -0.9153 3.2536 0.0000 36.8239 0.0000
# 6 0.0000 0.0000 0.0000 -0.9428 0.0000 20.7449
#
#
#
# Elastic Compliance Matrix: (Units=1/GPa)
#
#
# Indices 1 2 3 4 5 6 
#
# 1 0.023575 -0.007930 0.005667 0.000000 -0.004146 0.000000
# 2 -0.007930 0.011861 -0.009253 0.000000 0.002272 0.000000
# 3 0.005667 -0.009253 0.025578 0.000000 -0.003319 0.000000
# 4 0.000000 0.000000 0.000000 0.027753 0.000000 0.001261
# 5 -0.004146 0.002272 -0.003319 0.000000 0.028113 0.000000
# 6 0.000000 0.000000 0.000000 0.001261 0.000000 0.048262
#
#
# Mechanical properties :
#
#
# Convention : Reuss Voigt Hill
#
# Bulk Modulus (GPa) = 26.32975 46.70864 36.51919
# Shear Modulus (GPa) = 24.89619 30.11299 27.50459
#
# Velocity S-wave (km/s) = 3.55918 3.91436 3.74099
# Velocity P-wave (km/s) = 5.50342 6.64802 6.10261
#
# Compressibility (1/GPa) = 0.03797986
#
# Stress axis : x y z
#
# Youngs Moduli (GPa) = 42.41838 84.30905 39.09686
#
# Poissons Ratio (x) = 0.66858 -0.22154
# Poissons Ratio (y) = 0.33638 0.36177
# Poissons Ratio (z) = -0.24036 0.78013
#
# Static dielectric constant tensor:
#      x y z
#    x 1.771730 0.000000 0.003890 
#    y 0.000000 1.729800 0.000000 
#    z 0.003890 0.000000 1.618970 
# 
# From -- ./inp_files/333454.got.cif
#   From: 2010.05.17/outbox.cif.g08.bks.cpg/sg12_167_cif.got.tgz:333454.got - 2010.06.03 13:09:07.
