data_PCOD9202270
_publ_section_title
;
Structure prediction by ZEFSAII (Michael W. Deem and Ramdas Pophale) SiO2 
 PCOD9202270
Probable space group: C 2/M
;
_chemical_formula_sum "Si O2"
_cell_formula_units_Z 40
_cell_length_a 20.486225
_cell_length_b 11.421506
_cell_length_c 16.116675
_cell_angle_alpha 90.000000
_cell_angle_beta 148.700949
_cell_angle_gamma 90.000000
_cell_volume 1959.072266
_symmetry_space_group_name_H-M "C 2/M"
_symmetry_group_IT_number 12
_symmetry_cell_setting 'monoclinic'
loop_
_space_group_symop_operation_xyz
x,y,z
-x,y,-z
-x,-y,-z
x,-y,z
1/2+x,1/2+y,z
1/2-x,1/2+y,-z
1/2-x,1/2-y,-z
1/2+x,1/2-y,z
loop_
_atom_site_type_symbol
_atom_site_label
_atom_site_fract_x
_atom_site_fract_y
_atom_site_fract_z
Si Si1 0.672726 0.368800 0.542247
Si Si2 0.300515 0.873334 0.147098
Si Si3 0.637613 0.868406 0.608079
Si Si4 0.450671 0.294027 0.194017
Si Si5 0.971764 0.366094 0.873844
O O1 0.643893 0.500000 0.547231
O O2 0.649955 0.248839 0.568367
O O3 0.579996 0.354053 0.362703
O O4 0.822564 0.368173 0.692938
O O5 0.274644 0.853885 0.215889
O O6 0.395652 0.781887 0.210527
O O7 0.361757 0.000000 0.205063
O O8 0.168589 0.872903 0.957068
O O9 0.500000 0.870007 0.500000
O O10 0.660038 0.000000 0.595756
O O11 0.469838 0.213222 0.134278
O O12 0.019676 0.500000 0.919486
O O13 0.000000 0.328631 0.000000
#
# Coordination Sequence:
#
# PCOD9202270 Si02
#       5
#     8   8   8   8   8
#     4  11  23  39  61  93 124 154 199 251 298 353
#     4  10  21  37  58  85 119 157 200 245 291 354
#     4  10  20  38  60  86 119 158 201 240 288 356
#     4  11  21  37  59  86 119 159 196 246 302 352
#     4  10  22  40  61  85 119 160 204 248 298 360
#
# _framework density 20.417828
#
# number of rings (size 3 to 8) (size 9 to 14) (size 15 to 20)
#    0.000    1.600    2.000    3.000    0.000    1.200 
#    0.000    3.000    0.000    5.400    0.000    0.000 
#    0.000    0.000    0.000    0.000    0.000    0.000 
#
# Total GULP energy -111394.812411 kJ/mol
# GULP energy per Si atom -5569.740621 kJ/mol
# Density = 2.037136 g / cm^3
# Si number density = 20.417828 Si / 1000 Ang^3
#
#
#
# Elastic Constant Matrix: (Units=GPa)
#
#
# Indices 1 2 3 4 5 6 
#
# 1 40.0799 47.4409 5.0479 0.0000 -5.1933 0.0000
# 2 47.4409 149.3669 8.2611 0.0000 -9.9118 0.0000
# 3 5.0479 8.2611 104.2228 0.0000 -8.0437 0.0000
# 4 0.0000 0.0000 0.0000 355.1320 0.0000 62.3032
# 5 -5.1933 -9.9118 -8.0437 0.0000 25.6212 0.0000
# 6 0.0000 0.0000 0.0000 62.3032 0.0000 39.2225
#
#
#
# Elastic Compliance Matrix: (Units=1/GPa)
#
#
# Indices 1 2 3 4 5 6 
#
# 1 0.040303 -0.012556 -0.000719 0.000000 0.003086 0.000000
# 2 -0.012556 0.010795 -0.000125 0.000000 0.001592 0.000000
# 3 -0.000719 -0.000125 0.009864 0.000000 0.002903 0.000000
# 4 0.000000 0.000000 0.000000 0.003904 0.000000 -0.006201
# 5 0.003086 0.001592 0.002903 0.000000 0.041183 0.000000
# 6 0.000000 0.000000 0.000000 -0.006201 0.000000 0.035345
#
#
# Mechanical properties :
#
#
# Convention : Reuss Voigt Hill
#
# Bulk Modulus (GPa) = 29.27145 46.12992 37.70068
# Shear Modulus (GPa) = 27.84270 99.52312 63.68291
#
# Velocity S-wave (km/s) = 3.69676 6.98921 5.59085
# Velocity P-wave (km/s) = 5.70866 9.36878 7.75767
#
# Compressibility (1/GPa) = 0.03416298
#
# Stress axis : x y z
#
# Youngs Moduli (GPa) = 24.81217 92.63143 101.38346
#
# Poissons Ratio (x) = 1.16310 0.07285
# Poissons Ratio (y) = 0.31155 0.01264
# Poissons Ratio (z) = 0.01783 0.01155
#
# Static dielectric constant tensor:
#      x y z
#    x 1.719360 0.000000 -0.055300 
#    y 0.000000 1.747040 0.000000 
#    z -0.055300 0.000000 1.787910 
# 
# From -- ./inp_files/283416.got.cif
#   From: 2010.05.17/outbox.cif.g08.bks.cpg/sg12_142_cif.got.tgz:283416.got - 2010.06.03 13:09:07.
