data_PCOD9202615
_publ_section_title
;
Structure prediction by ZEFSAII (Michael W. Deem and Ramdas Pophale) SiO2 
 PCOD9202615
Probable space group: C 2/M
;
_chemical_formula_sum "Si O2"
_cell_formula_units_Z 56
_cell_length_a 29.222460
_cell_length_b 13.893011
_cell_length_c 11.833055
_cell_angle_alpha 90.000000
_cell_angle_beta 34.660490
_cell_angle_gamma 90.000000
_cell_volume 2732.138899
_symmetry_space_group_name_H-M "C 2/M"
_symmetry_group_IT_number 12
_symmetry_cell_setting 'monoclinic'
loop_
_space_group_symop_operation_xyz
x,y,z
-x,y,-z
-x,-y,-z
x,-y,z
1/2+x,1/2+y,z
1/2-x,1/2+y,-z
1/2-x,1/2-y,-z
1/2+x,1/2-y,z
loop_
_atom_site_type_symbol
_atom_site_label
_atom_site_fract_x
_atom_site_fract_y
_atom_site_fract_z
Si Si1 0.689078 0.112281 0.415977
Si Si2 0.129085 0.890225 0.323007
Si Si3 0.981569 0.888325 0.777364
Si Si4 0.823438 0.198427 0.000425
Si Si5 0.723913 0.108268 0.805622
Si Si6 0.699325 0.388941 0.590174
Si Si7 0.063825 0.253065 0.785281
O O1 0.736692 0.158354 0.214527
O O2 0.750077 0.120904 0.398655
O O3 0.611236 0.172115 0.610708
O O4 0.672509 0.000000 0.430730
O O5 0.040263 0.872445 0.550648
O O6 0.189706 0.887673 0.306193
O O7 0.131953 0.000000 0.270878
O O8 0.159459 0.818477 0.165681
O O9 0.014783 0.821090 0.807695
O O10 0.988299 0.000000 0.795379
O O11 0.891470 0.862264 0.926969
O O12 0.827896 0.308043 0.033341
O O13 0.742168 0.125352 0.636802
O O14 0.692045 0.000000 0.884841
O O15 0.669259 0.500000 0.644092
O O16 0.629386 0.311089 0.719347
O O17 0.000000 0.300049 0.000000
#
# Coordination Sequence:
#
# PCOD9202615 Si02
#       7
#     8   8   8   8   8   8   8
#     4  11  24  40  59  87 120 157 202 245 293 352
#     4  10  20  38  62  90 121 152 193 245 301 351
#     4  11  23  39  59  91 125 155 194 244 301 355
#     4  12  22  37  64  90 121 157 198 243 297 352
#     4  10  21  38  62  87 115 156 202 245 290 348
#     4  10  20  39  62  84 115 152 196 248 296 347
#     4  12  24  37  59  85 120 157 198 244 296 352
#
# _framework density 20.496762
#
# number of rings (size 3 to 8) (size 9 to 14) (size 15 to 20)
#    0.000    1.143    2.857    3.857    2.000    3.714 
#    0.000    0.714    0.000    1.714    0.000    0.000 
#    0.000    0.000    0.000    0.000    0.000    0.000 
#
# Total GULP energy -156679.182429 kJ/mol
# GULP energy per Si atom -5595.685087 kJ/mol
# Density = 2.045011 g / cm^3
# Si number density = 20.496762 Si / 1000 Ang^3
#
#
#
# Elastic Constant Matrix: (Units=GPa)
#
#
# Indices 1 2 3 4 5 6 
#
# 1 28.3647 -0.6336 2.5585 0.0000 6.9983 0.0000
# 2 -0.6336 92.3464 45.3945 0.0000 11.2754 0.0000
# 3 2.5585 45.3945 113.7063 0.0000 13.4567 0.0000
# 4 0.0000 0.0000 0.0000 26.3661 0.0000 2.7339
# 5 6.9983 11.2754 13.4567 0.0000 18.4050 0.0000
# 6 0.0000 0.0000 0.0000 2.7339 0.0000 26.4847
#
#
#
# Elastic Compliance Matrix: (Units=1/GPa)
#
#
# Indices 1 2 3 4 5 6 
#
# 1 0.039342 0.002184 0.000188 0.000000 -0.016435 0.000000
# 2 0.002184 0.013981 -0.004947 0.000000 -0.005779 0.000000
# 3 0.000188 -0.004947 0.011402 0.000000 -0.005377 0.000000
# 4 0.000000 0.000000 0.000000 0.038338 0.000000 -0.003957
# 5 -0.016435 -0.005779 -0.005377 0.000000 0.068054 0.000000
# 6 0.000000 0.000000 0.000000 -0.003957 0.000000 0.038166
#
#
# Mechanical properties :
#
#
# Convention : Reuss Voigt Hill
#
# Bulk Modulus (GPa) = 16.78559 36.56181 26.67370
# Shear Modulus (GPa) = 21.34103 26.72435 24.03269
#
# Velocity S-wave (km/s) = 3.23025 3.61478 3.42791
# Velocity P-wave (km/s) = 4.70317 5.94127 5.35811
#
# Compressibility (1/GPa) = 0.05957490
#
# Stress axis : x y z
#
# Youngs Moduli (GPa) = 25.41823 71.52517 87.70675
#
# Poissons Ratio (x) = -0.15623 -0.01646
# Poissons Ratio (y) = -0.05552 0.43387
# Poissons Ratio (z) = -0.00477 0.35382
#
# Static dielectric constant tensor:
#      x y z
#    x 1.735400 0.000000 0.015320 
#    y 0.000000 1.732600 0.000000 
#    z 0.015320 0.000000 1.728720 
# 
# From -- ./inp_files/143736.got.cif
#   From: 2010.05.17/outbox.cif.g08.bks.cpg/sg12_72_cif.got.tgz:143736.got - 2010.06.03 13:09:07.
