data_PCOD9202877
_publ_section_title
;
Structure prediction by ZEFSAII (Michael W. Deem and Ramdas Pophale) SiO2 
 PCOD9202877
Probable space group: C 2/M
;
_chemical_formula_sum "Si O2"
_cell_formula_units_Z 48
_cell_length_a 26.240389
_cell_length_b 7.816286
_cell_length_c 14.763607
_cell_angle_alpha 90.000000
_cell_angle_beta 40.598873
_cell_angle_gamma 90.000000
_cell_volume 1970.532302
_symmetry_space_group_name_H-M "C 2/M"
_symmetry_group_IT_number 12
_symmetry_cell_setting 'monoclinic'
loop_
_space_group_symop_operation_xyz
x,y,z
-x,y,-z
-x,-y,-z
x,-y,z
1/2+x,1/2+y,z
1/2-x,1/2+y,-z
1/2-x,1/2-y,-z
1/2+x,1/2-y,z
loop_
_atom_site_type_symbol
_atom_site_label
_atom_site_fract_x
_atom_site_fract_y
_atom_site_fract_z
Si Si1 0.334743 0.799910 0.669313
Si Si2 0.424827 0.696997 0.052925
Si Si3 0.424966 0.697324 0.379624
Si Si4 0.829090 0.306052 0.343304
Si Si5 0.418869 0.292529 0.729277
Si Si6 0.825242 0.209489 0.023995
O O1 0.356983 0.708383 0.546692
O O2 0.403028 0.777170 0.651298
O O3 0.324506 0.000000 0.662298
O O4 0.256993 0.732924 0.823972
O O5 0.445886 0.500000 0.004540
O O6 0.355026 0.700838 0.220564
O O7 0.500000 0.778827 0.000000
O O8 0.392617 0.768806 0.002669
O O9 0.438994 0.500000 0.335905
O O10 0.396877 0.789843 0.327473
O O11 0.501909 0.763227 0.327294
O O12 0.820596 0.500000 0.324707
O O13 0.750000 0.250000 0.500000
O O14 0.421647 0.500000 0.718803
O O15 0.348377 0.239480 0.891688
O O16 0.824356 0.000000 0.025977
#
# Coordination Sequence:
#
# PCOD9202877 Si02
#       6
#     8   8   8   8   8   8
#     4  11  22  36  57  86 120 155 192 241 297 351
#     4  10  20  38  64  90 119 159 204 248 297 355
#     4  11  23  40  62  86 114 153 198 244 296 354
#     4  12  25  41  62  89 122 158 199 248 300 358
#     4  10  21  39  61  84 113 152 198 242 287 347
#     4   9  19  36  58  84 114 151 195 240 287 342
#
# _framework density 24.358898
#
# number of rings (size 3 to 8) (size 9 to 14) (size 15 to 20)
#    0.000    1.500    0.000    5.500    0.000    7.667 
#    0.000    2.500    0.000    0.000    0.000    0.000 
#    0.000    0.000    0.000    0.000    0.000    0.000 
#
# Total GULP energy -134366.130140 kJ/mol
# GULP energy per Si atom -5598.588756 kJ/mol
# Density = 2.430346 g / cm^3
# Si number density = 24.358898 Si / 1000 Ang^3
#
#
#
# Elastic Constant Matrix: (Units=GPa)
#
#
# Indices 1 2 3 4 5 6 
#
# 1 81.3073 -2.6939 -1.9287 0.0027 9.7012 -0.0003
# 2 -2.6939 49.7322 -3.8743 0.0063 -2.2303 -0.0064
# 3 -1.9287 -3.8743 88.3030 0.0072 13.9828 -0.0048
# 4 0.0027 0.0063 0.0072 15.4923 -0.0029 1.8936
# 5 9.7012 -2.2303 13.9828 -0.0029 47.1077 0.0011
# 6 -0.0003 -0.0064 -0.0048 1.8936 0.0011 20.4604
#
#
#
# Elastic Compliance Matrix: (Units=1/GPa)
#
#
# Indices 1 2 3 4 5 6 
#
# 1 0.012672 0.000619 0.000748 -0.000003 -0.002802 0.000001
# 2 0.000619 0.020231 0.000808 -0.000009 0.000591 0.000007
# 3 0.000748 0.000808 0.011957 -0.000007 -0.003665 0.000004
# 4 -0.000003 -0.000009 -0.000007 0.065287 0.000007 -0.006042
# 5 -0.002802 0.000591 -0.003665 0.000007 0.022921 -0.000002
# 6 0.000001 0.000007 0.000004 -0.006042 -0.000002 0.049434
#
#
# Mechanical properties :
#
#
# Convention : Reuss Voigt Hill
#
# Bulk Modulus (GPa) = 20.32214 22.48320 21.40267
# Shear Modulus (GPa) = 25.69969 31.80135 28.75052
#
# Velocity S-wave (km/s) = 3.25167 3.61714 3.43926
# Velocity P-wave (km/s) = 4.73906 5.16671 4.95750
#
# Compressibility (1/GPa) = 0.04920741
#
# Stress axis : x y z
#
# Youngs Moduli (GPa) = 78.91658 49.43005 83.63491
#
# Poissons Ratio (x) = -0.03060 -0.06253
# Poissons Ratio (y) = -0.04885 -0.06754
# Poissons Ratio (z) = -0.05900 -0.03992
#
# Static dielectric constant tensor:
#      x y z
#    x 1.925990 0.000000 -0.068000 
#    y 0.000000 1.922180 0.000000 
#    z -0.068000 0.000000 1.949310 
# 
# From -- ./inp_files/230434.got.cif
#   From: 2010.05.17/outbox.cif.g08.bks.cpg/sg12_116_cif.got.tgz:230434.got - 2010.06.03 13:09:07.
