data_PCOD9202274
_publ_section_title
;
Structure prediction by ZEFSAII (Michael W. Deem and Ramdas Pophale) SiO2 
 PCOD9202274
Probable space group: C 2/M
;
_chemical_formula_sum "Si O2"
_cell_formula_units_Z 36
_cell_length_a 24.449815
_cell_length_b 14.149875
_cell_length_c 23.714362
_cell_angle_alpha 90.000000
_cell_angle_beta 168.447825
_cell_angle_gamma 90.000000
_cell_volume 1642.987514
_symmetry_space_group_name_H-M "C 2/M"
_symmetry_group_IT_number 12
_symmetry_cell_setting 'monoclinic'
loop_
_space_group_symop_operation_xyz
x,y,z
-x,y,-z
-x,-y,-z
x,-y,z
1/2+x,1/2+y,z
1/2-x,1/2+y,-z
1/2-x,1/2-y,-z
1/2+x,1/2-y,z
loop_
_atom_site_type_symbol
_atom_site_label
_atom_site_fract_x
_atom_site_fract_y
_atom_site_fract_z
Si Si1 0.563016 0.000000 0.984767
Si Si2 0.402549 0.226864 0.211685
Si Si3 0.552003 0.643443 0.461140
Si Si4 0.224733 0.341595 0.687047
Si Si5 0.903542 0.107061 0.745286
O O1 0.324799 0.918322 0.737892
O O2 0.801632 0.917787 0.231151
O O3 0.477148 0.320438 0.322369
O O4 0.676417 0.165313 0.480977
O O5 0.250000 0.250000 0.000000
O O6 0.186644 0.163705 0.028703
O O7 0.606658 0.739873 0.549505
O O8 0.294533 0.392313 0.699071
O O9 0.000000 0.388448 0.500000
O O10 0.500000 0.330295 0.000000
O O11 0.936922 0.000000 0.758646
#
# Coordination Sequence:
#
# PCOD9202274 Si02
#       5
#     4   8   8   8   8
#     4  10  20  38  60  86 120 160 204 264 312 350
#     4  11  23  44  65  91 127 171 208 255 331 383
#     4  10  21  40  60  87 127 162 210 267 310 370
#     4  11  22  39  65  92 126 176 213 252 323 386
#     4  11  24  43  66  96 134 161 210 271 309 371
#
# _framework density 21.911304000000001
#
# number of rings (size 3 to 8) (size 9 to 14) (size 15 to 20)
#    0.000    1.333    0.000    8.000    0.000    0.889 
#   12.000   11.111    0.000    0.000    0.000    0.000 
#    0.000    0.000    0.000    0.000    0.000    0.000 
#
# Total GULP energy -100202.530927 kJ/mol
# GULP energy per Si atom -5566.807274 kJ/mol
# Density = 2.186143 g / cm^3
# Si number density = 21.911304 Si / 1000 Ang^3
#
#
#
# Elastic Constant Matrix: (Units=GPa)
#
#
# Indices 1 2 3 4 5 6 
#
# 1 53.0964 0.1103 7.9558 0.0145 -13.2699 -0.0575
# 2 0.1103 115.4728 37.8688 0.0317 4.0351 -0.0883
# 3 7.9558 37.8688 184.8280 -0.0317 -3.2068 0.0152
# 4 0.0145 0.0317 -0.0317 39.0543 0.0064 -9.5794
# 5 -13.2699 4.0351 -3.2068 0.0064 35.5360 -0.0267
# 6 -0.0575 -0.0883 0.0152 -9.5794 -0.0267 -4.6292
#
#
#
# Elastic Compliance Matrix: (Units=1/GPa)
#
#
# Indices 1 2 3 4 5 6 
#
# 1 0.020880 -0.000042 -0.000756 -0.000056 0.007733 -0.000190
# 2 -0.000042 0.009338 -0.001933 -0.000035 -0.001251 -0.000105
# 3 -0.000756 -0.001933 0.005847 0.000015 0.000465 0.000033
# 4 -0.000056 -0.000035 0.000015 0.016985 -0.000045 -0.035145
# 5 0.007733 -0.001251 0.000465 -0.000045 0.031212 -0.000157
# 6 -0.000190 -0.000105 0.000033 -0.035145 -0.000157 -0.143286
#
#
# Mechanical properties :
#
#
# Convention : Reuss Voigt Hill
#
# Bulk Modulus (GPa) = 32.67797 49.47410 41.07603
# Shear Modulus (GPa) = -115.30887 34.48970 -40.40959
#
# Velocity S-wave (km/s) = -7.26220 3.97175 -4.29911
# Velocity P-wave (km/s) = 7.44132 6.60767 2.41991
#
# Compressibility (1/GPa) = 0.03060166
#
# Stress axis : x y z
#
# Youngs Moduli (GPa) = 47.89368 107.09334 171.02525
#
# Poissons Ratio (x) = 0.00454 0.12927
# Poissons Ratio (y) = 0.00203 0.33060
# Poissons Ratio (z) = 0.03620 0.20701
#
# Static dielectric constant tensor:
#      x y z
#    x 1.868060 -0.000100 0.021980 
#    y -0.000100 1.769530 -0.000110 
#    z 0.021980 -0.000110 1.761130 
# 
# From -- ./inp_files/369633.got.cif
#   From: 2010.05.17/outbox.cif.g08.bks.cpg/sg12_185_cif.got.tgz:369633.got - 2010.06.03 13:09:07.
