data_PCOD9202695
_publ_section_title
;
Structure prediction by ZEFSAII (Michael W. Deem and Ramdas Pophale) SiO2 
 PCOD9202695
Probable space group: C 2/M
;
_chemical_formula_sum "Si O2"
_cell_formula_units_Z 64
_cell_length_a 25.888873
_cell_length_b 9.132871
_cell_length_c 32.370339
_cell_angle_alpha 90.000000
_cell_angle_beta 153.495745
_cell_angle_gamma 90.000000
_cell_volume 3415.543616
_symmetry_space_group_name_H-M "C 2/M"
_symmetry_group_IT_number 12
_symmetry_cell_setting 'monoclinic'
loop_
_space_group_symop_operation_xyz
x,y,z
-x,y,-z
-x,-y,-z
x,-y,z
1/2+x,1/2+y,z
1/2-x,1/2+y,-z
1/2-x,1/2-y,-z
1/2+x,1/2-y,z
loop_
_atom_site_type_symbol
_atom_site_label
_atom_site_fract_x
_atom_site_fract_y
_atom_site_fract_z
Si Si1 0.925461 0.824660 0.408035
Si Si2 0.460795 0.166038 0.352628
Si Si3 0.187303 0.830595 0.138445
Si Si4 0.029766 0.175444 0.778062
Si Si5 0.473186 0.326129 0.126934
Si Si6 0.839942 0.324563 0.797078
Si Si7 0.235471 0.824798 0.082649
Si Si8 0.365687 0.826380 0.598755
O O1 0.790729 0.777587 0.309782
O O2 0.000000 0.768869 0.500000
O O3 0.981271 0.773672 0.405122
O O4 0.924593 0.000000 0.409220
O O5 0.326652 0.175791 0.243680
O O6 0.539994 0.193185 0.370013
O O7 0.481798 0.000000 0.382063
O O8 0.137537 0.738204 0.140746
O O9 0.171552 0.782167 0.079776
O O10 0.150044 0.000000 0.116029
O O11 0.919627 0.248948 0.677364
O O12 0.031222 0.210185 0.827863
O O13 0.145437 0.240575 0.839906
O O14 0.027014 0.000000 0.771050
O O15 0.497014 0.500000 0.140046
O O16 0.569796 0.238681 0.170953
O O17 0.350660 0.298831 0.016987
O O18 0.843938 0.500000 0.801018
O O19 0.259360 0.000000 0.103103
O O20 0.250000 0.750000 0.500000
O O21 0.349322 0.000000 0.593799
#
# Coordination Sequence:
#
# PCOD9202695 Si02
#       8
#     8   8   8   8   8   8   8   8
#     4   9  19  35  55  80 109 143 187 233 284 346
#     4   9  18  34  55  79 107 141 184 231 278 337
#     4   9  17  34  59  82 108 146 189 234 288 349
#     4  11  23  39  60  88 120 155 197 246 298 351
#     4  10  23  40  58  83 119 160 199 241 293 357
#     4  10  21  36  55  82 115 150 190 242 300 350
#     4  10  20  38  63  87 113 154 202 243 292 353
#     4  11  23  40  60  87 118 152 196 242 294 352
#
# _framework density 18.737866
#
# number of rings (size 3 to 8) (size 9 to 14) (size 15 to 20)
#    0.000    2.125    1.250    1.500    0.000    5.250 
#    0.000    5.000    0.000    0.000    0.000    0.000 
#    0.000    0.000    0.000    0.000    0.000    0.000 
#
# Total GULP energy -178636.189443 kJ/mol
# GULP energy per Si atom -5582.380920 kJ/mol
# Density = 1.869522 g / cm^3
# Si number density = 18.737866 Si / 1000 Ang^3
#
#
#
# Elastic Constant Matrix: (Units=GPa)
#
#
# Indices 1 2 3 4 5 6 
#
# 1 83.8428 46.2786 48.2311 0.0000 -13.8543 -0.0001
# 2 46.2786 45.4029 48.2418 -0.0001 -6.0555 -0.0018
# 3 48.2311 48.2418 102.7253 -0.0002 -24.6871 0.0000
# 4 0.0000 -0.0001 -0.0002 22.1364 0.0000 -0.8523
# 5 -13.8543 -6.0555 -24.6871 0.0000 33.5035 0.0000
# 6 -0.0001 -0.0018 0.0000 -0.8523 0.0000 35.5753
#
#
#
# Elastic Compliance Matrix: (Units=1/GPa)
#
#
# Indices 1 2 3 4 5 6 
#
# 1 0.029236 -0.032544 0.003704 0.000000 0.008937 -0.000002
# 2 -0.032544 0.082446 -0.028061 0.000000 -0.019232 0.000004
# 3 0.003704 -0.028061 0.024696 0.000000 0.014657 -0.000001
# 4 0.000000 0.000000 0.000000 0.045216 0.000000 0.001083
# 5 0.008937 -0.019232 0.014657 0.000000 0.040867 -0.000001
# 6 -0.000002 0.000004 -0.000001 0.001083 -0.000001 0.028135
#
#
# Mechanical properties :
#
#
# Convention : Reuss Voigt Hill
#
# Bulk Modulus (GPa) = 44.29113 57.49711 50.89412
# Shear Modulus (GPa) = 13.44362 24.19100 18.81731
#
# Velocity S-wave (km/s) = 2.68144 3.59698 3.17241
# Velocity P-wave (km/s) = 5.76848 6.92839 6.37487
#
# Compressibility (1/GPa) = 0.02257788
#
# Stress axis : x y z
#
# Youngs Moduli (GPa) = 34.20413 12.12908 40.49281
#
# Poissons Ratio (x) = 0.39473 -0.14999
# Poissons Ratio (y) = 1.11313 1.13625
# Poissons Ratio (z) = -0.12670 0.34035
#
# Static dielectric constant tensor:
#      x y z
#    x 1.632490 0.000000 -0.009420 
#    y 0.000000 1.631440 0.000000 
#    z -0.009420 0.000000 1.658800 
# 
# From -- ./inp_files/382469.got.cif
#   From: 2010.05.17/outbox.cif.g08.bks.cpg/sg12_192_cif.got.tgz:382469.got - 2010.06.03 13:09:07.
