data_PCOD9202601
_publ_section_title
;
Structure prediction by ZEFSAII (Michael W. Deem and Ramdas Pophale) SiO2 
 PCOD9202601
Probable space group: C 2/M
;
_chemical_formula_sum "Si O2"
_cell_formula_units_Z 64
_cell_length_a 14.775922
_cell_length_b 8.784045
_cell_length_c 30.454317
_cell_angle_alpha 90.000000
_cell_angle_beta 130.496465
_cell_angle_gamma 90.000000
_cell_volume 3005.843774
_symmetry_space_group_name_H-M "C 2/M"
_symmetry_group_IT_number 12
_symmetry_cell_setting 'monoclinic'
loop_
_space_group_symop_operation_xyz
x,y,z
-x,y,-z
-x,-y,-z
x,-y,z
1/2+x,1/2+y,z
1/2-x,1/2+y,-z
1/2-x,1/2-y,-z
1/2+x,1/2-y,z
loop_
_atom_site_type_symbol
_atom_site_label
_atom_site_fract_x
_atom_site_fract_y
_atom_site_fract_z
Si Si1 0.331223 0.318883 0.987443
Si Si2 0.243168 0.316428 0.388202
Si Si3 0.232440 0.320338 0.700605
Si Si4 0.134410 0.817183 0.487542
Si Si5 0.731832 0.183538 0.860880
Si Si6 0.976784 0.678556 0.805533
Si Si7 0.044801 0.323796 0.100825
Si Si8 0.509785 0.317392 0.362131
O O1 0.322838 0.500000 0.986162
O O2 0.284112 0.269934 0.925053
O O3 0.250000 0.250000 0.000000
O O4 0.464463 0.269041 0.041583
O O5 0.242412 0.500000 0.383504
O O6 0.262467 0.240054 0.347684
O O7 0.347360 0.272509 0.456021
O O8 0.116813 0.261015 0.368823
O O9 0.214742 0.500000 0.696348
O O10 0.360134 0.274766 0.760065
O O11 0.121646 0.240557 0.690069
O O12 0.250000 0.750000 0.500000
O O13 0.030735 0.777413 0.420675
O O14 0.139831 0.000000 0.489392
O O15 0.593514 0.226866 0.815410
O O16 0.821638 0.260479 0.855636
O O17 0.737961 0.000000 0.859393
O O18 0.951905 0.500000 0.788073
O O19 0.008401 0.687914 0.867052
O O20 0.044630 0.500000 0.088056
O O21 0.518703 0.500000 0.360076
#
# Coordination Sequence:
#
# PCOD9202601 Si02
#       8
#     8   8   8   8   8   8   8   8
#     4  11  21  37  62  92 127 162 194 237 292 350
#     4  10  20  38  62  89 121 157 195 244 301 358
#     4  12  26  41  59  87 118 157 207 251 299 357
#     4   8  16  31  56  87 118 152 192 236 293 358
#     4  10  22  41  63  89 121 158 195 238 294 352
#     4  10  23  45  63  80 116 158 200 252 304 349
#     4  11  23  40  63  93 122 155 197 242 293 353
#     4  10  20  38  62  89 121 157 196 245 299 356
#
# _framework density 21.291858999999999
#
# number of rings (size 3 to 8) (size 9 to 14) (size 15 to 20)
#    0.000    1.750    1.250    3.000    0.000    6.500 
#    0.000    5.000    0.000    0.000    0.000    0.000 
#    0.000    0.000    0.000    0.000    0.000    0.000 
#
# Total GULP energy -178791.433477 kJ/mol
# GULP energy per Si atom -5587.232296 kJ/mol
# Density = 2.124340 g / cm^3
# Si number density = 21.291859 Si / 1000 Ang^3
#
#
#
# Elastic Constant Matrix: (Units=GPa)
#
#
# Indices 1 2 3 4 5 6 
#
# 1 76.0111 9.1228 1.8011 0.0000 19.6675 0.0000
# 2 9.1228 43.3217 11.6335 0.0000 6.7169 0.0000
# 3 1.8011 11.6335 41.4839 0.0000 17.5626 0.0000
# 4 0.0000 0.0000 0.0000 25.3993 0.0000 1.4607
# 5 19.6675 6.7169 17.5626 0.0000 33.8279 0.0000
# 6 0.0000 0.0000 0.0000 1.4607 0.0000 30.0583
#
#
#
# Elastic Compliance Matrix: (Units=1/GPa)
#
#
# Indices 1 2 3 4 5 6 
#
# 1 0.016382 -0.003008 0.005014 0.000000 -0.011530 0.000000
# 2 -0.003008 0.025592 -0.007223 0.000000 0.000417 0.000000
# 3 0.005014 -0.007223 0.034017 0.000000 -0.019142 0.000000
# 4 0.000000 0.000000 0.000000 0.039481 0.000000 -0.001919
# 5 -0.011530 0.000417 -0.019142 0.000000 0.046120 0.000000
# 6 0.000000 0.000000 0.000000 -0.001919 0.000000 0.033362
#
#
# Mechanical properties :
#
#
# Convention : Reuss Voigt Hill
#
# Bulk Modulus (GPa) = 15.25430 22.88129 19.06780
# Shear Modulus (GPa) = 22.00312 27.07439 24.53876
#
# Velocity S-wave (km/s) = 3.21815 3.56980 3.39852
# Velocity P-wave (km/s) = 4.58133 5.26888 4.93709
#
# Compressibility (1/GPa) = 0.06555528
#
# Stress axis : x y z
#
# Youngs Moduli (GPa) = 61.04438 39.07545 29.39673
#
# Poissons Ratio (x) = 0.11755 -0.14739
# Poissons Ratio (y) = 0.18364 0.21233
# Poissons Ratio (z) = -0.30606 0.28224
#
# Static dielectric constant tensor:
#      x y z
#    x 1.775790 0.000000 0.001350 
#    y 0.000000 1.709570 0.000000 
#    z 0.001350 0.000000 1.814080 
# 
# From -- ./inp_files/375638.got.cif
#   From: 2010.05.17/outbox.cif.g08.bks.cpg/sg12_188_cif.got.tgz:375638.got - 2010.06.03 13:09:07.
