data_PCOD9202933
_publ_section_title
;
Structure prediction by ZEFSAII (Michael W. Deem and Ramdas Pophale) SiO2 
 PCOD9202933
Probable space group: C 2/M
;
_chemical_formula_sum "Si O2"
_cell_formula_units_Z 64
_cell_length_a 20.158935
_cell_length_b 14.176546
_cell_length_c 11.884564
_cell_angle_alpha 90.000000
_cell_angle_beta 107.349328
_cell_angle_gamma 90.000000
_cell_volume 3241.897024
_symmetry_space_group_name_H-M "C 2/M"
_symmetry_group_IT_number 12
_symmetry_cell_setting 'monoclinic'
loop_
_space_group_symop_operation_xyz
x,y,z
-x,y,-z
-x,-y,-z
x,-y,z
1/2+x,1/2+y,z
1/2-x,1/2+y,-z
1/2-x,1/2-y,-z
1/2+x,1/2-y,z
loop_
_atom_site_type_symbol
_atom_site_label
_atom_site_fract_x
_atom_site_fract_y
_atom_site_fract_z
Si Si1 0.917194 0.391404 0.212810
Si Si2 0.902001 0.607265 0.473838
Si Si3 0.829718 0.251195 0.775477
Si Si4 0.789757 0.113033 0.358382
Si Si5 0.738892 0.391678 0.410661
Si Si6 0.587697 0.386779 0.752218
Si Si7 0.035813 0.738467 0.311875
Si Si8 0.332968 0.256976 0.036517
O O1 0.917549 0.500000 0.183863
O O2 0.905519 0.382056 0.341314
O O3 0.860343 0.334202 0.116128
O O4 0.989528 0.340087 0.225547
O O5 0.926997 0.500000 0.515141
O O6 0.821538 0.611710 0.467645
O O7 0.942015 0.688245 0.560748
O O8 0.778475 0.340130 0.730506
O O9 0.782033 0.165060 0.709585
O O10 0.895723 0.246766 0.726980
O O11 0.852150 0.243827 0.915323
O O12 0.793960 0.146489 0.489954
O O13 0.859739 0.134261 0.324980
O O14 0.781160 0.000000 0.355593
O O15 0.717484 0.500000 0.386815
O O16 0.577474 0.500000 0.754139
O O17 0.515525 0.328699 0.702928
O O18 0.630345 0.344404 0.880359
O O19 0.250000 0.250000 0.000000
#
# Coordination Sequence:
#
# PCOD9202933 Si02
#       8
#     8   8   8   8   8   8   8   8
#     4  10  23  40  60  91 129 164 204 257 316 377
#     4  10  20  38  64  94 125 161 204 260 325 376
#     4  12  24  39  66  95 125 165 212 260 313 367
#     4  10  21  40  65  91 124 164 206 258 318 373
#     4  10  22  38  62  96 128 158 205 265 319 372
#     4  10  24  45  66  91 130 173 212 259 312 373
#     4  11  24  38  64  95 127 164 208 256 320 381
#     4  11  23  41  66  93 120 164 218 260 306 368
#
# _framework density 19.741527999999999
#
# number of rings (size 3 to 8) (size 9 to 14) (size 15 to 20)
#    0.000    1.500    2.500    1.875    1.750    6.500 
#    0.000    1.250    0.000    8.250    0.000    0.000 
#    0.000    0.000    0.000    0.000    0.000    0.000 
#
# Total GULP energy -178783.428244 kJ/mol
# GULP energy per Si atom -5586.982133 kJ/mol
# Density = 1.969660 g / cm^3
# Si number density = 19.741528 Si / 1000 Ang^3
#
#
#
# Elastic Constant Matrix: (Units=GPa)
#
#
# Indices 1 2 3 4 5 6 
#
# 1 114.3974 50.8698 25.5340 0.0000 1.7617 0.0000
# 2 50.8698 125.6267 46.9119 0.0000 13.9834 0.0000
# 3 25.5340 46.9119 76.0571 0.0000 5.8235 0.0000
# 4 0.0000 0.0000 0.0000 8.4139 0.0000 -10.7759
# 5 1.7617 13.9834 5.8235 0.0000 30.9460 0.0000
# 6 0.0000 0.0000 0.0000 -10.7759 0.0000 14.8581
#
#
#
# Elastic Compliance Matrix: (Units=1/GPa)
#
#
# Indices 1 2 3 4 5 6 
#
# 1 0.010807 -0.004082 -0.001222 0.000000 0.001459 0.000000
# 2 -0.004082 0.012277 -0.005880 0.000000 -0.004209 0.000000
# 3 -0.001222 -0.005880 0.017224 0.000000 -0.000515 0.000000
# 4 0.000000 0.000000 0.000000 1.670662 0.000000 1.211659
# 5 0.001459 -0.004209 -0.000515 0.000000 0.034230 0.000000
# 6 0.000000 0.000000 0.000000 1.211659 0.000000 0.946068
#
#
# Mechanical properties :
#
#
# Convention : Reuss Voigt Hill
#
# Bulk Modulus (GPa) = 55.73966 62.52364 59.13165
# Shear Modulus (GPa) = 1.83849 23.69461 12.76655
#
# Velocity S-wave (km/s) = 0.96608 3.46821 2.54576
# Velocity P-wave (km/s) = 5.43511 6.91215 6.21765
#
# Compressibility (1/GPa) = 0.01794055
#
# Stress axis : x y z
#
# Youngs Moduli (GPa) = 92.53282 81.45165 58.05721
#
# Poissons Ratio (x) = 0.33250 0.07095
# Poissons Ratio (y) = 0.37773 0.34137
# Poissons Ratio (z) = 0.11308 0.47892
#
# Static dielectric constant tensor:
#      x y z
#    x 1.742050 0.000000 -0.001910 
#    y 0.000000 1.711370 0.000000 
#    z -0.001910 0.000000 1.689950 
# 
# From -- ./inp_files/167300.got.cif
#   From: 2010.05.17/outbox.cif.g08.bks.cpg/sg12_84_cif.got.tgz:167300.got - 2010.06.03 13:09:07.
