data_PCOD9202596
_publ_section_title
;
Structure prediction by ZEFSAII (Michael W. Deem and Ramdas Pophale) SiO2 
 PCOD9202596
Probable space group: C 2/M
;
_chemical_formula_sum "Si O2"
_cell_formula_units_Z 36
_cell_length_a 21.696816
_cell_length_b 8.850532
_cell_length_c 9.628237
_cell_angle_alpha 90.000000
_cell_angle_beta 60.786189
_cell_angle_gamma 90.000000
_cell_volume 1613.723445
_symmetry_space_group_name_H-M "C 2/M"
_symmetry_group_IT_number 12
_symmetry_cell_setting 'monoclinic'
loop_
_space_group_symop_operation_xyz
x,y,z
-x,y,-z
-x,-y,-z
x,-y,z
1/2+x,1/2+y,z
1/2-x,1/2+y,-z
1/2-x,1/2-y,-z
1/2+x,1/2-y,z
loop_
_atom_site_type_symbol
_atom_site_label
_atom_site_fract_x
_atom_site_fract_y
_atom_site_fract_z
Si Si1 0.775993 0.817577 0.196743
Si Si2 0.625796 0.329342 0.670954
Si Si3 0.393692 0.169091 0.884343
Si Si4 0.500000 0.247856 0.000000
Si Si5 0.121907 0.819485 0.368597
O O1 0.812101 0.762414 0.302099
O O2 0.703080 0.731223 0.256607
O O3 0.767447 0.000000 0.209737
O O4 0.831985 0.772647 0.016874
O O5 0.648887 0.500000 0.614307
O O6 0.557994 0.334073 0.845091
O O7 0.607177 0.262815 0.541681
O O8 0.454163 0.163605 0.934427
O O9 0.419238 0.240691 0.711929
O O10 0.366510 0.000000 0.889873
O O11 0.111950 0.000000 0.369297
#
# Coordination Sequence:
#
# PCOD9202596 Si02
#       5
#     8   8   8   4   8
#     4  10  20  38  62  89 118 154 192 234 286 343
#     4   9  20  37  61  88 118 153 192 236 287 342
#     4  11  23  40  60  85 116 154 194 240 289 342
#     4  10  22  42  62  82 109 152 201 244 287 340
#     4  11  22  37  58  90 122 152 189 236 289 344
#
# _framework density 22.308655000000002
#
# number of rings (size 3 to 8) (size 9 to 14) (size 15 to 20)
#    0.000    1.778    0.000    4.000    0.000    3.556 
#    0.000   15.556    0.000    0.000    0.000    0.000 
#    0.000    0.000    0.000    0.000    0.000    0.000 
#
# Total GULP energy -100450.023772 kJ/mol
# GULP energy per Si atom -5580.556876 kJ/mol
# Density = 2.225788 g / cm^3
# Si number density = 22.308655 Si / 1000 Ang^3
#
#
#
# Elastic Constant Matrix: (Units=GPa)
#
#
# Indices 1 2 3 4 5 6 
#
# 1 83.0746 6.2262 41.1272 0.0000 24.9435 0.0000
# 2 6.2262 65.6227 21.1547 0.0000 16.0935 0.0000
# 3 41.1272 21.1547 133.3712 0.0000 57.9552 0.0000
# 4 0.0000 0.0000 0.0000 23.9280 0.0000 4.6236
# 5 24.9435 16.0935 57.9552 0.0000 37.6910 0.0000
# 6 0.0000 0.0000 0.0000 4.6236 0.0000 10.4420
#
#
#
# Elastic Compliance Matrix: (Units=1/GPa)
#
#
# Indices 1 2 3 4 5 6 
#
# 1 0.015130 0.001087 -0.000860 0.000000 -0.009155 0.000000
# 2 0.001087 0.017184 0.001326 0.000000 -0.010096 0.000000
# 3 -0.000860 0.001326 0.022757 0.000000 -0.034989 0.000000
# 4 0.000000 0.000000 0.000000 0.045702 0.000000 -0.020236
# 5 -0.009155 -0.010096 -0.034989 0.000000 0.090702 0.000000
# 6 0.000000 0.000000 0.000000 -0.020236 0.000000 0.104727
#
#
# Mechanical properties :
#
#
# Convention : Reuss Voigt Hill
#
# Bulk Modulus (GPa) = 17.18868 46.56498 31.87683
# Shear Modulus (GPa) = 16.00057 28.64955 22.32506
#
# Velocity S-wave (km/s) = 2.68103 3.58751 3.16687
# Velocity P-wave (km/s) = 4.16000 6.17079 5.26233
#
# Compressibility (1/GPa) = 0.05817782
#
# Stress axis : x y z
#
# Youngs Moduli (GPa) = 66.09186 58.19403 43.94273
#
# Poissons Ratio (x) = -0.06325 0.03779
# Poissons Ratio (y) = -0.07183 -0.05828
# Poissons Ratio (z) = 0.05683 -0.07718
#
# Static dielectric constant tensor:
#      x y z
#    x 1.851670 0.000000 0.047860 
#    y 0.000000 1.787560 0.000000 
#    z 0.047860 0.000000 1.849880 
# 
# From -- ./inp_files/92640.got.cif
#   From: 2010.05.17/outbox.cif.g08.bks.cpg/sg12_47_cif.got.tgz:92640.got - 2010.06.03 13:09:07.
