data_PCOD9202790
_publ_section_title
;
Structure prediction by ZEFSAII (Michael W. Deem and Ramdas Pophale) SiO2 
 PCOD9202790
Probable space group: C 2/M
;
_chemical_formula_sum "Si O2"
_cell_formula_units_Z 58
_cell_length_a 25.031007
_cell_length_b 14.656476
_cell_length_c 11.613167
_cell_angle_alpha 90.000000
_cell_angle_beta 36.187842
_cell_angle_gamma 90.000000
_cell_volume 2515.534171
_symmetry_space_group_name_H-M "C 2/M"
_symmetry_group_IT_number 12
_symmetry_cell_setting 'monoclinic'
loop_
_space_group_symop_operation_xyz
x,y,z
-x,y,-z
-x,-y,-z
x,-y,z
1/2+x,1/2+y,z
1/2-x,1/2+y,-z
1/2-x,1/2-y,-z
1/2+x,1/2-y,z
loop_
_atom_site_type_symbol
_atom_site_label
_atom_site_fract_x
_atom_site_fract_y
_atom_site_fract_z
Si Si1 0.484343 0.611313 0.895618
Si Si2 0.806514 0.895828 0.082866
Si Si3 0.889901 0.334012 0.615568
Si Si4 0.968356 0.388837 0.241988
Si Si5 0.642262 0.888901 0.790924
Si Si6 0.500000 0.000000 0.500000
Si Si7 0.334552 0.605738 0.538325
Si Si8 0.603858 0.366084 0.316255
O O1 0.480783 0.500000 0.891150
O O2 0.387431 0.643120 0.019419
O O3 0.570911 0.644678 0.673379
O O4 0.500000 0.635128 0.000000
O O5 0.847042 0.896998 0.883923
O O6 0.786181 0.000000 0.155530
O O7 0.713763 0.841936 0.243451
O O8 0.948049 0.341210 0.397397
O O9 0.900146 0.243084 0.670154
O O10 0.921528 0.420416 0.633283
O O11 0.967190 0.500000 0.265703
O O12 0.893497 0.367111 0.274742
O O13 0.064190 0.364006 0.018096
O O14 0.741405 0.853766 0.652049
O O15 0.644056 0.000000 0.791795
O O16 0.334103 0.500000 0.500744
O O17 0.342509 0.606988 0.661975
O O18 0.500000 0.399217 0.500000
#
# Coordination Sequence:
#
# PCOD9202790 Si02
#       8
#     8   8   8   8   8   2   8   8
#     4   9  19  34  61  97 125 157 210 265 310 378
#     4  11  23  42  68  96 126 171 217 258 324 384
#     4  12  25  43  65  93 127 169 213 273 325 379
#     4   9  17  36  63  91 126 160 211 265 319 379
#     4   8  17  33  61  98 123 161 210 263 315 378
#     4  12  24  44  64  94 122 164 224 264 320 380
#     4  10  20  38  63  92 124 168 213 259 321 387
#     4  12  25  43  62  89 133 168 214 269 316 379
#
# _framework density 23.056733000000001
#
# number of rings (size 3 to 8) (size 9 to 14) (size 15 to 20)
#    0.000    1.793    3.448    1.655    1.931    1.655 
#    4.966    0.690    3.034    0.000    0.000    0.000 
#    0.000    0.000    0.000    0.000    0.000    0.000 
#
# Total GULP energy -161973.072885 kJ/mol
# GULP energy per Si atom -5585.278375 kJ/mol
# Density = 2.300425 g / cm^3
# Si number density = 23.056733 Si / 1000 Ang^3
#
#
#
# Elastic Constant Matrix: (Units=GPa)
#
#
# Indices 1 2 3 4 5 6 
#
# 1 114.6511 7.9376 36.2839 0.0000 -36.1781 0.0000
# 2 7.9376 94.6853 3.1767 0.0000 -8.9718 0.0000
# 3 36.2839 3.1767 46.6049 0.0000 -16.7946 0.0000
# 4 0.0000 0.0000 0.0000 25.1461 0.0000 4.5315
# 5 -36.1781 -8.9718 -16.7946 0.0000 48.3693 0.0000
# 6 0.0000 0.0000 0.0000 4.5315 0.0000 9.6239
#
#
#
# Elastic Compliance Matrix: (Units=1/GPa)
#
#
# Indices 1 2 3 4 5 6 
#
# 1 0.013555 -0.000174 -0.007886 0.000000 0.007368 0.000000
# 2 -0.000174 0.010752 0.000085 0.000000 0.001894 0.000000
# 3 -0.007886 0.000085 0.029114 0.000000 0.004226 0.000000
# 4 0.000000 0.000000 0.000000 0.043455 0.000000 -0.020461
# 5 0.007368 0.001894 0.004226 0.000000 0.028004 0.000000
# 6 0.000000 0.000000 0.000000 -0.020461 0.000000 0.113542
#
#
# Mechanical properties :
#
#
# Convention : Reuss Voigt Hill
#
# Bulk Modulus (GPa) = 26.68707 38.97086 32.82897
# Shear Modulus (GPa) = 18.73632 30.53074 24.63353
#
# Velocity S-wave (km/s) = 2.85374 3.64284 3.27217
# Velocity P-wave (km/s) = 4.73900 5.88495 5.34278
#
# Compressibility (1/GPa) = 0.03747133
#
# Stress axis : x y z
#
# Youngs Moduli (GPa) = 73.77444 93.00189 34.34808
#
# Poissons Ratio (x) = 0.01615 0.27087
# Poissons Ratio (y) = 0.01281 -0.00291
# Poissons Ratio (z) = 0.58179 -0.00788
#
# Static dielectric constant tensor:
#      x y z
#    x 1.864040 0.000000 -0.019910 
#    y 0.000000 1.903630 0.000000 
#    z -0.019910 0.000000 1.826400 
# 
# From -- ./inp_files/184430.got.cif
#   From: 2010.05.17/outbox.cif.g08.bks.cpg/sg12_93_cif.got.tgz:184430.got - 2010.06.03 13:09:07.
