data_PCOD9202429
_publ_section_title
;
Structure prediction by ZEFSAII (Michael W. Deem and Ramdas Pophale) SiO2 
 PCOD9202429
Probable space group: C 2/M
;
_chemical_formula_sum "Si O2"
_cell_formula_units_Z 32
_cell_length_a 20.320331
_cell_length_b 16.175033
_cell_length_c 12.954593
_cell_angle_alpha 90.000000
_cell_angle_beta 18.984390
_cell_angle_gamma 90.000000
_cell_volume 1385.153363
_symmetry_space_group_name_H-M "C 2/M"
_symmetry_group_IT_number 12
_symmetry_cell_setting 'monoclinic'
loop_
_space_group_symop_operation_xyz
x,y,z
-x,y,-z
-x,-y,-z
x,-y,z
1/2+x,1/2+y,z
1/2-x,1/2+y,-z
1/2-x,1/2-y,-z
1/2+x,1/2-y,z
loop_
_atom_site_type_symbol
_atom_site_label
_atom_site_fract_x
_atom_site_fract_y
_atom_site_fract_z
Si Si1 0.730337 0.500000 0.111963
Si Si2 0.582238 0.000000 0.760954
Si Si3 0.210798 0.669644 0.626069
Si Si4 0.847134 0.793122 0.634374
Si Si5 0.615823 0.172906 0.157967
O O1 0.500000 0.500000 0.500000
O O2 0.794981 0.582719 0.954124
O O3 0.889464 0.500000 0.971662
O O4 0.707804 0.915444 0.566799
O O5 0.500000 0.000000 0.000000
O O6 0.250000 0.750000 0.500000
O O7 0.360339 0.662764 0.504460
O O8 0.000000 0.680943 0.000000
O O9 0.362462 0.812580 0.997231
O O10 0.000000 0.820359 0.500000
O O11 0.901286 0.697959 0.526159
O O12 0.750000 0.250000 0.000000
#
# Coordination Sequence:
#
# PCOD9202429 Si02
#       5
#     4   4   8   8   8
#     4  12  22  38  63  90 120 162 207 254 306 367
#     4  10  22  38  59  90 122 158 207 254 303 371
#     4  11  22  39  62  89 123 164 207 257 312 365
#     4  10  20  38  61  87 122 161 202 253 305 363
#     4  10  21  37  61  90 121 157 205 256 305 362
#
# _framework density 23.102134
#
# number of rings (size 3 to 8) (size 9 to 14) (size 15 to 20)
#    0.000    1.500    0.000    8.250    0.000    0.000 
#    0.000    6.875    0.000    3.000    0.000    0.000 
#    0.000    0.000    0.000    0.000    0.000    0.000 
#
# Total GULP energy -89069.983443 kJ/mol
# GULP energy per Si atom -5566.873965 kJ/mol
# Density = 2.304955 g / cm^3
# Si number density = 23.102134 Si / 1000 Ang^3
#
#
#
# Elastic Constant Matrix: (Units=GPa)
#
#
# Indices 1 2 3 4 5 6 
#
# 1 122.3033 41.3926 10.5319 0.0028 -32.4659 -0.0021
# 2 41.3926 233.3235 54.0272 -0.0070 7.1156 -0.0002
# 3 10.5319 54.0272 53.7744 -0.0098 -7.3621 0.0010
# 4 0.0028 -0.0070 -0.0098 35.7811 0.0006 2.6082
# 5 -32.4659 7.1156 -7.3621 0.0006 44.1800 0.0014
# 6 -0.0021 -0.0002 0.0010 2.6082 0.0014 32.7030
#
#
#
# Elastic Compliance Matrix: (Units=1/GPa)
#
#
# Indices 1 2 3 4 5 6 
#
# 1 0.011340 -0.002685 0.001716 -0.000001 0.009052 0.000000
# 2 -0.002685 0.006378 -0.006439 0.000000 -0.004073 0.000000
# 3 0.001716 -0.006439 0.025629 0.000006 0.006569 -0.000001
# 4 -0.000001 0.000000 0.000006 0.028111 0.000000 -0.002242
# 5 0.009052 -0.004073 0.006569 0.000000 0.031037 -0.000001
# 6 0.000000 0.000000 -0.000001 -0.002242 -0.000001 0.030757
#
#
# Mechanical properties :
#
#
# Convention : Reuss Voigt Hill
#
# Bulk Modulus (GPa) = 35.05085 69.03385 52.04235
# Shear Modulus (GPa) = 31.73008 42.76279 37.24643
#
# Velocity S-wave (km/s) = 3.71006 4.30703 4.01964
# Velocity P-wave (km/s) = 5.79291 7.39465 6.64224
#
# Compressibility (1/GPa) = 0.02852998
#
# Stress axis : x y z
#
# Youngs Moduli (GPa) = 88.18127 156.80005 39.01824
#
# Poissons Ratio (x) = 0.42105 -0.06696
# Poissons Ratio (y) = 0.23679 0.25125
# Poissons Ratio (z) = -0.15133 1.00968
#
# Static dielectric constant tensor:
#      x y z
#    x 1.972090 0.000000 -0.102790 
#    y 0.000000 1.969350 0.000010 
#    z -0.102790 0.000010 2.244240 
# 
# From -- ./inp_files/233852.got.cif
#   From: 2010.05.17/outbox.cif.g08.bks.cpg/sg12_117_cif.got.tgz:233852.got - 2010.06.03 13:09:07.
