data_PCOD9202830
_publ_section_title
;
Structure prediction by ZEFSAII (Michael W. Deem and Ramdas Pophale) SiO2 
 PCOD9202830
Probable space group: C 2/M
;
_chemical_formula_sum "Si O2"
_cell_formula_units_Z 64
_cell_length_a 18.148773
_cell_length_b 30.716157
_cell_length_c 8.569394
_cell_angle_alpha 90.000000
_cell_angle_beta 39.565431
_cell_angle_gamma 90.000000
_cell_volume 3042.816273
_symmetry_space_group_name_H-M "C 2/M"
_symmetry_group_IT_number 12
_symmetry_cell_setting 'monoclinic'
loop_
_space_group_symop_operation_xyz
x,y,z
-x,y,-z
-x,-y,-z
x,-y,z
1/2+x,1/2+y,z
1/2-x,1/2+y,-z
1/2-x,1/2-y,-z
1/2+x,1/2-y,z
loop_
_atom_site_type_symbol
_atom_site_label
_atom_site_fract_x
_atom_site_fract_y
_atom_site_fract_z
Si Si1 0.435755 0.180636 0.970538
Si Si2 0.229938 0.550667 0.628610
Si Si3 0.383207 0.951316 0.848401
Si Si4 0.276754 0.613987 0.045469
Si Si5 0.094718 0.395057 0.588077
Si Si6 0.696774 0.362770 0.354113
Si Si7 0.968786 0.834191 0.869467
Si Si8 0.390383 0.253636 0.803741
O O1 0.313527 0.160276 0.220291
O O2 0.500000 0.207758 0.000000
O O3 0.521934 0.140976 0.796607
O O4 0.419176 0.208980 0.845224
O O5 0.266789 0.500000 0.539813
O O6 0.165081 0.572211 0.586743
O O7 0.316201 0.589128 0.546861
O O8 0.149133 0.548917 0.914267
O O9 0.276089 0.932287 0.923735
O O10 0.497717 0.922894 0.659352
O O11 0.403401 0.000000 0.767197
O O12 0.178891 0.628460 0.327596
O O13 0.291092 0.635722 0.852679
O O14 0.394948 0.622704 0.944177
O O15 0.587647 0.335663 0.581650
O O16 0.900079 0.793348 0.911506
O O17 0.000000 0.832177 0.000000
O O18 0.500000 0.259035 0.500000
O O19 0.250000 0.250000 0.000000
#
# Coordination Sequence:
#
# PCOD9202830 Si02
#       8
#     8   8   8   8   8   8   8   8
#     4  12  24  41  69 104 136 176 219 283 341 410
#     4  10  20  38  64 100 140 186 232 278 341 410
#     4  10  21  36  60  95 137 178 222 280 347 408
#     4  11  24  39  65  93 132 178 225 276 333 405
#     4  12  21  36  62 102 140 175 220 280 347 405
#     4  11  23  45  68  99 141 184 226 280 343 410
#     4  12  27  50  72  96 132 182 231 283 345 414
#     4  12  29  48  74 106 141 181 232 289 353 425
#
# _framework density 21.033145000000001
#
# number of rings (size 3 to 8) (size 9 to 14) (size 15 to 20)
#    0.000    0.750    3.750    4.875    3.500    2.500 
#    0.000    3.125    0.000    4.500    0.000    0.000 
#    0.000    0.000    0.000    0.000    0.000    0.000 
#
# Total GULP energy -178376.651010 kJ/mol
# GULP energy per Si atom -5574.270344 kJ/mol
# Density = 2.098527 g / cm^3
# Si number density = 21.033145 Si / 1000 Ang^3
#
#
#
# Elastic Constant Matrix: (Units=GPa)
#
#
# Indices 1 2 3 4 5 6 
#
# 1 154.0278 62.5078 50.0874 0.0000 -3.3578 0.0000
# 2 62.5078 67.9772 27.8481 0.0000 8.3168 0.0000
# 3 50.0874 27.8481 104.3709 0.0000 -13.7696 0.0000
# 4 0.0000 0.0000 0.0000 -15.6097 0.0000 4.8947
# 5 -3.3578 8.3168 -13.7696 0.0000 13.0650 0.0000
# 6 0.0000 0.0000 0.0000 4.8947 0.0000 28.1555
#
#
#
# Elastic Compliance Matrix: (Units=1/GPa)
#
#
# Indices 1 2 3 4 5 6 
#
# 1 0.011714 -0.011203 -0.001504 0.000000 0.008557 0.000000
# 2 -0.011203 0.031649 -0.007093 0.000000 -0.030501 0.000000
# 3 -0.001504 -0.007093 0.014797 0.000000 0.019724 0.000000
# 4 0.000000 0.000000 0.000000 -0.060751 0.000000 0.010561
# 5 0.008557 -0.030501 0.019724 0.000000 0.118943 0.000000
# 6 0.000000 0.000000 0.000000 0.010561 0.000000 0.033681
#
#
# Mechanical properties :
#
#
# Convention : Reuss Voigt Hill
#
# Bulk Modulus (GPa) = 53.86941 67.47360 60.67151
# Shear Modulus (GPa) = 25.53377 17.51765 21.52571
#
# Velocity S-wave (km/s) = 3.48800 2.88906 3.20256
# Velocity P-wave (km/s) = 6.47215 6.57862 6.52560
#
# Compressibility (1/GPa) = 0.01856341
#
# Stress axis : x y z
#
# Youngs Moduli (GPa) = 85.36768 31.59629 67.57964
#
# Poissons Ratio (x) = 0.35396 0.10161
# Poissons Ratio (y) = 0.95633 0.47931
# Poissons Ratio (z) = 0.12836 0.22410
#
# Static dielectric constant tensor:
#      x y z
#    x 1.822390 0.000000 0.077100 
#    y 0.000000 1.781270 0.000000 
#    z 0.077100 0.000000 1.840620 
# 
# From -- ./inp_files/80727.got.cif
#   From: 2010.05.17/outbox.cif.g08.bks.cpg/sg12_41_cif.got.tgz:80727.got - 2010.06.03 13:09:07.
