data_PCOD9202106
_publ_section_title
;
Structure prediction by ZEFSAII (Michael W. Deem and Ramdas Pophale) SiO2 
 PCOD9202106
Probable space group: C 2/M
;
_chemical_formula_sum "Si O2"
_cell_formula_units_Z 64
_cell_length_a 29.615466
_cell_length_b 21.906834
_cell_length_c 14.394429
_cell_angle_alpha 90.000000
_cell_angle_beta 159.735027
_cell_angle_gamma 90.000000
_cell_volume 3234.619094
_symmetry_space_group_name_H-M "C 2/M"
_symmetry_group_IT_number 12
_symmetry_cell_setting 'monoclinic'
loop_
_space_group_symop_operation_xyz
x,y,z
-x,y,-z
-x,-y,-z
x,-y,z
1/2+x,1/2+y,z
1/2-x,1/2+y,-z
1/2-x,1/2-y,-z
1/2+x,1/2-y,z
loop_
_atom_site_type_symbol
_atom_site_label
_atom_site_fract_x
_atom_site_fract_y
_atom_site_fract_z
Si Si1 0.901456 0.570150 0.895926
Si Si2 0.821054 0.153071 0.488832
Si Si3 0.293878 0.635259 0.928287
Si Si4 0.442841 0.429154 0.566509
Si Si5 0.057230 0.354089 0.343353
Si Si6 0.885997 0.737218 0.710616
Si Si7 0.355409 0.331492 0.248924
Si Si8 0.827743 0.728054 0.954719
O O1 0.859468 0.500000 0.827397
O O2 0.972649 0.595142 0.126214
O O3 0.781331 0.615812 0.646765
O O4 0.000000 0.572121 0.000000
O O5 0.883224 0.103570 0.541279
O O6 0.920352 0.196301 0.734198
O O7 0.740777 0.200969 0.269572
O O8 0.403210 0.583748 0.132679
O O9 0.279158 0.649648 0.009105
O O10 0.348358 0.699767 0.992978
O O11 0.165906 0.621201 0.622573
O O12 0.412194 0.500000 0.502201
O O13 0.387631 0.391255 0.372533
O O14 0.118979 0.312509 0.380666
O O15 0.962026 0.309181 0.217405
O O16 0.750000 0.750000 0.500000
O O17 0.000000 0.718312 0.000000
O O18 0.500000 0.306351 0.500000
O O19 0.268931 0.288040 0.146872
#
# Coordination Sequence:
#
# PCOD9202106 Si02
#       8
#     8   8   8   8   8   8   8   8
#     4  10  21  40  61  82 114 157 203 243 293 365
#     4  10  20  38  63  88 114 155 204 246 300 360
#     4  11  22  35  59  86 122 155 193 248 299 359
#     4  10  22  40  62  85 118 163 207 248 295 358
#     4  11  23  37  59  89 122 160 198 243 312 365
#     4  12  24  38  63  94 131 163 201 260 321 381
#     4   9  21  37  59  90 120 158 198 243 300 359
#     4  10  20  38  58  87 127 154 192 244 299 375
#
# _framework density 19.785945999999999
#
# number of rings (size 3 to 8) (size 9 to 14) (size 15 to 20)
#    0.000    1.625    1.250    4.125    5.250    3.250 
#    0.000    0.000    0.000    0.750    0.000    8.750 
#    0.000    0.000    0.000    0.000    0.000    0.000 
#
# Total GULP energy -178773.905165 kJ/mol
# GULP energy per Si atom -5586.684536 kJ/mol
# Density = 1.974091 g / cm^3
# Si number density = 19.785946 Si / 1000 Ang^3
#
#
#
# Elastic Constant Matrix: (Units=GPa)
#
#
# Indices 1 2 3 4 5 6 
#
# 1 73.6975 5.9922 8.9259 0.0000 10.8014 0.0000
# 2 5.9922 77.5360 -5.6290 0.0000 -0.9587 0.0000
# 3 8.9259 -5.6290 50.3685 0.0000 -17.9815 0.0000
# 4 0.0000 0.0000 0.0000 24.6558 0.0000 -0.6624
# 5 10.8014 -0.9587 -17.9815 0.0000 28.9968 0.0000
# 6 0.0000 0.0000 0.0000 -0.6624 0.0000 7.9060
#
#
#
# Elastic Compliance Matrix: (Units=1/GPa)
#
#
# Indices 1 2 3 4 5 6 
#
# 1 0.016018 -0.001848 -0.006675 0.000000 -0.010167 0.000000
# 2 -0.001848 0.013282 0.002844 0.000000 0.002891 0.000000
# 3 -0.006675 0.002844 0.028609 0.000000 0.020322 0.000000
# 4 0.000000 0.000000 0.000000 0.040650 0.000000 0.003406
# 5 -0.010167 0.002891 0.020322 0.000000 0.050971 0.000000
# 6 0.000000 0.000000 0.000000 0.003406 0.000000 0.126771
#
#
# Mechanical properties :
#
#
# Convention : Reuss Voigt Hill
#
# Bulk Modulus (GPa) = 21.48149 24.46446 22.97298
# Shear Modulus (GPa) = 16.49207 25.13258 20.81233
#
# Velocity S-wave (km/s) = 2.89021 3.56789 3.24678
# Velocity P-wave (km/s) = 4.69237 5.41890 5.06867
#
# Compressibility (1/GPa) = 0.04655170
#
# Stress axis : x y z
#
# Youngs Moduli (GPa) = 62.43068 75.28823 34.95385
#
# Poissons Ratio (x) = 0.13915 0.23331
# Poissons Ratio (y) = 0.11538 -0.09941
# Poissons Ratio (z) = 0.41670 -0.21413
#
# Static dielectric constant tensor:
#      x y z
#    x 1.740740 0.000000 0.012970 
#    y 0.000000 1.680420 0.000000 
#    z 0.012970 0.000000 1.717860 
# 
# From -- ./inp_files/251953.got.cif
#   From: 2010.05.17/outbox.cif.g08.bks.cpg/sg12_126_cif.got.tgz:251953.got - 2010.06.03 13:09:07.
