data_PCOD9202926
_publ_section_title
;
Structure prediction by ZEFSAII (Michael W. Deem and Ramdas Pophale) SiO2 
 PCOD9202926
Probable space group: C 2/M
;
_chemical_formula_sum "Si O2"
_cell_formula_units_Z 48
_cell_length_a 13.898701
_cell_length_b 11.380580
_cell_length_c 15.115554
_cell_angle_alpha 90.000000
_cell_angle_beta 109.115046
_cell_angle_gamma 90.000000
_cell_volume 2259.079412
_symmetry_space_group_name_H-M "C 2/M"
_symmetry_group_IT_number 12
_symmetry_cell_setting 'monoclinic'
loop_
_space_group_symop_operation_xyz
x,y,z
-x,y,-z
-x,-y,-z
x,-y,z
1/2+x,1/2+y,z
1/2-x,1/2+y,-z
1/2-x,1/2-y,-z
1/2+x,1/2-y,z
loop_
_atom_site_type_symbol
_atom_site_label
_atom_site_fract_x
_atom_site_fract_y
_atom_site_fract_z
Si Si1 0.790821 0.699836 0.780198
Si Si2 0.423028 0.218719 0.554266
Si Si3 0.502646 0.128620 0.242682
Si Si4 0.121401 0.133753 0.042894
Si Si5 0.233173 0.132295 0.390030
Si Si6 0.612047 0.370211 0.840553
O O1 0.828982 0.779747 0.872853
O O2 0.754130 0.781284 0.688667
O O3 0.697690 0.628153 0.791497
O O4 0.887169 0.630512 0.771123
O O5 0.500000 0.253217 0.500000
O O6 0.479901 0.145304 0.647290
O O7 0.329982 0.146772 0.483147
O O8 0.367298 0.326339 0.587123
O O9 0.449861 0.249663 0.194572
O O10 0.453795 0.000000 0.210579
O O11 0.863710 0.000000 0.922287
O O12 0.158611 0.141592 0.952976
O O13 0.000000 0.155829 0.000000
O O14 0.223016 0.000000 0.356235
O O15 0.558620 0.500000 0.824055
#
# Coordination Sequence:
#
# PCOD9202926 Si02
#       6
#     8   8   8   8   8   8
#     4  11  22  40  64  91 125 162 207 256 312 369
#     4  10  22  40  60  88 124 162 206 257 310 365
#     4  11  24  41  63  92 127 165 207 257 311 367
#     4  10  20  38  64  93 127 165 206 256 311 367
#     4  10  22  39  62  92 124 162 208 256 309 370
#     4  11  24  42  65  93 127 167 210 255 309 368
#
# _framework density 21.247593999999999
#
# number of rings (size 3 to 8) (size 9 to 14) (size 15 to 20)
#    0.000    1.500    1.667    3.000    0.000    7.000 
#    0.000    8.333    0.000    0.000    0.000    0.000 
#    0.000    0.000    0.000    0.000    0.000    0.000 
#
# Total GULP energy -134050.605444 kJ/mol
# GULP energy per Si atom -5585.441894 kJ/mol
# Density = 2.119923 g / cm^3
# Si number density = 21.247594 Si / 1000 Ang^3
#
#
#
# Elastic Constant Matrix: (Units=GPa)
#
#
# Indices 1 2 3 4 5 6 
#
# 1 57.7309 10.5663 5.5589 0.0000 -28.9651 0.0000
# 2 10.5663 147.2769 46.5482 0.0000 9.4590 0.0000
# 3 5.5589 46.5482 85.1784 0.0000 -21.9029 0.0000
# 4 0.0000 0.0000 0.0000 -5.0189 0.0000 3.7298
# 5 -28.9651 9.4590 -21.9029 0.0000 37.6271 0.0000
# 6 0.0000 0.0000 0.0000 3.7298 0.0000 7.4827
#
#
#
# Elastic Compliance Matrix: (Units=1/GPa)
#
#
# Indices 1 2 3 4 5 6 
#
# 1 0.036502 -0.008819 0.012034 0.000000 0.037322 0.000000
# 2 -0.008819 0.011434 -0.009594 0.000000 -0.015248 0.000000
# 3 0.012034 -0.009594 0.022580 0.000000 0.024820 0.000000
# 4 0.000000 0.000000 0.000000 -0.145390 0.000000 0.072471
# 5 0.037322 -0.015248 0.024820 0.000000 0.073587 0.000000
# 6 0.000000 0.000000 0.000000 0.072471 0.000000 0.097518
#
#
# Mechanical properties :
#
#
# Convention : Reuss Voigt Hill
#
# Bulk Modulus (GPa) = 17.31350 46.17034 31.74192
# Shear Modulus (GPa) = 38.98852 23.18570 31.08711
#
# Velocity S-wave (km/s) = 4.28829 3.30694 3.82918
# Velocity P-wave (km/s) = 5.71712 6.02976 5.87552
#
# Compressibility (1/GPa) = 0.05775839
#
# Stress axis : x y z
#
# Youngs Moduli (GPa) = 27.39546 87.45623 44.28741
#
# Poissons Ratio (x) = 0.77132 -0.53297
# Poissons Ratio (y) = 0.24161 0.42489
# Poissons Ratio (z) = -0.32969 0.83906
#
# Static dielectric constant tensor:
#      x y z
#    x 1.797700 0.000000 0.002220 
#    y 0.000000 1.793820 0.000000 
#    z 0.002220 0.000000 1.735670 
# 
# From -- ./inp_files/212911.got.cif
#   From: 2010.05.17/outbox.cif.g08.bks.cpg/sg12_107_cif.got.tgz:212911.got - 2010.06.03 13:09:07.
