data_PCOD9202079
_publ_section_title
;
Structure prediction by ZEFSAII (Michael W. Deem and Ramdas Pophale) SiO2 
 PCOD9202079
Probable space group: C 2/M
;
_chemical_formula_sum "Si O2"
_cell_formula_units_Z 50
_cell_length_a 5.687904
_cell_length_b 25.230411
_cell_length_c 18.530890
_cell_angle_alpha 90.000000
_cell_angle_beta 129.202855
_cell_angle_gamma 90.000000
_cell_volume 2060.752354
_symmetry_space_group_name_H-M "C 2/M"
_symmetry_group_IT_number 12
_symmetry_cell_setting 'monoclinic'
loop_
_space_group_symop_operation_xyz
x,y,z
-x,y,-z
-x,-y,-z
x,-y,z
1/2+x,1/2+y,z
1/2-x,1/2+y,-z
1/2-x,1/2-y,-z
1/2+x,1/2-y,z
loop_
_atom_site_type_symbol
_atom_site_label
_atom_site_fract_x
_atom_site_fract_y
_atom_site_fract_z
Si Si1 0.441893 0.416979 0.100228
Si Si2 0.000000 0.000000 0.000000
Si Si3 0.293793 0.628021 0.212751
Si Si4 0.927142 0.558811 0.714472
Si Si5 0.337459 0.936314 0.540733
Si Si6 0.446649 0.264795 0.716984
Si Si7 0.683064 0.307156 0.100792
O O1 0.312842 0.416374 0.155522
O O2 0.465155 0.354697 0.085861
O O3 0.780087 0.440200 0.177913
O O4 0.326418 0.453239 0.014274
O O5 0.284269 0.601768 0.289606
O O6 0.547704 0.673375 0.261747
O O7 0.984606 0.660490 0.138199
O O8 0.789913 0.500000 0.688267
O O9 0.020657 0.571496 0.650850
O O10 0.500000 0.915293 0.500000
O O11 0.000000 0.917721 0.500000
O O12 0.311821 0.000000 0.525415
O O13 0.114063 0.242323 0.671946
O O14 0.689922 0.233229 0.815233
O O15 0.500000 0.280693 0.000000
#
# Coordination Sequence:
#
# PCOD9202079 Si02
#       7
#     8   2   8   8   8   8   8
#     4  11  22  41  54  80 116 163 216 256 296 359
#     4  12  24  40  58  76 122 166 220 266 286 348
#     4  10  23  37  58  83 112 158 205 254 312 376
#     4  10  22  38  59  87 123 165 205 246 307 367
#     4   9  19  36  60  92 125 154 196 246 305 373
#     4  10  20  38  58  83 115 147 193 261 326 369
#     4  10  21  39  56  80 111 145 205 267 323 370
#
# _framework density 24.262982000000001
#
# number of rings (size 3 to 8) (size 9 to 14) (size 15 to 20)
#    0.000    1.920    3.200    0.000    3.360    3.200 
#    0.000    3.200    0.000    0.000    0.000    0.000 
#    0.000   34.560    0.000    0.000    0.000    0.000 
#
# Total GULP energy -139277.091214 kJ/mol
# GULP energy per Si atom -5571.083649 kJ/mol
# Density = 2.420776 g / cm^3
# Si number density = 24.262982 Si / 1000 Ang^3
#
#
#
# Elastic Constant Matrix: (Units=GPa)
#
#
# Indices 1 2 3 4 5 6 
#
# 1 125.4581 29.5515 29.5829 0.0000 -38.6223 0.0000
# 2 29.5515 102.1029 10.4650 0.0000 -17.3698 0.0000
# 3 29.5829 10.4650 44.6814 0.0000 -7.9070 0.0000
# 4 0.0000 0.0000 0.0000 33.4900 0.0000 -29.4383
# 5 -38.6223 -17.3698 -7.9070 0.0000 35.5860 0.0000
# 6 0.0000 0.0000 0.0000 -29.4383 0.0000 43.0921
#
#
#
# Elastic Compliance Matrix: (Units=1/GPa)
#
#
# Indices 1 2 3 4 5 6 
#
# 1 0.013762 -0.001110 -0.006563 0.000000 0.012937 0.000000
# 2 -0.001110 0.010888 -0.001133 0.000000 0.003858 0.000000
# 3 -0.006563 -0.001133 0.026682 0.000000 -0.001747 0.000000
# 4 0.000000 0.000000 0.000000 0.074743 0.000000 0.051061
# 5 0.012937 0.003858 -0.001747 0.000000 0.043636 0.000000
# 6 0.000000 0.000000 0.000000 0.051061 0.000000 0.058088
#
#
# Mechanical properties :
#
#
# Convention : Reuss Voigt Hill
#
# Bulk Modulus (GPa) = 29.65420 45.71568 37.68494
# Shear Modulus (GPa) = 19.48184 35.94315 27.71249
#
# Velocity S-wave (km/s) = 2.83670 3.85307 3.38327
# Velocity P-wave (km/s) = 4.79351 6.21912 5.55226
#
# Compressibility (1/GPa) = 0.03372204
#
# Stress axis : x y z
#
# Youngs Moduli (GPa) = 72.66313 91.84687 37.47875
#
# Poissons Ratio (x) = 0.10193 0.24595
# Poissons Ratio (y) = 0.08064 0.04245
# Poissons Ratio (z) = 0.47685 0.10402
#
# Static dielectric constant tensor:
#      x y z
#    x 2.060120 0.000000 0.000790 
#    y 0.000000 1.924780 0.000000 
#    z 0.000790 0.000000 2.021430 
# 
# From -- ./inp_files/253927.got.cif
#   From: 2010.05.17/outbox.cif.g08.bks.cpg/sg12_127_cif.got.tgz:253927.got - 2010.06.03 13:09:07.
