data_PCOD9202645
_publ_section_title
;
Structure prediction by ZEFSAII (Michael W. Deem and Ramdas Pophale) SiO2 
 PCOD9202645
Probable space group: C 2/M
;
_chemical_formula_sum "Si O2"
_cell_formula_units_Z 44
_cell_length_a 23.521995
_cell_length_b 11.433627
_cell_length_c 24.288631
_cell_angle_alpha 90.000000
_cell_angle_beta 19.074020
_cell_angle_gamma 90.000000
_cell_volume 2134.662198
_symmetry_space_group_name_H-M "C 2/M"
_symmetry_group_IT_number 12
_symmetry_cell_setting 'monoclinic'
loop_
_space_group_symop_operation_xyz
x,y,z
-x,y,-z
-x,-y,-z
x,-y,z
1/2+x,1/2+y,z
1/2-x,1/2+y,-z
1/2-x,1/2-y,-z
1/2+x,1/2-y,z
loop_
_atom_site_type_symbol
_atom_site_label
_atom_site_fract_x
_atom_site_fract_y
_atom_site_fract_z
Si Si1 0.668563 0.638414 0.310255
Si Si2 0.000000 0.208413 0.000000
Si Si3 0.521879 0.631735 0.627228
Si Si4 0.080150 0.371685 0.764835
Si Si5 0.420831 0.373213 0.954951
Si Si6 0.391544 0.811093 0.830967
O O1 0.500000 0.674024 0.500000
O O2 0.695589 0.500000 0.294893
O O3 0.618263 0.655598 0.292271
O O4 0.840572 0.710198 0.165654
O O5 0.069307 0.135579 0.988283
O O6 0.492423 0.500000 0.674349
O O7 0.711623 0.636194 0.426142
O O8 0.502840 0.718517 0.694940
O O9 0.029763 0.500000 0.835955
O O10 0.005469 0.250274 0.857493
O O11 0.014437 0.375426 0.761695
O O12 0.501824 0.500000 0.864183
O O13 0.228354 0.373758 0.104619
O O14 0.250000 0.750000 0.000000
#
# Coordination Sequence:
#
# PCOD9202645 Si02
#       6
#     8   4   8   8   8   8
#     4  10  21  37  62  97 132 166 216 272 322 383
#     4  12  22  40  64  86 129 176 223 258 331 376
#     4  10  20  38  62  93 129 164 206 266 324 382
#     4  10  22  40  67  95 124 161 210 264 325 386
#     4  11  24  41  62  90 129 170 214 263 316 382
#     4  10  21  38  59  90 125 165 209 255 313 380
#
# _framework density 20.612159999999999
#
# number of rings (size 3 to 8) (size 9 to 14) (size 15 to 20)
#    0.000    1.636    1.818    2.727    0.000    8.727 
#    0.000    1.818    0.000    2.182    0.000    0.000 
#    0.000    0.000    0.000    0.000    0.000    0.000 
#
# Total GULP energy -122701.990026 kJ/mol
# GULP energy per Si atom -5577.363183 kJ/mol
# Density = 2.056525 g / cm^3
# Si number density = 20.612160 Si / 1000 Ang^3
#
#
#
# Elastic Constant Matrix: (Units=GPa)
#
#
# Indices 1 2 3 4 5 6 
#
# 1 115.7406 28.7096 2.8440 -0.0045 -15.8259 0.0024
# 2 28.7096 144.3393 32.1521 -0.0111 8.4074 0.0013
# 3 2.8440 32.1521 52.4187 -0.0067 -8.2004 0.0029
# 4 -0.0045 -0.0111 -0.0067 21.4589 0.0031 12.1159
# 5 -15.8259 8.4074 -8.2004 0.0031 35.4348 -0.0009
# 6 0.0024 0.0013 0.0029 12.1159 -0.0009 -1.1087
#
#
#
# Elastic Compliance Matrix: (Units=1/GPa)
#
#
# Indices 1 2 3 4 5 6 
#
# 1 0.010048 -0.002780 0.002039 -0.000001 0.005619 0.000003
# 2 -0.002780 0.009149 -0.006220 0.000001 -0.004852 0.000003
# 3 0.002039 -0.006220 0.024025 -0.000004 0.007946 0.000013
# 4 -0.000001 0.000001 -0.000004 0.006499 -0.000001 0.071025
# 5 0.005619 -0.004852 0.007946 -0.000001 0.033721 -0.000006
# 6 0.000003 0.000003 0.000013 0.071025 -0.000006 -0.125795
#
#
# Mechanical properties :
#
#
# Convention : Reuss Voigt Hill
#
# Bulk Modulus (GPa) = 34.12980 48.87890 41.50435
# Shear Modulus (GPa) = -267.88165 27.74320 -120.06922
#
# Velocity S-wave (km/s) = -11.41250 3.67272 -7.64056
# Velocity P-wave (km/s) = 12.53260 6.46144 7.59328
#
# Compressibility (1/GPa) = 0.02929991
#
# Stress axis : x y z
#
# Youngs Moduli (GPa) = 99.52398 109.29863 41.62347
#
# Poissons Ratio (x) = 0.30386 -0.08488
# Poissons Ratio (y) = 0.27668 0.25890
# Poissons Ratio (z) = -0.20294 0.67985
#
# Static dielectric constant tensor:
#      x y z
#    x 1.800640 0.000010 0.006250 
#    y 0.000010 1.754340 0.000000 
#    z 0.006250 0.000000 1.707530 
# 
# From -- ./inp_files/349294.got.cif
#   From: 2010.05.17/outbox.cif.g08.bks.cpg/sg12_175_cif.got.tgz:349294.got - 2010.06.03 13:09:07.
