data_PCOD9202361
_publ_section_title
;
Structure prediction by ZEFSAII (Michael W. Deem and Ramdas Pophale) SiO2 
 PCOD9202361
Probable space group: C 2/M
;
_chemical_formula_sum "Si O2"
_cell_formula_units_Z 36
_cell_length_a 18.524273
_cell_length_b 20.373894
_cell_length_c 6.835788
_cell_angle_alpha 90.000000
_cell_angle_beta 136.519587
_cell_angle_gamma 90.000000
_cell_volume 1775.249909
_symmetry_space_group_name_H-M "C 2/M"
_symmetry_group_IT_number 12
_symmetry_cell_setting 'monoclinic'
loop_
_space_group_symop_operation_xyz
x,y,z
-x,y,-z
-x,-y,-z
x,-y,z
1/2+x,1/2+y,z
1/2-x,1/2+y,-z
1/2-x,1/2-y,-z
1/2+x,1/2-y,z
loop_
_atom_site_type_symbol
_atom_site_label
_atom_site_fract_x
_atom_site_fract_y
_atom_site_fract_z
Si Si1 0.840483 0.712871 0.790826
Si Si2 0.623953 0.500000 0.766842
Si Si3 0.000000 0.386458 0.000000
Si Si4 0.312805 0.611279 0.404487
Si Si5 0.524208 0.000000 0.323169
Si Si6 0.242996 0.000000 0.395652
Si Si7 0.500000 0.684363 0.000000
O O1 0.750000 0.750000 0.500000
O O2 0.902261 0.661051 0.776395
O O3 0.774800 0.667275 0.810908
O O4 0.928683 0.768426 0.000648
O O5 0.500000 0.500000 0.500000
O O6 0.666308 0.564715 0.739013
O O7 0.656742 0.500000 0.056314
O O8 0.977225 0.434887 0.133421
O O9 0.271023 0.562824 0.492885
O O10 0.419064 0.643210 0.706057
O O11 0.500000 0.000000 0.500000
O O12 0.645368 0.000000 0.494775
#
# Coordination Sequence:
#
# PCOD9202361 Si02
#       7
#     8   4   4   8   4   4   4
#     4   9  18  34  61  87 106 153 194 227 282 339
#     4  11  24  36  59  89 117 151 188 238 292 339
#     4  10  20  39  60  85 120 144 190 234 286 342
#     4  10  20  38  61  84 114 149 188 236 289 337
#     4  11  24  34  60  89 117 150 184 240 291 338
#     4  11  22  37  59  89 114 148 192 234 292 342
#     4   9  18  34  62  84 108 149 196 232 278 343
#
# _framework density 20.278835999999998
#
# number of rings (size 3 to 8) (size 9 to 14) (size 15 to 20)
#    0.000    2.000    2.222    1.333    3.111    1.778 
#    0.000    0.000    0.000   61.333    0.000    0.000 
#    0.000    0.000    0.000    0.000    0.000    0.000 
#
# Total GULP energy -100303.758393 kJ/mol
# GULP energy per Si atom -5572.431022 kJ/mol
# Density = 2.023268 g / cm^3
# Si number density = 20.278836 Si / 1000 Ang^3
#
#
#
# Elastic Constant Matrix: (Units=GPa)
#
#
# Indices 1 2 3 4 5 6 
#
# 1 85.4712 36.6922 22.1889 0.0000 13.5110 0.0000
# 2 36.6922 109.3927 16.4639 0.0000 12.1160 0.0000
# 3 22.1889 16.4639 52.9394 0.0000 3.2965 0.0000
# 4 0.0000 0.0000 0.0000 16.5626 0.0000 23.3522
# 5 13.5110 12.1160 3.2965 0.0000 40.7780 0.0000
# 6 0.0000 0.0000 0.0000 23.3522 0.0000 24.1598
#
#
#
# Elastic Compliance Matrix: (Units=1/GPa)
#
#
# Indices 1 2 3 4 5 6 
#
# 1 0.015239 -0.003985 -0.004932 0.000000 -0.003466 0.000000
# 2 -0.003985 0.010920 -0.001614 0.000000 -0.001794 0.000000
# 3 -0.004932 -0.001614 0.021435 0.000000 0.000381 0.000000
# 4 0.000000 0.000000 0.000000 -0.166417 0.000000 0.160854
# 5 -0.003466 -0.001794 0.000381 0.000000 0.026174 0.000000
# 6 0.000000 0.000000 0.000000 0.160854 0.000000 -0.114086
#
#
# Mechanical properties :
#
#
# Convention : Reuss Voigt Hill
#
# Bulk Modulus (GPa) = 37.69137 44.27705 40.98421
# Shear Modulus (GPa) = -28.27575 27.79729 -0.23923
#
# Velocity S-wave (km/s) = -3.73815 3.70639 -0.34384
# Velocity P-wave (km/s) = 0.06897 6.34018 4.48292
#
# Compressibility (1/GPa) = 0.02653127
#
# Stress axis : x y z
#
# Youngs Moduli (GPa) = 65.62108 91.57814 46.65282
#
# Poissons Ratio (x) = 0.36496 0.23009
# Poissons Ratio (y) = 0.26151 0.07529
# Poissons Ratio (z) = 0.32364 0.14780
#
# Static dielectric constant tensor:
#      x y z
#    x 1.748270 0.000000 0.049540 
#    y 0.000000 1.758560 0.000000 
#    z 0.049540 0.000000 1.679420 
# 
# From -- ./inp_files/15976.got.cif
#   From: 2010.05.17/outbox.cif.g08.bks.cpg/sg12_8_cif.got.tgz:15976.got - 2010.06.03 13:09:07.
