data_PCOD9202389
_publ_section_title
;
Structure prediction by ZEFSAII (Michael W. Deem and Ramdas Pophale) SiO2 
 PCOD9202389
Probable space group: C 2/M
;
_chemical_formula_sum "Si O2"
_cell_formula_units_Z 42
_cell_length_a 13.584510
_cell_length_b 12.885986
_cell_length_c 11.661609
_cell_angle_alpha 90.000000
_cell_angle_beta 116.910908
_cell_angle_gamma 90.000000
_cell_volume 1820.306071
_symmetry_space_group_name_H-M "C 2/M"
_symmetry_group_IT_number 12
_symmetry_cell_setting 'monoclinic'
loop_
_space_group_symop_operation_xyz
x,y,z
-x,y,-z
-x,-y,-z
x,-y,z
1/2+x,1/2+y,z
1/2-x,1/2+y,-z
1/2-x,1/2-y,-z
1/2+x,1/2-y,z
loop_
_atom_site_type_symbol
_atom_site_label
_atom_site_fract_x
_atom_site_fract_y
_atom_site_fract_z
Si Si1 0.826752 0.678589 0.906567
Si Si2 0.408212 0.297389 0.166176
Si Si3 0.067597 0.693835 0.433989
Si Si4 0.874769 0.887348 0.796122
Si Si5 0.205351 0.887482 0.510774
Si Si6 0.500000 0.000000 0.000000
O O1 0.699311 0.645999 0.842143
O O2 0.833617 0.785565 0.839106
O O3 0.911156 0.591059 0.913556
O O4 0.864025 0.711432 0.054232
O O5 0.479822 0.239055 0.299114
O O6 0.493691 0.372590 0.147216
O O7 0.135480 0.792061 0.522974
O O8 0.163501 0.631472 0.419496
O O9 0.000000 0.639466 0.500000
O O10 0.826049 0.886571 0.641416
O O11 0.847028 0.000000 0.832837
O O12 0.176267 0.000000 0.543090
#
# Coordination Sequence:
#
# PCOD9202389 Si02
#       6
#     8   8   8   8   8   2
#     4  11  23  42  60  91 126 158 206 250 314 366
#     4  10  22  40  60  89 122 164 202 255 301 366
#     4  10  20  38  61  85 123 159 203 248 299 359
#     4  10  20  40  66  91 121 161 207 252 303 364
#     4   9  20  38  62  91 122 158 201 252 302 357
#     4  12  24  44  62  88 130 164 196 262 310 378
#
# _framework density 23.073042999999998
#
# number of rings (size 3 to 8) (size 9 to 14) (size 15 to 20)
#    0.000    1.905    1.905    1.143    1.333    2.286 
#    6.857    0.000    0.000    0.000    0.000    0.000 
#    0.000    0.000    0.000    0.000    0.000    0.000 
#
# Total GULP energy -117093.009524 kJ/mol
# GULP energy per Si atom -5575.857596 kJ/mol
# Density = 2.302053 g / cm^3
# Si number density = 23.073043 Si / 1000 Ang^3
#
#
#
# Elastic Constant Matrix: (Units=GPa)
#
#
# Indices 1 2 3 4 5 6 
#
# 1 87.0814 10.2824 22.8192 0.0000 23.4449 0.0000
# 2 10.2824 104.1337 0.9094 0.0000 0.4310 0.0000
# 3 22.8192 0.9094 72.6630 0.0000 19.0815 0.0000
# 4 0.0000 0.0000 0.0000 12.4920 0.0000 0.9169
# 5 23.4449 0.4310 19.0815 0.0000 32.7541 0.0000
# 6 0.0000 0.0000 0.0000 0.9169 0.0000 -0.2759
#
#
#
# Elastic Compliance Matrix: (Units=1/GPa)
#
#
# Indices 1 2 3 4 5 6 
#
# 1 0.014706 -0.001395 -0.002174 0.000000 -0.009241 0.000000
# 2 -0.001395 0.009737 0.000103 0.000000 0.000810 0.000000
# 3 -0.002174 0.000103 0.016570 0.000000 -0.008099 0.000000
# 4 0.000000 0.000000 0.000000 0.064353 0.000000 0.213883
# 5 -0.009241 0.000810 -0.008099 0.000000 0.041853 0.000000
# 6 0.000000 0.000000 0.000000 0.213883 0.000000 -2.914017
#
#
# Mechanical properties :
#
#
# Convention : Reuss Voigt Hill
#
# Bulk Modulus (GPa) = 29.34101 36.87776 33.10939
# Shear Modulus (GPa) = -1.81917 24.31854 11.24968
#
# Velocity S-wave (km/s) = -0.88890 3.25003 2.21049
# Velocity P-wave (km/s) = 3.41916 5.48647 4.57121
#
# Compressibility (1/GPa) = 0.03408199
#
# Stress axis : x y z
#
# Youngs Moduli (GPa) = 67.99967 102.70616 60.34902
#
# Poissons Ratio (x) = 0.14326 0.13120
# Poissons Ratio (y) = 0.09485 -0.00624
# Poissons Ratio (z) = 0.14783 -0.01063
#
# Static dielectric constant tensor:
#      x y z
#    x 1.882260 0.000000 -0.011060 
#    y 0.000000 1.860510 0.000000 
#    z -0.011060 0.000000 1.879140 
# 
# From -- ./inp_files/212449.got.cif
#   From: 2010.05.17/outbox.cif.g08.bks.cpg/sg12_107_cif.got.tgz:212449.got - 2010.06.03 13:09:07.
