data_PCOD9202770
_publ_section_title
;
Structure prediction by ZEFSAII (Michael W. Deem and Ramdas Pophale) SiO2 
 PCOD9202770
Probable space group: C 2/M
;
_chemical_formula_sum "Si O2"
_cell_formula_units_Z 56
_cell_length_a 17.668759
_cell_length_b 33.772260
_cell_length_c 7.684367
_cell_angle_alpha 90.000000
_cell_angle_beta 145.958048
_cell_angle_gamma 90.000000
_cell_volume 2566.888411
_symmetry_space_group_name_H-M "C 2/M"
_symmetry_group_IT_number 12
_symmetry_cell_setting 'monoclinic'
loop_
_space_group_symop_operation_xyz
x,y,z
-x,y,-z
-x,-y,-z
x,-y,z
1/2+x,1/2+y,z
1/2-x,1/2+y,-z
1/2-x,1/2-y,-z
1/2+x,1/2-y,z
loop_
_atom_site_type_symbol
_atom_site_label
_atom_site_fract_x
_atom_site_fract_y
_atom_site_fract_z
Si Si1 0.170034 0.256936 0.026586
Si Si2 0.477159 0.839523 0.251192
Si Si3 0.026929 0.860492 0.353665
Si Si4 0.736000 0.889056 0.697357
Si Si5 0.273465 0.910049 0.914313
Si Si6 0.160891 0.544206 0.279966
Si Si7 0.576980 0.280381 0.322071
O O1 0.293770 0.253782 0.396482
O O2 0.250000 0.250000 0.000000
O O3 0.095221 0.298346 0.932046
O O4 0.047192 0.226972 0.784862
O O5 0.500000 0.834173 0.500000
O O6 0.620590 0.855145 0.450420
O O7 0.373476 0.875667 0.035629
O O8 0.000000 0.846865 0.500000
O O9 0.123180 0.897907 0.569188
O O10 0.106913 0.826650 0.401914
O O11 0.885338 0.870432 0.992988
O O12 0.723398 0.922088 0.524214
O O13 0.713681 0.908189 0.850398
O O14 0.311606 0.947687 0.871926
O O15 0.207240 0.500000 0.416131
O O16 0.000000 0.546427 0.000000
O O17 0.500000 0.271345 0.000000
#
# Coordination Sequence:
#
# PCOD9202770 Si02
#       7
#     8   8   8   8   8   8   8
#     4  12  25  44  65  89 130 178 226 274 338 392
#     4  10  20  38  63  91 122 165 224 268 316 387
#     4  10  22  42  67  93 128 172 223 270 323 394
#     4  10  23  40  68  97 130 169 224 271 327 393
#     4  10  21  42  65  96 129 172 220 267 325 397
#     4  11  24  42  66 102 135 169 215 269 336 401
#     4  12  27  42  59  93 131 171 219 280 339 387
#
# _framework density 21.816298
#
# number of rings (size 3 to 8) (size 9 to 14) (size 15 to 20)
#    0.000    1.286    2.857    2.571    8.000    0.571 
#    2.571    2.857    0.000    2.571    0.000    0.000 
#    0.000    0.000    0.000    0.000    0.000    0.000 
#
# Total GULP energy -156244.904460 kJ/mol
# GULP energy per Si atom -5580.175159 kJ/mol
# Density = 2.176664 g / cm^3
# Si number density = 21.816298 Si / 1000 Ang^3
#
#
#
# Elastic Constant Matrix: (Units=GPa)
#
#
# Indices 1 2 3 4 5 6 
#
# 1 61.1972 9.3376 16.4598 0.0000 -1.5624 0.0000
# 2 9.3376 62.7085 20.5213 0.0000 -8.0157 0.0000
# 3 16.4598 20.5213 122.2950 0.0000 7.3696 0.0000
# 4 0.0000 0.0000 0.0000 14.5854 0.0000 -12.1306
# 5 -1.5624 -8.0157 7.3696 0.0000 31.1064 0.0000
# 6 0.0000 0.0000 0.0000 -12.1306 0.0000 16.0222
#
#
#
# Elastic Compliance Matrix: (Units=1/GPa)
#
#
# Indices 1 2 3 4 5 6 
#
# 1 0.017190 -0.001767 -0.002071 0.000000 0.000899 0.000000
# 2 -0.001767 0.017889 -0.003080 0.000000 0.005251 0.000000
# 3 -0.002071 -0.003080 0.009157 0.000000 -0.003067 0.000000
# 4 0.000000 0.000000 0.000000 0.185148 0.000000 0.140179
# 5 0.000899 0.005251 -0.003067 0.000000 0.034273 0.000000
# 6 0.000000 0.000000 0.000000 0.140179 0.000000 0.168545
#
#
# Mechanical properties :
#
#
# Convention : Reuss Voigt Hill
#
# Bulk Modulus (GPa) = 32.89530 37.64866 35.27198
# Shear Modulus (GPa) = 10.96074 25.66825 18.31450
#
# Velocity S-wave (km/s) = 2.24388 3.43383 2.90053
# Velocity P-wave (km/s) = 4.67166 5.74597 5.23644
#
# Compressibility (1/GPa) = 0.03039948
#
# Stress axis : x y z
#
# Youngs Moduli (GPa) = 58.17239 55.89971 109.20045
#
# Poissons Ratio (x) = 0.09877 0.22619
# Poissons Ratio (y) = 0.10279 0.33638
# Poissons Ratio (z) = 0.12049 0.17220
#
# Static dielectric constant tensor:
#      x y z
#    x 1.872530 0.000000 -0.036720 
#    y 0.000000 1.818930 0.000000 
#    z -0.036720 0.000000 1.795300 
# 
# From -- ./inp_files/91613.got.cif
#   From: 2010.05.17/outbox.cif.g08.bks.cpg/sg12_46_cif.got.tgz:91613.got - 2010.06.03 13:09:07.
