data_PCOD9202834
_publ_section_title
;
Structure prediction by ZEFSAII (Michael W. Deem and Ramdas Pophale) SiO2 
 PCOD9202834
Probable space group: C 2/M
;
_chemical_formula_sum "Si O2"
_cell_formula_units_Z 52
_cell_length_a 8.752250
_cell_length_b 24.165570
_cell_length_c 13.679967
_cell_angle_alpha 90.000000
_cell_angle_beta 88.505187
_cell_angle_gamma 90.000000
_cell_volume 2892.370930
_symmetry_space_group_name_H-M "C 2/M"
_symmetry_group_IT_number 12
_symmetry_cell_setting 'monoclinic'
loop_
_space_group_symop_operation_xyz
x,y,z
-x,y,-z
-x,-y,-z
x,-y,z
1/2+x,1/2+y,z
1/2-x,1/2+y,-z
1/2-x,1/2-y,-z
1/2+x,1/2-y,z
loop_
_atom_site_type_symbol
_atom_site_label
_atom_site_fract_x
_atom_site_fract_y
_atom_site_fract_z
Si Si1 0.743866 0.792266 0.639055
Si Si2 0.000000 0.747212 0.500000
Si Si3 0.730896 0.000000 0.060767
Si Si4 0.602976 0.000000 0.841299
Si Si5 0.224038 0.708498 0.190447
Si Si6 0.740062 0.391354 0.204837
Si Si7 0.589790 0.803238 0.899305
Si Si8 0.926110 0.890732 0.104097
O O1 0.596956 0.790193 0.572603
O O2 0.741535 0.736611 0.706096
O O3 0.755850 0.845471 0.709263
O O4 0.887724 0.785146 0.565608
O O5 0.830663 0.054313 0.081586
O O6 0.576263 0.000000 0.128526
O O7 0.685199 0.000000 0.946902
O O8 0.662452 0.946419 0.782219
O O9 0.286408 0.755709 0.116419
O O10 0.316873 0.654192 0.157930
O O11 0.043033 0.701197 0.180286
O O12 0.824415 0.360841 0.113046
O O13 0.567770 0.402868 0.173959
O O14 0.500000 0.799042 0.000000
O O15 0.000000 0.869930 0.000000
#
# Coordination Sequence:
#
# PCOD9202834 Si02
#       8
#     8   4   4   4   8   8   8   8
#     4  10  21  38  58  90 109 147 175 234 288 358
#     4  10  20  38  64  82 116 134 178 222 304 362
#     4  11  24  37  54  79 113 159 217 222 274 295
#     4  11  23  40  57  78 112 159 194 247 257 326
#     4  11  21  34  53  78 118 144 195 230 282 328
#     4  11  22  36  58  80 116 146 198 231 281 320
#     4  11  21  33  48  78 112 160 191 230 267 322
#     4  12  21  35  53  80 114 163 196 239 260 319
#
# _framework density 17.97833
#
# number of rings (size 3 to 8) (size 9 to 14) (size 15 to 20)
#    0.000    1.077    1.538    8.077    2.154    0.000 
#    0.000    0.000    0.000    0.923    0.000    4.308 
#    0.000    0.000    0.000    0.000    0.000    0.000 
#
# Total GULP energy -145242.393140 kJ/mol
# GULP energy per Si atom -5586.245890 kJ/mol
# Density = 1.793741 g / cm^3
# Si number density = 17.978330 Si / 1000 Ang^3
#
#
#
# Elastic Constant Matrix: (Units=GPa)
#
#
# Indices 1 2 3 4 5 6 
#
# 1 111.6819 34.2880 28.7429 0.0000 12.7234 0.0000
# 2 34.2880 94.6706 20.1643 0.0000 -4.4495 0.0000
# 3 28.7429 20.1643 85.6287 0.0000 6.3285 0.0000
# 4 0.0000 0.0000 0.0000 13.1044 0.0000 -4.6633
# 5 12.7234 -4.4495 6.3285 0.0000 30.1109 0.0000
# 6 0.0000 0.0000 0.0000 -4.6633 0.0000 23.4918
#
#
#
# Elastic Compliance Matrix: (Units=1/GPa)
#
#
# Indices 1 2 3 4 5 6 
#
# 1 0.011320 -0.003782 -0.002554 0.000000 -0.004805 0.000000
# 2 -0.003782 0.012533 -0.001968 0.000000 0.003864 0.000000
# 3 -0.002554 -0.001968 0.013145 0.000000 -0.001974 0.000000
# 4 0.000000 0.000000 0.000000 0.082110 0.000000 0.016299
# 5 -0.004805 0.003864 -0.001974 0.000000 0.036227 0.000000
# 6 0.000000 0.000000 0.000000 0.016299 0.000000 0.045804
#
#
# Mechanical properties :
#
#
# Convention : Reuss Voigt Hill
#
# Bulk Modulus (GPa) = 49.04029 50.93019 49.98524
# Shear Modulus (GPa) = 22.26750 27.26049 24.76399
#
# Velocity S-wave (km/s) = 3.52316 3.89819 3.71541
# Velocity P-wave (km/s) = 6.62471 6.97505 6.80214
#
# Compressibility (1/GPa) = 0.02039140
#
# Stress axis : x y z
#
# Youngs Moduli (GPa) = 88.34087 79.78774 76.07529
#
# Poissons Ratio (x) = 0.30173 0.19430
# Poissons Ratio (y) = 0.33408 0.14968
# Poissons Ratio (z) = 0.22563 0.15699
#
# Static dielectric constant tensor:
#      x y z
#    x 1.634380 0.000000 0.013550 
#    y 0.000000 1.609710 0.000000 
#    z 0.013550 0.000000 1.641670 
# 
# From -- ./inp_files/198002.got.cif
#   From: 2010.05.17/outbox.cif.g08.bks.cpg/sg12_100_cif.got.tgz:198002.got - 2010.06.03 13:09:07.
