data_PCOD9202228
_publ_section_title
;
Structure prediction by ZEFSAII (Michael W. Deem and Ramdas Pophale) SiO2 
 PCOD9202228
Probable space group: C 2/M
;
_chemical_formula_sum "Si O2"
_cell_formula_units_Z 64
_cell_length_a 31.512764
_cell_length_b 7.834877
_cell_length_c 17.539962
_cell_angle_alpha 90.000000
_cell_angle_beta 135.858818
_cell_angle_gamma 90.000000
_cell_volume 3015.949304
_symmetry_space_group_name_H-M "C 2/M"
_symmetry_group_IT_number 12
_symmetry_cell_setting 'monoclinic'
loop_
_space_group_symop_operation_xyz
x,y,z
-x,y,-z
-x,-y,-z
x,-y,z
1/2+x,1/2+y,z
1/2-x,1/2+y,-z
1/2-x,1/2-y,-z
1/2+x,1/2-y,z
loop_
_atom_site_type_symbol
_atom_site_label
_atom_site_fract_x
_atom_site_fract_y
_atom_site_fract_z
Si Si1 0.576279 0.709010 0.172519
Si Si2 0.868431 0.292269 0.198338
Si Si3 0.629217 0.198933 0.508544
Si Si4 0.170121 0.298342 0.014752
Si Si5 0.791782 0.799314 0.247596
Si Si6 0.180410 0.803963 0.414135
Si Si7 0.502496 0.791779 0.414852
Si Si8 0.940878 0.793773 0.024230
O O1 0.575175 0.500000 0.171559
O O2 0.632878 0.777839 0.293558
O O3 0.577934 0.758191 0.085908
O O4 0.511127 0.761030 0.123916
O O5 0.866164 0.500000 0.197730
O O6 0.835123 0.225281 0.230375
O O7 0.939590 0.242744 0.293143
O O8 0.836441 0.230390 0.079611
O O9 0.676830 0.214695 0.639229
O O10 0.654388 0.284836 0.465345
O O11 0.564105 0.268350 0.453661
O O12 0.621223 0.000000 0.479867
O O13 0.182548 0.500000 0.023019
O O14 0.225992 0.228251 0.136828
O O15 0.106554 0.275075 0.976035
O O16 0.786320 0.000000 0.258506
O O17 0.250000 0.750000 0.500000
O O18 0.181050 0.000000 0.393211
O O19 0.500000 0.736812 0.500000
O O20 0.505069 0.000000 0.419216
O O21 0.938836 0.000000 0.025335
#
# Coordination Sequence:
#
# PCOD9202228 Si02
#       8
#     8   8   8   8   8   8   8   8
#     4   8  18  38  61  84 115 149 189 238 289 343
#     4  10  20  38  60  82 115 156 195 239 290 348
#     4  11  23  40  63  89 116 158 205 243 298 360
#     4  10  23  37  55  85 119 151 191 243 294 342
#     4  11  23  39  56  83 121 156 195 245 293 344
#     4  11  24  42  62  90 125 158 197 246 297 352
#     4   9  17  34  60  87 113 149 198 245 287 346
#     4   9  18  37  63  86 109 149 195 237 287 347
#
# _framework density 21.220517000000001
#
# number of rings (size 3 to 8) (size 9 to 14) (size 15 to 20)
#    0.000    2.125    1.250    2.250    3.500    1.500 
#    0.000    4.375    0.000    0.000    0.000    0.000 
#    0.000    0.000    0.000    0.000    0.000    0.000 
#
# Total GULP energy -178753.166722 kJ/mol
# GULP energy per Si atom -5586.036460 kJ/mol
# Density = 2.117222 g / cm^3
# Si number density = 21.220517 Si / 1000 Ang^3
#
#
#
# Elastic Constant Matrix: (Units=GPa)
#
#
# Indices 1 2 3 4 5 6 
#
# 1 60.9125 -11.2966 23.6955 0.0000 12.0958 0.0000
# 2 -11.2966 20.6042 1.7797 0.0000 6.4580 0.0000
# 3 23.6955 1.7797 108.5424 0.0000 14.2914 0.0000
# 4 0.0000 0.0000 0.0000 13.4688 0.0000 -2.5144
# 5 12.0958 6.4580 14.2914 0.0000 21.3087 0.0000
# 6 0.0000 0.0000 0.0000 -2.5144 0.0000 45.8724
#
#
#
# Elastic Compliance Matrix: (Units=1/GPa)
#
#
# Indices 1 2 3 4 5 6 
#
# 1 0.024887 0.019502 -0.003416 0.000000 -0.017746 0.000000
# 2 0.019502 0.069100 -0.001289 0.000000 -0.031148 0.000000
# 3 -0.003416 -0.001289 0.010610 0.000000 -0.004786 0.000000
# 4 0.000000 0.000000 0.000000 0.075013 0.000000 0.004112
# 5 -0.017746 -0.031148 -0.004786 0.000000 0.069652 0.000000
# 6 0.000000 0.000000 0.000000 0.004112 0.000000 0.022025
#
#
# Mechanical properties :
#
#
# Convention : Reuss Voigt Hill
#
# Bulk Modulus (GPa) = 7.45216 24.26848 15.86032
# Shear Modulus (GPa) = 17.45661 27.85533 22.65597
#
# Velocity S-wave (km/s) = 2.87126 3.62700 3.27103
# Velocity P-wave (km/s) = 3.80941 5.38528 4.66438
#
# Compressibility (1/GPa) = 0.13418924
#
# Stress axis : x y z
#
# Youngs Moduli (GPa) = 40.18231 14.47180 94.25022
#
# Poissons Ratio (x) = -0.28223 0.32197
# Poissons Ratio (y) = -0.78362 0.12151
# Poissons Ratio (z) = 0.13727 0.01866
#
# Static dielectric constant tensor:
#      x y z
#    x 1.713020 0.000000 0.022750 
#    y 0.000000 1.783720 0.000000 
#    z 0.022750 0.000000 1.840960 
# 
# From -- ./inp_files/295881.got.cif
#   From: 2010.05.17/outbox.cif.g08.bks.cpg/sg12_148_cif.got.tgz:295881.got - 2010.06.03 13:09:07.
