data_PCOD9202223
_publ_section_title
;
Structure prediction by ZEFSAII (Michael W. Deem and Ramdas Pophale) SiO2 
 PCOD9202223
Probable space group: C 2/M
;
_chemical_formula_sum "Si O2"
_cell_formula_units_Z 56
_cell_length_a 20.604195
_cell_length_b 7.692728
_cell_length_c 18.072558
_cell_angle_alpha 90.000000
_cell_angle_beta 72.756327
_cell_angle_gamma 90.000000
_cell_volume 2735.791433
_symmetry_space_group_name_H-M "C 2/M"
_symmetry_group_IT_number 12
_symmetry_cell_setting 'monoclinic'
loop_
_space_group_symop_operation_xyz
x,y,z
-x,y,-z
-x,-y,-z
x,-y,z
1/2+x,1/2+y,z
1/2-x,1/2+y,-z
1/2-x,1/2-y,-z
1/2+x,1/2-y,z
loop_
_atom_site_type_symbol
_atom_site_label
_atom_site_fract_x
_atom_site_fract_y
_atom_site_fract_z
Si Si1 0.845165 0.798862 0.154042
Si Si2 0.298854 0.701326 0.738815
Si Si3 0.907856 0.701903 0.823076
Si Si4 0.099529 0.787824 0.415966
Si Si5 0.937755 0.203982 0.251831
Si Si6 0.950530 0.787473 0.410301
Si Si7 0.172278 0.791440 0.005240
O O1 0.768826 0.794145 0.211326
O O2 0.894439 0.718649 0.199159
O O3 0.866334 0.000000 0.137530
O O4 0.843789 0.723497 0.071760
O O5 0.280700 0.500000 0.732955
O O6 0.355275 0.711383 0.784143
O O7 0.336042 0.771852 0.652922
O O8 0.912354 0.500000 0.801398
O O9 0.877033 0.719458 0.915240
O O10 0.982421 0.781486 0.791858
O O11 0.093108 0.733938 0.503535
O O12 0.028777 0.736250 0.400189
O O13 0.100672 0.000000 0.413879
O O14 0.927053 0.276166 0.338164
O O15 0.919160 0.000000 0.262408
O O16 0.950590 0.000000 0.409148
O O17 0.165924 0.000000 0.007745
O O18 0.250000 0.750000 0.000000
#
# Coordination Sequence:
#
# PCOD9202223 Si02
#       7
#     8   8   8   8   8   8   8
#     4  10  23  39  57  82 114 146 182 230 282 333
#     4  11  20  34  58  84 111 147 190 230 275 332
#     4  12  24  37  57  84 114 145 185 236 280 329
#     4   8  14  25  49  85 110 135 182 233 268 315
#     4  10  20  38  60  82 111 151 188 223 276 336
#     4   8  13  26  51  81 111 139 180 228 270 321
#     4  11  22  38  59  84 112 145 186 233 279 327
#
# _framework density 20.469396
#
# number of rings (size 3 to 8) (size 9 to 14) (size 15 to 20)
#    0.000    2.000    2.857    3.000    0.000    1.714 
#    0.000    3.571    0.000    2.571    0.000    0.000 
#    0.000    0.000    0.000    0.000    0.000    0.000 
#
# Total GULP energy -156320.910106 kJ/mol
# GULP energy per Si atom -5582.889647 kJ/mol
# Density = 2.042281 g / cm^3
# Si number density = 20.469396 Si / 1000 Ang^3
#
#
#
# Elastic Constant Matrix: (Units=GPa)
#
#
# Indices 1 2 3 4 5 6 
#
# 1 85.8433 -16.7220 43.4413 0.0000 25.5511 0.0000
# 2 -16.7220 43.7153 -14.5836 0.0000 7.9019 0.0000
# 3 43.4413 -14.5836 156.5547 0.0000 19.3510 0.0000
# 4 0.0000 0.0000 0.0000 9.7183 0.0000 -7.8301
# 5 25.5511 7.9019 19.3510 0.0000 32.2902 0.0000
# 6 0.0000 0.0000 0.0000 -7.8301 0.0000 11.7804
#
#
#
# Elastic Compliance Matrix: (Units=1/GPa)
#
#
# Indices 1 2 3 4 5 6 
#
# 1 0.019709 0.009665 -0.002536 0.000000 -0.016441 0.000000
# 2 0.009665 0.030245 0.002155 0.000000 -0.016341 0.000000
# 3 -0.002536 0.002155 0.007678 0.000000 -0.003122 0.000000
# 4 0.000000 0.000000 0.000000 0.221543 0.000000 0.147253
# 5 -0.016441 -0.016341 -0.003122 0.000000 0.049848 0.000000
# 6 0.000000 0.000000 0.000000 0.147253 0.000000 0.182762
#
#
# Mechanical properties :
#
#
# Convention : Reuss Voigt Hill
#
# Bulk Modulus (GPa) = 13.12349 34.48718 23.80534
# Shear Modulus (GPa) = 9.64102 29.02294 19.33198
#
# Velocity S-wave (km/s) = 2.17260 3.76955 3.07650
# Velocity P-wave (km/s) = 3.56634 5.98588 4.92694
#
# Compressibility (1/GPa) = 0.07619925
#
# Stress axis : x y z
#
# Youngs Moduli (GPa) = 50.73860 33.06328 130.24199
#
# Poissons Ratio (x) = -0.31955 0.33035
# Poissons Ratio (y) = -0.49037 -0.28073
# Poissons Ratio (z) = 0.12870 -0.07127
#
# Static dielectric constant tensor:
#      x y z
#    x 1.694500 0.000000 0.027200 
#    y 0.000000 1.787360 0.000000 
#    z 0.027200 0.000000 1.773070 
# 
# From -- ./inp_files/275322.got.cif
#   From: 2010.05.17/outbox.cif.g08.bks.cpg/sg12_138_cif.got.tgz:275322.got - 2010.06.03 13:09:07.
