data_PCOD9202950
_publ_section_title
;
Structure prediction by ZEFSAII (Michael W. Deem and Ramdas Pophale) SiO2 
 PCOD9202950
Probable space group: C 2/M
;
_chemical_formula_sum "Si O2"
_cell_formula_units_Z 40
_cell_length_a 10.951602
_cell_length_b 24.286151
_cell_length_c 14.199731
_cell_angle_alpha 90.000000
_cell_angle_beta 148.385461
_cell_angle_gamma 90.000000
_cell_volume 1979.771868
_symmetry_space_group_name_H-M "C 2/M"
_symmetry_group_IT_number 12
_symmetry_cell_setting 'monoclinic'
loop_
_space_group_symop_operation_xyz
x,y,z
-x,y,-z
-x,-y,-z
x,-y,z
1/2+x,1/2+y,z
1/2-x,1/2+y,-z
1/2-x,1/2-y,-z
1/2+x,1/2-y,z
loop_
_atom_site_type_symbol
_atom_site_label
_atom_site_fract_x
_atom_site_fract_y
_atom_site_fract_z
Si Si1 0.640041 0.357855 0.004388
Si Si2 0.235555 0.214323 0.351749
Si Si3 0.861456 0.940593 0.506406
Si Si4 0.211935 0.564290 0.069821
Si Si5 0.862615 0.675763 0.635479
O O1 0.858276 0.323620 0.188854
O O2 0.500000 0.384551 0.000000
O O3 0.457790 0.317141 0.834343
O O4 0.740639 0.399162 0.991194
O O5 0.500000 0.199863 0.500000
O O6 0.202897 0.280299 0.327300
O O7 0.220560 0.195199 0.450449
O O8 0.702396 0.887557 0.394707
O O9 0.000000 0.942925 0.500000
O O10 0.051985 0.934106 0.713612
O O11 0.740979 0.000000 0.440691
O O12 0.163784 0.500000 0.014013
O O13 0.000000 0.582538 0.000000
#
# Coordination Sequence:
#
# PCOD9202950 Si02
#       5
#     8   8   8   8   8
#     4  12  24  42  67  97 135 173 218 271 330 396
#     4  11  23  43  62  91 132 172 221 268 327 384
#     4  10  20  38  64  95 128 166 217 273 329 384
#     4  10  22  41  65  97 135 173 223 278 323 388
#     4  11  23  40  66  91 126 178 213 270 324 394
#
# _framework density 20.204349000000001
#
# number of rings (size 3 to 8) (size 9 to 14) (size 15 to 20)
#    0.000    1.200    4.000    2.400    0.000    2.800 
#    0.000    0.000    0.000    3.600    0.000    0.000 
#    0.000    0.000    0.000    0.000    0.000    0.000 
#
# Total GULP energy -111597.780339 kJ/mol
# GULP energy per Si atom -5579.889017 kJ/mol
# Density = 2.015836 g / cm^3
# Si number density = 20.204349 Si / 1000 Ang^3
#
#
#
# Elastic Constant Matrix: (Units=GPa)
#
#
# Indices 1 2 3 4 5 6 
#
# 1 79.9103 38.1078 24.0120 0.0003 -4.3880 0.0003
# 2 38.1078 131.3756 45.3065 0.0000 4.1827 0.0001
# 3 24.0120 45.3065 114.9843 0.0011 2.6222 0.0008
# 4 0.0003 0.0000 0.0011 27.6276 0.0005 -1.4831
# 5 -4.3880 4.1827 2.6222 0.0005 32.5085 0.0004
# 6 0.0003 0.0001 0.0008 -1.4831 0.0004 26.1830
#
#
#
# Elastic Compliance Matrix: (Units=1/GPa)
#
#
# Indices 1 2 3 4 5 6 
#
# 1 0.015003 -0.003860 -0.001673 0.000000 0.002657 0.000000
# 2 -0.003860 0.009825 -0.003030 0.000000 -0.001541 0.000000
# 3 -0.001673 -0.003030 0.010255 0.000000 -0.000663 0.000000
# 4 0.000000 0.000000 0.000000 0.036306 -0.000001 0.002056
# 5 0.002657 -0.001541 -0.000663 -0.000001 0.031372 -0.000001
# 6 0.000000 0.000000 0.000000 0.002056 -0.000001 0.038309
#
#
# Mechanical properties :
#
#
# Convention : Reuss Voigt Hill
#
# Bulk Modulus (GPa) = 55.68461 60.12474 57.90468
# Shear Modulus (GPa) = 30.45393 31.85340 31.15367
#
# Velocity S-wave (km/s) = 3.88660 3.97490 3.93100
# Velocity P-wave (km/s) = 6.91097 7.13368 7.02321
#
# Compressibility (1/GPa) = 0.01795828
#
# Stress axis : x y z
#
# Youngs Moduli (GPa) = 66.65263 101.77707 97.51030
#
# Poissons Ratio (x) = 0.39282 0.16313
# Poissons Ratio (y) = 0.25725 0.29549
# Poissons Ratio (z) = 0.11150 0.30842
#
# Static dielectric constant tensor:
#      x y z
#    x 1.739160 0.000000 -0.010550 
#    y 0.000000 1.764370 0.000000 
#    z -0.010550 0.000000 1.717980 
# 
# From -- ./inp_files/134157.got.cif
#   From: 2010.05.17/outbox.cif.g08.bks.cpg/sg12_68_cif.got.tgz:134157.got - 2010.06.03 13:09:07.
