data_PCOD9202709
_publ_section_title
;
Structure prediction by ZEFSAII (Michael W. Deem and Ramdas Pophale) SiO2 
 PCOD9202709
Probable space group: C 2/M
;
_chemical_formula_sum "Si O2"
_cell_formula_units_Z 56
_cell_length_a 19.350459
_cell_length_b 7.497005
_cell_length_c 20.879447
_cell_angle_alpha 90.000000
_cell_angle_beta 53.208509
_cell_angle_gamma 90.000000
_cell_volume 2425.678002
_symmetry_space_group_name_H-M "C 2/M"
_symmetry_group_IT_number 12
_symmetry_cell_setting 'monoclinic'
loop_
_space_group_symop_operation_xyz
x,y,z
-x,y,-z
-x,-y,-z
x,-y,z
1/2+x,1/2+y,z
1/2-x,1/2+y,-z
1/2-x,1/2-y,-z
1/2+x,1/2-y,z
loop_
_atom_site_type_symbol
_atom_site_label
_atom_site_fract_x
_atom_site_fract_y
_atom_site_fract_z
Si Si1 0.090864 0.703721 0.973724
Si Si2 0.726573 0.282031 0.298749
Si Si3 0.589895 0.717836 0.479735
Si Si4 0.346405 0.288059 0.422474
Si Si5 0.405204 0.296587 0.882868
Si Si6 0.281544 0.281519 0.838018
Si Si7 0.404663 0.797439 0.250593
O O1 0.090617 0.500000 0.949088
O O2 0.182766 0.780262 0.901046
O O3 0.094820 0.703583 0.048445
O O4 0.000000 0.784536 0.000000
O O5 0.728568 0.500000 0.300022
O O6 0.667997 0.222576 0.390688
O O7 0.690344 0.231254 0.249407
O O8 0.825359 0.222304 0.253272
O O9 0.500000 0.773232 0.500000
O O10 0.593151 0.500000 0.478445
O O11 0.596939 0.774528 0.549110
O O12 0.356810 0.500000 0.408061
O O13 0.250000 0.250000 0.500000
O O14 0.369846 0.202170 0.342389
O O15 0.377451 0.500000 0.910573
O O16 0.342861 0.221818 0.862054
O O17 0.503725 0.296351 0.804123
O O18 0.282468 0.500000 0.839894
O O19 0.420397 0.000000 0.220260
#
# Coordination Sequence:
#
# PCOD9202709 Si02
#       7
#     8   8   8   8   8   8   8
#     4  10  20  38  63  88 113 150 194 231 273 334
#     4   9  17  33  55  80 109 146 193 238 275 327
#     4   9  18  31  53  83 111 145 192 239 281 328
#     4  11  21  36  58  86 115 149 191 240 291 340
#     4  11  23  37  57  88 118 148 183 232 292 340
#     4   9  19  34  56  85 116 147 187 235 281 335
#     4  11  22  38  59  83 113 152 195 238 282 337
#
# _framework density 23.086328000000002
#
# number of rings (size 3 to 8) (size 9 to 14) (size 15 to 20)
#    0.000    2.000    1.429    2.571    2.000    2.571 
#    0.000    0.714    0.000    6.857    0.000    0.000 
#    0.000    0.000    0.000    0.000    0.000    0.000 
#
# Total GULP energy -156489.178619 kJ/mol
# GULP energy per Si atom -5588.899236 kJ/mol
# Density = 2.303378 g / cm^3
# Si number density = 23.086328 Si / 1000 Ang^3
#
#
#
# Elastic Constant Matrix: (Units=GPa)
#
#
# Indices 1 2 3 4 5 6 
#
# 1 145.3954 1.1144 18.6079 -0.0004 18.9342 -0.0004
# 2 1.1144 68.9136 -7.9225 -0.0007 1.3197 -0.0021
# 3 18.6079 -7.9225 81.5192 -0.0001 14.8304 0.0003
# 4 -0.0004 -0.0007 -0.0001 16.5337 0.0002 1.1050
# 5 18.9342 1.3197 14.8304 0.0002 42.8500 -0.0001
# 6 -0.0004 -0.0021 0.0003 1.1050 -0.0001 2.5361
#
#
#
# Elastic Compliance Matrix: (Units=1/GPa)
#
#
# Indices 1 2 3 4 5 6 
#
# 1 0.007403 -0.000202 -0.001190 0.000000 -0.002853 0.000001
# 2 -0.000202 0.014721 0.001647 0.000000 -0.000934 0.000012
# 3 -0.001190 0.001647 0.013460 0.000000 -0.004183 -0.000001
# 4 0.000000 0.000000 0.000000 0.062297 0.000000 -0.027143
# 5 -0.002853 -0.000934 -0.004183 0.000000 0.026074 0.000000
# 6 0.000001 0.000012 -0.000001 -0.027143 0.000000 0.406137
#
#
# Mechanical properties :
#
#
# Convention : Reuss Voigt Hill
#
# Bulk Modulus (GPa) = 27.70613 35.49198 31.59906
# Shear Modulus (GPa) = 9.23165 31.31918 20.27542
#
# Velocity S-wave (km/s) = 2.00186 3.68722 2.96673
# Velocity P-wave (km/s) = 4.16778 5.79089 5.04504
#
# Compressibility (1/GPa) = 0.03609310
#
# Stress axis : x y z
#
# Youngs Moduli (GPa) = 135.07596 67.92835 74.29509
#
# Poissons Ratio (x) = 0.01372 0.08845
# Poissons Ratio (y) = 0.02728 -0.12234
# Poissons Ratio (z) = 0.16081 -0.11186
#
# Static dielectric constant tensor:
#      x y z
#    x 1.856760 0.000000 0.007550 
#    y 0.000000 1.982410 0.000000 
#    z 0.007550 0.000000 1.819850 
# 
# From -- ./inp_files/313755.got.cif
#   From: 2010.05.17/outbox.cif.g08.bks.cpg/sg12_157_cif.got.tgz:313755.got - 2010.06.03 13:09:07.
