data_PCOD9202677
_publ_section_title
;
Structure prediction by ZEFSAII (Michael W. Deem and Ramdas Pophale) SiO2 
 PCOD9202677
Probable space group: C 2/M
;
_chemical_formula_sum "Si O2"
_cell_formula_units_Z 56
_cell_length_a 9.948634
_cell_length_b 18.081368
_cell_length_c 28.804327
_cell_angle_alpha 90.000000
_cell_angle_beta 143.053218
_cell_angle_gamma 90.000000
_cell_volume 3114.437847
_symmetry_space_group_name_H-M "C 2/M"
_symmetry_group_IT_number 12
_symmetry_cell_setting 'monoclinic'
loop_
_space_group_symop_operation_xyz
x,y,z
-x,y,-z
-x,-y,-z
x,-y,z
1/2+x,1/2+y,z
1/2-x,1/2+y,-z
1/2-x,1/2-y,-z
1/2+x,1/2-y,z
loop_
_atom_site_type_symbol
_atom_site_label
_atom_site_fract_x
_atom_site_fract_y
_atom_site_fract_z
Si Si1 0.487971 0.318073 0.707351
Si Si2 0.513958 0.588270 0.857045
Si Si3 0.234573 0.912098 0.538880
Si Si4 0.336787 0.088566 0.863050
Si Si5 0.858086 0.090058 0.005407
Si Si6 0.265752 0.415174 0.566217
Si Si7 0.649896 0.825224 0.697628
O O1 0.685319 0.364833 0.786059
O O2 0.378424 0.367430 0.636909
O O3 0.575725 0.244213 0.707593
O O4 0.303040 0.302891 0.695912
O O5 0.483102 0.500000 0.850060
O O6 0.733520 0.601794 0.885856
O O7 0.305785 0.623565 0.772903
O O8 0.545075 0.615415 0.918267
O O9 0.198498 0.886717 0.476002
O O10 0.434717 0.868802 0.618816
O O11 0.000000 0.903378 0.500000
O O12 0.291552 0.000000 0.553023
O O13 0.596295 0.109331 0.930665
O O14 0.315404 0.000000 0.848268
O O15 0.866913 0.000000 0.008196
O O16 0.000000 0.115425 0.000000
O O17 0.347266 0.500000 0.591536
O O18 0.000000 0.415707 0.500000
#
# Coordination Sequence:
#
# PCOD9202677 Si02
#       7
#     8   8   8   8   8   8   8
#     4  11  24  38  56  83 114 151 189 229 279 330
#     4   9  18  35  60  83 107 145 187 228 274 326
#     4  10  22  40  61  86 112 143 186 234 282 330
#     4   9  18  35  59  83 109 143 188 230 269 328
#     4   9  17  31  54  87 117 139 173 227 284 329
#     4  10  20  38  63  85 109 143 188 234 277 328
#     4  11  24  39  56  81 116 151 188 230 276 334
#
# _framework density 17.980772999999999
#
# number of rings (size 3 to 8) (size 9 to 14) (size 15 to 20)
#    0.000    2.143    1.429    1.286    2.000    5.143 
#    0.000    0.714    0.000    0.000    0.000    0.000 
#    0.000    0.000    0.000    0.000    0.000    0.000 
#
# Total GULP energy -156268.920043 kJ/mol
# GULP energy per Si atom -5581.032859 kJ/mol
# Density = 1.793985 g / cm^3
# Si number density = 17.980773 Si / 1000 Ang^3
#
#
#
# Elastic Constant Matrix: (Units=GPa)
#
#
# Indices 1 2 3 4 5 6 
#
# 1 150.1588 56.4927 97.8301 -0.0001 -19.2237 0.0001
# 2 56.4927 46.6956 49.5161 0.0000 -5.4438 0.0001
# 3 97.8301 49.5161 128.2398 -0.0001 -13.5158 0.0017
# 4 -0.0001 0.0000 -0.0001 22.0964 -0.0001 -45.8717
# 5 -19.2237 -5.4438 -13.5158 -0.0001 27.7094 0.0005
# 6 0.0001 0.0001 0.0017 -45.8717 0.0005 82.4614
#
#
#
# Elastic Compliance Matrix: (Units=1/GPa)
#
#
# Indices 1 2 3 4 5 6 
#
# 1 0.016694 -0.011286 -0.007791 -0.000002 0.005564 -0.000001
# 2 -0.011286 0.043896 -0.008703 -0.000001 -0.003451 0.000000
# 3 -0.007791 -0.008703 0.017238 0.000004 0.001293 0.000002
# 4 -0.000002 -0.000001 0.000004 -0.292294 0.000003 -0.162598
# 5 0.005564 -0.003451 0.001293 0.000003 0.039902 0.000001
# 6 -0.000001 0.000000 0.000002 -0.162598 0.000001 -0.078323
#
#
# Mechanical properties :
#
#
# Convention : Reuss Voigt Hill
#
# Bulk Modulus (GPa) = 44.90859 81.41913 63.16386
# Shear Modulus (GPa) = -26.32889 34.53714 4.10412
#
# Velocity S-wave (km/s) = -3.83074 4.38743 1.51244
# Velocity P-wave (km/s) = 2.33752 8.42885 6.18504
#
# Compressibility (1/GPa) = 0.02226745
#
# Stress axis : x y z
#
# Youngs Moduli (GPa) = 59.90180 22.78133 58.01100
#
# Poissons Ratio (x) = 0.25711 0.45197
# Poissons Ratio (y) = 0.67606 0.50486
# Poissons Ratio (z) = 0.46670 0.19826
#
# Static dielectric constant tensor:
#      x y z
#    x 1.638440 0.000000 -0.007570 
#    y 0.000000 1.613020 0.000000 
#    z -0.007570 0.000000 1.581170 
# 
# From -- ./inp_files/257181.got.cif
#   From: 2010.05.17/outbox.cif.g08.bks.cpg/sg12_129_cif.got.tgz:257181.got - 2010.06.03 13:09:07.
