data_PCOD9202338
_publ_section_title
;
Structure prediction by ZEFSAII (Michael W. Deem and Ramdas Pophale) SiO2 
 PCOD9202338
Probable space group: C 2/M
;
_chemical_formula_sum "Si O2"
_cell_formula_units_Z 56
_cell_length_a 23.736245
_cell_length_b 8.387378
_cell_length_c 17.821450
_cell_angle_alpha 90.000000
_cell_angle_beta 54.560724
_cell_angle_gamma 90.000000
_cell_volume 2890.648256
_symmetry_space_group_name_H-M "C 2/M"
_symmetry_group_IT_number 12
_symmetry_cell_setting 'monoclinic'
loop_
_space_group_symop_operation_xyz
x,y,z
-x,y,-z
-x,-y,-z
x,-y,z
1/2+x,1/2+y,z
1/2-x,1/2+y,-z
1/2-x,1/2-y,-z
1/2+x,1/2-y,z
loop_
_atom_site_type_symbol
_atom_site_label
_atom_site_fract_x
_atom_site_fract_y
_atom_site_fract_z
Si Si1 0.279356 0.307456 0.679072
Si Si2 0.319881 0.308427 0.486491
Si Si3 0.882221 0.692270 0.180566
Si Si4 0.220477 0.189156 0.155233
Si Si5 0.625109 0.314302 0.976866
Si Si6 0.403640 0.187143 0.843773
Si Si7 0.554782 0.192812 0.711788
O O1 0.282792 0.500000 0.673905
O O2 0.316644 0.249228 0.575319
O O3 0.197951 0.265596 0.740177
O O4 0.305097 0.260211 0.741751
O O5 0.319166 0.500000 0.486819
O O6 0.250000 0.250000 0.500000
O O7 0.386749 0.250453 0.390104
O O8 0.885993 0.500000 0.171438
O O9 0.900431 0.764304 0.085930
O O10 0.925734 0.745513 0.218756
O O11 0.292467 0.278057 0.084928
O O12 0.162041 0.224225 0.139894
O O13 0.236098 0.000000 0.144774
O O14 0.612681 0.500000 0.999259
O O15 0.593328 0.214752 0.069397
O O16 0.476769 0.243624 0.753855
O O17 0.394917 0.000000 0.835452
O O18 0.555948 0.000000 0.711650
#
# Coordination Sequence:
#
# PCOD9202338 Si02
#       7
#     8   8   8   8   8   8   8
#     4   8  16  32  56  82 109 141 181 225 271 325
#     4  11  20  34  58  87 115 145 185 229 277 333
#     4   9  17  35  57  79 111 147 186 225 274 334
#     4  10  20  38  61  82 109 146 189 232 275 327
#     4  11  22  36  57  85 113 142 186 234 280 330
#     4  11  23  39  57  79 111 151 190 230 280 332
#     4  10  22  39  57  80 114 152 188 227 278 338
#
# _framework density 19.372817000000001
#
# number of rings (size 3 to 8) (size 9 to 14) (size 15 to 20)
#    0.000    2.000    1.429    3.857    0.000    2.286 
#    0.000    5.714    0.000    4.286    0.000    0.000 
#    0.000    0.000    0.000    0.000    0.000    0.000 
#
# Total GULP energy -156330.553678 kJ/mol
# GULP energy per Si atom -5583.234060 kJ/mol
# Density = 1.932872 g / cm^3
# Si number density = 19.372817 Si / 1000 Ang^3
#
#
#
# Elastic Constant Matrix: (Units=GPa)
#
#
# Indices 1 2 3 4 5 6 
#
# 1 15.4573 -0.0627 11.4173 0.0000 5.6873 0.0000
# 2 -0.0627 15.1736 -14.1904 -0.0001 -2.3914 0.0005
# 3 11.4173 -14.1904 85.0470 -0.0001 4.2113 0.0001
# 4 0.0000 -0.0001 -0.0001 28.9647 0.0000 3.5458
# 5 5.6873 -2.3914 4.2113 0.0000 24.3101 -0.0001
# 6 0.0000 0.0005 0.0001 3.5458 -0.0001 15.7283
#
#
#
# Elastic Compliance Matrix: (Units=1/GPa)
#
#
# Indices 1 2 3 4 5 6 
#
# 1 0.080294 -0.013931 -0.012210 0.000000 -0.018040 0.000001
# 2 -0.013931 0.081234 0.014996 0.000001 0.008652 -0.000003
# 3 -0.012210 0.014996 0.015821 0.000000 0.001591 -0.000001
# 4 0.000000 0.000001 0.000000 0.035505 0.000000 -0.008004
# 5 -0.018040 0.008652 0.001591 0.000000 0.045931 0.000000
# 6 0.000001 -0.000003 -0.000001 -0.008004 0.000000 0.065384
#
#
# Mechanical properties :
#
#
# Convention : Reuss Voigt Hill
#
# Bulk Modulus (GPa) = 6.44915 12.22292 9.33604
# Shear Modulus (GPa) = 12.55823 21.70154 17.12988
#
# Velocity S-wave (km/s) = 2.54882 3.35058 2.97681
# Velocity P-wave (km/s) = 3.46384 4.61427 4.07981
#
# Compressibility (1/GPa) = 0.15505920
#
# Stress axis : x y z
#
# Youngs Moduli (GPa) = 12.45416 12.31012 63.20821
#
# Poissons Ratio (x) = 0.17149 0.77179
# Poissons Ratio (y) = 0.17349 -0.94786
# Poissons Ratio (z) = 0.15207 -0.18460
#
# Static dielectric constant tensor:
#      x y z
#    x 1.670780 0.000000 0.015370 
#    y 0.000000 1.663130 0.000000 
#    z 0.015370 0.000000 1.686790 
# 
# From -- ./inp_files/288220.got.cif
#   From: 2010.05.17/outbox.cif.g08.bks.cpg/sg12_145_cif.got.tgz:288220.got - 2010.06.03 13:09:07.
