data_PCOD9202331
_publ_section_title
;
Structure prediction by ZEFSAII (Michael W. Deem and Ramdas Pophale) SiO2 
 PCOD9202331
Probable space group: C 2/M
;
_chemical_formula_sum "Si O2"
_cell_formula_units_Z 56
_cell_length_a 15.763234
_cell_length_b 8.286509
_cell_length_c 24.766902
_cell_angle_alpha 90.000000
_cell_angle_beta 117.232054
_cell_angle_gamma 90.000000
_cell_volume 2876.529165
_symmetry_space_group_name_H-M "C 2/M"
_symmetry_group_IT_number 12
_symmetry_cell_setting 'monoclinic'
loop_
_space_group_symop_operation_xyz
x,y,z
-x,y,-z
-x,-y,-z
x,-y,z
1/2+x,1/2+y,z
1/2-x,1/2+y,-z
1/2-x,1/2-y,-z
1/2+x,1/2-y,z
loop_
_atom_site_type_symbol
_atom_site_label
_atom_site_fract_x
_atom_site_fract_y
_atom_site_fract_z
Si Si1 0.006856 0.692181 0.376392
Si Si2 0.097871 0.697308 0.290290
Si Si3 0.684959 0.304772 0.635992
Si Si4 0.842975 0.192406 0.494765
Si Si5 0.229810 0.193486 0.933071
Si Si6 0.077589 0.696890 0.067559
Si Si7 0.483271 0.804881 0.151774
O O1 0.014922 0.500000 0.379308
O O2 0.055468 0.751825 0.335305
O O3 0.064582 0.756492 0.444813
O O4 0.897358 0.742284 0.349151
O O5 0.096711 0.500000 0.290407
O O6 0.208177 0.746363 0.317963
O O7 0.034573 0.751112 0.221371
O O8 0.682398 0.500000 0.635509
O O9 0.661794 0.247955 0.568187
O O10 0.750000 0.250000 0.500000
O O11 0.840474 0.000000 0.491673
O O12 0.317425 0.249814 0.920666
O O13 0.126372 0.253032 0.884589
O O14 0.230123 0.000000 0.932815
O O15 0.250000 0.250000 0.000000
O O16 0.078302 0.500000 0.068302
O O17 0.041261 0.750659 0.115559
O O18 0.000000 0.746023 0.000000
O O19 0.485320 0.000000 0.152067
#
# Coordination Sequence:
#
# PCOD9202331 Si02
#       7
#     8   8   8   8   8   8   8
#     4  11  22  38  58  86 118 151 192 239 287 344
#     4   9  20  39  59  79 112 155 191 227 282 345
#     4  10  21  39  59  83 114 151 195 239 284 342
#     4  11  21  36  60  87 115 149 191 242 295 343
#     4  11  21  35  57  86 115 143 182 232 282 335
#     4   9  17  32  55  82 108 140 181 221 268 332
#     4  10  20  38  61  81 109 152 191 228 280 337
#
# _framework density 19.467908000000001
#
# number of rings (size 3 to 8) (size 9 to 14) (size 15 to 20)
#    0.000    1.857    2.857    1.714    0.000    4.000 
#    0.000    5.714    0.000    0.000    0.000    0.000 
#    0.000    0.000    0.000    0.000    0.000    0.000 
#
# Total GULP energy -156402.138676 kJ/mol
# GULP energy per Si atom -5585.790667 kJ/mol
# Density = 1.942360 g / cm^3
# Si number density = 19.467908 Si / 1000 Ang^3
#
#
#
# Elastic Constant Matrix: (Units=GPa)
#
#
# Indices 1 2 3 4 5 6 
#
# 1 137.3122 9.0582 44.5955 0.0000 31.4564 0.0000
# 2 9.0582 16.9507 11.3130 0.0000 1.9589 0.0000
# 3 44.5955 11.3130 125.1084 0.0000 29.1712 0.0000
# 4 0.0000 0.0000 0.0000 18.2152 0.0000 8.4175
# 5 31.4564 1.9589 29.1712 0.0000 21.3523 0.0000
# 6 0.0000 0.0000 0.0000 8.4175 0.0000 30.7425
#
#
#
# Elastic Compliance Matrix: (Units=1/GPa)
#
#
# Indices 1 2 3 4 5 6 
#
# 1 0.011278 -0.004263 0.000217 0.000000 -0.016521 0.000000
# 2 -0.004263 0.064520 -0.006455 0.000000 0.009180 0.000000
# 3 0.000217 -0.006455 0.012379 0.000000 -0.016641 0.000000
# 4 0.000000 0.000000 0.000000 0.062852 0.000000 -0.017209
# 5 -0.016521 0.009180 -0.016641 0.000000 0.093064 0.000000
# 6 0.000000 0.000000 0.000000 -0.017209 0.000000 0.037240
#
#
# Mechanical properties :
#
#
# Convention : Reuss Voigt Hill
#
# Bulk Modulus (GPa) = 14.88623 45.47831 30.18227
# Shear Modulus (GPa) = 15.39762 28.35566 21.87664
#
# Velocity S-wave (km/s) = 2.81539 3.82060 3.35584
# Velocity P-wave (km/s) = 4.26986 6.54782 5.52746
#
# Compressibility (1/GPa) = 0.06717619
#
# Stress axis : x y z
#
# Youngs Moduli (GPa) = 88.66884 15.49912 80.78015
#
# Poissons Ratio (x) = 0.06607 -0.01757
# Poissons Ratio (y) = 0.37797 0.52145
# Poissons Ratio (z) = -0.01928 0.10005
#
# Static dielectric constant tensor:
#      x y z
#    x 1.671710 0.000000 -0.007840 
#    y 0.000000 1.688070 0.000000 
#    z -0.007840 0.000000 1.662480 
# 
# From -- ./inp_files/339103.got.cif
#   From: 2010.05.17/outbox.cif.g08.bks.cpg/sg12_170_cif.got.tgz:339103.got - 2010.06.03 13:09:07.
