data_PCOD9202867
_publ_section_title
;
Structure prediction by ZEFSAII (Michael W. Deem and Ramdas Pophale) SiO2 
 PCOD9202867
Probable space group: C 2/M
;
_chemical_formula_sum "Si O2"
_cell_formula_units_Z 64
_cell_length_a 17.518549
_cell_length_b 9.214714
_cell_length_c 29.545752
_cell_angle_alpha 90.000000
_cell_angle_beta 38.296471
_cell_angle_gamma 90.000000
_cell_volume 2955.820435
_symmetry_space_group_name_H-M "C 2/M"
_symmetry_group_IT_number 12
_symmetry_cell_setting 'monoclinic'
loop_
_space_group_symop_operation_xyz
x,y,z
-x,y,-z
-x,-y,-z
x,-y,z
1/2+x,1/2+y,z
1/2-x,1/2+y,-z
1/2-x,1/2-y,-z
1/2+x,1/2-y,z
loop_
_atom_site_type_symbol
_atom_site_label
_atom_site_fract_x
_atom_site_fract_y
_atom_site_fract_z
Si Si1 0.336215 0.163788 0.055588
Si Si2 0.028946 0.175848 0.718574
Si Si3 0.134528 0.324971 0.527464
Si Si4 0.110777 0.165268 0.349332
Si Si5 0.013716 0.162192 0.914269
Si Si6 0.211798 0.825777 0.403381
Si Si7 0.583490 0.325185 0.133923
Si Si8 0.770406 0.229829 0.798180
O O1 0.217576 0.230274 0.085124
O O2 0.291068 0.153984 0.128822
O O3 0.358471 0.000000 0.030547
O O4 0.451392 0.250643 0.983280
O O5 0.154253 0.257071 0.649449
O O6 0.007144 0.196739 0.782103
O O7 0.910316 0.247512 0.750060
O O8 0.030382 0.000000 0.708074
O O9 0.147102 0.500000 0.521918
O O10 0.250000 0.250000 0.500000
O O11 0.131128 0.258159 0.478178
O O12 0.002968 0.272374 0.608125
O O13 0.171128 0.199901 0.370162
O O14 0.207107 0.168619 0.262743
O O15 0.061940 0.000000 0.374838
O O16 0.967801 0.231921 0.888932
O O17 0.161455 0.155141 0.843444
O O18 0.965948 0.000000 0.940634
O O19 0.209385 0.000000 0.411972
O O20 0.595043 0.500000 0.124991
#
# Coordination Sequence:
#
# PCOD9202867 Si02
#       8
#     8   8   8   8   8   8   8   8
#     4  10  21  38  61  85 114 156 207 256 305 373
#     4  10  20  38  64  89 119 164 216 265 313 373
#     4  12  26  45  71 101 134 171 211 255 308 370
#     4  11  24  43  67  97 133 170 212 262 312 367
#     4  11  23  38  58  85 120 158 200 258 322 378
#     4  11  24  42  66  98 135 171 210 258 309 366
#     4   8  17  36  59  85 116 156 207 259 313 373
#     4  11  23  38  61  89 120 160 207 256 314 374
#
# _framework density 21.652194999999999
#
# number of rings (size 3 to 8) (size 9 to 14) (size 15 to 20)
#    0.000    1.500    0.000    6.000    0.000    6.500 
#    0.000    2.500    0.000    0.000    0.000    0.000 
#    0.000    0.000    0.000    0.000    0.000    0.000 
#
# Total GULP energy -178309.108172 kJ/mol
# GULP energy per Si atom -5572.159630 kJ/mol
# Density = 2.160291 g / cm^3
# Si number density = 21.652195 Si / 1000 Ang^3
#
#
#
# Elastic Constant Matrix: (Units=GPa)
#
#
# Indices 1 2 3 4 5 6 
#
# 1 99.3027 41.6723 48.0279 0.0000 18.4090 -0.0002
# 2 41.6723 87.0955 51.2023 0.0000 1.8204 0.0002
# 3 48.0279 51.2023 132.6069 0.0000 0.5525 0.0000
# 4 0.0000 0.0000 0.0000 18.2910 0.0000 1.7134
# 5 18.4090 1.8204 0.5525 0.0000 36.6375 0.0000
# 6 -0.0002 0.0002 0.0000 1.7134 0.0000 29.6526
#
#
#
# Elastic Compliance Matrix: (Units=1/GPa)
#
#
# Indices 1 2 3 4 5 6 
#
# 1 0.015280 -0.005073 -0.003545 0.000000 -0.007372 0.000000
# 2 -0.005073 0.016553 -0.004562 0.000000 0.001795 0.000000
# 3 -0.003545 -0.004562 0.010579 0.000000 0.001848 0.000000
# 4 0.000000 0.000000 0.000000 0.054969 0.000000 -0.003176
# 5 -0.007372 0.001795 0.001848 0.000000 0.030882 0.000000
# 6 0.000000 0.000000 0.000000 -0.003176 0.000000 0.033907
#
#
# Mechanical properties :
#
#
# Convention : Reuss Voigt Hill
#
# Bulk Modulus (GPa) = 62.29322 66.75667 64.52495
# Shear Modulus (GPa) = 25.78914 28.78973 27.28944
#
# Velocity S-wave (km/s) = 3.45492 3.65039 3.55400
# Velocity P-wave (km/s) = 6.68937 6.97606 6.83422
#
# Compressibility (1/GPa) = 0.01605311
#
# Stress axis : x y z
#
# Youngs Moduli (GPa) = 65.44403 60.41153 94.53103
#
# Poissons Ratio (x) = 0.30647 0.33508
# Poissons Ratio (y) = 0.33200 0.43121
# Poissons Ratio (z) = 0.23198 0.27557
#
# Static dielectric constant tensor:
#      x y z
#    x 1.868600 0.000000 0.009340 
#    y 0.000000 1.789110 0.000000 
#    z 0.009340 0.000000 1.811280 
# 
# From -- ./inp_files/378215.got.cif
#   From: 2010.05.17/outbox.cif.g08.bks.cpg/sg12_190_cif.got.tgz:378215.got - 2010.06.03 13:09:07.
