data_PCOD9202816
_publ_section_title
;
Structure prediction by ZEFSAII (Michael W. Deem and Ramdas Pophale) SiO2 
 PCOD9202816
Probable space group: C 2/M
;
_chemical_formula_sum "Si O2"
_cell_formula_units_Z 44
_cell_length_a 15.887075
_cell_length_b 15.887862
_cell_length_c 9.169264
_cell_angle_alpha 90.000000
_cell_angle_beta 77.474131
_cell_angle_gamma 90.000000
_cell_volume 2259.341490
_symmetry_space_group_name_H-M "C 2/M"
_symmetry_group_IT_number 12
_symmetry_cell_setting 'monoclinic'
loop_
_space_group_symop_operation_xyz
x,y,z
-x,y,-z
-x,-y,-z
x,-y,z
1/2+x,1/2+y,z
1/2-x,1/2+y,-z
1/2-x,1/2-y,-z
1/2+x,1/2-y,z
loop_
_atom_site_type_symbol
_atom_site_label
_atom_site_fract_x
_atom_site_fract_y
_atom_site_fract_z
Si Si1 0.951405 0.837626 0.362065
Si Si2 0.579672 0.000000 0.858141
Si Si3 0.990270 0.326986 0.175795
Si Si4 0.960178 0.000000 0.683248
Si Si5 0.741786 0.500000 0.272839
Si Si6 0.412536 0.099291 0.626714
Si Si7 0.254203 0.647994 0.495588
O O1 0.950923 0.753385 0.268331
O O2 0.853618 0.868383 0.415213
O O3 0.000000 0.821181 0.500000
O O4 0.004108 0.913096 0.267903
O O5 0.563863 0.087115 0.780206
O O6 0.678735 0.000000 0.871420
O O7 0.500000 0.000000 0.000000
O O8 0.078355 0.348163 0.227703
O O9 0.000000 0.314001 0.000000
O O10 0.857687 0.000000 0.732878
O O11 0.000000 0.000000 0.500000
O O12 0.754485 0.585609 0.362383
O O13 0.500000 0.117895 0.500000
O O14 0.324567 0.121705 0.578651
O O15 0.413139 0.000000 0.656557
O O16 0.250000 0.750000 0.500000
#
# Coordination Sequence:
#
# PCOD9202816 Si02
#       7
#     8   4   8   4   4   8   8
#     4  11  21  41  64  95 128 159 213 271 310 368
#     4  10  22  39  62  85 124 170 211 250 313 388
#     4  11  23  42  63  84 127 174 207 256 321 381
#     4  10  20  38  63  94 130 160 205 270 323 366
#     4  12  20  37  62  97 127 162 206 260 328 378
#     4  11  22  36  59  92 122 155 205 267 317 368
#     4  12  22  33  60  96 127 157 202 262 325 367
#
# _framework density 19.474702000000001
#
# number of rings (size 3 to 8) (size 9 to 14) (size 15 to 20)
#    0.000    0.909    5.455    4.909    0.000    0.000 
#    0.000    1.364    4.000    0.000    0.000    0.000 
#    0.000    0.000    0.000    0.000    0.000    0.000 
#
# Total GULP energy -122603.117544 kJ/mol
# GULP energy per Si atom -5572.868979 kJ/mol
# Density = 1.943038 g / cm^3
# Si number density = 19.474702 Si / 1000 Ang^3
#
#
#
# Elastic Constant Matrix: (Units=GPa)
#
#
# Indices 1 2 3 4 5 6 
#
# 1 181.8142 17.4403 46.6605 0.0000 -16.1957 0.0000
# 2 17.4403 124.8626 25.5212 0.0000 -13.6454 0.0000
# 3 46.6605 25.5212 67.3162 0.0000 1.6675 0.0000
# 4 0.0000 0.0000 0.0000 18.9921 0.0000 -15.1566
# 5 -16.1957 -13.6454 1.6675 0.0000 22.8138 0.0000
# 6 0.0000 0.0000 0.0000 -15.1566 0.0000 -33.7281
#
#
#
# Elastic Compliance Matrix: (Units=1/GPa)
#
#
# Indices 1 2 3 4 5 6 
#
# 1 0.007403 0.000775 -0.005577 0.000000 0.006127 0.000000
# 2 0.000775 0.009494 -0.004299 0.000000 0.006543 0.000000
# 3 -0.005577 -0.004299 0.020550 0.000000 -0.008033 0.000000
# 4 0.000000 0.000000 0.000000 0.038755 0.000000 -0.017416
# 5 0.006127 0.006543 -0.008033 0.000000 0.052683 0.000000
# 6 0.000000 0.000000 0.000000 -0.017416 0.000000 -0.021823
#
#
# Mechanical properties :
#
#
# Convention : Reuss Voigt Hill
#
# Bulk Modulus (GPa) = 51.95998 61.47079 56.71538
# Shear Modulus (GPa) = 37.97102 20.57361 29.27231
#
# Velocity S-wave (km/s) = 4.42040 3.25380 3.88118
# Velocity P-wave (km/s) = 7.26581 6.76382 7.01930
#
# Compressibility (1/GPa) = 0.01924558
#
# Stress axis : x y z
#
# Youngs Moduli (GPa) = 135.08446 105.32637 48.66203
#
# Poissons Ratio (x) = -0.08168 0.27139
# Poissons Ratio (y) = -0.10475 0.20920
# Poissons Ratio (z) = 0.75337 0.45281
#
# Static dielectric constant tensor:
#      x y z
#    x 1.749000 0.000000 -0.005370 
#    y 0.000000 1.688070 0.000000 
#    z -0.005370 0.000000 1.759230 
# 
# From -- ./inp_files/61118.got.cif
#   From: 2010.05.17/outbox.cif.g08.bks.cpg/sg12_31_cif.got.tgz:61118.got - 2010.06.03 13:09:07.
