data_PCOD9202630
_publ_section_title
;
Structure prediction by ZEFSAII (Michael W. Deem and Ramdas Pophale) SiO2 
 PCOD9202630
Probable space group: C 2/M
;
_chemical_formula_sum "Si O2"
_cell_formula_units_Z 38
_cell_length_a 14.389225
_cell_length_b 23.192845
_cell_length_c 5.274109
_cell_angle_alpha 90.000000
_cell_angle_beta 101.838947
_cell_angle_gamma 90.000000
_cell_volume 1722.672070
_symmetry_space_group_name_H-M "C 2/M"
_symmetry_group_IT_number 12
_symmetry_cell_setting 'monoclinic'
loop_
_space_group_symop_operation_xyz
x,y,z
-x,y,-z
-x,-y,-z
x,-y,z
1/2+x,1/2+y,z
1/2-x,1/2+y,-z
1/2-x,1/2-y,-z
1/2+x,1/2-y,z
loop_
_atom_site_type_symbol
_atom_site_label
_atom_site_fract_x
_atom_site_fract_y
_atom_site_fract_z
Si Si1 0.644093 0.684152 0.941815
Si Si2 0.656385 0.381592 0.452991
Si Si3 0.115325 0.385118 0.422025
Si Si4 0.500000 0.000000 0.500000
Si Si5 0.875252 0.314136 0.067580
Si Si6 0.561920 0.500000 0.284470
O O1 0.617188 0.639770 0.702765
O O2 0.599995 0.747225 0.880538
O O3 0.626778 0.663137 0.217378
O O4 0.759391 0.687141 0.986889
O O5 0.770104 0.388423 0.532075
O O6 0.622000 0.442567 0.335827
O O7 0.097626 0.352656 0.677044
O O8 0.066375 0.447861 0.406044
O O9 0.090388 0.344298 0.170742
O O10 0.500000 0.500000 0.500000
O O11 0.500000 0.500000 0.000000
#
# Coordination Sequence:
#
# PCOD9202630 Si02
#       6
#     8   8   8   2   8   4
#     4   9  17  33  64  90 116 147 198 249 304 360
#     4  10  20  38  62  91 115 159 200 248 303 368
#     4  10  22  37  61  87 123 159 208 242 294 354
#     4  12  26  42  60  86 132 178 204 248 290 358
#     4   9  18  35  59  92 115 150 198 255 297 348
#     4  12  25  40  60  83 124 155 196 252 305 366
#
# _framework density 22.058755000000001
#
# number of rings (size 3 to 8) (size 9 to 14) (size 15 to 20)
#    0.000    2.105    0.000    3.158    0.000    7.579 
#    0.000    6.316   23.158    0.000    0.000    0.000 
#    0.000    0.000    0.000    0.000    0.000    0.000 
#
# Total GULP energy -105954.051718 kJ/mol
# GULP energy per Si atom -5576.529038 kJ/mol
# Density = 2.200855 g / cm^3
# Si number density = 22.058755 Si / 1000 Ang^3
#
#
#
# Elastic Constant Matrix: (Units=GPa)
#
#
# Indices 1 2 3 4 5 6 
#
# 1 53.3333 25.9726 39.4794 0.0000 -7.3660 0.0000
# 2 25.9726 177.6050 53.9098 0.0000 11.5511 0.0000
# 3 39.4794 53.9098 136.9603 0.0000 -4.3213 0.0000
# 4 0.0000 0.0000 0.0000 -5.6139 0.0000 -31.8312
# 5 -7.3660 11.5511 -4.3213 0.0000 27.5652 0.0000
# 6 0.0000 0.0000 0.0000 -31.8312 0.0000 -12.7451
#
#
#
# Elastic Compliance Matrix: (Units=1/GPa)
#
#
# Indices 1 2 3 4 5 6 
#
# 1 0.025386 -0.002266 -0.006212 0.000000 0.006760 0.000000
# 2 -0.002266 0.006870 -0.002171 0.000000 -0.003825 0.000000
# 3 -0.006212 -0.002171 0.009972 0.000000 0.000813 0.000000
# 4 0.000000 0.000000 0.000000 0.013534 0.000000 -0.033803
# 5 0.006760 -0.003825 0.000813 0.000000 0.039814 0.000000
# 6 0.000000 0.000000 0.000000 -0.033803 0.000000 0.005962
#
#
# Mechanical properties :
#
#
# Convention : Reuss Voigt Hill
#
# Bulk Modulus (GPa) = 47.78288 67.40247 57.59267
# Shear Modulus (GPa) = 38.51653 18.41035 28.46344
#
# Velocity S-wave (km/s) = 4.18315 2.89209 3.59604
# Velocity P-wave (km/s) = 6.71121 6.46332 6.58843
#
# Compressibility (1/GPa) = 0.02092800
#
# Stress axis : x y z
#
# Youngs Moduli (GPa) = 39.39207 145.56523 100.27617
#
# Poissons Ratio (x) = 0.32990 0.62294
# Poissons Ratio (y) = 0.08928 0.21774
# Poissons Ratio (z) = 0.24471 0.31609
#
# Static dielectric constant tensor:
#      x y z
#    x 1.903790 0.000000 0.027400 
#    y 0.000000 1.321880 0.000000 
#    z 0.027400 0.000000 1.776190 
# 
# From -- ./inp_files/15928.got.cif
#   From: 2010.05.17/outbox.cif.g08.bks.cpg/sg12_8_cif.got.tgz:15928.got - 2010.06.03 13:09:07.
