data_PCOD9202866
_publ_section_title
;
Structure prediction by ZEFSAII (Michael W. Deem and Ramdas Pophale) SiO2 
 PCOD9202866
Probable space group: C 2/M
;
_chemical_formula_sum "Si O2"
_cell_formula_units_Z 48
_cell_length_a 14.816746
_cell_length_b 7.595584
_cell_length_c 17.307948
_cell_angle_alpha 90.000000
_cell_angle_beta 76.385882
_cell_angle_gamma 90.000000
_cell_volume 1893.139099
_symmetry_space_group_name_H-M "C 2/M"
_symmetry_group_IT_number 12
_symmetry_cell_setting 'monoclinic'
loop_
_space_group_symop_operation_xyz
x,y,z
-x,y,-z
-x,-y,-z
x,-y,z
1/2+x,1/2+y,z
1/2-x,1/2+y,-z
1/2-x,1/2-y,-z
1/2+x,1/2-y,z
loop_
_atom_site_type_symbol
_atom_site_label
_atom_site_fract_x
_atom_site_fract_y
_atom_site_fract_z
Si Si1 0.627774 0.299339 0.667780
Si Si2 0.046053 0.211857 0.907200
Si Si3 0.813789 0.203354 0.675887
Si Si4 0.067368 0.255745 0.212642
Si Si5 0.396648 0.713948 0.498361
Si Si6 0.255091 0.210779 0.908220
O O1 0.660198 0.500000 0.657249
O O2 0.703325 0.208118 0.706487
O O3 0.523967 0.305291 0.721573
O O4 0.627719 0.219360 0.581728
O O5 0.154733 0.252371 0.892850
O O6 0.990277 0.312886 0.852163
O O7 0.841136 0.188614 0.852431
O O8 0.000000 0.240772 0.000000
O O9 0.871957 0.315057 0.725043
O O10 0.833409 0.260119 0.583836
O O11 0.846777 0.000000 0.678359
O O12 0.962638 0.000000 0.109036
O O13 0.500000 0.768817 0.500000
O O14 0.396517 0.500000 0.492557
O O15 0.272427 0.000000 0.894097
O O16 0.250000 0.250000 0.000000
#
# Coordination Sequence:
#
# PCOD9202866 Si02
#       6
#     8   8   8   8   8   8
#     4  11  23  40  66  94 129 173 217 262 322 393
#     4  10  20  38  64  89 119 161 207 252 308 381
#     4  11  23  39  65  97 130 166 216 273 319 374
#     4  12  23  39  64  93 125 168 215 261 315 377
#     4   9  17  36  64  94 125 169 221 265 312 377
#     4  11  25  45  69  97 128 165 212 268 323 385
#
# _framework density 25.354714000000001
#
# number of rings (size 3 to 8) (size 9 to 14) (size 15 to 20)
#    0.000    1.333    3.333    3.000    0.000    4.000 
#    0.000    1.667    0.000    1.000    0.000    0.000 
#    0.000    0.000    0.000    0.000    0.000    0.000 
#
# Total GULP energy -133766.514992 kJ/mol
# GULP energy per Si atom -5573.604791 kJ/mol
# Density = 2.529701 g / cm^3
# Si number density = 25.354714 Si / 1000 Ang^3
#
#
#
# Elastic Constant Matrix: (Units=GPa)
#
#
# Indices 1 2 3 4 5 6 
#
# 1 248.6545 38.0006 76.8147 0.0000 12.0148 0.0000
# 2 38.0006 96.2417 30.3383 0.0000 5.1914 0.0000
# 3 76.8147 30.3383 195.1842 0.0000 12.4657 0.0000
# 4 0.0000 0.0000 0.0000 -98.9416 0.0000 -72.4589
# 5 12.0148 5.1914 12.4657 0.0000 60.0649 0.0000
# 6 0.0000 0.0000 0.0000 -72.4589 0.0000 -89.2651
#
#
#
# Elastic Compliance Matrix: (Units=1/GPa)
#
#
# Indices 1 2 3 4 5 6 
#
# 1 0.004754 -0.001336 -0.001631 0.000000 -0.000497 0.000000
# 2 -0.001336 0.011323 -0.001205 0.000000 -0.000461 0.000000
# 3 -0.001631 -0.001205 0.006005 0.000000 -0.000816 0.000000
# 4 0.000000 0.000000 0.000000 -0.024922 0.000000 0.020230
# 5 -0.000497 -0.000461 -0.000816 0.000000 0.016957 0.000000
# 6 0.000000 0.000000 0.000000 0.020230 0.000000 -0.027624
#
#
# Mechanical properties :
#
#
# Convention : Reuss Voigt Hill
#
# Bulk Modulus (GPa) = 72.79608 92.26529 82.53068
# Shear Modulus (GPa) = -8554.74243 0.70010 -4277.02117
#
# Velocity S-wave (km/s) = -58.14937 0.52604 -41.11613
# Velocity P-wave (km/s) = 66.93050 6.06941 47.13202
#
# Compressibility (1/GPa) = 0.01373700
#
# Stress axis : x y z
#
# Youngs Moduli (GPa) = 210.35737 88.31869 166.53378
#
# Poissons Ratio (x) = 0.11799 0.27170
# Poissons Ratio (y) = 0.28102 0.20062
# Poissons Ratio (z) = 0.34319 0.10640
#
# Static dielectric constant tensor:
#      x y z
#    x 1.924980 0.000000 0.001450 
#    y 0.000000 2.080160 0.000000 
#    z 0.001450 0.000000 1.971420 
# 
# From -- ./inp_files/261663.got.cif
#   From: 2010.05.17/outbox.cif.g08.bks.cpg/sg12_131_cif.got.tgz:261663.got - 2010.06.03 13:09:07.
