data_PCOD9202422
_publ_section_title
;
Structure prediction by ZEFSAII (Michael W. Deem and Ramdas Pophale) SiO2 
 PCOD9202422
Probable space group: C 2/M
;
_chemical_formula_sum "Si O2"
_cell_formula_units_Z 56
_cell_length_a 15.328326
_cell_length_b 17.243773
_cell_length_c 11.776284
_cell_angle_alpha 90.000000
_cell_angle_beta 114.330628
_cell_angle_gamma 90.000000
_cell_volume 2836.226983
_symmetry_space_group_name_H-M "C 2/M"
_symmetry_group_IT_number 12
_symmetry_cell_setting 'monoclinic'
loop_
_space_group_symop_operation_xyz
x,y,z
-x,y,-z
-x,-y,-z
x,-y,z
1/2+x,1/2+y,z
1/2-x,1/2+y,-z
1/2-x,1/2-y,-z
1/2+x,1/2-y,z
loop_
_atom_site_type_symbol
_atom_site_label
_atom_site_fract_x
_atom_site_fract_y
_atom_site_fract_z
Si Si1 0.721461 0.362286 0.706635
Si Si2 0.886660 0.293694 0.422186
Si Si3 0.626796 0.086526 0.388291
Si Si4 0.518026 0.413912 0.638539
Si Si5 0.593666 0.089973 0.774044
Si Si6 0.953286 0.094001 0.097240
Si Si7 0.258715 0.840261 0.976537
O O1 0.675616 0.283027 0.631530
O O2 0.789597 0.405039 0.656836
O O3 0.632459 0.414423 0.697234
O O4 0.775340 0.344439 0.851429
O O5 0.857562 0.345266 0.513657
O O6 0.878326 0.350746 0.310455
O O7 0.000000 0.277653 0.500000
O O8 0.521425 0.096222 0.276887
O O9 0.627399 0.000000 0.441249
O O10 0.500000 0.383399 0.500000
O O11 0.474428 0.500000 0.615777
O O12 0.498235 0.378350 0.754773
O O13 0.614698 0.000000 0.757824
O O14 0.655405 0.117072 0.913572
O O15 0.843427 0.122103 0.043079
O O16 0.956303 0.000000 0.103833
O O17 0.000000 0.116919 0.000000
O O18 0.250000 0.750000 0.000000
#
# Coordination Sequence:
#
# PCOD9202422 Si02
#       7
#     8   8   8   8   8   8   8
#     4  11  21  37  59  87 124 156 195 245 307 356
#     4  10  20  38  61  87 119 159 201 248 301 355
#     4  10  22  39  61  90 122 157 203 249 295 356
#     4   9  18  34  56  83 119 161 199 241 298 361
#     4  10  21  40  63  85 116 160 204 246 293 352
#     4   9  19  38  61  86 115 153 199 246 294 351
#     4  11  22  40  58  87 120 156 196 241 301 357
#
# _framework density 19.744540000000001
#
# number of rings (size 3 to 8) (size 9 to 14) (size 15 to 20)
#    0.000    2.000    1.429    2.143    0.000    4.000 
#    5.143    1.429    0.000    0.000    0.000    0.000 
#    0.000    0.000    0.000    0.000    0.000    0.000 
#
# Total GULP energy -155952.205607 kJ/mol
# GULP energy per Si atom -5569.721629 kJ/mol
# Density = 1.969960 g / cm^3
# Si number density = 19.744540 Si / 1000 Ang^3
#
#
#
# Elastic Constant Matrix: (Units=GPa)
#
#
# Indices 1 2 3 4 5 6 
#
# 1 62.9166 11.8662 23.3553 0.0000 -19.1286 0.0000
# 2 11.8662 93.2967 32.0238 0.0000 3.8928 0.0000
# 3 23.3553 32.0238 138.3358 0.0000 -11.1546 0.0000
# 4 0.0000 0.0000 0.0000 50.0664 0.0000 -0.6077
# 5 -19.1286 3.8928 -11.1546 0.0000 26.2145 0.0000
# 6 0.0000 0.0000 0.0000 -0.6077 0.0000 21.3159
#
#
#
# Elastic Compliance Matrix: (Units=1/GPa)
#
#
# Indices 1 2 3 4 5 6 
#
# 1 0.021823 -0.002817 -0.001776 0.000000 0.015587 0.000000
# 2 -0.002817 0.012236 -0.002764 0.000000 -0.005048 0.000000
# 3 -0.001776 -0.002764 0.008385 0.000000 0.002683 0.000000
# 4 0.000000 0.000000 0.000000 0.019980 0.000000 0.000570
# 5 0.015587 -0.005048 0.002683 0.000000 0.051412 0.000000
# 6 0.000000 0.000000 0.000000 0.000570 0.000000 0.046930
#
#
# Mechanical properties :
#
#
# Convention : Reuss Voigt Hill
#
# Bulk Modulus (GPa) = 36.05988 47.67110 41.86549
# Shear Modulus (GPa) = 27.06764 34.67295 30.87030
#
# Velocity S-wave (km/s) = 3.70657 4.19510 3.95838
# Velocity P-wave (km/s) = 6.05154 6.90373 6.49164
#
# Compressibility (1/GPa) = 0.02773165
#
# Stress axis : x y z
#
# Youngs Moduli (GPa) = 45.82256 81.72505 119.26405
#
# Poissons Ratio (x) = 0.23018 0.21176
# Poissons Ratio (y) = 0.12906 0.32966
# Poissons Ratio (z) = 0.08136 0.22590
#
# Static dielectric constant tensor:
#      x y z
#    x 1.644870 0.000000 0.012520 
#    y 0.000000 1.699900 0.000000 
#    z 0.012520 0.000000 1.714460 
# 
# From -- ./inp_files/146061.got.cif
#   From: 2010.05.17/outbox.cif.g08.bks.cpg/sg12_74_cif.got.tgz:146061.got - 2010.06.03 13:09:07.
