data_PCOD9202327
_publ_section_title
;
Structure prediction by ZEFSAII (Michael W. Deem and Ramdas Pophale) SiO2 
 PCOD9202327
Probable space group: C 2/M
;
_chemical_formula_sum "Si O2"
_cell_formula_units_Z 48
_cell_length_a 15.880802
_cell_length_b 12.468173
_cell_length_c 15.267018
_cell_angle_alpha 90.000000
_cell_angle_beta 51.257355
_cell_angle_gamma 90.000000
_cell_volume 2357.786550
_symmetry_space_group_name_H-M "C 2/M"
_symmetry_group_IT_number 12
_symmetry_cell_setting 'monoclinic'
loop_
_space_group_symop_operation_xyz
x,y,z
-x,y,-z
-x,-y,-z
x,-y,z
1/2+x,1/2+y,z
1/2-x,1/2+y,-z
1/2-x,1/2-y,-z
1/2+x,1/2-y,z
loop_
_atom_site_type_symbol
_atom_site_label
_atom_site_fract_x
_atom_site_fract_y
_atom_site_fract_z
Si Si1 0.687492 0.739924 0.411598
Si Si2 0.552147 0.755728 0.172369
Si Si3 0.656131 0.621318 0.260044
Si Si4 0.879248 0.309168 0.053352
Si Si5 0.633487 0.373152 0.805017
Si Si6 0.122128 0.624532 0.609731
O O1 0.633549 0.673576 0.368911
O O2 0.763875 0.829485 0.316167
O O3 0.768204 0.661466 0.412520
O O4 0.613777 0.800437 0.529591
O O5 0.611266 0.695209 0.211907
O O6 0.471047 0.671596 0.178171
O O7 0.476322 0.847455 0.262289
O O8 0.626710 0.802974 0.047252
O O9 0.615764 0.500000 0.280717
O O10 0.785791 0.623968 0.160713
O O11 0.866433 0.190064 0.103107
O O12 0.000000 0.346272 0.000000
O O13 0.633035 0.500000 0.813937
O O14 0.126043 0.500000 0.585068
#
# Coordination Sequence:
#
# PCOD9202327 Si02
#       6
#     8   8   8   8   8   8
#     4   9  20  36  56  85 108 134 186 228 259 319
#     4  10  21  35  52  83 115 140 180 220 262 326
#     4  11  22  37  56  78 111 145 173 220 280 324
#     4   9  20  36  55  81 109 139 184 228 257 315
#     4   9  17  33  57  80 108 146 183 221 261 304
#     4  10  20  38  61  79 106 144 180 225 271 313
#
# _framework density 20.358076000000001
#
# number of rings (size 3 to 8) (size 9 to 14) (size 15 to 20)
#    0.000    2.333    0.000    3.000    0.000    5.333 
#    0.000    8.333    0.000    0.000    0.000    0.000 
#    0.000    0.000    0.000    0.000    0.000    0.000 
#
# Total GULP energy -134050.729899 kJ/mol
# GULP energy per Si atom -5585.447079 kJ/mol
# Density = 2.031174 g / cm^3
# Si number density = 20.358076 Si / 1000 Ang^3
#
#
#
# Elastic Constant Matrix: (Units=GPa)
#
#
# Indices 1 2 3 4 5 6 
#
# 1 42.7884 12.5598 12.9459 0.0000 21.2384 0.0000
# 2 12.5598 82.5441 13.4806 0.0000 7.7970 0.0000
# 3 12.9459 13.4806 97.8062 0.0000 24.6250 0.0000
# 4 0.0000 0.0000 0.0000 7.8438 0.0000 3.1553
# 5 21.2384 7.7970 24.6250 0.0000 35.0710 0.0000
# 6 0.0000 0.0000 0.0000 3.1553 0.0000 9.5409
#
#
#
# Elastic Compliance Matrix: (Units=1/GPa)
#
#
# Indices 1 2 3 4 5 6 
#
# 1 0.034397 -0.003454 0.001184 0.000000 -0.020894 0.000000
# 2 -0.003454 0.012844 -0.001362 0.000000 0.000192 0.000000
# 3 0.001184 -0.001362 0.012584 0.000000 -0.009250 0.000000
# 4 0.000000 0.000000 0.000000 0.147053 0.000000 -0.048632
# 5 -0.020894 0.000192 -0.009250 0.000000 0.047619 0.000000
# 6 0.000000 0.000000 0.000000 -0.048632 0.000000 0.120896
#
#
# Mechanical properties :
#
#
# Convention : Reuss Voigt Hill
#
# Bulk Modulus (GPa) = 19.02485 33.45681 26.24083
# Shear Modulus (GPa) = 12.49447 22.76795 17.63121
#
# Velocity S-wave (km/s) = 2.48006 3.34784 2.94607
# Velocity P-wave (km/s) = 4.19122 5.60481 4.94875
#
# Compressibility (1/GPa) = 0.05256283
#
# Stress axis : x y z
#
# Youngs Moduli (GPa) = 29.07211 77.85458 79.46470
#
# Poissons Ratio (x) = 0.26887 -0.09405
# Poissons Ratio (y) = 0.10040 0.10819
# Poissons Ratio (z) = -0.03441 0.10600
#
# Static dielectric constant tensor:
#      x y z
#    x 1.747220 0.000000 -0.009990 
#    y 0.000000 1.666840 0.000000 
#    z -0.009990 0.000000 1.735220 
# 
# From -- ./inp_files/213241.got.cif
#   From: 2010.05.17/outbox.cif.g08.bks.cpg/sg12_107_cif.got.tgz:213241.got - 2010.06.03 13:09:07.
