data_PCOD9202088
_publ_section_title
;
Structure prediction by ZEFSAII (Michael W. Deem and Ramdas Pophale) SiO2 
 PCOD9202088
Probable space group: C 2/M
;
_chemical_formula_sum "Si O2"
_cell_formula_units_Z 56
_cell_length_a 9.640473
_cell_length_b 23.575696
_cell_length_c 15.403980
_cell_angle_alpha 90.000000
_cell_angle_beta 123.208216
_cell_angle_gamma 90.000000
_cell_volume 2929.261899
_symmetry_space_group_name_H-M "C 2/M"
_symmetry_group_IT_number 12
_symmetry_cell_setting 'monoclinic'
loop_
_space_group_symop_operation_xyz
x,y,z
-x,y,-z
-x,-y,-z
x,-y,z
1/2+x,1/2+y,z
1/2-x,1/2+y,-z
1/2-x,1/2-y,-z
1/2+x,1/2-y,z
loop_
_atom_site_type_symbol
_atom_site_label
_atom_site_fract_x
_atom_site_fract_y
_atom_site_fract_z
Si Si1 0.952636 0.353970 0.775692
Si Si2 0.951330 0.253053 0.073320
Si Si3 0.182817 0.698203 0.586616
Si Si4 0.704278 0.651693 0.194231
Si Si5 0.332159 0.065297 0.888497
Si Si6 0.037637 0.067425 0.912254
Si Si7 0.182106 0.831830 0.543051
O O1 0.870260 0.394463 0.819806
O O2 0.834117 0.356994 0.650713
O O3 0.976031 0.290852 0.823948
O O4 0.145000 0.365261 0.817421
O O5 0.056908 0.194242 0.111422
O O6 0.750000 0.250000 0.000000
O O7 0.000000 0.282863 0.000000
O O8 0.220434 0.682818 0.697313
O O9 0.186643 0.765750 0.574032
O O10 0.297855 0.669760 0.553672
O O11 0.000000 0.678587 0.500000
O O12 0.616332 0.593761 0.190985
O O13 0.197071 0.087361 0.912255
O O14 0.288438 0.000000 0.847071
O O15 0.500000 0.062046 0.000000
O O16 0.045872 0.000000 0.915855
O O17 0.000000 0.084454 0.000000
O O18 0.000000 0.855628 0.500000
#
# Coordination Sequence:
#
# PCOD9202088 Si02
#       7
#     8   8   8   8   8   8   8
#     4  12  24  39  61  91 123 167 205 249 311 367
#     4  12  26  38  54  89 133 164 198 244 305 370
#     4  10  20  38  58  84 120 159 205 256 298 364
#     4  12  24  38  62  88 125 166 206 250 307 368
#     4  10  23  42  64  90 121 160 208 256 304 366
#     4  10  23  42  65  91 120 159 208 256 305 365
#     4  10  22  36  60  87 120 159 207 253 305 360
#
# _framework density 19.117445
#
# number of rings (size 3 to 8) (size 9 to 14) (size 15 to 20)
#    0.000    1.143    4.286    1.714    6.000    1.714 
#    0.000    0.000    0.000    1.714    0.000    0.000 
#    0.000    0.000    0.000    0.000    0.000    0.000 
#
# Total GULP energy -155992.607069 kJ/mol
# GULP energy per Si atom -5571.164538 kJ/mol
# Density = 1.907393 g / cm^3
# Si number density = 19.117445 Si / 1000 Ang^3
#
#
#
# Elastic Constant Matrix: (Units=GPa)
#
#
# Indices 1 2 3 4 5 6 
#
# 1 160.4721 34.5661 16.0653 0.0000 8.8093 0.0000
# 2 34.5661 26.5997 13.7851 0.0000 -4.8414 0.0000
# 3 16.0653 13.7851 58.0110 0.0000 9.6549 0.0000
# 4 0.0000 0.0000 0.0000 13.7840 0.0000 -2.6873
# 5 8.8093 -4.8414 9.6549 0.0000 30.3841 0.0000
# 6 0.0000 0.0000 0.0000 -2.6873 0.0000 24.0938
#
#
#
# Elastic Compliance Matrix: (Units=1/GPa)
#
#
# Indices 1 2 3 4 5 6 
#
# 1 0.009398 -0.014070 0.001655 0.000000 -0.005493 0.000000
# 2 -0.014070 0.067459 -0.015417 0.000000 0.019727 0.000000
# 3 0.001655 -0.015417 0.022101 0.000000 -0.009959 0.000000
# 4 0.000000 0.000000 0.000000 0.074160 0.000000 0.008271
# 5 -0.005493 0.019727 -0.009959 0.000000 0.040812 0.000000
# 6 0.000000 0.000000 0.000000 0.008271 0.000000 0.042427
#
#
# Mechanical properties :
#
#
# Convention : Reuss Voigt Hill
#
# Bulk Modulus (GPa) = 23.09815 41.54621 32.32218
# Shear Modulus (GPa) = 15.31610 25.69679 20.50645
#
# Velocity S-wave (km/s) = 2.83354 3.67025 3.27870
# Velocity P-wave (km/s) = 4.77638 6.30399 5.59258
#
# Compressibility (1/GPa) = 0.04329351
#
# Stress axis : x y z
#
# Youngs Moduli (GPa) = 106.40276 14.82380 45.24713
#
# Poissons Ratio (x) = 0.20858 -0.07488
# Poissons Ratio (y) = 1.49713 0.69757
# Poissons Ratio (z) = -0.17610 0.22854
#
# Static dielectric constant tensor:
#      x y z
#    x 1.752820 0.000000 -0.029260 
#    y 0.000000 1.706860 0.000000 
#    z -0.029260 0.000000 1.713430 
# 
# From -- ./inp_files/198771.got.cif
#   From: 2010.05.17/outbox.cif.g08.bks.cpg/sg12_100_cif.got.tgz:198771.got - 2010.06.03 13:09:07.
