data_PCOD9202496
_publ_section_title
;
Structure prediction by ZEFSAII (Michael W. Deem and Ramdas Pophale) SiO2 
 PCOD9202496
Probable space group: C 2/M
;
_chemical_formula_sum "Si O2"
_cell_formula_units_Z 48
_cell_length_a 20.488759
_cell_length_b 23.370635
_cell_length_c 14.781738
_cell_angle_alpha 90.000000
_cell_angle_beta 18.718305
_cell_angle_gamma 90.000000
_cell_volume 2271.446355
_symmetry_space_group_name_H-M "C 2/M"
_symmetry_group_IT_number 12
_symmetry_cell_setting 'monoclinic'
loop_
_space_group_symop_operation_xyz
x,y,z
-x,y,-z
-x,-y,-z
x,-y,z
1/2+x,1/2+y,z
1/2-x,1/2+y,-z
1/2-x,1/2-y,-z
1/2+x,1/2-y,z
loop_
_atom_site_type_symbol
_atom_site_label
_atom_site_fract_x
_atom_site_fract_y
_atom_site_fract_z
Si Si1 0.998425 0.729295 0.754202
Si Si2 0.041326 0.433240 0.304186
Si Si3 0.424939 0.322893 0.200354
Si Si4 0.328657 0.431615 0.101679
Si Si5 0.422416 0.436916 0.704386
Si Si6 0.047397 0.814285 0.332359
O O1 0.185604 0.688172 0.528980
O O2 0.969767 0.776574 0.870534
O O3 0.057984 0.765902 0.587743
O O4 0.789329 0.697150 0.006475
O O5 0.993067 0.500000 0.372105
O O6 0.198115 0.423127 0.181271
O O7 0.823900 0.408566 0.618246
O O8 0.178947 0.427071 0.034632
O O9 0.500000 0.311128 0.000000
O O10 0.486534 0.387944 0.142309
O O11 0.377484 0.500000 0.045808
O O12 0.500000 0.439492 0.500000
O O13 0.464889 0.500000 0.689894
O O14 0.511140 0.377687 0.625318
O O15 0.000000 0.810555 0.500000
#
# Coordination Sequence:
#
# PCOD9202496 Si02
#       6
#     8   8   8   8   8   8
#     4  10  23  40  56  80 114 150 199 235 286 337
#     4   8  15  30  52  83 118 148 188 235 281 342
#     4  11  23  38  55  81 116 158 189 234 284 350
#     4   9  18  33  55  84 116 152 189 236 295 348
#     4   9  17  29  51  84 114 139 176 234 294 336
#     4  10  20  38  62  84 107 146 194 247 284 341
#
# _framework density 21.131910999999999
#
# number of rings (size 3 to 8) (size 9 to 14) (size 15 to 20)
#    0.000    2.500    0.000    3.000    2.333    0.333 
#    6.000    0.833    0.000    0.000    0.000    0.000 
#    0.000   25.333    0.000    0.000    0.000    0.000 
#
# Total GULP energy -133672.988291 kJ/mol
# GULP energy per Si atom -5569.707845 kJ/mol
# Density = 2.108381 g / cm^3
# Si number density = 21.131911 Si / 1000 Ang^3
#
#
#
# Elastic Constant Matrix: (Units=GPa)
#
#
# Indices 1 2 3 4 5 6 
#
# 1 42.7825 34.4642 13.9597 0.0383 14.0427 0.0139
# 2 34.4642 144.5643 44.7296 0.0695 -6.7916 0.0065
# 3 13.9597 44.7296 81.6106 0.1605 10.7902 -0.0845
# 4 0.0383 0.0695 0.1605 10.1233 -0.0970 -14.2513
# 5 14.0427 -6.7916 10.7902 -0.0970 35.6023 0.0301
# 6 0.0139 0.0065 -0.0845 -14.2513 0.0301 -1.6365
#
#
#
# Elastic Compliance Matrix: (Units=1/GPa)
#
#
# Indices 1 2 3 4 5 6 
#
# 1 0.036336 -0.009877 0.001398 -0.000030 -0.016640 0.000157
# 2 -0.009877 0.011356 -0.005559 0.000051 0.007747 -0.000051
# 3 0.001398 -0.005559 0.015912 -0.000122 -0.006435 0.000113
# 4 -0.000030 0.000051 -0.000122 0.007451 0.000134 -0.064878
# 5 -0.016640 0.007747 -0.006435 0.000134 0.038080 -0.000244
# 6 0.000157 -0.000051 0.000113 -0.064878 -0.000244 -0.046083
#
#
# Mechanical properties :
#
#
# Convention : Reuss Voigt Hill
#
# Bulk Modulus (GPa) = 28.14596 50.58494 39.36545
# Shear Modulus (GPa) = 48.55718 20.53807 34.54762
#
# Velocity S-wave (km/s) = 4.79875 3.12091 4.04772
# Velocity P-wave (km/s) = 6.63718 6.08083 6.36508
#
# Compressibility (1/GPa) = 0.03552907
#
# Stress axis : x y z
#
# Youngs Moduli (GPa) = 27.52068 88.05939 62.84535
#
# Poissons Ratio (x) = 0.86977 -0.08788
# Poissons Ratio (y) = 0.27182 0.34936
# Poissons Ratio (z) = -0.03848 0.48952
#
# Static dielectric constant tensor:
#      x y z
#    x 1.801640 -0.000040 0.022220 
#    y -0.000040 1.820690 0.000060 
#    z 0.022220 0.000060 1.790520 
# 
# From -- ./inp_files/235522.got.cif
#   From: 2010.05.17/outbox.cif.g08.bks.cpg/sg12_118_cif.got.tgz:235522.got - 2010.06.03 13:09:07.
