data_PCOD9202423
_publ_section_title
;
Structure prediction by ZEFSAII (Michael W. Deem and Ramdas Pophale) SiO2 
 PCOD9202423
Probable space group: C 2/M
;
_chemical_formula_sum "Si O2"
_cell_formula_units_Z 50
_cell_length_a 15.785840
_cell_length_b 14.207554
_cell_length_c 26.116216
_cell_angle_alpha 90.000000
_cell_angle_beta 158.185270
_cell_angle_gamma 90.000000
_cell_volume 2176.609874
_symmetry_space_group_name_H-M "C 2/M"
_symmetry_group_IT_number 12
_symmetry_cell_setting 'monoclinic'
loop_
_space_group_symop_operation_xyz
x,y,z
-x,y,-z
-x,-y,-z
x,-y,z
1/2+x,1/2+y,z
1/2-x,1/2+y,-z
1/2-x,1/2-y,-z
1/2+x,1/2-y,z
loop_
_atom_site_type_symbol
_atom_site_label
_atom_site_fract_x
_atom_site_fract_y
_atom_site_fract_z
Si Si1 0.166519 0.642639 0.749512
Si Si2 0.183724 0.101376 0.512810
Si Si3 0.052447 0.788931 0.830216
Si Si4 0.000000 0.500000 0.000000
Si Si5 0.560703 0.214722 0.586691
Si Si6 0.333676 0.394369 0.003336
Si Si7 0.886743 0.145999 0.247184
O O1 0.059416 0.644246 0.632662
O O2 0.417787 0.601940 0.884282
O O3 0.190452 0.751546 0.777461
O O4 0.958862 0.603195 0.666159
O O5 0.096260 0.194485 0.492307
O O6 0.068992 0.111912 0.391823
O O7 0.109013 0.000000 0.491868
O O8 0.146294 0.862939 0.925308
O O9 0.016789 0.840211 0.756120
O O10 0.820468 0.752278 0.725679
O O11 0.205755 0.696255 0.908411
O O12 0.831235 0.580597 0.880541
O O13 0.500000 0.165991 0.500000
O O14 0.234228 0.500000 0.943743
#
# Coordination Sequence:
#
# PCOD9202423 Si02
#       7
#     8   8   8   2   8   8   8
#     4  10  21  40  64  86 126 165 206 262 316 385
#     4  11  22  38  62  96 125 162 211 265 317 382
#     4  10  22  40  62  89 127 166 208 266 325 384
#     4  12  24  36  64  96 126 160 216 280 312 386
#     4  10  20  38  61  87 119 168 203 248 315 381
#     4  10  22  40  60  89 121 167 212 258 322 384
#     4  11  22  41  60  92 123 164 212 264 325 372
#
# _framework density 22.971502999999998
#
# number of rings (size 3 to 8) (size 9 to 14) (size 15 to 20)
#    0.000    1.600    0.800    5.280    1.120    2.240 
#    0.000    4.000    0.000    5.280    0.000    0.000 
#    0.000    0.000    0.000    0.000    0.000    0.000 
#
# Total GULP energy -139333.779835 kJ/mol
# GULP energy per Si atom -5573.351193 kJ/mol
# Density = 2.291922 g / cm^3
# Si number density = 22.971503 Si / 1000 Ang^3
#
#
#
# Elastic Constant Matrix: (Units=GPa)
#
#
# Indices 1 2 3 4 5 6 
#
# 1 44.8139 -20.8319 -1.9205 -0.0001 -12.9786 0.0013
# 2 -20.8319 87.7363 12.6723 0.0065 6.3369 -0.0008
# 3 -1.9205 12.6723 57.0468 0.0236 8.3555 -0.0040
# 4 -0.0001 0.0065 0.0236 26.5550 -0.0014 -0.5572
# 5 -12.9786 6.3369 8.3555 -0.0014 32.3758 -0.0022
# 6 0.0013 -0.0008 -0.0040 -0.5572 -0.0022 -2.8452
#
#
#
# Elastic Compliance Matrix: (Units=1/GPa)
#
#
# Indices 1 2 3 4 5 6 
#
# 1 0.028186 0.006214 -0.001983 0.000001 0.010595 0.000006
# 2 0.006214 0.013235 -0.002823 -0.000001 0.000629 0.000003
# 3 -0.001983 -0.002823 0.018837 -0.000017 -0.005104 -0.000019
# 4 0.000001 -0.000001 -0.000017 0.037504 0.000006 -0.007345
# 5 0.010595 0.000629 -0.005104 0.000006 0.036329 -0.000017
# 6 0.000006 0.000003 -0.000019 -0.007345 -0.000017 -0.350032
#
#
# Mechanical properties :
#
#
# Convention : Reuss Voigt Hill
#
# Bulk Modulus (GPa) = 15.85434 18.82632 17.34033
# Shear Modulus (GPa) = -25.28694 24.52894 -0.37900
#
# Velocity S-wave (km/s) = -3.32142 3.27126 -0.40663
# Velocity P-wave (km/s) = 2.79149 4.74147 2.71008
#
# Compressibility (1/GPa) = 0.06307421
#
# Stress axis : x y z
#
# Youngs Moduli (GPa) = 35.47809 75.55446 53.08590
#
# Poissons Ratio (x) = -0.46948 0.10528
# Poissons Ratio (y) = -0.22045 0.14986
# Poissons Ratio (z) = 0.07036 0.21329
#
# Static dielectric constant tensor:
#      x y z
#    x 1.908770 0.000000 -0.020950 
#    y 0.000000 1.819670 -0.000010 
#    z -0.020950 -0.000010 1.919470 
# 
# From -- ./inp_files/379489.got.cif
#   From: 2010.05.17/outbox.cif.g08.bks.cpg/sg12_190_cif.got.tgz:379489.got - 2010.06.03 13:09:07.
