data_PCOD9202146
_publ_section_title
;
Structure prediction by ZEFSAII (Michael W. Deem and Ramdas Pophale) SiO2 
 PCOD9202146
Probable space group: C 2/M
;
_chemical_formula_sum "Si O2"
_cell_formula_units_Z 64
_cell_length_a 26.854600
_cell_length_b 11.507428
_cell_length_c 20.311325
_cell_angle_alpha 90.000000
_cell_angle_beta 31.346443
_cell_angle_gamma 90.000000
_cell_volume 3265.240698
_symmetry_space_group_name_H-M "C 2/M"
_symmetry_group_IT_number 12
_symmetry_cell_setting 'monoclinic'
loop_
_space_group_symop_operation_xyz
x,y,z
-x,y,-z
-x,-y,-z
x,-y,z
1/2+x,1/2+y,z
1/2-x,1/2+y,-z
1/2-x,1/2-y,-z
1/2+x,1/2-y,z
loop_
_atom_site_type_symbol
_atom_site_label
_atom_site_fract_x
_atom_site_fract_y
_atom_site_fract_z
Si Si1 0.684102 0.221864 0.012167
Si Si2 0.666505 0.867133 0.538245
Si Si3 0.528604 0.137904 0.285828
Si Si4 0.897512 0.636944 0.652317
Si Si5 0.433132 0.363399 0.956791
Si Si6 0.134117 0.259555 0.708585
Si Si7 0.718189 0.373381 0.222402
Si Si8 0.606079 0.818954 0.887841
O O1 0.589616 0.171534 0.153365
O O2 0.646449 0.325017 0.007103
O O3 0.750000 0.250000 0.000000
O O4 0.742087 0.139975 0.896918
O O5 0.578834 0.811430 0.596066
O O6 0.769459 0.811463 0.413199
O O7 0.633265 0.853880 0.651528
O O8 0.676938 0.000000 0.507271
O O9 0.582836 0.161576 0.292621
O O10 0.517286 0.000000 0.296942
O O11 0.861369 0.500000 0.686209
O O12 0.836106 0.750765 0.699792
O O13 0.000000 0.638295 0.500000
O O14 0.435008 0.500000 0.962199
O O15 0.536622 0.315388 0.816806
O O16 0.411039 0.299962 0.051021
O O17 0.141381 0.305769 0.774042
O O18 0.667589 0.500000 0.286077
O O19 0.812367 0.377779 0.161408
O O20 0.500000 0.871552 0.000000
#
# Coordination Sequence:
#
# PCOD9202146 Si02
#       8
#     8   8   8   8   8   8   8   8
#     4  11  21  39  58  85 123 160 199 245 302 374
#     4  10  21  35  59  87 112 150 197 246 297 360
#     4  10  20  38  61  86 115 153 200 249 298 358
#     4  10  23  43  67  92 124 166 211 253 305 373
#     4  10  21  37  59  87 118 154 200 256 311 361
#     4  10  20  38  59  82 118 152 196 248 305 368
#     4  11  24  40  63  95 126 160 207 259 313 365
#     4   9  22  40  58  84 120 162 201 250 307 371
#
# _framework density 19.600391999999999
#
# number of rings (size 3 to 8) (size 9 to 14) (size 15 to 20)
#    0.000    1.875    2.500    0.750    1.750    6.750 
#    0.000    0.000    0.000    0.000    0.000    0.000 
#    0.000    0.000    0.000    0.000    0.000    0.000 
#
# Total GULP energy -178229.753101 kJ/mol
# GULP energy per Si atom -5569.679784 kJ/mol
# Density = 1.955578 g / cm^3
# Si number density = 19.600392 Si / 1000 Ang^3
#
#
#
# Elastic Constant Matrix: (Units=GPa)
#
#
# Indices 1 2 3 4 5 6 
#
# 1 98.7184 18.2785 7.5085 0.0000 -4.8115 0.0000
# 2 18.2785 87.8494 14.7869 0.0000 -7.9565 0.0000
# 3 7.5085 14.7869 62.9030 0.0000 5.0634 0.0000
# 4 0.0000 0.0000 0.0000 23.7303 0.0000 8.1077
# 5 -4.8115 -7.9565 5.0634 0.0000 35.5291 0.0000
# 6 0.0000 0.0000 0.0000 8.1077 0.0000 20.9456
#
#
#
# Elastic Compliance Matrix: (Units=1/GPa)
#
#
# Indices 1 2 3 4 5 6 
#
# 1 0.010615 -0.001955 -0.000898 0.000000 0.001128 0.000000
# 2 -0.001955 0.012557 -0.002957 0.000000 0.002969 0.000000
# 3 -0.000898 -0.002957 0.016958 0.000000 -0.003201 0.000000
# 4 0.000000 0.000000 0.000000 0.048563 0.000000 -0.018798
# 5 0.001128 0.002969 -0.003201 0.000000 0.029420 0.000000
# 6 0.000000 0.000000 0.000000 -0.018798 0.000000 0.055019
#
#
# Mechanical properties :
#
#
# Convention : Reuss Voigt Hill
#
# Bulk Modulus (GPa) = 35.07838 36.73539 35.90689
# Shear Modulus (GPa) = 25.73935 29.96744 27.85340
#
# Velocity S-wave (km/s) = 3.62775 3.91438 3.77379
# Velocity P-wave (km/s) = 5.95677 6.26201 6.11129
#
# Compressibility (1/GPa) = 0.02850759
#
# Stress axis : x y z
#
# Youngs Moduli (GPa) = 94.20493 79.63940 58.97091
#
# Poissons Ratio (x) = 0.15572 0.05297
# Poissons Ratio (y) = 0.18420 0.17439
# Poissons Ratio (z) = 0.08462 0.23552
#
# Static dielectric constant tensor:
#      x y z
#    x 1.724660 0.000000 -0.036200 
#    y 0.000000 1.523270 0.000000 
#    z -0.036200 0.000000 1.713400 
# 
# From -- ./inp_files/327795.got.cif
#   From: 2010.05.17/outbox.cif.g08.bks.cpg/sg12_164_cif.got.tgz:327795.got - 2010.06.03 13:09:07.
