data_PCOD9202102
_publ_section_title
;
Structure prediction by ZEFSAII (Michael W. Deem and Ramdas Pophale) SiO2 
 PCOD9202102
Probable space group: C 2/M
;
_chemical_formula_sum "Si O2"
_cell_formula_units_Z 48
_cell_length_a 9.301480
_cell_length_b 23.332170
_cell_length_c 11.951270
_cell_angle_alpha 90.000000
_cell_angle_beta 77.213375
_cell_angle_gamma 90.000000
_cell_volume 2529.387715
_symmetry_space_group_name_H-M "C 2/M"
_symmetry_group_IT_number 12
_symmetry_cell_setting 'monoclinic'
loop_
_space_group_symop_operation_xyz
x,y,z
-x,y,-z
-x,-y,-z
x,-y,z
1/2+x,1/2+y,z
1/2-x,1/2+y,-z
1/2-x,1/2-y,-z
1/2+x,1/2-y,z
loop_
_atom_site_type_symbol
_atom_site_label
_atom_site_fract_x
_atom_site_fract_y
_atom_site_fract_z
Si Si1 0.858331 0.702444 0.603973
Si Si2 0.833235 0.189412 0.982266
Si Si3 0.169471 0.168159 0.442538
Si Si4 0.779975 0.500000 0.108622
Si Si5 0.396316 0.871818 0.818066
Si Si6 0.111038 0.500000 0.153670
Si Si7 0.262169 0.879127 0.202012
O O1 0.803337 0.768192 0.615708
O O2 0.746519 0.666006 0.549016
O O3 0.889108 0.672230 0.715791
O O4 0.000000 0.705056 0.500000
O O5 0.826540 0.166660 0.856482
O O6 0.750000 0.250000 0.000000
O O7 0.730339 0.146812 0.073312
O O8 0.000000 0.192810 0.000000
O O9 0.229368 0.125830 0.338704
O O10 0.000000 0.160677 0.500000
O O11 0.715550 0.441051 0.164610
O O12 0.946337 0.500000 0.129935
O O13 0.786054 0.500000 0.973767
O O14 0.372627 0.938692 0.788841
O O15 0.561165 0.869169 0.842567
#
# Coordination Sequence:
#
# PCOD9202102 Si02
#       7
#     8   8   8   4   8   4   8
#     4  10  20  38  58  87 116 160 201 252 305 368
#     4  12  26  39  60  92 124 156 197 254 312 364
#     4  10  22  36  60  84 123 160 202 246 315 367
#     4   9  18  36  62  84 121 160 213 240 307 364
#     4  11  21  39  65  87 123 156 211 251 302 363
#     4   9  18  36  60  91 113 167 199 257 302 356
#     4  11  21  40  63  89 118 165 206 251 301 364
#
# _framework density 18.976925000000001
#
# number of rings (size 3 to 8) (size 9 to 14) (size 15 to 20)
#    0.000    1.500    3.333    2.500    2.333    0.000 
#    0.000    3.333    0.000    0.000    0.000    0.000 
#    0.000    0.000    0.000    0.000    0.000    0.000 
#
# Total GULP energy -133890.967923 kJ/mol
# GULP energy per Si atom -5578.790330 kJ/mol
# Density = 1.893373 g / cm^3
# Si number density = 18.976925 Si / 1000 Ang^3
#
#
#
# Elastic Constant Matrix: (Units=GPa)
#
#
# Indices 1 2 3 4 5 6 
#
# 1 96.0825 3.7145 0.4087 0.0000 3.4291 0.0000
# 2 3.7145 76.8360 -0.6350 0.0000 5.8886 0.0000
# 3 0.4087 -0.6350 42.0687 0.0000 0.1504 0.0000
# 4 0.0000 0.0000 0.0000 26.3684 0.0000 1.4412
# 5 3.4291 5.8886 0.1504 0.0000 24.5219 0.0000
# 6 0.0000 0.0000 0.0000 1.4412 0.0000 14.3795
#
#
#
# Elastic Compliance Matrix: (Units=1/GPa)
#
#
# Indices 1 2 3 4 5 6 
#
# 1 0.010473 -0.000402 -0.000103 0.000000 -0.001367 0.000000
# 2 -0.000402 0.013276 0.000216 0.000000 -0.003133 0.000000
# 3 -0.000103 0.000216 0.023776 0.000000 -0.000183 0.000000
# 4 0.000000 0.000000 0.000000 0.038133 0.000000 -0.003822
# 5 -0.001367 -0.003133 -0.000183 0.000000 0.041725 0.000000
# 6 0.000000 0.000000 0.000000 -0.003822 0.000000 0.069927
#
#
# Mechanical properties :
#
#
# Convention : Reuss Voigt Hill
#
# Bulk Modulus (GPa) = 21.30170 24.66261 22.98215
# Shear Modulus (GPa) = 23.41524 27.15390 25.28457
#
# Velocity S-wave (km/s) = 3.51647 3.78682 3.65415
# Velocity P-wave (km/s) = 5.26658 5.66959 5.47180
#
# Compressibility (1/GPa) = 0.04694462
#
# Stress axis : x y z
#
# Youngs Moduli (GPa) = 95.48812 75.32344 42.06002
#
# Poissons Ratio (x) = 0.03031 0.00433
# Poissons Ratio (y) = 0.03842 -0.00906
# Poissons Ratio (z) = 0.00983 -0.01623
#
# Static dielectric constant tensor:
#      x y z
#    x 1.562360 0.000000 -0.008680 
#    y 0.000000 1.682150 0.000000 
#    z -0.008680 0.000000 1.639750 
# 
# From -- ./inp_files/122472.got.cif
#   From: 2010.05.17/outbox.cif.g08.bks.cpg/sg12_62_cif.got.tgz:122472.got - 2010.06.03 13:09:07.
