data_PCOD9202375
_publ_section_title
;
Structure prediction by ZEFSAII (Michael W. Deem and Ramdas Pophale) SiO2 
 PCOD9202375
Probable space group: C 2/M
;
_chemical_formula_sum "Si O2"
_cell_formula_units_Z 44
_cell_length_a 11.452680
_cell_length_b 18.417906
_cell_length_c 12.293571
_cell_angle_alpha 90.000000
_cell_angle_beta 69.473724
_cell_angle_gamma 90.000000
_cell_volume 2428.502415
_symmetry_space_group_name_H-M "C 2/M"
_symmetry_group_IT_number 12
_symmetry_cell_setting 'monoclinic'
loop_
_space_group_symop_operation_xyz
x,y,z
-x,y,-z
-x,-y,-z
x,-y,z
1/2+x,1/2+y,z
1/2-x,1/2+y,-z
1/2-x,1/2-y,-z
1/2+x,1/2-y,z
loop_
_atom_site_type_symbol
_atom_site_label
_atom_site_fract_x
_atom_site_fract_y
_atom_site_fract_z
Si Si1 0.753800 0.500000 0.285788
Si Si2 0.500000 0.758618 0.000000
Si Si3 0.977741 0.000000 0.276835
Si Si4 0.517428 0.341557 0.206044
Si Si5 0.298819 0.155072 0.185728
Si Si6 0.798707 0.500000 0.531327
Si Si7 0.500000 0.875921 0.500000
Si Si8 0.368724 0.766695 0.386429
O O1 0.602246 0.500000 0.314371
O O2 0.810676 0.570358 0.209025
O O3 0.787704 0.500000 0.402935
O O4 0.493592 0.706140 0.898319
O O5 0.615033 0.811728 0.936319
O O6 0.987444 0.073667 0.204264
O O7 0.843050 0.000000 0.379290
O O8 0.657569 0.333015 0.199348
O O9 0.431884 0.308104 0.328892
O O10 0.325908 0.195505 0.289615
O O11 0.880018 0.570039 0.544393
O O12 0.466492 0.820912 0.412869
O O13 0.250000 0.750000 0.500000
#
# Coordination Sequence:
#
# PCOD9202375 Si02
#       8
#     4   4   4   8   8   4   4   8
#     4  10  20  38  61  84 123 159 201 247 293 368
#     4  10  22  40  62  84 116 150 204 264 302 354
#     4  10  22  38  61  88 116 162 202 243 308 364
#     4  10  22  38  61  85 115 155 201 252 301 357
#     4  10  21  38  59  84 115 157 199 246 300 359
#     4  11  21  38  56  88 130 162 195 243 299 365
#     4  11  22  34  58  85 128 164 192 247 292 352
#     4  11  21  36  57  88 123 159 198 242 299 363
#
# _framework density 18.118162000000002
#
# number of rings (size 3 to 8) (size 9 to 14) (size 15 to 20)
#    0.000    1.636    1.818    3.000    0.000    2.182 
#    0.000    0.000    0.000    0.000    0.000    0.000 
#    0.000    0.000    0.000    0.000    0.000    0.000 
#
# Total GULP energy -122676.168899 kJ/mol
# GULP energy per Si atom -5576.189495 kJ/mol
# Density = 1.807692 g / cm^3
# Si number density = 18.118162 Si / 1000 Ang^3
#
#
#
# Elastic Constant Matrix: (Units=GPa)
#
#
# Indices 1 2 3 4 5 6 
#
# 1 71.6763 59.5196 43.2118 0.0000 -10.8211 0.0000
# 2 59.5196 133.5198 54.0539 0.0000 -16.9575 0.0000
# 3 43.2118 54.0539 101.8987 0.0000 -18.7500 0.0000
# 4 0.0000 0.0000 0.0000 17.6534 0.0000 -0.3544
# 5 -10.8211 -16.9575 -18.7500 0.0000 24.9485 0.0000
# 6 0.0000 0.0000 0.0000 -0.3544 0.0000 49.7345
#
#
#
# Elastic Compliance Matrix: (Units=1/GPa)
#
#
# Indices 1 2 3 4 5 6 
#
# 1 0.024650 -0.008571 -0.005815 0.000000 0.000495 0.000000
# 2 -0.008571 0.012731 -0.002565 0.000000 0.003008 0.000000
# 3 -0.005815 -0.002565 0.014919 0.000000 0.006946 0.000000
# 4 0.000000 0.000000 0.000000 0.056654 0.000000 0.000404
# 5 0.000495 0.003008 0.006946 0.000000 0.047562 0.000000
# 6 0.000000 0.000000 0.000000 0.000404 0.000000 0.020110
#
#
# Mechanical properties :
#
#
# Convention : Reuss Voigt Hill
#
# Bulk Modulus (GPa) = 54.35942 68.96282 61.66112
# Shear Modulus (GPa) = 23.07765 28.48791 25.78278
#
# Velocity S-wave (km/s) = 3.57281 3.96958 3.77641
# Velocity P-wave (km/s) = 6.86205 7.69126 7.28846
#
# Compressibility (1/GPa) = 0.01839608
#
# Stress axis : x y z
#
# Youngs Moduli (GPa) = 40.56875 78.55037 67.03046
#
# Poissons Ratio (x) = 0.67325 0.38980
# Poissons Ratio (y) = 0.34771 0.17194
# Poissons Ratio (z) = 0.23592 0.20149
#
# Static dielectric constant tensor:
#      x y z
#    x 1.615530 0.000000 -0.006430 
#    y 0.000000 1.659460 0.000000 
#    z -0.006430 0.000000 1.660210 
# 
# From -- ./inp_files/131343.got.cif
#   From: 2010.05.17/outbox.cif.g08.bks.cpg/sg12_66_cif.got.tgz:131343.got - 2010.06.03 13:09:07.
