data_PCOD9202604
_publ_section_title
;
Structure prediction by ZEFSAII (Michael W. Deem and Ramdas Pophale) SiO2 
 PCOD9202604
Probable space group: C 2/M
;
_chemical_formula_sum "Si O2"
_cell_formula_units_Z 64
_cell_length_a 28.746356
_cell_length_b 9.190591
_cell_length_c 15.398664
_cell_angle_alpha 90.000000
_cell_angle_beta 127.006504
_cell_angle_gamma 90.000000
_cell_volume 3248.783301
_symmetry_space_group_name_H-M "C 2/M"
_symmetry_group_IT_number 12
_symmetry_cell_setting 'monoclinic'
loop_
_space_group_symop_operation_xyz
x,y,z
-x,y,-z
-x,-y,-z
x,-y,z
1/2+x,1/2+y,z
1/2-x,1/2+y,-z
1/2-x,1/2-y,-z
1/2+x,1/2-y,z
loop_
_atom_site_type_symbol
_atom_site_label
_atom_site_fract_x
_atom_site_fract_y
_atom_site_fract_z
Si Si1 0.834659 0.672292 0.826036
Si Si2 0.933929 0.327141 0.173769
Si Si3 0.204690 0.173933 0.738916
Si Si4 0.951619 0.825897 0.017976
Si Si5 0.999060 0.831494 0.399169
Si Si6 0.368313 0.667127 0.514410
Si Si7 0.191616 0.673417 0.901056
Si Si8 0.809128 0.328392 0.594973
O O1 0.847586 0.500000 0.853020
O O2 0.773604 0.702587 0.805551
O O3 0.888856 0.766575 0.917631
O O4 0.823418 0.698742 0.711417
O O5 0.941969 0.500000 0.175847
O O6 0.961325 0.266096 0.292931
O O7 0.864494 0.297448 0.101749
O O8 0.962178 0.246988 0.123319
O O9 0.172215 0.210749 0.612549
O O10 0.180255 0.262531 0.792476
O O11 0.196984 0.000000 0.744084
O O12 0.951121 0.000000 0.026083
O O13 0.000000 0.786753 0.000000
O O14 0.000000 0.782829 0.500000
O O15 0.065270 0.830036 0.440589
O O16 0.977846 0.000000 0.373583
O O17 0.352232 0.500000 0.518323
O O18 0.357742 0.766903 0.585193
O O19 0.199850 0.500000 0.907012
O O20 0.250000 0.750000 0.000000
O O21 0.802310 0.500000 0.576315
O O22 0.750000 0.250000 0.500000
#
# Coordination Sequence:
#
# PCOD9202604 Si02
#       8
#     8   8   8   8   8   8   8   8
#     4  10  22  40  62  89 123 162 205 253 310 370
#     4  11  25  44  65  91 128 167 207 257 312 373
#     4  10  20  38  62  89 122 158 196 245 302 362
#     4  11  26  45  65  91 121 160 212 265 314 369
#     4  10  22  41  67  95 126 168 213 256 308 366
#     4  10  21  38  60  89 124 160 202 250 304 366
#     4  11  24  40  61  91 121 155 199 248 305 365
#     4  11  22  38  60  90 126 165 206 251 308 369
#
# _framework density 19.699683
#
# number of rings (size 3 to 8) (size 9 to 14) (size 15 to 20)
#    0.000    1.500    1.250    3.000    1.750    9.750 
#    0.000    0.000    0.000    0.000    0.000    0.000 
#    0.000    0.000    0.000    0.000    0.000    0.000 
#
# Total GULP energy -178952.325817 kJ/mol
# GULP energy per Si atom -5592.260182 kJ/mol
# Density = 1.965485 g / cm^3
# Si number density = 19.699683 Si / 1000 Ang^3
#
#
#
# Elastic Constant Matrix: (Units=GPa)
#
#
# Indices 1 2 3 4 5 6 
#
# 1 102.3821 48.8796 33.5154 0.0000 -18.7938 0.0000
# 2 48.8796 56.2285 47.6997 0.0000 -13.0273 0.0000
# 3 33.5154 47.6997 73.3154 0.0000 -7.7797 0.0000
# 4 0.0000 0.0000 0.0000 34.6143 0.0000 -1.6721
# 5 -18.7938 -13.0273 -7.7797 0.0000 35.9596 0.0000
# 6 0.0000 0.0000 0.0000 -1.6721 0.0000 25.6214
#
#
#
# Elastic Compliance Matrix: (Units=1/GPa)
#
#
# Indices 1 2 3 4 5 6 
#
# 1 0.017668 -0.017842 0.003915 0.000000 0.003617 0.000000
# 2 -0.017842 0.060774 -0.030743 0.000000 0.006041 0.000000
# 3 0.003915 -0.030743 0.031612 0.000000 -0.002252 0.000000
# 4 0.000000 0.000000 0.000000 0.028981 0.000000 0.001891
# 5 0.003617 0.006041 -0.002252 0.000000 0.031401 0.000000
# 6 0.000000 0.000000 0.000000 0.001891 0.000000 0.039153
#
#
# Mechanical properties :
#
#
# Convention : Reuss Voigt Hill
#
# Bulk Modulus (GPa) = 48.27363 54.67949 51.47656
# Shear Modulus (GPa) = 16.34872 26.02781 21.18827
#
# Velocity S-wave (km/s) = 2.88392 3.63882 3.28314
# Velocity P-wave (km/s) = 5.97054 6.74325 6.36862
#
# Compressibility (1/GPa) = 0.02071524
#
# Stress axis : x y z
#
# Youngs Moduli (GPa) = 56.59990 16.45433 31.63306
#
# Poissons Ratio (x) = 0.29358 -0.12386
# Poissons Ratio (y) = 1.00987 0.97249
# Poissons Ratio (z) = -0.22162 0.50585
#
# Static dielectric constant tensor:
#      x y z
#    x 1.704240 0.000000 -0.000240 
#    y 0.000000 1.659430 0.000000 
#    z -0.000240 0.000000 1.689490 
# 
# From -- ./inp_files/250117.got.cif
#   From: 2010.05.17/outbox.cif.g08.bks.cpg/sg12_126_cif.got.tgz:250117.got - 2010.06.03 13:09:07.
