data_PCOD9202297
_publ_section_title
;
Structure prediction by ZEFSAII (Michael W. Deem and Ramdas Pophale) SiO2 
 PCOD9202297
Probable space group: C 2/M
;
_chemical_formula_sum "Si O2"
_cell_formula_units_Z 64
_cell_length_a 17.800454
_cell_length_b 18.209552
_cell_length_c 18.563888
_cell_angle_alpha 90.000000
_cell_angle_beta 33.550931
_cell_angle_gamma 90.000000
_cell_volume 3325.611189
_symmetry_space_group_name_H-M "C 2/M"
_symmetry_group_IT_number 12
_symmetry_cell_setting 'monoclinic'
loop_
_space_group_symop_operation_xyz
x,y,z
-x,y,-z
-x,-y,-z
x,-y,z
1/2+x,1/2+y,z
1/2-x,1/2+y,-z
1/2-x,1/2-y,-z
1/2+x,1/2-y,z
loop_
_atom_site_type_symbol
_atom_site_label
_atom_site_fract_x
_atom_site_fract_y
_atom_site_fract_z
Si Si1 0.909578 0.166145 0.144087
Si Si2 0.289582 0.143156 0.416171
Si Si3 0.579091 0.918834 0.231543
Si Si4 0.655550 0.412923 0.377848
Si Si5 0.911228 0.195770 0.305749
Si Si6 0.126233 0.417472 0.361192
Si Si7 0.808009 0.258947 0.875017
Si Si8 0.148655 0.680426 0.874101
O O1 0.952788 0.162254 0.194205
O O2 0.768290 0.123117 0.252284
O O3 0.880526 0.251851 0.155675
O O4 0.000000 0.144864 0.000000
O O5 0.429734 0.101553 0.322332
O O6 0.218131 0.106636 0.405202
O O7 0.188728 0.146182 0.565668
O O8 0.330150 0.226946 0.362817
O O9 0.579334 0.924273 0.317045
O O10 0.671960 0.846730 0.147218
O O11 0.621897 0.000000 0.169242
O O12 0.500000 0.387178 0.500000
O O13 0.658575 0.500000 0.364430
O O14 0.742757 0.373281 0.246887
O O15 0.045802 0.218643 0.242704
O O16 0.142702 0.500000 0.378862
O O17 0.000000 0.377914 0.500000
O O18 0.708944 0.220732 0.896604
O O19 0.750000 0.250000 0.000000
O O20 0.000000 0.644030 0.000000
#
# Coordination Sequence:
#
# PCOD9202297 Si02
#       8
#     8   8   8   8   8   8   8   8
#     4  11  21  37  60  90 126 159 203 257 309 376
#     4  10  20  38  60  89 121 160 207 261 308 374
#     4  10  21  37  60  89 120 160 204 252 316 375
#     4  11  24  42  64  91 125 164 210 265 321 375
#     4  10  21  36  60  91 122 159 211 255 312 374
#     4  10  21  37  58  87 122 159 203 252 305 373
#     4  11  22  39  63  88 126 164 204 263 305 369
#     4  11  23  40  63  93 125 163 208 256 315 378
#
# _framework density 19.244582999999999
#
# number of rings (size 3 to 8) (size 9 to 14) (size 15 to 20)
#    0.000    1.500    2.500    3.375    1.750    1.000 
#    0.000    1.250    0.000    2.625    0.000    0.000 
#    0.000    0.000    0.000    0.000    0.000    0.000 
#
# Total GULP energy -178392.815974 kJ/mol
# GULP energy per Si atom -5574.775499 kJ/mol
# Density = 1.920078 g / cm^3
# Si number density = 19.244583 Si / 1000 Ang^3
#
#
#
# Elastic Constant Matrix: (Units=GPa)
#
#
# Indices 1 2 3 4 5 6 
#
# 1 108.3609 28.4155 39.2342 0.0006 -1.8434 0.0000
# 2 28.4155 60.7235 55.5344 0.0010 -0.0561 -0.0005
# 3 39.2342 55.5344 130.3021 0.0017 -3.9107 -0.0010
# 4 0.0006 0.0010 0.0017 7.8467 -0.0011 11.1970
# 5 -1.8434 -0.0561 -3.9107 -0.0011 35.7679 0.0004
# 6 0.0000 -0.0005 -0.0010 11.1970 0.0004 14.0500
#
#
#
# Elastic Compliance Matrix: (Units=1/GPa)
#
#
# Indices 1 2 3 4 5 6 
#
# 1 0.010774 -0.003416 -0.001778 -0.000003 0.000356 0.000002
# 2 -0.003416 0.028123 -0.010998 0.000011 -0.001334 -0.000008
# 3 -0.001778 -0.010998 0.012936 0.000013 0.001305 -0.000010
# 4 -0.000003 0.000011 0.000013 -0.928860 -0.000037 0.740246
# 5 0.000356 -0.001334 0.001305 -0.000037 0.028117 0.000029
# 6 0.000002 -0.000008 -0.000010 0.740246 0.000029 -0.518757
#
#
# Mechanical properties :
#
#
# Convention : Reuss Voigt Hill
#
# Bulk Modulus (GPa) = 51.41045 60.63941 56.02493
# Shear Modulus (GPa) = -3.76279 23.27974 9.75848
#
# Velocity S-wave (km/s) = -1.39982 3.48182 2.25428
# Velocity P-wave (km/s) = 4.91524 6.90958 5.99591
#
# Compressibility (1/GPa) = 0.01945130
#
# Stress axis : x y z
#
# Youngs Moduli (GPa) = 92.81814 35.55825 77.30358
#
# Poissons Ratio (x) = 0.12145 0.13742
# Poissons Ratio (y) = 0.31702 0.85015
# Poissons Ratio (z) = 0.16500 0.39105
#
# Static dielectric constant tensor:
#      x y z
#    x 1.680930 0.000000 -0.012040 
#    y 0.000000 1.099760 -0.000020 
#    z -0.012040 -0.000020 1.701480 
# 
# From -- ./inp_files/279109.got.cif
#   From: 2010.05.17/outbox.cif.g08.bks.cpg/sg12_140_cif.got.tgz:279109.got - 2010.06.03 13:09:07.
