data_PCOD9202632
_publ_section_title
;
Structure prediction by ZEFSAII (Michael W. Deem and Ramdas Pophale) SiO2 
 PCOD9202632
Probable space group: C 2/M
;
_chemical_formula_sum "Si O2"
_cell_formula_units_Z 40
_cell_length_a 11.810776
_cell_length_b 13.048360
_cell_length_c 12.087467
_cell_angle_alpha 90.000000
_cell_angle_beta 101.393724
_cell_angle_gamma 90.000000
_cell_volume 1826.103909
_symmetry_space_group_name_H-M "C 2/M"
_symmetry_group_IT_number 12
_symmetry_cell_setting 'monoclinic'
loop_
_space_group_symop_operation_xyz
x,y,z
-x,y,-z
-x,-y,-z
x,-y,z
1/2+x,1/2+y,z
1/2-x,1/2+y,-z
1/2-x,1/2-y,-z
1/2+x,1/2-y,z
loop_
_atom_site_type_symbol
_atom_site_label
_atom_site_fract_x
_atom_site_fract_y
_atom_site_fract_z
Si Si1 0.053294 0.500000 0.883322
Si Si2 0.924131 0.500000 0.373703
Si Si3 0.509658 0.614290 0.220766
Si Si4 0.155930 0.275953 0.892422
Si Si5 0.121828 0.112995 0.580448
Si Si6 0.744562 0.195352 0.668197
O O1 0.014512 0.500000 0.739553
O O2 0.118485 0.392806 0.897834
O O3 0.000000 0.500000 0.000000
O O4 0.843736 0.601355 0.366443
O O5 0.000000 0.500000 0.500000
O O6 0.531133 0.500000 0.177618
O O7 0.454044 0.699317 0.130089
O O8 0.415395 0.603337 0.299272
O O9 0.625179 0.654733 0.303231
O O10 0.220416 0.269597 0.788395
O O11 0.250000 0.250000 0.000000
O O12 0.213071 0.204034 0.590829
O O13 0.000000 0.139318 0.500000
O O14 0.159832 0.000000 0.547460
#
# Coordination Sequence:
#
# PCOD9202632 Si02
#       6
#     4   4   8   8   8   8
#     4  10  24  44  63  97 133 168 215 270 324 397
#     4  10  20  40  69  97 134 171 216 280 325 377
#     4  10  21  39  63  86 121 162 211 260 318 390
#     4  10  24  41  63  90 124 167 210 269 326 385
#     4   9  19  37  58  84 123 161 203 258 313 377
#     4  10  20  38  62  91 122 162 213 262 317 382
#
# _framework density 21.904561000000001
#
# number of rings (size 3 to 8) (size 9 to 14) (size 15 to 20)
#    0.000    2.200    1.000    0.600    4.200    0.800 
#    1.800    1.000    0.000    0.000    0.000    0.000 
#    0.000    0.000    0.000    0.000    0.000    0.000 
#
# Total GULP energy -111394.492901 kJ/mol
# GULP energy per Si atom -5569.724645 kJ/mol
# Density = 2.185470 g / cm^3
# Si number density = 21.904561 Si / 1000 Ang^3
#
#
#
# Elastic Constant Matrix: (Units=GPa)
#
#
# Indices 1 2 3 4 5 6 
#
# 1 73.2852 59.5584 49.4861 0.0000 5.4145 0.0000
# 2 59.5584 175.0548 68.5342 0.0000 32.0020 0.0000
# 3 49.4861 68.5342 130.3854 0.0000 24.6265 0.0000
# 4 0.0000 0.0000 0.0000 -69.2238 0.0000 -12.1926
# 5 5.4145 32.0020 24.6265 0.0000 45.5360 0.0000
# 6 0.0000 0.0000 0.0000 -12.1926 0.0000 10.8503
#
#
#
# Elastic Compliance Matrix: (Units=1/GPa)
#
#
# Indices 1 2 3 4 5 6 
#
# 1 0.022468 -0.006108 -0.006263 0.000000 0.005008 0.000000
# 2 -0.006108 0.009344 -0.001660 0.000000 -0.004943 0.000000
# 3 -0.006263 -0.001660 0.011759 0.000000 -0.004448 0.000000
# 4 0.000000 0.000000 0.000000 -0.012059 0.000000 -0.013551
# 5 0.005008 -0.004943 -0.004448 0.000000 0.027245 0.000000
# 6 0.000000 0.000000 0.000000 -0.013551 0.000000 0.076936
#
#
# Mechanical properties :
#
#
# Convention : Reuss Voigt Hill
#
# Bulk Modulus (GPa) = 64.47309 81.54252 73.00781
# Shear Modulus (GPa) = 29.59907 10.84228 20.22068
#
# Velocity S-wave (km/s) = 3.67996 2.22722 3.04160
# Velocity P-wave (km/s) = 6.89592 6.62730 6.76294
#
# Compressibility (1/GPa) = 0.01551035
#
# Stress axis : x y z
#
# Youngs Moduli (GPa) = 44.50730 107.02106 85.04002
#
# Poissons Ratio (x) = 0.65367 0.53260
# Poissons Ratio (y) = 0.27184 0.14114
# Poissons Ratio (z) = 0.27875 0.17762
#
# Static dielectric constant tensor:
#      x y z
#    x 1.807200 0.000000 -0.054390 
#    y 0.000000 0.974300 0.000000 
#    z -0.054390 0.000000 1.853570 
# 
# From -- ./inp_files/141127.got.cif
#   From: 2010.05.17/outbox.cif.g08.bks.cpg/sg12_71_cif.got.tgz:141127.got - 2010.06.03 13:09:07.
