data_PCOD9202886
_publ_section_title
;
Structure prediction by ZEFSAII (Michael W. Deem and Ramdas Pophale) SiO2 
 PCOD9202886
Probable space group: C 2/M
;
_chemical_formula_sum "Si O2"
_cell_formula_units_Z 56
_cell_length_a 24.160624
_cell_length_b 15.308104
_cell_length_c 8.052619
_cell_angle_alpha 90.000000
_cell_angle_beta 121.880808
_cell_angle_gamma 90.000000
_cell_volume 2529.009289
_symmetry_space_group_name_H-M "C 2/M"
_symmetry_group_IT_number 12
_symmetry_cell_setting 'monoclinic'
loop_
_space_group_symop_operation_xyz
x,y,z
-x,y,-z
-x,-y,-z
x,-y,z
1/2+x,1/2+y,z
1/2-x,1/2+y,-z
1/2-x,1/2-y,-z
1/2+x,1/2-y,z
loop_
_atom_site_type_symbol
_atom_site_label
_atom_site_fract_x
_atom_site_fract_y
_atom_site_fract_z
Si Si1 0.487310 0.099298 0.281745
Si Si2 0.303704 0.742084 0.229774
Si Si3 0.520136 0.403826 0.225085
Si Si4 0.919833 0.219408 0.175769
Si Si5 0.869471 0.347181 0.603383
Si Si6 0.752996 0.595975 0.613973
Si Si7 0.638563 0.344041 0.254343
O O1 0.500000 0.103418 0.500000
O O2 0.437774 0.179277 0.165193
O O3 0.558218 0.117505 0.313137
O O4 0.465712 0.000000 0.206335
O O5 0.371768 0.711929 0.254287
O O6 0.328051 0.828236 0.368850
O O7 0.269869 0.672950 0.300247
O O8 0.250000 0.750000 0.000000
O O9 0.497210 0.500000 0.237111
O O10 0.489005 0.330415 0.290036
O O11 0.596794 0.401385 0.317823
O O12 0.500000 0.386430 0.000000
O O13 0.883900 0.167883 0.969385
O O14 0.826728 0.399614 0.667701
O O15 0.872230 0.251430 0.687685
O O16 0.739159 0.500000 0.659333
O O17 0.710052 0.617940 0.383030
#
# Coordination Sequence:
#
# PCOD9202886 Si02
#       7
#     8   8   8   8   8   8   8
#     4  11  23  41  64  96 132 170 215 268 326 390
#     4  11  23  42  65  92 127 170 218 266 333 393
#     4   9  18  32  56  90 125 163 206 253 310 378
#     4  11  21  39  65  94 131 171 212 270 328 387
#     4  11  21  41  67  89 127 176 214 261 323 388
#     4  11  24  42  64  96 130 170 220 271 319 389
#     4  10  20  38  64  90 131 168 215 262 322 383
#
# _framework density 22.143056999999999
#
# number of rings (size 3 to 8) (size 9 to 14) (size 15 to 20)
#    0.000    1.429    2.857    4.286    0.000    1.143 
#    0.000    7.143    0.000    3.000    0.000    0.000 
#    0.000    0.000    0.000    0.000    0.000    0.000 
#
# Total GULP energy -156157.916897 kJ/mol
# GULP energy per Si atom -5577.068461 kJ/mol
# Density = 2.209266 g / cm^3
# Si number density = 22.143057 Si / 1000 Ang^3
#
#
#
# Elastic Constant Matrix: (Units=GPa)
#
#
# Indices 1 2 3 4 5 6 
#
# 1 144.0926 24.0410 -3.8818 0.0000 -5.1043 0.0000
# 2 24.0410 96.0058 -8.7708 0.0000 -12.9525 0.0000
# 3 -3.8818 -8.7708 47.2842 0.0000 -6.2132 0.0000
# 4 0.0000 0.0000 0.0000 10.7639 0.0000 6.9722
# 5 -5.1043 -12.9525 -6.2132 0.0000 12.1985 0.0000
# 6 0.0000 0.0000 0.0000 6.9722 0.0000 5.0525
#
#
#
# Elastic Compliance Matrix: (Units=1/GPa)
#
#
# Indices 1 2 3 4 5 6 
#
# 1 0.007272 -0.001547 0.000529 0.000000 0.001669 0.000000
# 2 -0.001547 0.013333 0.004417 0.000000 0.015760 0.000000
# 3 0.000529 0.004417 0.024282 0.000000 0.017279 0.000000
# 4 0.000000 0.000000 0.000000 0.875058 0.000000 -1.207524
# 5 0.001669 0.015760 0.017279 0.000000 0.108210 0.000000
# 6 0.000000 0.000000 0.000000 -1.207524 0.000000 1.864225
#
#
# Mechanical properties :
#
#
# Convention : Reuss Voigt Hill
#
# Bulk Modulus (GPa) = 19.34812 34.46217 26.90515
# Shear Modulus (GPa) = 1.72247 24.00262 12.86255
#
# Velocity S-wave (km/s) = 0.88293 3.29596 2.41277
# Velocity P-wave (km/s) = 3.12989 5.48467 4.46530
#
# Compressibility (1/GPa) = 0.05168460
#
# Stress axis : x y z
#
# Youngs Moduli (GPa) = 137.52258 75.00083 41.18284
#
# Poissons Ratio (x) = 0.11605 -0.02180
# Poissons Ratio (y) = 0.21279 -0.18190
# Poissons Ratio (z) = -0.07279 -0.33128
#
# Static dielectric constant tensor:
#      x y z
#    x 1.883880 0.000000 0.056120 
#    y 0.000000 1.858080 0.000000 
#    z 0.056120 0.000000 1.914210 
# 
# From -- ./inp_files/96973.got.cif
#   From: 2010.05.17/outbox.cif.g08.bks.cpg/sg12_49_cif.got.tgz:96973.got - 2010.06.03 13:09:07.
