data_PCOD9202313
_publ_section_title
;
Structure prediction by ZEFSAII (Michael W. Deem and Ramdas Pophale) SiO2 
 PCOD9202313
Probable space group: C 2/M
;
_chemical_formula_sum "Si O2"
_cell_formula_units_Z 50
_cell_length_a 18.246463
_cell_length_b 15.909582
_cell_length_c 7.287135
_cell_angle_alpha 90.000000
_cell_angle_beta 74.661218
_cell_angle_gamma 90.000000
_cell_volume 2040.054807
_symmetry_space_group_name_H-M "C 2/M"
_symmetry_group_IT_number 12
_symmetry_cell_setting 'monoclinic'
loop_
_space_group_symop_operation_xyz
x,y,z
-x,y,-z
-x,-y,-z
x,-y,z
1/2+x,1/2+y,z
1/2-x,1/2+y,-z
1/2-x,1/2-y,-z
1/2+x,1/2-y,z
loop_
_atom_site_type_symbol
_atom_site_label
_atom_site_fract_x
_atom_site_fract_y
_atom_site_fract_z
Si Si1 0.086800 0.280977 0.608638
Si Si2 0.385330 0.363129 0.915641
Si Si3 0.434303 0.184573 0.806785
Si Si4 0.609103 0.594615 0.528652
Si Si5 0.000000 0.000000 0.000000
Si Si6 0.719248 0.907951 0.022957
Si Si7 0.784043 0.591258 0.412232
O O1 0.073256 0.293183 0.402315
O O2 0.076738 0.180226 0.638171
O O3 0.167670 0.325729 0.580539
O O4 0.023895 0.332757 0.766281
O O5 0.414763 0.269495 0.924421
O O6 0.393025 0.391804 0.692915
O O7 0.435597 0.427657 0.993723
O O8 0.295592 0.358766 0.024969
O O9 0.365673 0.121410 0.881209
O O10 0.576291 0.500000 0.592811
O O11 0.696837 0.594879 0.532276
O O12 0.730760 0.000000 0.095244
O O13 0.722112 0.911815 0.802291
O O14 0.817364 0.500000 0.450394
#
# Coordination Sequence:
#
# PCOD9202313 Si02
#       7
#     8   8   8   8   2   8   8
#     4  10  21  38  58  90 123 166 214 257 307 367
#     4  10  20  38  60  91 126 158 202 258 320 373
#     4  10  23  39  59  86 128 168 205 257 316 368
#     4   9  17  37  62  88 121 166 206 253 313 381
#     4  12  20  36  64  94 130 152 192 260 316 374
#     4  10  20  40  65  89 119 168 211 255 316 376
#     4   9  19  35  63  91 120 160 213 262 310 367
#
# _framework density 24.509143999999999
#
# number of rings (size 3 to 8) (size 9 to 14) (size 15 to 20)
#    0.000    2.240    1.600    1.920    0.000    3.200 
#    1.440    6.400    3.520    0.000    0.000    0.000 
#    0.000    0.000    0.000    0.000    0.000    0.000 
#
# Total GULP energy -139399.736455 kJ/mol
# GULP energy per Si atom -5575.989458 kJ/mol
# Density = 2.445336 g / cm^3
# Si number density = 24.509144 Si / 1000 Ang^3
#
#
#
# Elastic Constant Matrix: (Units=GPa)
#
#
# Indices 1 2 3 4 5 6 
#
# 1 103.4945 13.0188 4.5597 0.0000 -15.6463 0.0000
# 2 13.0188 32.9690 -3.8649 0.0000 -2.1388 0.0000
# 3 4.5597 -3.8649 53.1916 0.0000 2.0469 0.0000
# 4 0.0000 0.0000 0.0000 439.5250 0.0000 -52.7642
# 5 -15.6463 -2.1388 2.0469 0.0000 33.8327 0.0000
# 6 0.0000 0.0000 0.0000 -52.7642 0.0000 51.1968
#
#
#
# Elastic Compliance Matrix: (Units=1/GPa)
#
#
# Indices 1 2 3 4 5 6 
#
# 1 0.010995 -0.004192 -0.001436 0.000000 0.004906 0.000000
# 2 -0.004192 0.032300 0.002709 0.000000 -0.000060 0.000000
# 3 -0.001436 0.002709 0.019183 0.000000 -0.001653 0.000000
# 4 0.000000 0.000000 0.000000 0.002596 0.000000 0.002676
# 5 0.004906 -0.000060 -0.001653 0.000000 0.031923 0.000000
# 6 0.000000 0.000000 0.000000 0.002676 0.000000 0.022290
#
#
# Mechanical properties :
#
#
# Convention : Reuss Voigt Hill
#
# Bulk Modulus (GPa) = 17.65514 24.12024 20.88769
# Shear Modulus (GPa) = 34.72086 116.64032 75.68059
#
# Velocity S-wave (km/s) = 3.76792 6.90607 5.56287
# Velocity P-wave (km/s) = 5.11359 8.57056 7.05703
#
# Compressibility (1/GPa) = 0.05664073
#
# Stress axis : x y z
#
# Youngs Moduli (GPa) = 90.95343 30.95943 52.12824
#
# Poissons Ratio (x) = 0.12977 0.07485
# Poissons Ratio (y) = 0.38124 -0.14119
# Poissons Ratio (z) = 0.13059 -0.08386
#
# Static dielectric constant tensor:
#      x y z
#    x 2.026080 0.000000 -0.029830 
#    y 0.000000 1.926900 0.000000 
#    z -0.029830 0.000000 2.072990 
# 
# From -- ./inp_files/75163.got.cif
#   From: 2010.05.17/outbox.cif.g08.bks.cpg/sg12_38_cif.got.tgz:75163.got - 2010.06.03 13:09:07.
