data_PCOD9202800
_publ_section_title
;
Structure prediction by ZEFSAII (Michael W. Deem and Ramdas Pophale) SiO2 
 PCOD9202800
Probable space group: C 2/M
;
_chemical_formula_sum "Si O2"
_cell_formula_units_Z 60
_cell_length_a 24.232619
_cell_length_b 9.631643
_cell_length_c 15.938736
_cell_angle_alpha 90.000000
_cell_angle_beta 127.896062
_cell_angle_gamma 90.000000
_cell_volume 2935.628721
_symmetry_space_group_name_H-M "C 2/M"
_symmetry_group_IT_number 12
_symmetry_cell_setting 'monoclinic'
loop_
_space_group_symop_operation_xyz
x,y,z
-x,y,-z
-x,-y,-z
x,-y,z
1/2+x,1/2+y,z
1/2-x,1/2+y,-z
1/2-x,1/2-y,-z
1/2+x,1/2-y,z
loop_
_atom_site_type_symbol
_atom_site_label
_atom_site_fract_x
_atom_site_fract_y
_atom_site_fract_z
Si Si1 0.664608 0.230308 0.474715
Si Si2 0.838712 0.838872 0.849620
Si Si3 0.396426 0.840082 0.763355
Si Si4 0.597194 0.341608 0.786469
Si Si5 0.271994 0.166233 0.104845
Si Si6 0.534819 0.658726 0.908224
Si Si7 0.537923 0.663326 0.451639
Si Si8 0.732971 0.500000 0.455158
O O1 0.629972 0.169972 0.356728
O O2 0.605474 0.252508 0.488370
O O3 0.694946 0.378311 0.476057
O O4 0.723614 0.122128 0.554261
O O5 0.842476 0.737838 0.774273
O O6 0.780853 0.809409 0.866778
O O7 0.831818 0.000000 0.816488
O O8 0.914760 0.824210 0.965415
O O9 0.470566 0.762540 0.840899
O O10 0.402617 0.000000 0.793301
O O11 0.621936 0.500000 0.792808
O O12 0.651863 0.229663 0.804416
O O13 0.585108 0.326743 0.874534
O O14 0.520650 0.328031 0.675167
O O15 0.272980 0.000000 0.090240
O O16 0.250000 0.250000 0.000000
O O17 0.507222 0.500000 0.881612
O O18 0.500000 0.712117 0.500000
O O19 0.555918 0.500000 0.479404
#
# Coordination Sequence:
#
# PCOD9202800 Si02
#       8
#     8   8   8   8   8   8   8   4
#     4  11  22  45  65  97 126 167 208 264 317 396
#     4  10  23  41  59  88 127 171 214 250 308 378
#     4  12  25  39  61  94 128 158 211 265 311 367
#     4  10  20  38  63  93 122 167 210 247 305 370
#     4  11  22  40  62  89 125 166 211 260 309 373
#     4  10  20  38  64  88 123 167 211 247 303 378
#     4  10  21  41  69  98 127 165 211 261 317 381
#     4  10  24  42  70  90 126 164 210 254 332 378
#
# _framework density 20.438551
#
# number of rings (size 3 to 8) (size 9 to 14) (size 15 to 20)
#    0.000    1.467    4.000    1.200    1.867    3.733 
#    6.000    0.333    0.000    0.000    0.000    0.000 
#    0.000    0.000    0.000    0.000    0.000    0.000 
#
# Total GULP energy -167156.863900 kJ/mol
# GULP energy per Si atom -5571.895463 kJ/mol
# Density = 2.039203 g / cm^3
# Si number density = 20.438551 Si / 1000 Ang^3
#
#
#
# Elastic Constant Matrix: (Units=GPa)
#
#
# Indices 1 2 3 4 5 6 
#
# 1 130.6648 65.2897 8.5317 0.0000 -6.0468 0.0000
# 2 65.2897 134.0934 15.9926 0.0000 6.2580 0.0000
# 3 8.5317 15.9926 24.7971 0.0000 -4.3833 0.0000
# 4 0.0000 0.0000 0.0000 1.3864 0.0000 -4.1933
# 5 -6.0468 6.2580 -4.3833 0.0000 26.4501 0.0000
# 6 0.0000 0.0000 0.0000 -4.1933 0.0000 22.9151
#
#
#
# Elastic Compliance Matrix: (Units=1/GPa)
#
#
# Indices 1 2 3 4 5 6 
#
# 1 0.010453 -0.005323 0.000496 0.000000 0.003731 0.000000
# 2 -0.005323 0.011005 -0.006121 0.000000 -0.004835 0.000000
# 3 0.000496 -0.006121 0.045719 0.000000 0.009138 0.000000
# 4 0.000000 0.000000 0.000000 1.615299 0.000000 0.295590
# 5 0.003731 -0.004835 0.009138 0.000000 0.041318 0.000000
# 6 0.000000 0.000000 0.000000 0.295590 0.000000 0.097731
#
#
# Mechanical properties :
#
#
# Convention : Reuss Voigt Hill
#
# Bulk Modulus (GPa) = 22.08373 52.13148 37.10760
# Shear Modulus (GPa) = 2.69032 23.46642 13.07837
#
# Velocity S-wave (km/s) = 1.14854 3.39210 2.53234
# Velocity P-wave (km/s) = 3.54785 6.39560 5.17160
#
# Compressibility (1/GPa) = 0.04528221
#
# Stress axis : x y z
#
# Youngs Moduli (GPa) = 95.66477 90.86934 21.87255
#
# Poissons Ratio (x) = 0.48369 -0.01085
# Poissons Ratio (y) = 0.50921 0.13387
# Poissons Ratio (z) = -0.04745 0.55618
#
# Static dielectric constant tensor:
#      x y z
#    x 1.724770 0.000000 -0.002520 
#    y 0.000000 1.689220 0.000000 
#    z -0.002520 0.000000 1.835220 
# 
# From -- ./inp_files/288345.got.cif
#   From: 2010.05.17/outbox.cif.g08.bks.cpg/sg12_145_cif.got.tgz:288345.got - 2010.06.03 13:09:07.
