data_PCOD9202987
_publ_section_title
;
Structure prediction by ZEFSAII (Michael W. Deem and Ramdas Pophale) SiO2 
 PCOD9202987
Probable space group: C 2/M
;
_chemical_formula_sum "Si O2"
_cell_formula_units_Z 56
_cell_length_a 18.356095
_cell_length_b 14.694928
_cell_length_c 9.953332
_cell_angle_alpha 90.000000
_cell_angle_beta 105.855914
_cell_angle_gamma 90.000000
_cell_volume 2582.673885
_symmetry_space_group_name_H-M "C 2/M"
_symmetry_group_IT_number 12
_symmetry_cell_setting 'monoclinic'
loop_
_space_group_symop_operation_xyz
x,y,z
-x,y,-z
-x,-y,-z
x,-y,z
1/2+x,1/2+y,z
1/2-x,1/2+y,-z
1/2-x,1/2-y,-z
1/2+x,1/2-y,z
loop_
_atom_site_type_symbol
_atom_site_label
_atom_site_fract_x
_atom_site_fract_y
_atom_site_fract_z
Si Si1 0.069022 0.390602 0.941433
Si Si2 0.777925 0.720691 0.367383
Si Si3 0.609261 0.602141 0.922616
Si Si4 0.493885 0.388510 0.647370
Si Si5 0.261304 0.833863 0.904330
Si Si6 0.924834 0.391393 0.372064
Si Si7 0.863545 0.109085 0.775953
O O1 0.065905 0.500000 0.945240
O O2 0.062661 0.367614 0.779484
O O3 0.152004 0.363491 0.038456
O O4 0.000000 0.355783 0.000000
O O5 0.750000 0.750000 0.500000
O O6 0.763735 0.803333 0.256698
O O7 0.859952 0.674956 0.396999
O O8 0.720164 0.644016 0.285576
O O9 0.578490 0.500000 0.922581
O O10 0.560812 0.643993 0.778639
O O11 0.696793 0.598430 0.924968
O O12 0.603991 0.645735 0.066513
O O13 0.500000 0.354120 0.500000
O O14 0.496783 0.500000 0.642184
O O15 0.415988 0.362572 0.679246
O O16 0.250000 0.750000 0.000000
O O17 0.902913 0.500000 0.366151
O O18 0.000000 0.382286 0.500000
O O19 0.863905 0.000000 0.783045
#
# Coordination Sequence:
#
# PCOD9202987 Si02
#       7
#     8   8   8   8   8   8   8
#     4  10  22  43  72 101 127 167 224 275 319 382
#     4  12  27  43  60  95 133 167 211 261 327 388
#     4  10  20  38  65  90 117 164 214 253 301 371
#     4   9  19  35  57  89 121 151 196 248 300 357
#     4  12  23  43  62  91 131 165 206 262 330 378
#     4  10  22  45  72  96 128 173 222 270 323 386
#     4  10  20  40  65  87 117 164 214 255 301 371
#
# _framework density 21.682953000000001
#
# number of rings (size 3 to 8) (size 9 to 14) (size 15 to 20)
#    0.000    1.571    2.857    1.286    4.000    4.000 
#    5.143    1.429    0.000    0.000    0.000    0.000 
#    0.000    0.000    0.000    0.000    0.000    0.000 
#
# Total GULP energy -156450.940248 kJ/mol
# GULP energy per Si atom -5587.533580 kJ/mol
# Density = 2.163360 g / cm^3
# Si number density = 21.682953 Si / 1000 Ang^3
#
#
#
# Elastic Constant Matrix: (Units=GPa)
#
#
# Indices 1 2 3 4 5 6 
#
# 1 118.7762 21.0708 43.8391 0.0000 -5.9746 0.0000
# 2 21.0708 52.2318 25.5691 0.0000 -6.3304 0.0000
# 3 43.8391 25.5691 144.0529 0.0000 -20.7269 0.0000
# 4 0.0000 0.0000 0.0000 18.4821 0.0000 -3.6977
# 5 -5.9746 -6.3304 -20.7269 0.0000 43.4064 0.0000
# 6 0.0000 0.0000 0.0000 -3.6977 0.0000 30.7246
#
#
#
# Elastic Compliance Matrix: (Units=1/GPa)
#
#
# Indices 1 2 3 4 5 6 
#
# 1 0.009833 -0.002754 -0.002541 0.000000 -0.000262 0.000000
# 2 -0.002754 0.021816 -0.002825 0.000000 0.001454 0.000000
# 3 -0.002541 -0.002825 0.008705 0.000000 0.003395 0.000000
# 4 0.000000 0.000000 0.000000 0.055441 0.000000 0.006672
# 5 -0.000262 0.001454 0.003395 0.000000 0.024835 0.000000
# 6 0.000000 0.000000 0.000000 0.006672 0.000000 0.033350
#
#
# Mechanical properties :
#
#
# Convention : Reuss Voigt Hill
#
# Bulk Modulus (GPa) = 41.47191 55.11322 48.29256
# Shear Modulus (GPa) = 28.04921 33.49474 30.77197
#
# Velocity S-wave (km/s) = 3.60058 3.93459 3.77129
# Velocity P-wave (km/s) = 6.03768 6.79075 6.42526
#
# Compressibility (1/GPa) = 0.02411271
#
# Stress axis : x y z
#
# Youngs Moduli (GPa) = 101.70322 45.83879 114.87517
#
# Poissons Ratio (x) = 0.12626 0.29191
# Poissons Ratio (y) = 0.28012 0.32451
# Poissons Ratio (z) = 0.25843 0.12949
#
# Static dielectric constant tensor:
#      x y z
#    x 1.773070 0.000000 0.002010 
#    y 0.000000 1.853350 0.000000 
#    z 0.002010 0.000000 1.762110 
# 
# From -- ./inp_files/75980.got.cif
#   From: 2010.05.17/outbox.cif.g08.bks.cpg/sg12_38_cif.got.tgz:75980.got - 2010.06.03 13:09:07.
