data_PCOD9202016
_publ_section_title
;
Structure prediction by ZEFSAII (Michael W. Deem and Ramdas Pophale) SiO2 
 PCOD9202016
Probable space group: C 2/M
;
_chemical_formula_sum "Si O2"
_cell_formula_units_Z 64
_cell_length_a 9.063748
_cell_length_b 29.844275
_cell_length_c 14.995439
_cell_angle_alpha 90.000000
_cell_angle_beta 69.144845
_cell_angle_gamma 90.000000
_cell_volume 3790.527337
_symmetry_space_group_name_H-M "C 2/M"
_symmetry_group_IT_number 12
_symmetry_cell_setting 'monoclinic'
loop_
_space_group_symop_operation_xyz
x,y,z
-x,y,-z
-x,-y,-z
x,-y,z
1/2+x,1/2+y,z
1/2-x,1/2+y,-z
1/2-x,1/2-y,-z
1/2+x,1/2-y,z
loop_
_atom_site_type_symbol
_atom_site_label
_atom_site_fract_x
_atom_site_fract_y
_atom_site_fract_z
Si Si1 0.424838 0.687419 0.100149
Si Si2 0.383101 0.368213 0.603296
Si Si3 0.867633 0.138069 0.299970
Si Si4 0.194141 0.550153 0.563493
Si Si5 0.711989 0.787618 0.719169
Si Si6 0.320809 0.216990 0.561801
Si Si7 0.676127 0.949238 0.352650
Si Si8 0.624627 0.753229 0.158523
O O1 0.410001 0.662499 0.198303
O O2 0.546976 0.728390 0.091600
O O3 0.253301 0.708280 0.116574
O O4 0.500000 0.661734 0.000000
O O5 0.500000 0.350697 0.500000
O O6 0.483373 0.375230 0.671332
O O7 0.303768 0.412741 0.582936
O O8 0.249946 0.332336 0.657607
O O9 0.772987 0.172723 0.385850
O O10 0.770272 0.093469 0.297692
O O11 0.243785 0.500000 0.578675
O O12 0.198214 0.552947 0.455234
O O13 0.009898 0.555931 0.627230
O O14 0.810211 0.748821 0.649407
O O15 0.529521 0.774178 0.760144
O O16 0.785762 0.784555 0.801876
O O17 0.500000 0.205170 0.500000
O O18 0.250000 0.250000 0.500000
O O19 0.723078 0.000000 0.314916
#
# Coordination Sequence:
#
# PCOD9202016 Si02
#       8
#     8   8   8   8   8   8   8   8
#     4  11  23  40  60  81 106 144 195 243 286 329
#     4  12  22  32  50  80 117 154 185 220 271 325
#     4  12  23  36  55  82 114 150 188 238 279 332
#     4   9  20  36  55  78 112 151 190 226 263 330
#     4  11  20  35  49  75 110 149 184 224 259 324
#     4  12  24  33  50  76 118 157 189 219 266 323
#     4   9  20  38  56  80 110 146 189 229 276 332
#     4  10  20  38  57  72 107 146 183 233 280 317
#
# _framework density 16.884194999999998
#
# number of rings (size 3 to 8) (size 9 to 14) (size 15 to 20)
#    0.000    1.250    5.000    3.750    3.500    0.750 
#    0.000    0.000    0.000    0.375    0.000    0.000 
#    0.000    2.000    0.000    0.000    0.000    0.000 
#
# Total GULP energy -178458.534777 kJ/mol
# GULP energy per Si atom -5576.829212 kJ/mol
# Density = 1.684577 g / cm^3
# Si number density = 16.884195 Si / 1000 Ang^3
#
#
#
# Elastic Constant Matrix: (Units=GPa)
#
#
# Indices 1 2 3 4 5 6 
#
# 1 82.4596 30.9036 38.7170 0.0000 -4.5287 0.0000
# 2 30.9036 76.3292 28.9322 0.0000 -7.6482 0.0000
# 3 38.7170 28.9322 83.7861 0.0000 -8.7053 0.0000
# 4 0.0000 0.0000 0.0000 -15.7465 0.0000 -104.5444
# 5 -4.5287 -7.6482 -8.7053 0.0000 11.1806 0.0000
# 6 0.0000 0.0000 0.0000 -104.5444 0.0000 -388.7973
#
#
#
# Elastic Compliance Matrix: (Units=1/GPa)
#
#
# Indices 1 2 3 4 5 6 
#
# 1 0.016700 -0.004499 -0.006289 0.000000 -0.001210 0.000000
# 2 -0.004499 0.016778 -0.002950 0.000000 0.007358 0.000000
# 3 -0.006289 -0.002950 0.016740 0.000000 0.008468 0.000000
# 4 0.000000 0.000000 0.000000 0.080876 0.000000 -0.021747
# 5 -0.001210 0.007358 0.008468 0.000000 0.100577 0.000000
# 6 0.000000 0.000000 0.000000 -0.021747 0.000000 0.003276
#
#
# Mechanical properties :
#
#
# Convention : Reuss Voigt Hill
#
# Bulk Modulus (GPa) = 43.97242 48.85336 46.41289
# Shear Modulus (GPa) = 18.51833 -69.07116 -25.27641
#
# Velocity S-wave (km/s) = 3.31537 -6.40293 -3.87337
# Velocity P-wave (km/s) = 6.38401 5.06619 2.74676
#
# Compressibility (1/GPa) = 0.02274153
#
# Stress axis : x y z
#
# Youngs Moduli (GPa) = 59.88194 59.60149 59.73748
#
# Poissons Ratio (x) = 0.26812 0.37569
# Poissons Ratio (y) = 0.26938 0.17625
# Poissons Ratio (z) = 0.37660 0.17585
#
# Static dielectric constant tensor:
#      x y z
#    x 1.606760 0.000000 -0.006950 
#    y 0.000000 1.572680 0.000000 
#    z -0.006950 0.000000 1.625620 
# 
# From -- ./inp_files/199763.got.cif
#   From: 2010.05.17/outbox.cif.g08.bks.cpg/sg12_100_cif.got.tgz:199763.got - 2010.06.03 13:09:07.
