data_PCOD9202820
_publ_section_title
;
Structure prediction by ZEFSAII (Michael W. Deem and Ramdas Pophale) SiO2 
 PCOD9202820
Probable space group: C 2/M
;
_chemical_formula_sum "Si O2"
_cell_formula_units_Z 28
_cell_length_a 5.746042
_cell_length_b 26.247607
_cell_length_c 8.863925
_cell_angle_alpha 90.000000
_cell_angle_beta 94.213244
_cell_angle_gamma 90.000000
_cell_volume 1333.243034
_symmetry_space_group_name_H-M "C 2/M"
_symmetry_group_IT_number 12
_symmetry_cell_setting 'monoclinic'
loop_
_space_group_symop_operation_xyz
x,y,z
-x,y,-z
-x,-y,-z
x,-y,z
1/2+x,1/2+y,z
1/2-x,1/2+y,-z
1/2-x,1/2-y,-z
1/2+x,1/2-y,z
loop_
_atom_site_type_symbol
_atom_site_label
_atom_site_fract_x
_atom_site_fract_y
_atom_site_fract_z
Si Si1 0.500000 0.876899 0.500000
Si Si2 0.000000 0.778840 0.000000
Si Si3 0.691838 0.441827 0.718171
Si Si4 0.000000 0.407848 0.000000
Si Si5 0.179098 0.856823 0.230302
O O1 0.346785 0.913458 0.600005
O O2 0.334391 0.844183 0.382971
O O3 0.982064 0.813547 0.848212
O O4 0.250000 0.750000 0.000000
O O5 0.639378 0.500000 0.676053
O O6 0.466558 0.406940 0.732491
O O7 0.835489 0.439809 0.881646
O O8 0.153565 0.372799 0.898708
#
# Coordination Sequence:
#
# PCOD9202820 Si02
#       5
#     4   4   8   4   8
#     4  10  25  40  66  92 152 178 224 270 351 404
#     4  12  27  48  80 104 131 177 240 299 364 420
#     4  11  22  38  64 100 140 186 228 272 335 414
#     4  10  20  38  63  94 142 177 230 279 339 396
#     4  11  23  44  67 100 136 177 228 289 344 413
#
# _framework density 21.001422000000002
#
# number of rings (size 3 to 8) (size 9 to 14) (size 15 to 20)
#    0.000    1.143    2.857    2.571    4.000    9.143 
#    0.000    1.429    0.000    0.000    0.000    0.000 
#    0.000    0.000    0.000    0.000    0.000    0.000 
#
# Total GULP energy -78249.584835 kJ/mol
# GULP energy per Si atom -5589.256060 kJ/mol
# Density = 2.095362 g / cm^3
# Si number density = 21.001422 Si / 1000 Ang^3
#
#
#
# Elastic Constant Matrix: (Units=GPa)
#
#
# Indices 1 2 3 4 5 6 
#
# 1 110.3235 32.1120 50.6068 0.0000 18.5702 0.0000
# 2 32.1120 67.5174 26.5453 0.0000 32.2863 0.0000
# 3 50.6068 26.5453 144.9559 0.0000 34.8432 0.0000
# 4 0.0000 0.0000 0.0000 -181.7385 0.0000 -154.2201
# 5 18.5702 32.2863 34.8432 0.0000 47.4775 0.0000
# 6 0.0000 0.0000 0.0000 -154.2201 0.0000 -100.3118
#
#
#
# Elastic Compliance Matrix: (Units=1/GPa)
#
#
# Indices 1 2 3 4 5 6 
#
# 1 0.011905 -0.004867 -0.003571 0.000000 0.001274 0.000000
# 2 -0.004867 0.023971 0.000935 0.000000 -0.015084 0.000000
# 3 -0.003571 0.000935 0.009460 0.000000 -0.006182 0.000000
# 4 0.000000 0.000000 0.000000 0.018063 0.000000 -0.027771
# 5 0.001274 -0.015084 -0.006182 0.000000 0.035358 0.000000
# 6 0.000000 0.000000 0.000000 -0.027771 0.000000 0.032726
#
#
# Mechanical properties :
#
#
# Convention : Reuss Voigt Hill
#
# Bulk Modulus (GPa) = 32.97132 60.14722 46.55927
# Shear Modulus (GPa) = 31.92848 -32.67905 -0.37529
#
# Velocity S-wave (km/s) = 3.90333 -3.94895 -0.42318
# Velocity P-wave (km/s) = 6.00403 2.81239 4.68817
#
# Compressibility (1/GPa) = 0.03032939
#
# Stress axis : x y z
#
# Youngs Moduli (GPa) = 84.00113 41.71665 105.70762
#
# Poissons Ratio (x) = 0.20305 0.37749
# Poissons Ratio (y) = 0.40886 -0.09886
# Poissons Ratio (z) = 0.29998 -0.03901
#
# Static dielectric constant tensor:
#      x y z
#    x 1.802800 0.000000 0.035950 
#    y 0.000000 1.747520 0.000000 
#    z 0.035950 0.000000 1.757130 
# 
# From -- ./inp_files/33992.got.cif
#   From: 2010.05.17/outbox.cif.g08.bks.cpg/sg12_17_cif.got.tgz:33992.got - 2010.06.03 13:09:07.
