data_PCOD9202586
_publ_section_title
;
Structure prediction by ZEFSAII (Michael W. Deem and Ramdas Pophale) SiO2 
 PCOD9202586
Probable space group: C 2/M
;
_chemical_formula_sum "Si O2"
_cell_formula_units_Z 64
_cell_length_a 14.571164
_cell_length_b 12.551790
_cell_length_c 23.485726
_cell_angle_alpha 90.000000
_cell_angle_beta 36.899576
_cell_angle_gamma 90.000000
_cell_volume 2579.021326
_symmetry_space_group_name_H-M "C 2/M"
_symmetry_group_IT_number 12
_symmetry_cell_setting 'monoclinic'
loop_
_space_group_symop_operation_xyz
x,y,z
-x,y,-z
-x,-y,-z
x,-y,z
1/2+x,1/2+y,z
1/2-x,1/2+y,-z
1/2-x,1/2-y,-z
1/2+x,1/2-y,z
loop_
_atom_site_type_symbol
_atom_site_label
_atom_site_fract_x
_atom_site_fract_y
_atom_site_fract_z
Si Si1 0.151636 0.118748 0.884136
Si Si2 0.890593 0.381200 0.412894
Si Si3 0.824449 0.613579 0.020623
Si Si4 0.199476 0.378011 0.723853
Si Si5 0.983139 0.210855 0.867724
Si Si6 0.124433 0.683594 0.390886
Si Si7 0.707997 0.660009 0.192559
Si Si8 0.855281 0.164419 0.367058
O O1 0.269717 0.214665 0.833817
O O2 0.100017 0.137320 0.844304
O O3 0.212626 0.000000 0.862914
O O4 0.000000 0.127846 0.000000
O O5 0.901427 0.500000 0.384286
O O6 0.859490 0.290664 0.381608
O O7 0.751983 0.378119 0.528209
O O8 0.046125 0.353476 0.371188
O O9 0.873576 0.500000 0.971591
O O10 0.648544 0.638628 0.092188
O O11 0.818728 0.609881 0.090998
O O12 0.912672 0.712711 0.951361
O O13 0.184841 0.500000 0.713494
O O14 0.341090 0.309902 0.629288
O O15 0.230975 0.370416 0.775964
O O16 0.055172 0.298098 0.789428
O O17 0.275517 0.636959 0.346383
O O18 0.000000 0.660611 0.500000
O O19 0.530608 0.629144 0.279381
#
# Coordination Sequence:
#
# PCOD9202586 Si02
#       8
#     8   8   8   8   8   8   8   8
#     4  10  20  38  62  88 122 167 208 256 317 369
#     4  10  22  43  68  96 129 172 218 269 335 399
#     4  11  22  38  61  89 121 164 210 261 324 379
#     4  11  23  40  61  87 125 169 210 261 325 385
#     4  10  22  40  59  87 123 160 207 269 307 386
#     4  10  22  43  66  95 130 167 216 275 326 396
#     4  11  22  40  60  94 129 163 212 264 312 392
#     4  10  22  41  64  94 133 166 211 274 326 390
#
# _framework density 24.815615000000001
#
# number of rings (size 3 to 8) (size 9 to 14) (size 15 to 20)
#    0.000    1.625    2.500    1.875    0.000    4.500 
#    0.000    5.625    0.000    0.000    0.000    0.000 
#    0.000    0.000    0.000    0.000    0.000    0.000 
#
# Total GULP energy -178854.453818 kJ/mol
# GULP energy per Si atom -5589.201682 kJ/mol
# Density = 2.475913 g / cm^3
# Si number density = 24.815615 Si / 1000 Ang^3
#
#
#
# Elastic Constant Matrix: (Units=GPa)
#
#
# Indices 1 2 3 4 5 6 
#
# 1 90.6515 5.3797 19.1959 0.0000 -3.7251 0.0000
# 2 5.3797 151.2975 -4.5080 0.0000 -4.3940 0.0000
# 3 19.1959 -4.5080 76.2970 -0.0003 -16.4858 0.0001
# 4 0.0000 0.0000 -0.0003 9.9321 0.0001 -2.3092
# 5 -3.7251 -4.3940 -16.4858 0.0001 34.9184 0.0000
# 6 0.0000 0.0000 0.0001 -2.3092 0.0000 6.1805
#
#
#
# Elastic Compliance Matrix: (Units=1/GPa)
#
#
# Indices 1 2 3 4 5 6 
#
# 1 0.011692 -0.000513 -0.003025 0.000000 -0.000245 0.000000
# 2 -0.000513 0.006684 0.000773 0.000000 0.001151 0.000000
# 3 -0.003025 0.000773 0.015440 0.000000 0.007064 0.000000
# 4 0.000000 0.000000 0.000000 0.110261 0.000000 0.041196
# 5 -0.000245 0.001151 0.007064 0.000000 0.032092 0.000000
# 6 0.000000 0.000000 0.000000 0.041196 0.000000 0.177191
#
#
# Mechanical properties :
#
#
# Convention : Reuss Voigt Hill
#
# Bulk Modulus (GPa) = 35.35370 39.82013 37.58692
# Shear Modulus (GPa) = 13.57517 30.08478 21.82997
#
# Velocity S-wave (km/s) = 2.34143 3.48563 2.96917
# Velocity P-wave (km/s) = 4.64620 5.68162 5.18980
#
# Compressibility (1/GPa) = 0.02828558
#
# Stress axis : x y z
#
# Youngs Moduli (GPa) = 85.52727 149.60669 64.76785
#
# Poissons Ratio (x) = 0.07675 0.19592
# Poissons Ratio (y) = 0.04388 -0.05005
# Poissons Ratio (z) = 0.25872 -0.11561
#
# Static dielectric constant tensor:
#      x y z
#    x 1.992460 0.000000 -0.004400 
#    y 0.000000 1.965280 0.000000 
#    z -0.004400 0.000000 2.005750 
# 
# From -- ./inp_files/361019.got.cif
#   From: 2010.05.17/outbox.cif.g08.bks.cpg/sg12_181_cif.got.tgz:361019.got - 2010.06.03 13:09:07.
