data_PCOD9202074
_publ_section_title
;
Structure prediction by ZEFSAII (Michael W. Deem and Ramdas Pophale) SiO2 
 PCOD9202074
Probable space group: C 2/M
;
_chemical_formula_sum "Si O2"
_cell_formula_units_Z 58
_cell_length_a 5.586588
_cell_length_b 25.280402
_cell_length_c 19.338778
_cell_angle_alpha 90.000000
_cell_angle_beta 99.724463
_cell_angle_gamma 90.000000
_cell_volume 2691.994675
_symmetry_space_group_name_H-M "C 2/M"
_symmetry_group_IT_number 12
_symmetry_cell_setting 'monoclinic'
loop_
_space_group_symop_operation_xyz
x,y,z
-x,y,-z
-x,-y,-z
x,-y,z
1/2+x,1/2+y,z
1/2-x,1/2+y,-z
1/2-x,1/2-y,-z
1/2+x,1/2-y,z
loop_
_atom_site_type_symbol
_atom_site_label
_atom_site_fract_x
_atom_site_fract_y
_atom_site_fract_z
Si Si1 0.768747 0.082283 0.077829
Si Si2 0.000000 0.000000 0.000000
Si Si3 0.580627 0.234297 0.210731
Si Si4 0.063446 0.626942 0.837211
Si Si5 0.497368 0.692136 0.923947
Si Si6 0.577064 0.935599 0.581608
Si Si7 0.620766 0.563595 0.650095
Si Si8 0.597873 0.441076 0.220061
O O1 0.544174 0.081971 0.119041
O O2 0.805702 0.144628 0.064641
O O3 0.980929 0.060364 0.138530
O O4 0.802805 0.046453 0.013540
O O5 0.837910 0.258979 0.245148
O O6 0.618235 0.172579 0.196694
O O7 0.489298 0.265453 0.136707
O O8 0.257176 0.659336 0.892420
O O9 0.193049 0.601564 0.777400
O O10 0.500000 0.716993 0.000000
O O11 0.500000 0.921882 0.500000
O O12 0.361534 0.916924 0.622708
O O13 0.854069 0.917902 0.610537
O O14 0.583705 0.000000 0.586258
O O15 0.624509 0.500000 0.640068
O O16 0.600255 0.572167 0.731573
O O17 0.691734 0.500000 0.240061
#
# Coordination Sequence:
#
# PCOD9202074 Si02
#       8
#     8   2   8   8   8   8   8   8
#     4  11  22  41  53  74 101 136 183 236 292 337
#     4  12  24  40  58  72 106 136 182 248 290 340
#     4  10  20  38  58  82 107 129 162 216 286 353
#     4  10  23  37  57  77  99 137 175 226 290 343
#     4  10  21  39  56  79 103 122 167 221 292 366
#     4   9  16  28  47  75 108 140 176 227 270 310
#     4   9  18  30  48  73 103 140 189 223 268 312
#     4  10  22  37  53  75 104 144 195 239 271 325
#
# _framework density 21.545361
#
# number of rings (size 3 to 8) (size 9 to 14) (size 15 to 20)
#    0.000    2.069    2.759    0.414    2.897    4.414 
#    0.000    2.759    0.000    0.000    0.000    0.000 
#    0.000    0.000    0.000    0.000    0.000  124.138 
#
# Total GULP energy -161497.475599 kJ/mol
# GULP energy per Si atom -5568.878469 kJ/mol
# Density = 2.149632 g / cm^3
# Si number density = 21.545361 Si / 1000 Ang^3
#
#
#
# Elastic Constant Matrix: (Units=GPa)
#
#
# Indices 1 2 3 4 5 6 
#
# 1 108.9316 20.9363 29.2890 0.0000 -25.3159 0.0000
# 2 20.9363 76.1899 10.0360 0.0000 -13.5420 0.0000
# 3 29.2890 10.0360 45.7922 0.0000 -2.0467 0.0000
# 4 0.0000 0.0000 0.0000 -9.5180 0.0000 0.9827
# 5 -25.3159 -13.5420 -2.0467 0.0000 34.2890 0.0000
# 6 0.0000 0.0000 0.0000 0.9827 0.0000 21.6338
#
#
#
# Elastic Compliance Matrix: (Units=1/GPa)
#
#
# Indices 1 2 3 4 5 6 
#
# 1 0.013711 -0.001059 -0.008126 0.000000 0.009220 0.000000
# 2 -0.001059 0.014579 -0.002302 0.000000 0.004839 0.000000
# 3 -0.008126 -0.002302 0.027304 0.000000 -0.005279 0.000000
# 4 0.000000 0.000000 0.000000 -0.104574 0.000000 0.004750
# 5 0.009220 0.004839 -0.005279 0.000000 0.037567 0.000000
# 6 0.000000 0.000000 0.000000 0.004750 0.000000 0.046008
#
#
# Mechanical properties :
#
#
# Convention : Reuss Voigt Hill
#
# Bulk Modulus (GPa) = 30.65445 39.04847 34.85146
# Shear Modulus (GPa) = 73.05541 20.65778 46.85660
#
# Velocity S-wave (km/s) = 5.82935 3.09982 4.66852
# Velocity P-wave (km/s) = 7.71798 5.56552 6.72838
#
# Compressibility (1/GPa) = 0.03262169
#
# Stress axis : x y z
#
# Youngs Moduli (GPa) = 72.93416 68.59048 36.62531
#
# Poissons Ratio (x) = 0.07261 0.29760
# Poissons Ratio (y) = 0.07721 0.08431
# Poissons Ratio (z) = 0.59263 0.15789
#
# Static dielectric constant tensor:
#      x y z
#    x 1.926820 0.000000 -0.000450 
#    y 0.000000 1.789790 0.000000 
#    z -0.000450 0.000000 1.820920 
# 
# From -- ./inp_files/253625.got.cif
#   From: 2010.05.17/outbox.cif.g08.bks.cpg/sg12_127_cif.got.tgz:253625.got - 2010.06.03 13:09:07.
