data_PCOD9202773
_publ_section_title
;
Structure prediction by ZEFSAII (Michael W. Deem and Ramdas Pophale) SiO2 
 PCOD9202773
Probable space group: C 2/M
;
_chemical_formula_sum "Si O2"
_cell_formula_units_Z 48
_cell_length_a 13.828769
_cell_length_b 15.548022
_cell_length_c 27.040529
_cell_angle_alpha 90.000000
_cell_angle_beta 159.321177
_cell_angle_gamma 90.000000
_cell_volume 2053.086867
_symmetry_space_group_name_H-M "C 2/M"
_symmetry_group_IT_number 12
_symmetry_cell_setting 'monoclinic'
loop_
_space_group_symop_operation_xyz
x,y,z
-x,y,-z
-x,-y,-z
x,-y,z
1/2+x,1/2+y,z
1/2-x,1/2+y,-z
1/2-x,1/2-y,-z
1/2+x,1/2-y,z
loop_
_atom_site_type_symbol
_atom_site_label
_atom_site_fract_x
_atom_site_fract_y
_atom_site_fract_z
Si Si1 0.371867 0.595544 0.648718
Si Si2 0.974322 0.662620 0.376045
Si Si3 0.081947 0.157359 0.482056
Si Si4 0.019579 0.407239 0.195782
Si Si5 0.988875 0.594821 0.067037
Si Si6 0.975371 0.208088 0.189980
O O1 0.339237 0.500000 0.654765
O O2 0.683687 0.603632 0.779183
O O3 0.361806 0.668947 0.685295
O O4 0.151401 0.607251 0.499895
O O5 0.648256 0.665886 0.226787
O O6 0.025587 0.758896 0.421731
O O7 0.105185 0.640579 0.385207
O O8 0.000000 0.168547 0.500000
O O9 0.851929 0.090981 0.354534
O O10 0.928946 0.500000 0.174332
O O11 0.921273 0.402962 0.092476
O O12 0.956366 0.311175 0.185550
O O13 0.912446 0.500000 0.011181
O O14 0.820882 0.666506 0.958031
#
# Coordination Sequence:
#
# PCOD9202773 Si02
#       6
#     8   8   8   8   8   8
#     4  11  22  39  64  95 131 170 205 253 327 396
#     4  10  21  37  60  95 131 156 206 265 316 364
#     4  10  20  38  63  91 123 167 213 254 306 378
#     4  10  21  40  62  85 122 170 215 255 306 373
#     4  10  21  39  64  93 127 168 210 254 319 394
#     4  11  22  37  61  99 128 165 210 266 316 371
#
# _framework density 23.379429999999999
#
# number of rings (size 3 to 8) (size 9 to 14) (size 15 to 20)
#    0.000    1.667    1.667    4.000    0.000    3.667 
#    0.000    0.000    0.000    2.000    0.000    0.000 
#    0.000    0.000    0.000    0.000    0.000    0.000 
#
# Total GULP energy -133746.360755 kJ/mol
# GULP energy per Si atom -5572.765031 kJ/mol
# Density = 2.332622 g / cm^3
# Si number density = 23.379430 Si / 1000 Ang^3
#
#
#
# Elastic Constant Matrix: (Units=GPa)
#
#
# Indices 1 2 3 4 5 6 
#
# 1 106.5180 41.5115 18.5792 -0.0027 1.3405 0.0192
# 2 41.5115 189.9779 45.9419 0.0004 -1.9164 0.0015
# 3 18.5792 45.9419 82.4894 -0.0175 14.2143 0.0715
# 4 -0.0027 0.0004 -0.0175 23.1289 0.0026 -3.7662
# 5 1.3405 -1.9164 14.2143 0.0026 27.8223 -0.0206
# 6 0.0192 0.0015 0.0715 -3.7662 -0.0206 48.1070
#
#
#
# Elastic Compliance Matrix: (Units=1/GPa)
#
#
# Indices 1 2 3 4 5 6 
#
# 1 0.010371 -0.001966 -0.001241 0.000000 -0.000001 -0.000002
# 2 -0.001966 0.006600 -0.003649 -0.000002 0.002414 0.000007
# 3 -0.001241 -0.003649 0.015864 0.000009 -0.008297 -0.000026
# 4 0.000000 -0.000002 0.000009 0.043794 -0.000006 0.003429
# 5 -0.000001 0.002414 -0.008297 -0.000006 0.040347 0.000029
# 6 -0.000002 0.000007 -0.000026 0.003429 0.000029 0.021055
#
#
# Mechanical properties :
#
#
# Convention : Reuss Voigt Hill
#
# Bulk Modulus (GPa) = 52.29129 65.67228 58.98178
# Shear Modulus (GPa) = 31.62195 38.00847 34.81521
#
# Velocity S-wave (km/s) = 3.68170 4.03640 3.86312
# Velocity P-wave (km/s) = 6.36303 7.06216 6.72169
#
# Compressibility (1/GPa) = 0.01912365
#
# Stress axis : x y z
#
# Youngs Moduli (GPa) = 96.42550 151.51173 63.03522
#
# Poissons Ratio (x) = 0.29788 0.07820
# Poissons Ratio (y) = 0.18958 0.23002
# Poissons Ratio (z) = 0.11963 0.55287
#
# Static dielectric constant tensor:
#      x y z
#    x 2.040770 0.000000 0.115950 
#    y 0.000000 1.924890 -0.000010 
#    z 0.115950 -0.000010 1.993240 
# 
# From -- ./inp_files/376646.got.cif
#   From: 2010.05.17/outbox.cif.g08.bks.cpg/sg12_189_cif.got.tgz:376646.got - 2010.06.03 13:09:07.
