data_PCOD9202403
_publ_section_title
;
Structure prediction by ZEFSAII (Michael W. Deem and Ramdas Pophale) SiO2 
 PCOD9202403
Probable space group: C 2/M
;
_chemical_formula_sum "Si O2"
_cell_formula_units_Z 48
_cell_length_a 21.716079
_cell_length_b 14.079420
_cell_length_c 14.178536
_cell_angle_alpha 90.000000
_cell_angle_beta 28.177021
_cell_angle_gamma 90.000000
_cell_volume 2047.015077
_symmetry_space_group_name_H-M "C 2/M"
_symmetry_group_IT_number 12
_symmetry_cell_setting 'monoclinic'
loop_
_space_group_symop_operation_xyz
x,y,z
-x,y,-z
-x,-y,-z
x,-y,z
1/2+x,1/2+y,z
1/2-x,1/2+y,-z
1/2-x,1/2-y,-z
1/2+x,1/2-y,z
loop_
_atom_site_type_symbol
_atom_site_label
_atom_site_fract_x
_atom_site_fract_y
_atom_site_fract_z
Si Si1 0.990232 0.103007 0.149791
Si Si2 0.185703 0.608179 0.515284
Si Si3 0.008480 0.897313 0.350782
Si Si4 0.790664 0.343253 0.007939
Si Si5 0.963388 0.322660 0.444282
Si Si6 0.033336 0.307742 0.058239
O O1 0.835943 0.110957 0.340435
O O2 0.011708 0.107381 0.233014
O O3 0.054156 0.195249 0.020165
O O4 0.037806 0.000000 0.052144
O O5 0.140596 0.500000 0.590110
O O6 0.163104 0.638876 0.437836
O O7 0.094679 0.673594 0.704257
O O8 0.956469 0.793235 0.450837
O O9 0.945683 0.000000 0.460623
O O10 0.157215 0.899546 0.185563
O O11 0.920494 0.368533 0.775190
O O12 0.843867 0.338080 0.043228
O O13 0.750000 0.250000 0.000000
O O14 0.000000 0.349605 0.500000
O O15 0.000000 0.348701 0.000000
#
# Coordination Sequence:
#
# PCOD9202403 Si02
#       6
#     8   8   8   8   8   8
#     4  10  20  38  61  86 118 156 193 236 295 351
#     4  10  22  41  60  84 120 157 195 243 295 348
#     4  10  20  38  62  86 118 156 192 238 294 350
#     4   9  18  38  55  82 117 156 189 235 288 345
#     4  10  21  37  64  89 115 151 202 242 292 349
#     4  11  22  37  65  89 117 153 200 246 294 345
#
# _framework density 23.448775999999999
#
# number of rings (size 3 to 8) (size 9 to 14) (size 15 to 20)
#    0.000    2.000    5.000    0.500    0.000    6.667 
#    0.000    0.000    0.000    0.000    0.000    0.000 
#    0.000    0.000    0.000    0.000    0.000    0.000 
#
# Total GULP energy -133881.487519 kJ/mol
# GULP energy per Si atom -5578.395313 kJ/mol
# Density = 2.339541 g / cm^3
# Si number density = 23.448776 Si / 1000 Ang^3
#
#
#
# Elastic Constant Matrix: (Units=GPa)
#
#
# Indices 1 2 3 4 5 6 
#
# 1 237.3902 10.8329 25.3354 0.0000 4.7033 0.0000
# 2 10.8329 78.5229 0.0817 0.0000 -6.6677 0.0000
# 3 25.3354 0.0817 31.6785 0.0000 -4.8072 0.0000
# 4 0.0000 0.0000 0.0000 9.7632 0.0000 -5.3027
# 5 4.7033 -6.6677 -4.8072 0.0000 41.2042 0.0000
# 6 0.0000 0.0000 0.0000 -5.3027 0.0000 37.9469
#
#
#
# Elastic Compliance Matrix: (Units=1/GPa)
#
#
# Indices 1 2 3 4 5 6 
#
# 1 0.004686 -0.000737 -0.003914 0.000000 -0.001111 0.000000
# 2 -0.000737 0.013031 0.000904 0.000000 0.002298 0.000000
# 3 -0.003914 0.000904 0.035412 0.000000 0.004725 0.000000
# 4 0.000000 0.000000 0.000000 0.110837 0.000000 0.015488
# 5 -0.001111 0.002298 0.004725 0.000000 0.025319 0.000000
# 6 0.000000 0.000000 0.000000 0.015488 0.000000 0.028517
#
#
# Mechanical properties :
#
#
# Convention : Reuss Voigt Hill
#
# Bulk Modulus (GPa) = 21.91256 46.67684 34.29470
# Shear Modulus (GPa) = 20.78936 38.53897 29.66417
#
# Velocity S-wave (km/s) = 2.98079 4.05846 3.56063
# Velocity P-wave (km/s) = 4.60564 6.47383 5.61794
#
# Compressibility (1/GPa) = 0.04563593
#
# Stress axis : x y z
#
# Youngs Moduli (GPa) = 213.40877 76.74015 28.23879
#
# Poissons Ratio (x) = 0.05653 0.11053
# Poissons Ratio (y) = 0.15722 -0.02554
# Poissons Ratio (z) = 0.83533 -0.06940
#
# Static dielectric constant tensor:
#      x y z
#    x 1.968650 0.000000 0.017930 
#    y 0.000000 1.937020 0.000000 
#    z 0.017930 0.000000 1.907060 
# 
# From -- ./inp_files/233355.got.cif
#   From: 2010.05.17/outbox.cif.g08.bks.cpg/sg12_117_cif.got.tgz:233355.got - 2010.06.03 13:09:07.
