data_PCOD9202380
_publ_section_title
;
Structure prediction by ZEFSAII (Michael W. Deem and Ramdas Pophale) SiO2 
 PCOD9202380
Probable space group: C 2/M
;
_chemical_formula_sum "Si O2"
_cell_formula_units_Z 56
_cell_length_a 13.515448
_cell_length_b 13.740095
_cell_length_c 18.758523
_cell_angle_alpha 90.000000
_cell_angle_beta 130.228061
_cell_angle_gamma 90.000000
_cell_volume 2659.600365
_symmetry_space_group_name_H-M "C 2/M"
_symmetry_group_IT_number 12
_symmetry_cell_setting 'monoclinic'
loop_
_space_group_symop_operation_xyz
x,y,z
-x,y,-z
-x,-y,-z
x,-y,z
1/2+x,1/2+y,z
1/2-x,1/2+y,-z
1/2-x,1/2-y,-z
1/2+x,1/2-y,z
loop_
_atom_site_type_symbol
_atom_site_label
_atom_site_fract_x
_atom_site_fract_y
_atom_site_fract_z
Si Si1 0.711639 0.886292 0.298385
Si Si2 0.121878 0.617384 0.103468
Si Si3 0.858485 0.795591 0.643579
Si Si4 0.962308 0.882876 0.904007
Si Si5 0.608413 0.618184 0.835180
Si Si6 0.795102 0.614094 0.304429
Si Si7 0.477736 0.285930 0.405733
O O1 0.624902 0.859633 0.188712
O O2 0.674359 0.812351 0.343717
O O3 0.860954 0.864532 0.344636
O O4 0.696834 0.000000 0.308346
O O5 0.126941 0.500000 0.103906
O O6 0.252957 0.651788 0.127105
O O7 0.000000 0.646315 0.000000
O O8 0.756625 0.862886 0.639201
O O9 0.996672 0.830922 0.738339
O O10 0.888749 0.805179 0.574030
O O11 0.823412 0.857060 0.803961
O O12 0.075082 0.857138 0.900997
O O13 0.957107 0.000000 0.903871
O O14 0.000000 0.849818 0.000000
O O15 0.597913 0.500000 0.822385
O O16 0.821987 0.500000 0.309012
O O17 0.915779 0.684970 0.348864
O O18 0.500000 0.277595 0.500000
#
# Coordination Sequence:
#
# PCOD9202380 Si02
#       7
#     8   8   8   8   8   8   8
#     4  10  22  40  60  86 120 152 190 243 289 336
#     4   9  17  33  57  84 116 154 193 231 279 338
#     4  10  20  38  61  85 114 149 193 241 289 343
#     4   8  14  28  52  84 117 149 189 230 270 327
#     4   9  16  31  59  85 112 156 195 228 278 340
#     4   9  20  38  61  87 117 155 191 233 289 343
#     4  11  24  41  61  85 115 150 192 242 295 351
#
# _framework density 21.055795
#
# number of rings (size 3 to 8) (size 9 to 14) (size 15 to 20)
#    0.000    2.571    1.429    1.286    0.000    4.000 
#    2.571    8.571    0.000    0.000    0.000    0.000 
#    0.000    0.571    0.000    0.000    0.000    0.000 
#
# Total GULP energy -156219.772998 kJ/mol
# GULP energy per Si atom -5579.277607 kJ/mol
# Density = 2.100787 g / cm^3
# Si number density = 21.055795 Si / 1000 Ang^3
#
#
#
# Elastic Constant Matrix: (Units=GPa)
#
#
# Indices 1 2 3 4 5 6 
#
# 1 62.7263 -4.7582 19.0120 0.0000 -11.7139 0.0000
# 2 -4.7582 83.7183 4.7506 0.0000 -3.0935 0.0000
# 3 19.0120 4.7506 83.1255 0.0000 -17.1710 0.0000
# 4 0.0000 0.0000 0.0000 11.1490 0.0000 5.4959
# 5 -11.7139 -3.0935 -17.1710 0.0000 36.8673 0.0000
# 6 0.0000 0.0000 0.0000 5.4959 0.0000 21.4831
#
#
#
# Elastic Compliance Matrix: (Units=1/GPa)
#
#
# Indices 1 2 3 4 5 6 
#
# 1 0.017833 0.001357 -0.003278 0.000000 0.004253 0.000000
# 2 0.001357 0.012106 -0.000778 0.000000 0.001084 0.000000
# 3 -0.003278 -0.000778 0.013936 0.000000 0.005384 0.000000
# 4 0.000000 0.000000 0.000000 0.102637 0.000000 -0.026257
# 5 0.004253 0.001084 0.005384 0.000000 0.031074 0.000000
# 6 0.000000 0.000000 0.000000 -0.026257 0.000000 0.053266
#
#
# Mechanical properties :
#
#
# Convention : Reuss Voigt Hill
#
# Bulk Modulus (GPa) = 25.98932 29.73098 27.86015
# Shear Modulus (GPa) = 20.07414 27.93760 24.00587
#
# Velocity S-wave (km/s) = 3.09103 3.64653 3.38021
# Velocity P-wave (km/s) = 5.01091 5.64626 5.33805
#
# Compressibility (1/GPa) = 0.03847734
#
# Stress axis : x y z
#
# Youngs Moduli (GPa) = 56.07613 82.60256 71.75516
#
# Poissons Ratio (x) = -0.11207 0.23518
# Poissons Ratio (y) = -0.07608 0.05584
# Poissons Ratio (z) = 0.18379 0.06428
#
# Static dielectric constant tensor:
#      x y z
#    x 1.792030 0.000000 -0.029850 
#    y 0.000000 1.759460 0.000000 
#    z -0.029850 0.000000 1.794510 
# 
# From -- ./inp_files/270358.got.cif
#   From: 2010.05.17/outbox.cif.g08.bks.cpg/sg12_136_cif.got.tgz:270358.got - 2010.06.03 13:09:07.
