data_PCOD9202142
_publ_section_title
;
Structure prediction by ZEFSAII (Michael W. Deem and Ramdas Pophale) SiO2 
 PCOD9202142
Probable space group: C 2/M
;
_chemical_formula_sum "Si O2"
_cell_formula_units_Z 56
_cell_length_a 22.590403
_cell_length_b 7.652268
_cell_length_c 18.341121
_cell_angle_alpha 90.000000
_cell_angle_beta 50.670508
_cell_angle_gamma 90.000000
_cell_volume 2452.495689
_symmetry_space_group_name_H-M "C 2/M"
_symmetry_group_IT_number 12
_symmetry_cell_setting 'monoclinic'
loop_
_space_group_symop_operation_xyz
x,y,z
-x,y,-z
-x,-y,-z
x,-y,z
1/2+x,1/2+y,z
1/2-x,1/2+y,-z
1/2-x,1/2-y,-z
1/2+x,1/2-y,z
loop_
_atom_site_type_symbol
_atom_site_label
_atom_site_fract_x
_atom_site_fract_y
_atom_site_fract_z
Si Si1 0.647062 0.199989 0.746508
Si Si2 0.789809 0.210083 0.547130
Si Si3 0.605152 0.301943 0.937506
Si Si4 0.962581 0.213879 0.451568
Si Si5 0.252193 0.208181 0.083640
Si Si6 0.415965 0.713755 0.764750
Si Si7 0.517900 0.701982 0.138200
O O1 0.727608 0.271581 0.655634
O O2 0.634550 0.207033 0.842692
O O3 0.571569 0.290812 0.774440
O O4 0.642893 0.000000 0.725187
O O5 0.750000 0.250000 0.500000
O O6 0.876091 0.273484 0.498189
O O7 0.795566 0.000000 0.546803
O O8 0.585859 0.500000 0.928624
O O9 0.677175 0.302222 0.935033
O O10 0.538934 0.224891 0.041932
O O11 0.000000 0.266960 0.500000
O O12 0.021795 0.269162 0.342511
O O13 0.960684 0.000000 0.454007
O O14 0.171432 0.260963 0.182254
O O15 0.261940 0.000000 0.085327
O O16 0.250000 0.250000 0.000000
O O17 0.418680 0.500000 0.765078
O O18 0.437517 0.780082 0.828527
O O19 0.540919 0.500000 0.114224
#
# Coordination Sequence:
#
# PCOD9202142 Si02
#       7
#     8   8   8   8   8   8   8
#     4  11  24  38  57  89 120 150 190 244 305 355
#     4  10  22  40  63  90 119 155 202 250 301 359
#     4  11  23  39  58  84 116 156 201 242 290 355
#     4   9  18  33  58  88 115 149 198 249 293 346
#     4  11  21  36  58  86 120 156 193 241 292 349
#     4   9  18  33  56  83 113 152 195 237 283 341
#     4  10  20  38  59  82 114 156 202 239 282 354
#
# _framework density 22.833883
#
# number of rings (size 3 to 8) (size 9 to 14) (size 15 to 20)
#    0.000    1.857    1.429    2.571    2.000    5.143 
#    0.000    0.000    0.000    1.286    0.000    0.000 
#    0.000    0.000    0.000    0.000    0.000    0.000 
#
# Total GULP energy -156382.896372 kJ/mol
# GULP energy per Si atom -5585.103442 kJ/mol
# Density = 2.278191 g / cm^3
# Si number density = 22.833883 Si / 1000 Ang^3
#
#
#
# Elastic Constant Matrix: (Units=GPa)
#
#
# Indices 1 2 3 4 5 6 
#
# 1 129.4194 5.4692 59.2478 0.0005 -23.3075 0.0000
# 2 5.4692 53.2688 8.9087 0.0011 -7.6774 0.0015
# 3 59.2478 8.9087 166.8337 0.0006 -29.6157 -0.0003
# 4 0.0005 0.0011 0.0006 14.3153 -0.0010 -2.1618
# 5 -23.3075 -7.6774 -29.6157 -0.0010 48.9555 0.0011
# 6 0.0000 0.0015 -0.0003 -2.1618 0.0011 24.3979
#
#
#
# Elastic Compliance Matrix: (Units=1/GPa)
#
#
# Indices 1 2 3 4 5 6 
#
# 1 0.009557 -0.000096 -0.002895 0.000000 0.002784 0.000000
# 2 -0.000096 0.019253 -0.000522 -0.000001 0.002658 -0.000001
# 3 -0.002895 -0.000522 0.007608 0.000000 0.003142 0.000000
# 4 0.000000 -0.000001 0.000000 0.070803 0.000001 0.006273
# 5 0.002784 0.002658 0.003142 0.000001 0.024070 -0.000001
# 6 0.000000 -0.000001 0.000000 0.006273 -0.000001 0.041543
#
#
# Mechanical properties :
#
#
# Convention : Reuss Voigt Hill
#
# Bulk Modulus (GPa) = 34.02260 55.19702 44.60981
# Shear Modulus (GPa) = 26.36337 35.92684 31.14511
#
# Velocity S-wave (km/s) = 3.40159 3.97091 3.69723
# Velocity P-wave (km/s) = 5.51000 6.72681 6.14858
#
# Compressibility (1/GPa) = 0.02939223
#
# Stress axis : x y z
#
# Youngs Moduli (GPa) = 104.62996 51.94013 131.44566
#
# Poissons Ratio (x) = 0.00498 0.38051
# Poissons Ratio (y) = 0.01003 0.06864
# Poissons Ratio (z) = 0.30289 0.02712
#
# Static dielectric constant tensor:
#      x y z
#    x 1.853400 0.000010 -0.001750 
#    y 0.000010 2.027290 0.000000 
#    z -0.001750 0.000000 1.854470 
# 
# From -- ./inp_files/288206.got.cif
#   From: 2010.05.17/outbox.cif.g08.bks.cpg/sg12_145_cif.got.tgz:288206.got - 2010.06.03 13:09:07.
