data_PCOD9202826
_publ_section_title
;
Structure prediction by ZEFSAII (Michael W. Deem and Ramdas Pophale) SiO2 
 PCOD9202826
Probable space group: C 2/M
;
_chemical_formula_sum "Si O2"
_cell_formula_units_Z 56
_cell_length_a 16.409154
_cell_length_b 16.982117
_cell_length_c 10.462953
_cell_angle_alpha 90.000000
_cell_angle_beta 57.593828
_cell_angle_gamma 90.000000
_cell_volume 2461.578866
_symmetry_space_group_name_H-M "C 2/M"
_symmetry_group_IT_number 12
_symmetry_cell_setting 'monoclinic'
loop_
_space_group_symop_operation_xyz
x,y,z
-x,y,-z
-x,-y,-z
x,-y,z
1/2+x,1/2+y,z
1/2-x,1/2+y,-z
1/2-x,1/2-y,-z
1/2+x,1/2-y,z
loop_
_atom_site_type_symbol
_atom_site_label
_atom_site_fract_x
_atom_site_fract_y
_atom_site_fract_z
Si Si1 0.058861 0.838645 0.681203
Si Si2 0.427039 0.206597 0.871004
Si Si3 0.726210 0.707600 0.386439
Si Si4 0.592014 0.917084 0.334166
Si Si5 0.174133 0.591027 0.864495
Si Si6 0.850447 0.872537 0.904481
Si Si7 0.210269 0.131559 0.763869
O O1 0.114464 0.817511 0.503139
O O2 0.134710 0.878713 0.713346
O O3 0.026280 0.756543 0.779039
O O4 0.958632 0.886636 0.759492
O O5 0.415962 0.152698 0.757536
O O6 0.352059 0.277896 0.917394
O O7 0.404676 0.149516 0.007286
O O8 0.750000 0.750000 0.500000
O O9 0.786957 0.630987 0.298098
O O10 0.756561 0.776110 0.262600
O O11 0.500000 0.915369 0.500000
O O12 0.687841 0.910552 0.337562
O O13 0.595565 0.000000 0.258193
O O14 0.145427 0.500000 0.875087
O O15 0.265913 0.597328 0.884988
O O16 0.834131 0.897382 0.064797
#
# Coordination Sequence:
#
# PCOD9202826 Si02
#       7
#     8   8   8   8   8   8   8
#     4   9  22  36  64  92 125 170 235 276 329 384
#     4  10  20  38  63  96 126 171 229 283 325 400
#     4  10  21  40  62  89 122 177 230 277 336 399
#     4  11  23  37  60  97 134 173 217 274 342 407
#     4  12  23  39  64  98 139 178 220 285 357 410
#     4  10  21  36  62  98 127 167 229 275 334 402
#     4  11  19  39  64  93 127 175 224 282 328 399
#
# _framework density 22.749627
#
# number of rings (size 3 to 8) (size 9 to 14) (size 15 to 20)
#    0.857    0.714    2.857    3.000    0.000    0.571 
#    0.000    5.000    0.000   12.000    0.000    0.000 
#    0.000    0.000    0.000    0.000    0.000    0.000 
#
# Total GULP energy -156181.917296 kJ/mol
# GULP energy per Si atom -5577.925618 kJ/mol
# Density = 2.269785 g / cm^3
# Si number density = 22.749627 Si / 1000 Ang^3
#
#
#
# Elastic Constant Matrix: (Units=GPa)
#
#
# Indices 1 2 3 4 5 6 
#
# 1 76.1814 -6.7545 12.7427 0.0000 -10.9976 0.0000
# 2 -6.7545 95.2908 12.5534 0.0000 2.1808 0.0000
# 3 12.7427 12.5534 67.1944 0.0000 -8.4182 0.0000
# 4 0.0000 0.0000 0.0000 -14.3523 0.0000 10.0179
# 5 -10.9976 2.1808 -8.4182 0.0000 34.1882 0.0000
# 6 0.0000 0.0000 0.0000 10.0179 0.0000 -60.5855
#
#
#
# Elastic Compliance Matrix: (Units=1/GPa)
#
#
# Indices 1 2 3 4 5 6 
#
# 1 0.014206 0.001239 -0.002438 0.000000 0.003890 0.000000
# 2 0.001239 0.010917 -0.002385 0.000000 -0.000885 0.000000
# 3 -0.002438 -0.002385 0.016211 0.000000 0.003360 0.000000
# 4 0.000000 0.000000 0.000000 -0.078766 0.000000 -0.013024
# 5 0.003890 -0.000885 0.003360 0.000000 0.031385 0.000000
# 6 0.000000 0.000000 0.000000 -0.013024 0.000000 -0.018659
#
#
# Mechanical properties :
#
#
# Convention : Reuss Voigt Hill
#
# Bulk Modulus (GPa) = 29.26984 30.63885 29.95435
# Shear Modulus (GPa) = -813.05265 6.52507 -403.26379
#
# Velocity S-wave (km/s) = -18.92531 1.69542 -13.32841
# Velocity P-wave (km/s) = 21.55604 4.16289 14.95548
#
# Compressibility (1/GPa) = 0.03416486
#
# Stress axis : x y z
#
# Youngs Moduli (GPa) = 70.39348 91.60427 61.68621
#
# Poissons Ratio (x) = -0.11351 0.15040
# Poissons Ratio (y) = -0.08723 0.14714
# Poissons Ratio (z) = 0.17163 0.21851
#
# Static dielectric constant tensor:
#      x y z
#    x 1.857670 0.000000 -0.032790 
#    y 0.000000 1.865590 0.000000 
#    z -0.032790 0.000000 1.895700 
# 
# From -- ./inp_files/168381.got.cif
#   From: 2010.05.17/outbox.cif.g08.bks.cpg/sg12_85_cif.got.tgz:168381.got - 2010.06.03 13:09:07.
