data_PCOD9202900
_publ_section_title
;
Structure prediction by ZEFSAII (Michael W. Deem and Ramdas Pophale) SiO2 
 PCOD9202900
Probable space group: C 2/M
;
_chemical_formula_sum "Si O2"
_cell_formula_units_Z 48
_cell_length_a 19.366724
_cell_length_b 8.514764
_cell_length_c 15.024109
_cell_angle_alpha 90.000000
_cell_angle_beta 97.126059
_cell_angle_gamma 90.000000
_cell_volume 2458.384591
_symmetry_space_group_name_H-M "C 2/M"
_symmetry_group_IT_number 12
_symmetry_cell_setting 'monoclinic'
loop_
_space_group_symop_operation_xyz
x,y,z
-x,y,-z
-x,-y,-z
x,-y,z
1/2+x,1/2+y,z
1/2-x,1/2+y,-z
1/2-x,1/2-y,-z
1/2+x,1/2-y,z
loop_
_atom_site_type_symbol
_atom_site_label
_atom_site_fract_x
_atom_site_fract_y
_atom_site_fract_z
Si Si1 0.552834 0.178103 0.427345
Si Si2 0.186576 0.309866 0.548300
Si Si3 0.558087 0.188783 0.080193
Si Si4 0.472559 0.810255 0.244049
Si Si5 0.680168 0.686998 0.749546
Si Si6 0.785143 0.187038 0.914917
O O1 0.500000 0.165415 0.500000
O O2 0.620203 0.252122 0.482164
O O3 0.512264 0.250264 0.338244
O O4 0.572441 0.000000 0.401170
O O5 0.183517 0.500000 0.551194
O O6 0.250000 0.250000 0.500000
O O7 0.187190 0.250692 0.649818
O O8 0.522848 0.222076 0.169510
O O9 0.634324 0.260511 0.079354
O O10 0.565692 0.000000 0.072599
O O11 0.500000 0.241618 0.000000
O O12 0.395636 0.739074 0.226202
O O13 0.463184 0.000000 0.249607
O O14 0.684318 0.500000 0.748493
O O15 0.740251 0.751148 0.824056
O O16 0.781841 0.000000 0.915450
O O17 0.750000 0.250000 0.000000
#
# Coordination Sequence:
#
# PCOD9202900 Si02
#       6
#     8   8   8   8   8   8
#     4   9  17  34  60  87 118 164 212 254 310 374
#     4  11  23  40  62  91 128 171 217 268 323 381
#     4  10  22  40  65  97 130 165 205 253 315 384
#     4  10  20  38  64  91 125 168 212 261 317 380
#     4  12  25  42  64  93 129 171 216 265 320 379
#     4  12  26  45  69  96 129 167 210 263 318 380
#
# _framework density 19.525016000000001
#
# number of rings (size 3 to 8) (size 9 to 14) (size 15 to 20)
#    0.000    1.333    1.667    4.500    2.333    2.333 
#    0.000    2.500    0.000    0.000    0.000    0.000 
#    0.000    0.000    0.000    0.000    0.000    0.000 
#
# Total GULP energy -134046.988404 kJ/mol
# GULP energy per Si atom -5585.291183 kJ/mol
# Density = 1.948058 g / cm^3
# Si number density = 19.525016 Si / 1000 Ang^3
#
#
#
# Elastic Constant Matrix: (Units=GPa)
#
#
# Indices 1 2 3 4 5 6 
#
# 1 196.2780 59.9521 83.0821 0.0000 16.4079 0.0000
# 2 59.9521 93.7152 51.3779 0.0000 -1.5568 0.0000
# 3 83.0821 51.3779 118.1640 0.0000 22.0582 0.0000
# 4 0.0000 0.0000 0.0000 21.2932 0.0000 7.9155
# 5 16.4079 -1.5568 22.0582 0.0000 38.4513 0.0000
# 6 0.0000 0.0000 0.0000 7.9155 0.0000 -1.6686
#
#
#
# Elastic Compliance Matrix: (Units=1/GPa)
#
#
# Indices 1 2 3 4 5 6 
#
# 1 0.007737 -0.002754 -0.004038 0.000000 -0.001097 0.000000
# 2 -0.002754 0.015739 -0.005874 0.000000 0.005182 0.000000
# 3 -0.004038 -0.005874 0.015207 0.000000 -0.007239 0.000000
# 4 0.000000 0.000000 0.000000 0.016994 0.000000 0.080618
# 5 -0.001097 0.005182 -0.007239 0.000000 0.030837 0.000000
# 6 0.000000 0.000000 0.000000 0.080618 0.000000 -0.216869
#
#
# Mechanical properties :
#
#
# Convention : Reuss Voigt Hill
#
# Bulk Modulus (GPa) = 74.90118 88.55349 81.72733
# Shear Modulus (GPa) = -49.71571 25.86486 -11.92543
#
# Velocity S-wave (km/s) = -5.05152 3.64360 -2.47407
# Velocity P-wave (km/s) = 2.10265 7.94691 5.81268
#
# Compressibility (1/GPa) = 0.01335093
#
# Stress axis : x y z
#
# Youngs Moduli (GPa) = 129.25276 63.53593 65.75852
#
# Poissons Ratio (x) = 0.17498 0.26551
# Poissons Ratio (y) = 0.35597 0.38629
# Poissons Ratio (z) = 0.52187 0.37323
#
# Static dielectric constant tensor:
#      x y z
#    x 1.603020 0.000000 0.035960 
#    y 0.000000 1.689970 0.000000 
#    z 0.035960 0.000000 1.675060 
# 
# From -- ./inp_files/221616.got.cif
#   From: 2010.05.17/outbox.cif.g08.bks.cpg/sg12_111_cif.got.tgz:221616.got - 2010.06.03 13:09:07.
