data_PCOD9202591
_publ_section_title
;
Structure prediction by ZEFSAII (Michael W. Deem and Ramdas Pophale) SiO2 
 PCOD9202591
Probable space group: C 2/M
;
_chemical_formula_sum "Si O2"
_cell_formula_units_Z 48
_cell_length_a 17.930306
_cell_length_b 26.040353
_cell_length_c 5.303382
_cell_angle_alpha 90.000000
_cell_angle_beta 61.456428
_cell_angle_gamma 90.000000
_cell_volume 2175.236586
_symmetry_space_group_name_H-M "C 2/M"
_symmetry_group_IT_number 12
_symmetry_cell_setting 'monoclinic'
loop_
_space_group_symop_operation_xyz
x,y,z
-x,y,-z
-x,-y,-z
x,-y,z
1/2+x,1/2+y,z
1/2-x,1/2+y,-z
1/2-x,1/2-y,-z
1/2+x,1/2-y,z
loop_
_atom_site_type_symbol
_atom_site_label
_atom_site_fract_x
_atom_site_fract_y
_atom_site_fract_z
Si Si1 0.204696 0.212653 0.366844
Si Si2 0.154176 0.556206 0.925209
Si Si3 0.411205 0.646550 0.091645
Si Si4 0.734036 0.904819 0.300485
Si Si5 0.075055 0.748934 0.199631
Si Si6 0.135574 0.658883 0.804730
O O1 0.250000 0.250000 0.500000
O O2 0.130366 0.178781 0.611638
O O3 0.161900 0.245302 0.217521
O O4 0.275950 0.170424 0.189193
O O5 0.114134 0.500000 0.983054
O O6 0.201960 0.564801 0.110938
O O7 0.218067 0.562553 0.583231
O O8 0.095873 0.606817 0.979901
O O9 0.331031 0.613923 0.123541
O O10 0.500000 0.618016 0.000000
O O11 0.438730 0.692929 0.864641
O O12 0.670451 0.856550 0.472137
O O13 0.000000 0.730738 0.500000
O O14 0.085614 0.710096 0.949402
#
# Coordination Sequence:
#
# PCOD9202591 Si02
#       6
#     8   8   8   8   8   8
#     4  11  21  34  56  81 119 162 198 240 283 353
#     4  10  20  38  62  89 111 144 206 262 304 347
#     4  11  22  37  53  86 126 164 197 235 291 359
#     4   9  22  36  61  87 112 157 195 251 297 352
#     4  12  23  34  55  87 127 163 197 237 287 358
#     4   9  22  33  55  85 114 155 198 243 294 346
#
# _framework density 22.066566999999999
#
# number of rings (size 3 to 8) (size 9 to 14) (size 15 to 20)
#    1.000    0.667    3.333    2.000    4.667    0.000 
#    0.000    0.000    0.000    3.500    0.000    1.167 
#    0.000    0.000    0.000    0.000    0.000    0.000 
#
# Total GULP energy -133719.324231 kJ/mol
# GULP energy per Si atom -5571.638510 kJ/mol
# Density = 2.201634 g / cm^3
# Si number density = 22.066567 Si / 1000 Ang^3
#
#
#
# Elastic Constant Matrix: (Units=GPa)
#
#
# Indices 1 2 3 4 5 6 
#
# 1 81.0769 -3.9049 17.5345 0.0000 4.5879 0.0000
# 2 -3.9049 72.2214 -3.4629 0.0000 15.6709 0.0000
# 3 17.5345 -3.4629 73.9806 0.0000 2.7623 0.0000
# 4 0.0000 0.0000 0.0000 13.0997 0.0000 7.5110
# 5 4.5879 15.6709 2.7623 0.0000 32.5643 0.0000
# 6 0.0000 0.0000 0.0000 7.5110 0.0000 8.3012
#
#
#
# Elastic Compliance Matrix: (Units=1/GPa)
#
#
# Indices 1 2 3 4 5 6 
#
# 1 0.013148 0.001021 -0.002990 0.000000 -0.002090 0.000000
# 2 0.001021 0.015615 0.000777 0.000000 -0.007724 0.000000
# 3 -0.002990 0.000777 0.014306 0.000000 -0.001166 0.000000
# 4 0.000000 0.000000 0.000000 0.158640 0.000000 -0.143539
# 5 -0.002090 -0.007724 -0.001166 0.000000 0.034819 0.000000
# 6 0.000000 0.000000 0.000000 -0.143539 0.000000 0.250341
#
#
# Mechanical properties :
#
#
# Convention : Reuss Voigt Hill
#
# Bulk Modulus (GPa) = 24.57941 27.51246 26.04593
# Shear Modulus (GPa) = 9.94404 25.26719 17.60561
#
# Velocity S-wave (km/s) = 2.12513 3.38752 2.82767
# Velocity P-wave (km/s) = 4.14542 5.27213 4.74236
#
# Compressibility (1/GPa) = 0.04068446
#
# Stress axis : x y z
#
# Youngs Moduli (GPa) = 76.05624 64.04186 69.90186
#
# Poissons Ratio (x) = -0.06539 0.20904
# Poissons Ratio (y) = -0.07766 -0.05434
# Poissons Ratio (z) = 0.22744 -0.04978
#
# Static dielectric constant tensor:
#      x y z
#    x 1.890110 0.000000 0.009240 
#    y 0.000000 1.868830 0.000000 
#    z 0.009240 0.000000 1.891340 
# 
# From -- ./inp_files/22135.got.cif
#   From: 2010.05.17/outbox.cif.g08.bks.cpg/sg12_12_cif.got.tgz:22135.got - 2010.06.03 13:09:07.
