data_PCOD9202588
_publ_section_title
;
Structure prediction by ZEFSAII (Michael W. Deem and Ramdas Pophale) SiO2 
 PCOD9202588
Probable space group: C 2/M
;
_chemical_formula_sum "Si O2"
_cell_formula_units_Z 48
_cell_length_a 8.616795
_cell_length_b 11.833352
_cell_length_c 24.050217
_cell_angle_alpha 90.000000
_cell_angle_beta 116.305258
_cell_angle_gamma 90.000000
_cell_volume 2198.348614
_symmetry_space_group_name_H-M "C 2/M"
_symmetry_group_IT_number 12
_symmetry_cell_setting 'monoclinic'
loop_
_space_group_symop_operation_xyz
x,y,z
-x,y,-z
-x,-y,-z
x,-y,z
1/2+x,1/2+y,z
1/2-x,1/2+y,-z
1/2-x,1/2-y,-z
1/2+x,1/2-y,z
loop_
_atom_site_type_symbol
_atom_site_label
_atom_site_fract_x
_atom_site_fract_y
_atom_site_fract_z
Si Si1 0.682558 0.500000 0.165337
Si Si2 0.096026 0.784858 0.223122
Si Si3 0.385819 0.367658 0.289157
Si Si4 0.547689 0.131766 0.107082
Si Si5 0.197345 0.873212 0.424448
Si Si6 0.000000 0.206076 0.500000
Si Si7 0.175859 0.176337 0.061011
O O1 0.677205 0.398786 0.211430
O O2 0.678176 0.596883 0.115287
O O3 0.229007 0.712757 0.281468
O O4 0.937052 0.825174 0.235655
O O5 0.047677 0.698031 0.165897
O O6 0.337644 0.500000 0.280880
O O7 0.552056 0.354472 0.354606
O O8 0.349772 0.148652 0.055167
O O9 0.671246 0.195805 0.083828
O O10 0.586770 0.000000 0.119902
O O11 0.097850 0.862394 0.467600
O O12 0.353253 0.784878 0.448931
O O13 0.266234 0.000000 0.428634
O O14 0.000000 0.154896 0.000000
#
# Coordination Sequence:
#
# PCOD9202588 Si02
#       7
#     4   8   8   8   8   4   8
#     4  10  21  38  64  84 114 163 192 240 308 362
#     4  11  22  41  62  87 123 159 202 250 304 362
#     4  11  23  40  62  92 124 160 204 254 298 352
#     4  11  24  41  63  90 120 158 201 245 307 366
#     4  10  21  37  61  90 123 162 204 246 297 348
#     4  10  20  38  62  88 126 164 200 246 294 354
#     4  11  23  43  63  90 121 154 199 252 302 365
#
# _framework density 21.834571
#
# number of rings (size 3 to 8) (size 9 to 14) (size 15 to 20)
#    0.000    1.333    1.667    4.750    0.000    0.333 
#    7.500    0.000    3.667    0.000    0.000    0.000 
#    0.000    0.000    0.000    0.000    0.000    0.000 
#
# Total GULP energy -133697.529788 kJ/mol
# GULP energy per Si atom -5570.730408 kJ/mol
# Density = 2.178488 g / cm^3
# Si number density = 21.834571 Si / 1000 Ang^3
#
#
#
# Elastic Constant Matrix: (Units=GPa)
#
#
# Indices 1 2 3 4 5 6 
#
# 1 35.5087 26.4824 4.0902 0.0000 8.0876 0.0000
# 2 26.4824 174.6414 29.4037 0.0000 8.3407 0.0000
# 3 4.0902 29.4037 52.3336 0.0000 7.2127 0.0000
# 4 0.0000 0.0000 0.0000 20.6655 0.0000 0.1967
# 5 8.0876 8.3407 7.2127 0.0000 28.2536 0.0000
# 6 0.0000 0.0000 0.0000 0.1967 0.0000 11.8981
#
#
#
# Elastic Compliance Matrix: (Units=1/GPa)
#
#
# Indices 1 2 3 4 5 6 
#
# 1 0.033611 -0.004910 0.001304 0.000000 -0.008505 0.000000
# 2 -0.004910 0.007069 -0.003621 0.000000 0.000243 0.000000
# 3 0.001304 -0.003621 0.021709 0.000000 -0.004846 0.000000
# 4 0.000000 0.000000 0.000000 0.048398 0.000000 -0.000800
# 5 -0.008505 0.000243 -0.004846 0.000000 0.038994 0.000000
# 6 0.000000 0.000000 0.000000 -0.000800 0.000000 0.084061
#
#
# Mechanical properties :
#
#
# Convention : Reuss Voigt Hill
#
# Bulk Modulus (GPa) = 20.86224 42.49293 31.67759
# Shear Modulus (GPa) = 18.91986 25.66391 22.29188
#
# Velocity S-wave (km/s) = 2.94685 3.43210 3.19869
# Velocity P-wave (km/s) = 4.59934 5.93374 5.30864
#
# Compressibility (1/GPa) = 0.04793348
#
# Stress axis : x y z
#
# Youngs Moduli (GPa) = 29.75226 141.46930 46.06426
#
# Poissons Ratio (x) = 0.69463 -0.06007
# Poissons Ratio (y) = 0.14609 0.16681
# Poissons Ratio (z) = -0.03880 0.51231
#
# Static dielectric constant tensor:
#      x y z
#    x 1.850570 0.000000 0.023580 
#    y 0.000000 1.760290 0.000000 
#    z 0.023580 0.000000 1.828680 
# 
# From -- ./inp_files/332299.got.cif
#   From: 2010.05.17/outbox.cif.g08.bks.cpg/sg12_167_cif.got.tgz:332299.got - 2010.06.03 13:09:07.
