data_PCOD9202364
_publ_section_title
;
Structure prediction by ZEFSAII (Michael W. Deem and Ramdas Pophale) SiO2 
 PCOD9202364
Probable space group: C 2/M
;
_chemical_formula_sum "Si O2"
_cell_formula_units_Z 56
_cell_length_a 20.688170
_cell_length_b 8.437157
_cell_length_c 16.782684
_cell_angle_alpha 90.000000
_cell_angle_beta 88.262147
_cell_angle_gamma 90.000000
_cell_volume 2928.058986
_symmetry_space_group_name_H-M "C 2/M"
_symmetry_group_IT_number 12
_symmetry_cell_setting 'monoclinic'
loop_
_space_group_symop_operation_xyz
x,y,z
-x,y,-z
-x,-y,-z
x,-y,z
1/2+x,1/2+y,z
1/2-x,1/2+y,-z
1/2-x,1/2-y,-z
1/2+x,1/2-y,z
loop_
_atom_site_type_symbol
_atom_site_label
_atom_site_fract_x
_atom_site_fract_y
_atom_site_fract_z
Si Si1 0.739722 0.308702 0.731646
Si Si2 0.803952 0.688721 0.437891
Si Si3 0.370231 0.806522 0.808483
Si Si4 0.049679 0.693745 0.566472
Si Si5 0.874100 0.810468 0.144231
Si Si6 0.677025 0.810595 0.016098
Si Si7 0.988218 0.691948 0.252839
O O1 0.739097 0.500000 0.725181
O O2 0.715169 0.238178 0.650340
O O3 0.811801 0.257984 0.752767
O O4 0.690138 0.264368 0.803673
O O5 0.805437 0.500000 0.443230
O O6 0.750000 0.750000 0.500000
O O7 0.876859 0.746698 0.452555
O O8 0.440341 0.754746 0.775975
O O9 0.370777 0.000000 0.808914
O O10 0.351986 0.754359 0.898493
O O11 0.049231 0.500000 0.566124
O O12 0.029083 0.743009 0.656427
O O13 0.000000 0.746031 0.500000
O O14 0.866801 0.741409 0.056421
O O15 0.935107 0.751533 0.192345
O O16 0.875593 0.000000 0.139086
O O17 0.680023 0.000000 0.019063
O O18 0.750000 0.750000 0.000000
O O19 0.987015 0.500000 0.252203
#
# Coordination Sequence:
#
# PCOD9202364 Si02
#       7
#     8   8   8   8   8   8   8
#     4  10  20  38  61  84 115 154 195 237 285 342
#     4  11  23  38  59  89 118 148 191 238 290 344
#     4   9  20  37  60  87 114 152 198 242 289 345
#     4   9  19  35  58  86 112 144 191 238 282 340
#     4  11  22  38  60  85 119 158 194 238 296 349
#     4  11  21  37  59  88 120 154 200 245 293 347
#     4  10  20  38  62  85 113 151 197 241 287 347
#
# _framework density 19.125297
#
# number of rings (size 3 to 8) (size 9 to 14) (size 15 to 20)
#    0.000    1.857    2.857    1.286    2.000    1.143 
#    0.000    5.000    0.000    2.143    0.000    0.000 
#    0.000    0.000    0.000    0.000    0.000    0.000 
#
# Total GULP energy -156390.235532 kJ/mol
# GULP energy per Si atom -5585.365555 kJ/mol
# Density = 1.908177 g / cm^3
# Si number density = 19.125297 Si / 1000 Ang^3
#
#
#
# Elastic Constant Matrix: (Units=GPa)
#
#
# Indices 1 2 3 4 5 6 
#
# 1 188.7819 23.5742 82.1435 0.0000 8.0787 0.0000
# 2 23.5742 15.0642 19.6011 0.0000 -0.6525 0.0000
# 3 82.1435 19.6011 125.6920 0.0000 14.0006 0.0000
# 4 0.0000 0.0000 0.0000 25.4167 0.0000 2.5603
# 5 8.0787 -0.6525 14.0006 0.0000 38.9364 0.0000
# 6 0.0000 0.0000 0.0000 2.5603 0.0000 26.2533
#
#
#
# Elastic Compliance Matrix: (Units=1/GPa)
#
#
# Indices 1 2 3 4 5 6 
#
# 1 0.007975 -0.007225 -0.004050 0.000000 -0.000320 0.000000
# 2 -0.007225 0.091346 -0.010272 0.000000 0.006723 0.000000
# 3 -0.004050 -0.010272 0.012636 0.000000 -0.003876 0.000000
# 4 0.000000 0.000000 0.000000 0.039735 0.000000 -0.003875
# 5 -0.000320 0.006723 -0.003876 0.000000 0.027255 0.000000
# 6 0.000000 0.000000 0.000000 -0.003875 0.000000 0.038468
#
#
# Mechanical properties :
#
#
# Convention : Reuss Voigt Hill
#
# Bulk Modulus (GPa) = 14.52142 64.46396 39.49269
# Shear Modulus (GPa) = 17.63891 31.73588 24.68739
#
# Velocity S-wave (km/s) = 3.04020 4.07795 3.59670
# Velocity P-wave (km/s) = 4.46464 7.48012 6.15976
#
# Compressibility (1/GPa) = 0.06886378
#
# Stress axis : x y z
#
# Youngs Moduli (GPa) = 125.38994 10.94736 79.13797
#
# Poissons Ratio (x) = 0.07909 0.32048
# Poissons Ratio (y) = 0.90593 0.81293
# Poissons Ratio (z) = 0.50779 0.11245
#
# Static dielectric constant tensor:
#      x y z
#    x 1.663770 0.000000 -0.004000 
#    y 0.000000 1.668360 0.000000 
#    z -0.004000 0.000000 1.646410 
# 
# From -- ./inp_files/230946.got.cif
#   From: 2010.05.17/outbox.cif.g08.bks.cpg/sg12_116_cif.got.tgz:230946.got - 2010.06.03 13:09:07.
