data_PCOD9202404
_publ_section_title
;
Structure prediction by ZEFSAII (Michael W. Deem and Ramdas Pophale) SiO2 
 PCOD9202404
Probable space group: C 2/M
;
_chemical_formula_sum "Si O2"
_cell_formula_units_Z 56
_cell_length_a 15.246345
_cell_length_b 27.165929
_cell_length_c 8.457299
_cell_angle_alpha 90.000000
_cell_angle_beta 132.958850
_cell_angle_gamma 90.000000
_cell_volume 2563.540045
_symmetry_space_group_name_H-M "C 2/M"
_symmetry_group_IT_number 12
_symmetry_cell_setting 'monoclinic'
loop_
_space_group_symop_operation_xyz
x,y,z
-x,y,-z
-x,-y,-z
x,-y,z
1/2+x,1/2+y,z
1/2-x,1/2+y,-z
1/2-x,1/2-y,-z
1/2+x,1/2-y,z
loop_
_atom_site_type_symbol
_atom_site_label
_atom_site_fract_x
_atom_site_fract_y
_atom_site_fract_z
Si Si1 0.798337 0.115461 0.355384
Si Si2 0.781984 0.592939 0.256039
Si Si3 0.595207 0.555408 0.255189
Si Si4 0.886139 0.444248 0.061705
Si Si5 0.561573 0.772964 0.748217
Si Si6 0.177098 0.174672 0.927450
Si Si7 0.919189 0.640357 0.692110
O O1 0.899003 0.093967 0.594985
O O2 0.837768 0.151756 0.265382
O O3 0.695815 0.140457 0.336979
O O4 0.728080 0.070171 0.185428
O O5 0.721345 0.560141 0.316743
O O6 0.843333 0.563320 0.190191
O O7 0.875683 0.627015 0.462512
O O8 0.684827 0.629498 0.058127
O O9 0.577087 0.500000 0.292993
O O10 0.500000 0.564115 0.000000
O O11 0.925897 0.500000 0.084200
O O12 0.987475 0.403347 0.155129
O O13 0.500000 0.770390 0.500000
O O14 0.582838 0.717931 0.837371
O O15 0.483432 0.807497 0.765107
O O16 0.691120 0.799880 0.900015
#
# Coordination Sequence:
#
# PCOD9202404 Si02
#       7
#     8   8   8   8   8   8   8
#     4  10  22  38  60  88 122 154 195 247 300 351
#     4  10  20  38  61  86 119 159 202 239 291 357
#     4  10  22  40  63  86 121 164 200 243 295 348
#     4  11  21  33  56  92 123 153 196 243 295 354
#     4  11  20  38  62  83 115 158 202 240 301 354
#     4  10  22  37  63  86 114 161 201 247 292 353
#     4  11  20  36  61  83 123 161 190 239 301 361
#
# _framework density 21.844792999999999
#
# number of rings (size 3 to 8) (size 9 to 14) (size 15 to 20)
#    0.000    1.571    4.286    1.714    0.000    5.714 
#    0.000    2.857   12.571    7.714    0.000    0.000 
#    0.000    0.000    0.000    0.000    0.000    0.000 
#
# Total GULP energy -156503.193429 kJ/mol
# GULP energy per Si atom -5589.399765 kJ/mol
# Density = 2.179507 g / cm^3
# Si number density = 21.844793 Si / 1000 Ang^3
#
#
#
# Elastic Constant Matrix: (Units=GPa)
#
#
# Indices 1 2 3 4 5 6 
#
# 1 26.0175 24.1928 10.0512 0.0000 -6.8331 0.0000
# 2 24.1928 142.5008 46.1065 0.0000 -0.5615 0.0000
# 3 10.0512 46.1065 111.9144 0.0000 -7.8683 0.0000
# 4 0.0000 0.0000 0.0000 23.5679 0.0000 5.1655
# 5 -6.8331 -0.5615 -7.8683 0.0000 25.7348 0.0000
# 6 0.0000 0.0000 0.0000 5.1655 0.0000 -0.7037
#
#
#
# Elastic Compliance Matrix: (Units=1/GPa)
#
#
# Indices 1 2 3 4 5 6 
#
# 1 0.049639 -0.008340 -0.000111 0.000000 0.012964 0.000000
# 2 -0.008340 0.009517 -0.003386 0.000000 -0.003042 0.000000
# 3 -0.000111 -0.003386 0.010560 0.000000 0.003125 0.000000
# 4 0.000000 0.000000 0.000000 0.016264 0.000000 0.119388
# 5 0.012964 -0.003042 0.003125 0.000000 0.043189 0.000000
# 6 0.000000 0.000000 0.000000 0.119388 0.000000 -0.544719
#
#
# Mechanical properties :
#
#
# Convention : Reuss Voigt Hill
#
# Bulk Modulus (GPa) = 21.71914 49.01486 35.36700
# Shear Modulus (GPa) = -13.27917 23.05863 4.88973
#
# Velocity S-wave (km/s) = -2.46821 3.25247 1.49775
# Velocity P-wave (km/s) = 1.35695 6.04907 4.38364
#
# Compressibility (1/GPa) = 0.04604233
#
# Stress axis : x y z
#
# Youngs Moduli (GPa) = 20.14555 105.07597 94.69818
#
# Poissons Ratio (x) = 0.87638 0.01047
# Poissons Ratio (y) = 0.16802 0.32061
# Poissons Ratio (z) = 0.00223 0.35574
#
# Static dielectric constant tensor:
#      x y z
#    x 1.773510 0.000000 0.024810 
#    y 0.000000 1.778240 0.000000 
#    z 0.024810 0.000000 1.842200 
# 
# From -- ./inp_files/80077.got.cif
#   From: 2010.05.17/outbox.cif.g08.bks.cpg/sg12_41_cif.got.tgz:80077.got - 2010.06.03 13:09:07.
