data_PCOD9202154
_publ_section_title
;
Structure prediction by ZEFSAII (Michael W. Deem and Ramdas Pophale) SiO2 
 PCOD9202154
Probable space group: C 2/M
;
_chemical_formula_sum "Si O2"
_cell_formula_units_Z 40
_cell_length_a 8.888138
_cell_length_b 16.013947
_cell_length_c 17.120967
_cell_angle_alpha 90.000000
_cell_angle_beta 136.147379
_cell_angle_gamma 90.000000
_cell_volume 1688.297400
_symmetry_space_group_name_H-M "C 2/M"
_symmetry_group_IT_number 12
_symmetry_cell_setting 'monoclinic'
loop_
_space_group_symop_operation_xyz
x,y,z
-x,y,-z
-x,-y,-z
x,-y,z
1/2+x,1/2+y,z
1/2-x,1/2+y,-z
1/2-x,1/2-y,-z
1/2+x,1/2-y,z
loop_
_atom_site_type_symbol
_atom_site_label
_atom_site_fract_x
_atom_site_fract_y
_atom_site_fract_z
Si Si1 0.131400 0.000000 0.132129
Si Si2 0.866219 0.361126 0.312662
Si Si3 0.302525 0.000000 0.532102
Si Si4 0.455086 0.716889 0.228380
Si Si5 0.320175 0.500000 0.331610
Si Si6 0.196807 0.500000 0.014360
Si Si7 0.446614 0.857607 0.853673
O O1 0.272160 0.081366 0.205973
O O2 0.000000 0.000000 0.000000
O O3 0.944381 0.000000 0.128938
O O4 0.669439 0.338970 0.297426
O O5 0.048839 0.418109 0.421194
O O6 0.955390 0.276460 0.305465
O O7 0.226944 0.000000 0.594360
O O8 0.072806 0.000000 0.403017
O O9 0.470628 0.777274 0.160009
O O10 0.224389 0.669869 0.143817
O O11 0.205000 0.417817 0.255311
O O12 0.147966 0.415437 0.950019
O O13 0.000000 0.500000 0.000000
#
# Coordination Sequence:
#
# PCOD9202154 Si02
#       7
#     4   8   4   8   4   4   8
#     4  11  22  36  59  81 107 153 197 228 278 341
#     4  10  21  39  59  82 116 147 190 234 284 332
#     4  10  20  38  63  86 112 150 195 229 281 346
#     4  10  20  38  59  84 116 154 180 239 291 334
#     4  10  20  38  63  87 110 153 192 231 281 343
#     4  11  22  38  59  85 113 153 198 236 276 336
#     4  10  21  39  61  82 120 149 193 234 288 331
#
# _framework density 23.692506000000002
#
# number of rings (size 3 to 8) (size 9 to 14) (size 15 to 20)
#    0.000    1.800    2.000    2.400    2.800    2.400 
#    0.000   28.000    0.000    0.000    0.000    0.000 
#    0.000    0.000    0.000    0.000    0.000    0.000 
#
# Total GULP energy -111806.621007 kJ/mol
# GULP energy per Si atom -5590.331050 kJ/mol
# Density = 2.363858 g / cm^3
# Si number density = 23.692506 Si / 1000 Ang^3
#
#
#
# Elastic Constant Matrix: (Units=GPa)
#
#
# Indices 1 2 3 4 5 6 
#
# 1 127.0851 40.2521 23.1198 0.0000 34.3257 0.0000
# 2 40.2521 97.5487 27.3586 0.0000 20.4997 0.0000
# 3 23.1198 27.3586 59.1237 0.0000 19.4855 0.0001
# 4 0.0000 0.0000 0.0000 13.2659 0.0000 26.4947
# 5 34.3257 20.4997 19.4855 0.0000 37.8640 0.0000
# 6 0.0000 0.0000 0.0001 26.4947 0.0000 66.1859
#
#
#
# Elastic Compliance Matrix: (Units=1/GPa)
#
#
# Indices 1 2 3 4 5 6 
#
# 1 0.011049 -0.002711 -0.000299 0.000000 -0.008395 0.000000
# 2 -0.002711 0.013058 -0.004169 0.000000 -0.002466 0.000000
# 3 -0.000299 -0.004169 0.021829 0.000000 -0.008705 0.000000
# 4 0.000000 0.000000 0.000000 0.375964 0.000000 -0.150501
# 5 -0.008395 -0.002466 -0.008705 0.000000 0.039835 0.000000
# 6 0.000000 0.000000 0.000000 -0.150501 0.000000 0.075356
#
#
# Mechanical properties :
#
#
# Convention : Reuss Voigt Hill
#
# Bulk Modulus (GPa) = 31.66966 51.69094 41.68030
# Shear Modulus (GPa) = 8.89716 36.33162 22.61439
#
# Velocity S-wave (km/s) = 1.93995 3.92020 3.09284
# Velocity P-wave (km/s) = 4.29114 6.50810 5.51222
#
# Compressibility (1/GPa) = 0.03157597
#
# Stress axis : x y z
#
# Youngs Moduli (GPa) = 90.50246 76.58395 45.81076
#
# Poissons Ratio (x) = 0.20764 0.01372
# Poissons Ratio (y) = 0.24537 0.19100
# Poissons Ratio (z) = 0.02710 0.31930
#
# Static dielectric constant tensor:
#      x y z
#    x 2.003480 0.000000 -0.071990 
#    y 0.000000 2.065880 0.000000 
#    z -0.071990 0.000000 1.909840 
# 
# From -- ./inp_files/195347.got.cif
#   From: 2010.05.17/outbox.cif.g08.bks.cpg/sg12_98_cif.got.tgz:195347.got - 2010.06.03 13:09:07.
