data_PCOD9202533
_publ_section_title
;
Structure prediction by ZEFSAII (Michael W. Deem and Ramdas Pophale) SiO2 
 PCOD9202533
Probable space group: C 2/M
;
_chemical_formula_sum "Si O2"
_cell_formula_units_Z 42
_cell_length_a 18.752501
_cell_length_b 13.396790
_cell_length_c 9.482941
_cell_angle_alpha 90.000000
_cell_angle_beta 67.738939
_cell_angle_gamma 90.000000
_cell_volume 2204.774185
_symmetry_space_group_name_H-M "C 2/M"
_symmetry_group_IT_number 12
_symmetry_cell_setting 'monoclinic'
loop_
_space_group_symop_operation_xyz
x,y,z
-x,y,-z
-x,-y,-z
x,-y,z
1/2+x,1/2+y,z
1/2-x,1/2+y,-z
1/2-x,1/2-y,-z
1/2+x,1/2-y,z
loop_
_atom_site_type_symbol
_atom_site_label
_atom_site_fract_x
_atom_site_fract_y
_atom_site_fract_z
Si Si1 0.557611 0.764722 0.331961
Si Si2 0.070055 0.814786 0.775896
Si Si3 0.801260 0.707085 0.174773
Si Si4 0.500000 0.500000 0.000000
Si Si5 0.161364 0.881084 0.431371
Si Si6 0.298212 0.884906 0.872592
O O1 0.500000 0.796219 0.500000
O O2 0.506332 0.729176 0.239915
O O3 0.606462 0.670561 0.355010
O O4 0.619077 0.848509 0.246126
O O5 0.114125 0.732147 0.834515
O O6 0.127869 0.845529 0.605701
O O7 0.048152 0.911863 0.880079
O O8 0.746549 0.659598 0.334742
O O9 0.763998 0.812317 0.153206
O O10 0.797475 0.637429 0.040162
O O11 0.158384 0.000000 0.423219
O O12 0.283003 0.000000 0.855143
#
# Coordination Sequence:
#
# PCOD9202533 Si02
#       6
#     8   8   8   2   8   8
#     4   9  21  38  59  84 119 153 190 245 293 351
#     4  11  22  38  55  87 121 149 195 243 295 346
#     4  10  22  39  58  85 117 153 192 252 289 341
#     4  12  24  32  54  88 118 152 186 242 290 344
#     4  10  20  38  62  86 116 157 197 235 295 354
#     4  10  21  39  59  82 112 155 199 236 294 353
#
# _framework density 19.049569000000002
#
# number of rings (size 3 to 8) (size 9 to 14) (size 15 to 20)
#    0.000    1.905    0.952    2.286    2.667    1.524 
#    0.000    2.857    0.000    1.143    0.000    0.000 
#    0.000    0.000    0.000    0.000    0.000    0.000 
#
# Total GULP energy -117052.484239 kJ/mol
# GULP energy per Si atom -5573.927821 kJ/mol
# Density = 1.900621 g / cm^3
# Si number density = 19.049569 Si / 1000 Ang^3
#
#
#
# Elastic Constant Matrix: (Units=GPa)
#
#
# Indices 1 2 3 4 5 6 
#
# 1 39.4224 -15.9141 -0.1267 0.0000 2.1005 0.0000
# 2 -15.9141 66.9071 8.7353 0.0000 -1.0086 0.0000
# 3 -0.1267 8.7353 49.3823 0.0000 -11.3837 0.0000
# 4 0.0000 0.0000 0.0000 17.6733 0.0000 -0.5665
# 5 2.1005 -1.0086 -11.3837 0.0000 16.5462 0.0000
# 6 0.0000 0.0000 0.0000 -0.5665 0.0000 -4.4217
#
#
#
# Elastic Compliance Matrix: (Units=1/GPa)
#
#
# Indices 1 2 3 4 5 6 
#
# 1 0.028431 0.006985 -0.002254 0.000000 -0.004734 0.000000
# 2 0.006985 0.017033 -0.003518 0.000000 -0.002269 0.000000
# 3 -0.002254 -0.003518 0.024820 0.000000 0.017147 0.000000
# 4 0.000000 0.000000 0.000000 0.056351 0.000000 -0.007220
# 5 -0.004734 -0.002269 0.017147 0.000000 0.072697 0.000000
# 6 0.000000 0.000000 0.000000 -0.007220 0.000000 -0.225231
#
#
# Mechanical properties :
#
#
# Convention : Reuss Voigt Hill
#
# Bulk Modulus (GPa) = 13.75327 15.67786 14.71556
# Shear Modulus (GPa) = -1222.70260 16.82738 -602.93761
#
# Velocity S-wave (km/s) = -25.36231 2.97534 -17.81002
# Velocity P-wave (km/s) = 29.16208 4.47788 20.37615
#
# Compressibility (1/GPa) = 0.07271000
#
# Stress axis : x y z
#
# Youngs Moduli (GPa) = 35.17268 58.71054 40.29081
#
# Poissons Ratio (x) = -0.41012 0.09082
# Poissons Ratio (y) = -0.24570 0.14174
# Poissons Ratio (z) = 0.07928 0.20655
#
# Static dielectric constant tensor:
#      x y z
#    x 1.656670 0.000000 -0.000460 
#    y 0.000000 1.601120 0.000000 
#    z -0.000460 0.000000 1.686200 
# 
# From -- ./inp_files/72936.got.cif
#   From: 2010.05.17/outbox.cif.g08.bks.cpg/sg12_37_cif.got.tgz:72936.got - 2010.06.03 13:09:07.
