data_PCOD9202750
_publ_section_title
;
Structure prediction by ZEFSAII (Michael W. Deem and Ramdas Pophale) SiO2 
 PCOD9202750
Probable space group: C 2/M
;
_chemical_formula_sum "Si O2"
_cell_formula_units_Z 56
_cell_length_a 18.669871
_cell_length_b 11.687650
_cell_length_c 15.288651
_cell_angle_alpha 90.000000
_cell_angle_beta 57.665683
_cell_angle_gamma 90.000000
_cell_volume 2818.800839
_symmetry_space_group_name_H-M "C 2/M"
_symmetry_group_IT_number 12
_symmetry_cell_setting 'monoclinic'
loop_
_space_group_symop_operation_xyz
x,y,z
-x,y,-z
-x,-y,-z
x,-y,z
1/2+x,1/2+y,z
1/2-x,1/2+y,-z
1/2-x,1/2-y,-z
1/2+x,1/2-y,z
loop_
_atom_site_type_symbol
_atom_site_label
_atom_site_fract_x
_atom_site_fract_y
_atom_site_fract_z
Si Si1 0.268283 0.368399 0.434127
Si Si2 0.704040 0.125553 0.283293
Si Si3 0.548782 0.286013 0.726520
Si Si4 0.937681 0.627380 0.114211
Si Si5 0.289923 0.802606 0.100710
Si Si6 0.993419 0.631447 0.603616
Si Si7 0.632175 0.371019 0.089076
O O1 0.252050 0.500000 0.480092
O O2 0.250000 0.250000 0.500000
O O3 0.213440 0.357257 0.380960
O O4 0.367973 0.362257 0.343350
O O5 0.753490 0.215365 0.194903
O O6 0.607193 0.128177 0.315295
O O7 0.739641 0.000000 0.242127
O O8 0.567259 0.204932 0.797548
O O9 0.536389 0.208588 0.648298
O O10 0.459003 0.346851 0.806656
O O11 0.968351 0.500000 0.118529
O O12 0.850579 0.619635 0.118479
O O13 0.000000 0.677593 0.000000
O O14 0.210956 0.862294 0.104993
O O15 0.344435 0.728926 0.995056
O O16 0.025767 0.500000 0.584404
O O17 0.000000 0.675098 0.500000
O O18 0.630996 0.500000 0.052507
#
# Coordination Sequence:
#
# PCOD9202750 Si02
#       7
#     8   8   8   8   8   8   8
#     4  11  25  44  68  94 129 167 215 271 331 394
#     4  10  20  38  63  90 121 161 211 260 311 380
#     4  12  22  41  65  92 129 165 212 265 327 385
#     4  11  23  39  61  94 131 169 213 264 318 384
#     4  11  21  42  61  88 127 170 206 255 312 380
#     4  10  21  38  63  90 119 162 215 271 316 370
#     4  11  24  39  62  92 124 165 210 254 312 384
#
# _framework density 19.866603999999999
#
# number of rings (size 3 to 8) (size 9 to 14) (size 15 to 20)
#    0.000    1.143    4.286    2.571    0.000    2.286 
#    0.000    0.714    0.000    1.714    0.000    0.000 
#    0.000    0.000    0.000    0.000    0.000    0.000 
#
# Total GULP energy -156196.291213 kJ/mol
# GULP energy per Si atom -5578.438972 kJ/mol
# Density = 1.982139 g / cm^3
# Si number density = 19.866604 Si / 1000 Ang^3
#
#
#
# Elastic Constant Matrix: (Units=GPa)
#
#
# Indices 1 2 3 4 5 6 
#
# 1 100.9773 23.3862 10.0361 0.0000 4.2892 0.0000
# 2 23.3862 96.0264 34.7641 0.0000 9.1513 0.0000
# 3 10.0361 34.7641 63.5984 0.0000 -0.3705 0.0000
# 4 0.0000 0.0000 0.0000 -240.9214 0.0000 -26.4043
# 5 4.2892 9.1513 -0.3705 0.0000 35.6812 0.0000
# 6 0.0000 0.0000 0.0000 -26.4043 0.0000 8.7509
#
#
#
# Elastic Compliance Matrix: (Units=1/GPa)
#
#
# Indices 1 2 3 4 5 6 
#
# 1 0.010516 -0.002363 -0.000371 0.000000 -0.000662 0.000000
# 2 -0.002363 0.013941 -0.007267 0.000000 -0.003367 0.000000
# 3 -0.000371 -0.007267 0.019767 0.000000 0.002114 0.000000
# 4 0.000000 0.000000 0.000000 -0.003119 0.000000 -0.009412
# 5 -0.000662 -0.003367 0.002114 0.000000 0.028991 0.000000
# 6 0.000000 0.000000 0.000000 -0.009412 0.000000 0.085876
#
#
# Mechanical properties :
#
#
# Convention : Reuss Voigt Hill
#
# Bulk Modulus (GPa) = 41.28856 44.10832 42.69844
# Shear Modulus (GPa) = 27.16670 -26.47017 0.34827
#
# Velocity S-wave (km/s) = 3.70192 -3.65416 0.41915
# Velocity P-wave (km/s) = 6.25303 2.10870 4.66621
#
# Compressibility (1/GPa) = 0.02421978
#
# Stress axis : x y z
#
# Youngs Moduli (GPa) = 95.09677 71.72998 50.58947
#
# Poissons Ratio (x) = 0.16953 0.01879
# Poissons Ratio (y) = 0.22476 0.36764
# Poissons Ratio (z) = 0.03532 0.52127
#
# Static dielectric constant tensor:
#      x y z
#    x 1.724590 0.000000 -0.032560 
#    y 0.000000 1.772850 0.000000 
#    z -0.032560 0.000000 1.702670 
# 
# From -- ./inp_files/223706.got.cif
#   From: 2010.05.17/outbox.cif.g08.bks.cpg/sg12_112_cif.got.tgz:223706.got - 2010.06.03 13:09:07.
