data_PCOD9202631
_publ_section_title
;
Structure prediction by ZEFSAII (Michael W. Deem and Ramdas Pophale) SiO2 
 PCOD9202631
Probable space group: C 2/M
;
_chemical_formula_sum "Si O2"
_cell_formula_units_Z 64
_cell_length_a 14.551792
_cell_length_b 18.236787
_cell_length_c 15.900123
_cell_angle_alpha 90.000000
_cell_angle_beta 135.712522
_cell_angle_gamma 90.000000
_cell_volume 2946.332385
_symmetry_space_group_name_H-M "C 2/M"
_symmetry_group_IT_number 12
_symmetry_cell_setting 'monoclinic'
loop_
_space_group_symop_operation_xyz
x,y,z
-x,y,-z
-x,-y,-z
x,-y,z
1/2+x,1/2+y,z
1/2-x,1/2+y,-z
1/2-x,1/2-y,-z
1/2+x,1/2-y,z
loop_
_atom_site_type_symbol
_atom_site_label
_atom_site_fract_x
_atom_site_fract_y
_atom_site_fract_z
Si Si1 0.618481 0.813049 0.234167
Si Si2 0.587753 0.348605 0.140739
Si Si3 0.134516 0.585038 0.730093
Si Si4 0.154558 0.081568 0.608533
Si Si5 0.411902 0.413366 0.171613
Si Si6 0.128612 0.853886 0.429132
Si Si7 0.895266 0.689945 0.569118
Si Si8 0.374120 0.085742 0.071701
O O1 0.611417 0.732803 0.191534
O O2 0.749544 0.857119 0.292805
O O3 0.609026 0.807599 0.330478
O O4 0.494848 0.862828 0.126518
O O5 0.725940 0.387795 0.212943
O O6 0.499649 0.393619 0.148693
O O7 0.500000 0.343380 0.000000
O O8 0.109611 0.500000 0.691517
O O9 0.140703 0.589033 0.836406
O O10 0.016668 0.639011 0.624504
O O11 0.185156 0.085113 0.528984
O O12 0.000000 0.097669 0.500000
O O13 0.174900 0.000000 0.656710
O O14 0.408076 0.500000 0.180919
O O15 0.492569 0.378041 0.300102
O O16 0.262551 0.388576 0.059168
O O17 0.101353 0.774997 0.454640
O O18 0.252350 0.840484 0.448333
O O19 0.398066 0.000000 0.066275
#
# Coordination Sequence:
#
# PCOD9202631 Si02
#       8
#     8   8   8   8   8   8   8   8
#     4  10  21  39  60  88 117 156 202 251 297 362
#     4  12  24  38  57  90 128 164 202 244 304 367
#     4  10  21  37  60  89 120 161 206 247 300 361
#     4  10  22  40  64  89 116 155 198 250 311 367
#     4  11  22  37  60  88 122 160 200 248 300 362
#     4  10  20  38  62  91 118 155 200 253 299 359
#     4   9  20  38  62  87 118 154 199 251 301 348
#     4   9  19  37  62  86 114 157 203 254 300 350
#
# _framework density 21.721921999999999
#
# number of rings (size 3 to 8) (size 9 to 14) (size 15 to 20)
#    0.000    1.875    2.500    1.125    1.750    5.500 
#    0.000    0.625    0.000    2.250    0.000    0.000 
#    0.000    0.000    0.000    0.000    0.000    0.000 
#
# Total GULP energy -178731.425666 kJ/mol
# GULP energy per Si atom -5585.357052 kJ/mol
# Density = 2.167248 g / cm^3
# Si number density = 21.721922 Si / 1000 Ang^3
#
#
#
# Elastic Constant Matrix: (Units=GPa)
#
#
# Indices 1 2 3 4 5 6 
#
# 1 38.1911 30.3116 14.2451 0.0000 21.9523 0.0000
# 2 30.3116 101.4683 43.0417 0.0000 28.6886 0.0000
# 3 14.2451 43.0417 97.7544 -0.0001 35.6262 0.0001
# 4 0.0000 0.0000 -0.0001 50.7048 0.0000 -2.7052
# 5 21.9523 28.6886 35.6262 0.0000 37.1804 0.0000
# 6 0.0000 0.0000 0.0001 -2.7052 0.0000 38.0080
#
#
#
# Elastic Compliance Matrix: (Units=1/GPa)
#
#
# Indices 1 2 3 4 5 6 
#
# 1 0.046483 -0.009252 0.007223 0.000000 -0.027227 0.000000
# 2 -0.009252 0.015081 -0.004674 0.000000 -0.001695 0.000000
# 3 0.007223 -0.004674 0.017632 0.000000 -0.017553 0.000000
# 4 0.000000 0.000000 0.000000 0.019797 0.000000 0.001409
# 5 -0.027227 -0.001695 -0.017553 0.000000 0.061099 0.000000
# 6 0.000000 0.000000 0.000000 0.001409 0.000000 0.026411
#
#
# Mechanical properties :
#
#
# Convention : Reuss Voigt Hill
#
# Bulk Modulus (GPa) = 15.19982 45.84565 30.52274
# Shear Modulus (GPa) = 22.53876 35.16632 28.85254
#
# Velocity S-wave (km/s) = 3.22468 4.02796 3.64850
# Velocity P-wave (km/s) = 4.56918 6.54096 5.64188
#
# Compressibility (1/GPa) = 0.06579023
#
# Stress axis : x y z
#
# Youngs Moduli (GPa) = 21.51321 66.30795 56.71349
#
# Poissons Ratio (x) = 0.61346 -0.40962
# Poissons Ratio (y) = 0.19903 0.26509
# Poissons Ratio (z) = -0.15538 0.30994
#
# Static dielectric constant tensor:
#      x y z
#    x 1.890490 0.000000 -0.048140 
#    y 0.000000 1.750980 0.000000 
#    z -0.048140 0.000000 1.823840 
# 
# From -- ./inp_files/271744.got.cif
#   From: 2010.05.17/outbox.cif.g08.bks.cpg/sg12_136_cif.got.tgz:271744.got - 2010.06.03 13:09:07.
