data_PCOD9202878
_publ_section_title
;
Structure prediction by ZEFSAII (Michael W. Deem and Ramdas Pophale) SiO2 
 PCOD9202878
Probable space group: C 2/M
;
_chemical_formula_sum "Si O2"
_cell_formula_units_Z 56
_cell_length_a 20.991931
_cell_length_b 9.327574
_cell_length_c 15.595158
_cell_angle_alpha 90.000000
_cell_angle_beta 85.501237
_cell_angle_gamma 90.000000
_cell_volume 3044.183009
_symmetry_space_group_name_H-M "C 2/M"
_symmetry_group_IT_number 12
_symmetry_cell_setting 'monoclinic'
loop_
_space_group_symop_operation_xyz
x,y,z
-x,y,-z
-x,-y,-z
x,-y,z
1/2+x,1/2+y,z
1/2-x,1/2+y,-z
1/2-x,1/2-y,-z
1/2+x,1/2-y,z
loop_
_atom_site_type_symbol
_atom_site_label
_atom_site_fract_x
_atom_site_fract_y
_atom_site_fract_z
Si Si1 0.959128 0.830850 0.090385
Si Si2 0.201841 0.834395 0.122715
Si Si3 0.685486 0.830873 0.479997
Si Si4 0.979694 0.830503 0.732753
Si Si5 0.440484 0.670279 0.443113
Si Si6 0.655473 0.834647 0.968071
Si Si7 0.651327 0.832186 0.284845
O O1 0.896111 0.736370 0.088164
O O2 0.997110 0.799071 0.173492
O O3 0.942626 0.000000 0.093938
O O4 0.000000 0.805027 0.000000
O O5 0.274495 0.828986 0.081826
O O6 0.194144 0.752747 0.212385
O O7 0.182171 0.000000 0.132445
O O8 0.159429 0.755702 0.055294
O O9 0.750000 0.750000 0.500000
O O10 0.622649 0.759296 0.528540
O O11 0.676404 0.817390 0.378601
O O12 0.689005 0.000000 0.500838
O O13 0.918751 0.736714 0.714937
O O14 0.034654 0.806417 0.656209
O O15 0.962976 0.000000 0.729754
O O16 0.500000 0.706817 0.500000
O O17 0.427585 0.500000 0.456256
O O18 0.640089 0.000000 0.987911
O O19 0.649436 0.000000 0.263012
#
# Coordination Sequence:
#
# PCOD9202878 Si02
#       7
#     8   8   8   8   8   8   8
#     4  10  21  36  55  82 117 154 193 238 290 348
#     4  10  21  37  59  84 114 153 194 236 291 357
#     4  11  25  42  62  89 123 160 201 254 312 367
#     4  10  21  37  60  88 117 157 201 243 297 362
#     4  10  20  38  64  90 120 159 202 250 306 369
#     4  10  21  37  57  83 114 151 194 240 292 344
#     4  11  23  38  59  88 117 149 195 247 297 353
#
# _framework density 18.395741000000001
#
# number of rings (size 3 to 8) (size 9 to 14) (size 15 to 20)
#    0.000    1.714    1.429    2.571    0.000    7.429 
#    0.000    4.286    0.000    0.000    0.000    0.000 
#    0.000    0.000    0.000    0.000    0.000    0.000 
#
# Total GULP energy -156450.395935 kJ/mol
# GULP energy per Si atom -5587.514141 kJ/mol
# Density = 1.835387 g / cm^3
# Si number density = 18.395741 Si / 1000 Ang^3
#
#
#
# Elastic Constant Matrix: (Units=GPa)
#
#
# Indices 1 2 3 4 5 6 
#
# 1 96.7130 78.5923 45.0225 0.0000 15.6572 0.0000
# 2 78.5923 123.7673 72.4254 0.0000 11.2200 0.0000
# 3 45.0225 72.4254 111.3869 0.0000 0.2862 0.0000
# 4 0.0000 0.0000 0.0000 29.4374 0.0000 -0.3803
# 5 15.6572 11.2200 0.2862 0.0000 25.4634 0.0000
# 6 0.0000 0.0000 0.0000 -0.3803 0.0000 34.8517
#
#
#
# Elastic Compliance Matrix: (Units=1/GPa)
#
#
# Indices 1 2 3 4 5 6 
#
# 1 0.022828 -0.013521 -0.000415 0.000000 -0.008074 0.000000
# 2 -0.013521 0.021918 -0.008783 0.000000 -0.001245 0.000000
# 3 -0.000415 -0.008783 0.014846 0.000000 0.003958 0.000000
# 4 0.000000 0.000000 0.000000 0.033975 0.000000 0.000371
# 5 -0.008074 -0.001245 0.003958 0.000000 0.044741 0.000000
# 6 0.000000 0.000000 0.000000 0.000371 0.000000 0.028697
#
#
# Mechanical properties :
#
#
# Convention : Reuss Voigt Hill
#
# Bulk Modulus (GPa) = 70.64975 80.43863 75.54419
# Shear Modulus (GPa) = 23.02451 27.00564 25.01508
#
# Velocity S-wave (km/s) = 3.54167 3.83565 3.69159
# Velocity P-wave (km/s) = 7.43057 7.96480 7.70232
#
# Compressibility (1/GPa) = 0.01415433
#
# Stress axis : x y z
#
# Youngs Moduli (GPa) = 43.80662 45.62475 67.35836
#
# Poissons Ratio (x) = 0.61689 0.02793
# Poissons Ratio (y) = 0.59231 0.59161
# Poissons Ratio (z) = 0.01816 0.40072
#
# Static dielectric constant tensor:
#      x y z
#    x 1.612510 0.000000 -0.011200 
#    y 0.000000 1.616910 0.000000 
#    z -0.011200 0.000000 1.623270 
# 
# From -- ./inp_files/230959.got.cif
#   From: 2010.05.17/outbox.cif.g08.bks.cpg/sg12_116_cif.got.tgz:230959.got - 2010.06.03 13:09:07.
