data_PCOD9202057
_publ_section_title
;
Structure prediction by ZEFSAII (Michael W. Deem and Ramdas Pophale) SiO2 
 PCOD9202057
Probable space group: C 2/M
;
_chemical_formula_sum "Si O2"
_cell_formula_units_Z 56
_cell_length_a 22.858338
_cell_length_b 7.589472
_cell_length_c 15.215662
_cell_angle_alpha 90.000000
_cell_angle_beta 112.300620
_cell_angle_gamma 90.000000
_cell_volume 2442.223040
_symmetry_space_group_name_H-M "C 2/M"
_symmetry_group_IT_number 12
_symmetry_cell_setting 'monoclinic'
loop_
_space_group_symop_operation_xyz
x,y,z
-x,y,-z
-x,-y,-z
x,-y,z
1/2+x,1/2+y,z
1/2-x,1/2+y,-z
1/2-x,1/2-y,-z
1/2+x,1/2-y,z
loop_
_atom_site_type_symbol
_atom_site_label
_atom_site_fract_x
_atom_site_fract_y
_atom_site_fract_z
Si Si1 0.331415 0.202818 0.261608
Si Si2 0.486533 0.287944 0.090496
Si Si3 0.115208 0.294207 0.233736
Si Si4 0.652945 0.285795 0.931163
Si Si5 0.573647 0.784593 0.541291
Si Si6 0.205301 0.206400 0.139055
Si Si7 0.825138 0.288202 0.552334
O O1 0.338040 0.213848 0.160765
O O2 0.390319 0.274842 0.349068
O O3 0.261381 0.283780 0.231207
O O4 0.327891 0.000000 0.289797
O O5 0.488064 0.500000 0.088309
O O6 0.540295 0.230114 0.188883
O O7 0.417422 0.235036 0.080571
O O8 0.500000 0.220588 0.000000
O O9 0.129436 0.500000 0.237627
O O10 0.141725 0.215200 0.158642
O O11 0.149280 0.220433 0.339230
O O12 0.657123 0.500000 0.929655
O O13 0.696798 0.219405 0.036432
O O14 0.500000 0.724831 0.500000
O O15 0.623814 0.729821 0.493187
O O16 0.569891 0.000000 0.534938
O O17 0.219186 0.000000 0.134719
O O18 0.829881 0.500000 0.554765
O O19 0.750000 0.250000 0.500000
#
# Coordination Sequence:
#
# PCOD9202057 Si02
#       7
#     8   8   8   8   8   8   8
#     4  10  21  35  59  85 106 146 194 234 282 334
#     4  10  20  38  58  78 111 157 195 224 278 353
#     4  11  23  35  57  91 118 144 186 245 295 326
#     4  10  21  36  56  80 113 152 187 229 281 339
#     4   9  19  37  59  82 113 152 192 235 288 351
#     4  10  20  38  58  81 115 155 192 224 276 355
#     4  10  22  40  62  89 117 152 196 243 297 350
#
# _framework density 22.929929999999999
#
# number of rings (size 3 to 8) (size 9 to 14) (size 15 to 20)
#    0.000    2.000    1.429    1.714    2.000    4.286 
#    0.000    0.714    0.000    0.857    0.000    0.000 
#    0.000    0.000    0.000    0.000    0.000    0.000 
#
# Total GULP energy -156259.006678 kJ/mol
# GULP energy per Si atom -5580.678810 kJ/mol
# Density = 2.287774 g / cm^3
# Si number density = 22.929930 Si / 1000 Ang^3
#
#
#
# Elastic Constant Matrix: (Units=GPa)
#
#
# Indices 1 2 3 4 5 6 
#
# 1 122.4689 5.5466 55.3742 0.0000 20.8304 0.0000
# 2 5.5466 47.1236 -1.6758 0.0000 1.9361 0.0000
# 3 55.3742 -1.6758 156.2543 0.0000 31.6712 0.0000
# 4 0.0000 0.0000 0.0000 13.0463 0.0000 2.6983
# 5 20.8304 1.9361 31.6712 0.0000 45.0432 0.0000
# 6 0.0000 0.0000 0.0000 2.6983 0.0000 13.7401
#
#
#
# Elastic Compliance Matrix: (Units=1/GPa)
#
#
# Indices 1 2 3 4 5 6 
#
# 1 0.010021 -0.001189 -0.003073 0.000000 -0.002422 0.000000
# 2 -0.001189 0.021431 0.000847 0.000000 -0.000967 0.000000
# 3 -0.003073 0.000847 0.008417 0.000000 -0.004533 0.000000
# 4 0.000000 0.000000 0.000000 0.079895 0.000000 -0.015690
# 5 -0.002422 -0.000967 -0.004533 0.000000 0.026550 0.000000
# 6 0.000000 0.000000 0.000000 -0.015690 0.000000 0.075861
#
#
# Mechanical properties :
#
#
# Convention : Reuss Voigt Hill
#
# Bulk Modulus (GPa) = 30.26791 49.37074 39.81932
# Shear Modulus (GPa) = 20.83192 32.13939 26.48566
#
# Velocity S-wave (km/s) = 3.01741 3.74790 3.40232
# Velocity P-wave (km/s) = 5.03672 6.34877 5.73042
#
# Compressibility (1/GPa) = 0.03303829
#
# Stress axis : x y z
#
# Youngs Moduli (GPa) = 99.79416 46.66216 118.81012
#
# Poissons Ratio (x) = 0.05549 0.36510
# Poissons Ratio (y) = 0.11868 -0.10066
# Poissons Ratio (z) = 0.30666 -0.03954
#
# Static dielectric constant tensor:
#      x y z
#    x 1.882940 0.000000 0.017580 
#    y 0.000000 1.860340 0.000000 
#    z 0.017580 0.000000 1.864590 
# 
# From -- ./inp_files/238870.got.cif
#   From: 2010.05.17/outbox.cif.g08.bks.cpg/sg12_120_cif.got.tgz:238870.got - 2010.06.03 13:09:07.
