data_PCOD9202000
_publ_section_title
;
Structure prediction by ZEFSAII (Michael W. Deem and Ramdas Pophale) SiO2 
 PCOD9202000
Probable space group: C 2/M
;
_chemical_formula_sum "Si O2"
_cell_formula_units_Z 48
_cell_length_a 10.026194
_cell_length_b 24.822178
_cell_length_c 9.176949
_cell_angle_alpha 90.000000
_cell_angle_beta 113.125550
_cell_angle_gamma 90.000000
_cell_volume 2100.367097
_symmetry_space_group_name_H-M "C 2/M"
_symmetry_group_IT_number 12
_symmetry_cell_setting 'monoclinic'
loop_
_space_group_symop_operation_xyz
x,y,z
-x,y,-z
-x,-y,-z
x,-y,z
1/2+x,1/2+y,z
1/2-x,1/2+y,-z
1/2-x,1/2-y,-z
1/2+x,1/2-y,z
loop_
_atom_site_type_symbol
_atom_site_label
_atom_site_fract_x
_atom_site_fract_y
_atom_site_fract_z
Si Si1 0.391765 0.358560 0.217669
Si Si2 0.473933 0.134729 0.318493
Si Si3 0.891807 0.941596 0.591520
Si Si4 0.297906 0.297227 0.908433
Si Si5 0.159248 0.438250 0.252920
Si Si6 0.283843 0.780409 0.662661
O O1 0.544448 0.389277 0.303055
O O2 0.262269 0.401825 0.194791
O O3 0.352312 0.309955 0.314553
O O4 0.379872 0.337124 0.050427
O O5 0.500000 0.123078 0.500000
O O6 0.329860 0.168056 0.221290
O O7 0.500191 0.084641 0.220377
O O8 0.603966 0.173566 0.326424
O O9 0.738520 0.935825 0.446413
O O10 0.000000 0.945343 0.500000
O O11 0.898447 0.000000 0.671792
O O12 0.360607 0.261875 0.804052
O O13 0.250000 0.250000 0.000000
O O14 0.159329 0.500000 0.205135
O O15 0.250000 0.750000 0.500000
#
# Coordination Sequence:
#
# PCOD9202000 Si02
#       6
#     8   8   8   8   8   8
#     4   9  18  33  59  90 118 151 197 240 303 354
#     4  11  22  40  61  83 117 158 210 246 291 361
#     4   8  14  31  57  89 119 145 189 248 294 347
#     4  10  22  40  56  83 121 157 190 251 302 347
#     4   9  19  36  61  92 122 156 201 249 298 357
#     4  10  20  38  56  82 112 156 201 240 293 354
#
# _framework density 22.853147
#
# number of rings (size 3 to 8) (size 9 to 14) (size 15 to 20)
#    0.000    2.500    1.667    1.500    0.000    6.333 
#   27.000    4.167    0.000    0.000    0.000    2.333 
#    0.000    0.000    0.000    0.000    0.000    0.000 
#
# Total GULP energy -133924.933464 kJ/mol
# GULP energy per Si atom -5580.205561 kJ/mol
# Density = 2.280113 g / cm^3
# Si number density = 22.853147 Si / 1000 Ang^3
#
#
#
# Elastic Constant Matrix: (Units=GPa)
#
#
# Indices 1 2 3 4 5 6 
#
# 1 54.6484 21.0073 6.2468 0.0000 -15.4057 0.0000
# 2 21.0073 125.6577 41.9991 0.0000 -11.8585 0.0000
# 3 6.2468 41.9991 92.4537 0.0000 -22.2283 0.0000
# 4 0.0000 0.0000 0.0000 28.6536 0.0000 4.9385
# 5 -15.4057 -11.8585 -22.2283 0.0000 24.0981 0.0000
# 6 0.0000 0.0000 0.0000 4.9385 0.0000 12.0543
#
#
#
# Elastic Compliance Matrix: (Units=1/GPa)
#
#
# Indices 1 2 3 4 5 6 
#
# 1 0.024245 -0.003842 0.004342 0.000000 0.017614 0.000000
# 2 -0.003842 0.010006 -0.004745 0.000000 -0.001909 0.000000
# 3 0.004342 -0.004745 0.016427 0.000000 0.015594 0.000000
# 4 0.000000 0.000000 0.000000 0.037551 0.000000 -0.015384
# 5 0.017614 -0.001909 0.015594 0.000000 0.066202 0.000000
# 6 0.000000 0.000000 0.000000 -0.015384 0.000000 0.089261
#
#
# Mechanical properties :
#
#
# Convention : Reuss Voigt Hill
#
# Bulk Modulus (GPa) = 23.70308 45.69626 34.69967
# Shear Modulus (GPa) = 18.77965 26.52832 22.65398
#
# Velocity S-wave (km/s) = 2.86973 3.41077 3.15188
# Velocity P-wave (km/s) = 4.62330 5.96240 5.33503
#
# Compressibility (1/GPa) = 0.04218861
#
# Stress axis : x y z
#
# Youngs Moduli (GPa) = 41.24564 99.93783 60.87364
#
# Poissons Ratio (x) = 0.38399 -0.26432
# Poissons Ratio (y) = 0.15848 0.28884
# Poissons Ratio (z) = -0.17910 0.47420
#
# Static dielectric constant tensor:
#      x y z
#    x 1.893700 0.000000 0.149660 
#    y 0.000000 1.862880 0.000000 
#    z 0.149660 0.000000 1.806760 
# 
# From -- ./inp_files/51459.got.cif
#   From: 2010.05.17/outbox.cif.g08.bks.cpg/sg12_26_cif.got.tgz:51459.got - 2010.06.03 13:09:07.
