data_PCOD9202554
_publ_section_title
;
Structure prediction by ZEFSAII (Michael W. Deem and Ramdas Pophale) SiO2 
 PCOD9202554
Probable space group: C 2/M
;
_chemical_formula_sum "Si O2"
_cell_formula_units_Z 48
_cell_length_a 26.264622
_cell_length_b 11.090999
_cell_length_c 8.691200
_cell_angle_alpha 90.000000
_cell_angle_beta 99.670130
_cell_angle_gamma 90.000000
_cell_volume 2495.781092
_symmetry_space_group_name_H-M "C 2/M"
_symmetry_group_IT_number 12
_symmetry_cell_setting 'monoclinic'
loop_
_space_group_symop_operation_xyz
x,y,z
-x,y,-z
-x,-y,-z
x,-y,z
1/2+x,1/2+y,z
1/2-x,1/2+y,-z
1/2-x,1/2-y,-z
1/2+x,1/2-y,z
loop_
_atom_site_type_symbol
_atom_site_label
_atom_site_fract_x
_atom_site_fract_y
_atom_site_fract_z
Si Si1 0.793500 0.133243 0.189014
Si Si2 0.706129 0.194633 0.365036
Si Si3 0.536149 0.865436 0.666487
Si Si4 0.155632 0.861546 0.099083
Si Si5 0.344280 0.871328 0.358570
Si Si6 0.955695 0.860096 0.106727
O O1 0.738109 0.131138 0.244538
O O2 0.821229 0.250513 0.272665
O O3 0.817561 0.000000 0.233787
O O4 0.799758 0.148364 0.008921
O O5 0.750000 0.250000 0.500000
O O6 0.671197 0.288804 0.256436
O O7 0.670185 0.128304 0.468897
O O8 0.500000 0.855047 0.500000
O O9 0.595122 0.866823 0.639300
O O10 0.530575 0.747461 0.769508
O O11 0.526347 0.000000 0.732766
O O12 0.151368 0.000000 0.141741
O O13 0.100746 0.829486 0.993664
O O14 0.324064 0.000000 0.282808
O O15 0.952515 0.000000 0.165261
O O16 0.000000 0.860848 0.000000
#
# Coordination Sequence:
#
# PCOD9202554 Si02
#       6
#     8   8   8   8   8   8
#     4  10  20  38  62  87 116 154 199 248 300 356
#     4  10  22  36  56  86 118 158 200 244 294 357
#     4  10  22  40  62  88 123 162 199 244 300 359
#     4  10  21  39  62  88 121 159 199 250 306 358
#     4  10  21  38  58  86 121 157 198 245 295 355
#     4  10  22  41  65  94 123 153 200 253 301 357
#
# _framework density 19.232457
#
# number of rings (size 3 to 8) (size 9 to 14) (size 15 to 20)
#    0.000    2.000    1.667    1.000    2.333    6.000 
#    0.000    3.333    0.000    0.000    0.000    0.000 
#    0.000    0.000    0.000    0.000    0.000    0.000 
#
# Total GULP energy -133625.314455 kJ/mol
# GULP energy per Si atom -5567.721436 kJ/mol
# Density = 1.918868 g / cm^3
# Si number density = 19.232457 Si / 1000 Ang^3
#
#
#
# Elastic Constant Matrix: (Units=GPa)
#
#
# Indices 1 2 3 4 5 6 
#
# 1 33.2179 24.9923 8.6423 0.0000 -13.2745 0.0000
# 2 24.9923 168.3519 71.1183 0.0000 14.4253 0.0000
# 3 8.6423 71.1183 65.0297 0.0000 1.9911 0.0000
# 4 0.0000 0.0000 0.0000 -229.8372 0.0000 702.0988
# 5 -13.2745 14.4253 1.9911 0.0000 29.1722 0.0000
# 6 0.0000 0.0000 0.0000 702.0988 0.0000-1681.1588
#
#
#
# Elastic Compliance Matrix: (Units=1/GPa)
#
#
# Indices 1 2 3 4 5 6 
#
# 1 0.048798 -0.012132 0.005932 0.000000 0.027799 0.000000
# 2 -0.012132 0.014723 -0.014127 0.000000 -0.011837 0.000000
# 3 0.005932 -0.014127 0.029804 0.000000 0.007650 0.000000
# 4 0.000000 0.000000 0.000000 0.015778 0.000000 0.006589
# 5 0.027799 -0.011837 0.007650 0.000000 0.052260 0.000000
# 6 0.000000 0.000000 0.000000 0.006589 0.000000 0.002157
#
#
# Mechanical properties :
#
#
# Convention : Reuss Voigt Hill
#
# Bulk Modulus (GPa) = 18.98575 52.90057 35.94316
# Shear Modulus (GPa) = 22.54987 -365.57500 -171.51256
#
# Velocity S-wave (km/s) = 3.42788 -13.80199 -9.45369
# Velocity P-wave (km/s) = 5.05572 15.04751 10.02166
#
# Compressibility (1/GPa) = 0.05267109
#
# Stress axis : x y z
#
# Youngs Moduli (GPa) = 20.49272 67.92198 33.55220
#
# Poissons Ratio (x) = 0.82402 -0.19902
# Poissons Ratio (y) = 0.24861 0.47398
# Poissons Ratio (z) = -0.12155 0.95950
#
# Static dielectric constant tensor:
#      x y z
#    x 1.672190 0.000000 -0.023800 
#    y 0.000000 1.789890 0.000000 
#    z -0.023800 0.000000 1.637080 
# 
# From -- ./inp_files/94497.got.cif
#   From: 2010.05.17/outbox.cif.g08.bks.cpg/sg12_48_cif.got.tgz:94497.got - 2010.06.03 13:09:07.
