data_PCOD9202728
_publ_section_title
;
Structure prediction by ZEFSAII (Michael W. Deem and Ramdas Pophale) SiO2 
 PCOD9202728
Probable space group: C 2/M
;
_chemical_formula_sum "Si O2"
_cell_formula_units_Z 64
_cell_length_a 25.516951
_cell_length_b 15.327003
_cell_length_c 8.920094
_cell_angle_alpha 90.000000
_cell_angle_beta 70.265321
_cell_angle_gamma 90.000000
_cell_volume 3283.734093
_symmetry_space_group_name_H-M "C 2/M"
_symmetry_group_IT_number 12
_symmetry_cell_setting 'monoclinic'
loop_
_space_group_symop_operation_xyz
x,y,z
-x,y,-z
-x,-y,-z
x,-y,z
1/2+x,1/2+y,z
1/2-x,1/2+y,-z
1/2-x,1/2-y,-z
1/2+x,1/2-y,z
loop_
_atom_site_type_symbol
_atom_site_label
_atom_site_fract_x
_atom_site_fract_y
_atom_site_fract_z
Si Si1 0.647167 0.392928 0.326035
Si Si2 0.169798 0.402297 0.302125
Si Si3 0.723477 0.397156 0.970017
Si Si4 0.815068 0.249091 0.476703
Si Si5 0.464878 0.593784 0.188830
Si Si6 0.042560 0.592882 0.321130
Si Si7 0.556037 0.712868 0.218714
Si Si8 0.867054 0.810165 0.144711
O O1 0.639062 0.500000 0.347426
O O2 0.697372 0.377824 0.157167
O O3 0.665619 0.339851 0.456362
O O4 0.594406 0.340273 0.302599
O O5 0.185781 0.500000 0.339962
O O6 0.174618 0.329133 0.422362
O O7 0.106498 0.406540 0.312076
O O8 0.211720 0.379649 0.124652
O O9 0.713692 0.500000 0.958081
O O10 0.688237 0.347410 0.878270
O O11 0.750000 0.250000 0.500000
O O12 0.849424 0.257779 0.288884
O O13 0.465954 0.500000 0.262249
O O14 0.498554 0.661083 0.255471
O O15 0.403340 0.618565 0.198816
O O16 0.500000 0.590048 0.000000
O O17 0.033766 0.500000 0.245625
O O18 0.037570 0.687859 0.257116
O O19 0.000000 0.591313 0.500000
O O20 0.593046 0.715055 0.031263
#
# Coordination Sequence:
#
# PCOD9202728 Si02
#       8
#     8   8   8   8   8   8   8   8
#     4  10  22  38  60  91 124 154 193 244 293 347
#     4  10  21  39  60  82 110 151 203 245 291 353
#     4   9  18  36  61  86 115 156 199 239 286 349
#     4  12  24  38  55  87 122 158 190 238 299 353
#     4   9  18  33  56  86 120 155 190 230 283 351
#     4  10  22  40  63  87 111 147 198 257 306 343
#     4  10  20  38  63  89 118 156 201 243 286 354
#     4  10  21  35  56  87 125 161 193 232 294 355
#
# _framework density 19.490006999999999
#
# number of rings (size 3 to 8) (size 9 to 14) (size 15 to 20)
#    0.000    2.000    2.500    0.750    1.750    6.000 
#    0.000    0.625    0.000    5.625    0.000    0.000 
#    0.000    0.000    0.000    0.000    0.000    0.000 
#
# Total GULP energy -178251.153190 kJ/mol
# GULP energy per Si atom -5570.348537 kJ/mol
# Density = 1.944565 g / cm^3
# Si number density = 19.490007 Si / 1000 Ang^3
#
#
#
# Elastic Constant Matrix: (Units=GPa)
#
#
# Indices 1 2 3 4 5 6 
#
# 1 58.3599 26.0932 15.0628 0.0000 -4.8732 0.0000
# 2 26.0932 128.2159 21.4841 0.0000 9.0706 0.0000
# 3 15.0628 21.4841 58.1301 0.0000 -4.6921 0.0000
# 4 0.0000 0.0000 0.0000 15.3783 0.0000 8.1170
# 5 -4.8732 9.0706 -4.6921 0.0000 25.4119 0.0000
# 6 0.0000 0.0000 0.0000 8.1170 0.0000 19.1999
#
#
#
# Elastic Compliance Matrix: (Units=1/GPa)
#
#
# Indices 1 2 3 4 5 6 
#
# 1 0.020122 -0.003847 -0.003421 0.000000 0.004600 0.000000
# 2 -0.003847 0.009385 -0.002844 0.000000 -0.004613 0.000000
# 3 -0.003421 -0.002844 0.019459 0.000000 0.003952 0.000000
# 4 0.000000 0.000000 0.000000 0.083705 0.000000 -0.035387
# 5 0.004600 -0.004613 0.003952 0.000000 0.042610 0.000000
# 6 0.000000 0.000000 0.000000 -0.035387 0.000000 0.067044
#
#
# Mechanical properties :
#
#
# Convention : Reuss Voigt Hill
#
# Bulk Modulus (GPa) = 34.79189 41.10955 37.95072
# Shear Modulus (GPa) = 18.37349 24.13574 21.25461
#
# Velocity S-wave (km/s) = 3.07369 3.52286 3.30591
# Velocity P-wave (km/s) = 5.52148 6.13888 5.83834
#
# Compressibility (1/GPa) = 0.02874233
#
# Stress axis : x y z
#
# Youngs Moduli (GPa) = 49.69603 106.55066 51.38921
#
# Poissons Ratio (x) = 0.40994 0.17580
# Poissons Ratio (y) = 0.19120 0.14615
# Poissons Ratio (z) = 0.17000 0.30304
#
# Static dielectric constant tensor:
#      x y z
#    x 1.679370 0.000000 -0.020770 
#    y 0.000000 1.743920 0.000000 
#    z -0.020770 0.000000 1.716400 
# 
# From -- ./inp_files/104510.got.cif
#   From: 2010.05.17/outbox.cif.g08.bks.cpg/sg12_53_cif.got.tgz:104510.got - 2010.06.03 13:09:07.
