data_PCOD9202394
_publ_section_title
;
Structure prediction by ZEFSAII (Michael W. Deem and Ramdas Pophale) SiO2 
 PCOD9202394
Probable space group: C 2/M
;
_chemical_formula_sum "Si O2"
_cell_formula_units_Z 64
_cell_length_a 20.314820
_cell_length_b 7.723010
_cell_length_c 32.262318
_cell_angle_alpha 90.000000
_cell_angle_beta 144.714723
_cell_angle_gamma 90.000000
_cell_volume 2923.871837
_symmetry_space_group_name_H-M "C 2/M"
_symmetry_group_IT_number 12
_symmetry_cell_setting 'monoclinic'
loop_
_space_group_symop_operation_xyz
x,y,z
-x,y,-z
-x,-y,-z
x,-y,z
1/2+x,1/2+y,z
1/2-x,1/2+y,-z
1/2-x,1/2-y,-z
1/2+x,1/2-y,z
loop_
_atom_site_type_symbol
_atom_site_label
_atom_site_fract_x
_atom_site_fract_y
_atom_site_fract_z
Si Si1 0.019750 0.204151 0.206296
Si Si2 0.224123 0.787486 0.763490
Si Si3 0.109513 0.199799 0.030926
Si Si4 0.483244 0.799252 0.888683
Si Si5 0.188938 0.791769 0.511837
Si Si6 0.744944 0.290303 0.630572
Si Si7 0.849515 0.800405 0.186571
Si Si8 0.569172 0.711303 0.606563
O O1 0.997063 0.285252 0.150026
O O2 0.148793 0.229503 0.287625
O O3 0.938820 0.278961 0.200611
O O4 0.996766 0.000000 0.189864
O O5 0.355335 0.729246 0.830638
O O6 0.163170 0.725958 0.774002
O O7 0.154739 0.735911 0.687274
O O8 0.227356 0.000000 0.765358
O O9 0.075008 0.209851 0.965184
O O10 0.126108 0.000000 0.051664
O O11 0.224726 0.295228 0.101974
O O12 0.000000 0.267540 0.000000
O O13 0.484436 0.000000 0.901505
O O14 0.250000 0.750000 0.500000
O O15 0.250728 0.731080 0.585866
O O16 0.058298 0.728918 0.448871
O O17 0.185218 0.000000 0.511974
O O18 0.747513 0.500000 0.632231
O O19 0.628037 0.237098 0.593549
O O20 0.885222 0.000000 0.210787
O O21 0.565392 0.500000 0.604251
#
# Coordination Sequence:
#
# PCOD9202394 Si02
#       8
#     8   8   8   8   8   8   8   8
#     4  11  24  39  59  89 123 155 191 245 302 348
#     4   9  17  32  59  88 108 143 202 247 278 336
#     4  11  23  38  59  89 122 153 190 245 305 351
#     4  11  21  38  65  88 115 155 200 246 287 349
#     4  10  22  37  59  88 122 155 193 242 291 347
#     4  10  20  38  61  86 114 154 203 242 286 348
#     4  10  22  39  59  85 115 154 201 241 290 357
#     4   9  17  34  61  87 111 150 202 246 280 334
#
# _framework density 21.888783
#
# number of rings (size 3 to 8) (size 9 to 14) (size 15 to 20)
#    0.000    1.875    2.500    1.500    1.750    4.000 
#    0.000    0.625    0.000    1.500    0.000    0.000 
#    0.000    0.000    0.000    0.000    0.000    0.000 
#
# Total GULP energy -178795.774843 kJ/mol
# GULP energy per Si atom -5587.367964 kJ/mol
# Density = 2.183896 g / cm^3
# Si number density = 21.888783 Si / 1000 Ang^3
#
#
#
# Elastic Constant Matrix: (Units=GPa)
#
#
# Indices 1 2 3 4 5 6 
#
# 1 148.6034 -2.1463 18.1637 0.0001 -16.6199 0.0004
# 2 -2.1463 39.2855 -8.0014 -0.0001 -1.0889 0.0001
# 3 18.1637 -8.0014 56.6395 0.0002 -20.1816 0.0001
# 4 0.0001 -0.0001 0.0002 3.5295 0.0001 -17.3200
# 5 -16.6199 -1.0889 -20.1816 0.0001 40.0044 -0.0001
# 6 0.0004 0.0001 0.0001 -17.3200 -0.0001 -8.7280
#
#
#
# Elastic Compliance Matrix: (Units=1/GPa)
#
#
# Indices 1 2 3 4 5 6 
#
# 1 0.007162 0.000152 -0.001480 0.000000 0.002233 0.000000
# 2 0.000152 0.026541 0.004853 0.000000 0.003234 0.000000
# 3 -0.001480 0.004853 0.022729 0.000000 0.010984 0.000000
# 4 0.000000 0.000000 0.000000 0.026386 0.000000 -0.052360
# 5 0.002233 0.003234 0.010984 0.000000 0.031554 0.000000
# 6 0.000000 0.000000 0.000000 -0.052360 0.000000 -0.010670
#
#
# Mechanical properties :
#
#
# Convention : Reuss Voigt Hill
#
# Bulk Modulus (GPa) = 15.75227 28.95116 22.35172
# Shear Modulus (GPa) = 42.44005 22.72867 32.58436
#
# Velocity S-wave (km/s) = 4.40807 3.22587 3.86247
# Velocity P-wave (km/s) = 5.75501 5.20867 5.48864
#
# Compressibility (1/GPa) = 0.06348291
#
# Stress axis : x y z
#
# Youngs Moduli (GPa) = 139.62327 37.67753 43.99586
#
# Poissons Ratio (x) = -0.00572 0.06510
# Poissons Ratio (y) = -0.02120 -0.21351
# Poissons Ratio (z) = 0.20659 -0.18285
#
# Static dielectric constant tensor:
#      x y z
#    x 1.817180 0.000000 -0.006740 
#    y 0.000000 1.832340 0.000000 
#    z -0.006740 0.000000 1.754250 
# 
# From -- ./inp_files/378397.got.cif
#   From: 2010.05.17/outbox.cif.g08.bks.cpg/sg12_190_cif.got.tgz:378397.got - 2010.06.03 13:09:07.
