data_PCOD9202407
_publ_section_title
;
Structure prediction by ZEFSAII (Michael W. Deem and Ramdas Pophale) SiO2 
 PCOD9202407
Probable space group: C 2/M
;
_chemical_formula_sum "Si O2"
_cell_formula_units_Z 64
_cell_length_a 9.583423
_cell_length_b 16.136436
_cell_length_c 21.491169
_cell_angle_alpha 90.000000
_cell_angle_beta 91.211716
_cell_angle_gamma 90.000000
_cell_volume 3322.700442
_symmetry_space_group_name_H-M "C 2/M"
_symmetry_group_IT_number 12
_symmetry_cell_setting 'monoclinic'
loop_
_space_group_symop_operation_xyz
x,y,z
-x,y,-z
-x,-y,-z
x,-y,z
1/2+x,1/2+y,z
1/2-x,1/2+y,-z
1/2-x,1/2-y,-z
1/2+x,1/2-y,z
loop_
_atom_site_type_symbol
_atom_site_label
_atom_site_fract_x
_atom_site_fract_y
_atom_site_fract_z
Si Si1 0.568180 0.905177 0.749187
Si Si2 0.046554 0.597800 0.567568
Si Si3 0.339075 0.840225 0.669489
Si Si4 0.310299 0.093439 0.112509
Si Si5 0.878803 0.239112 0.047315
Si Si6 0.980306 0.900756 0.139640
Si Si7 0.059363 0.906375 0.714846
Si Si8 0.712693 0.345350 0.344117
O O1 0.418114 0.866776 0.733464
O O2 0.616276 0.908051 0.819859
O O3 0.678617 0.851908 0.711694
O O4 0.571946 0.000000 0.724943
O O5 0.070619 0.500000 0.561985
O O6 0.921733 0.612197 0.615890
O O7 0.000000 0.631125 0.500000
O O8 0.190025 0.635365 0.596031
O O9 0.354992 0.744413 0.654364
O O10 0.176917 0.856706 0.679023
O O11 0.382230 0.170509 0.079202
O O12 0.143841 0.108422 0.121437
O O13 0.324871 0.000000 0.085063
O O14 0.888877 0.164098 0.097914
O O15 0.750000 0.250000 0.000000
O O16 0.000000 0.221969 0.000000
O O17 0.966048 0.880442 0.213365
O O18 0.946634 0.000000 0.131002
O O19 0.914582 0.904235 0.675899
O O20 0.112812 0.000000 0.718660
#
# Coordination Sequence:
#
# PCOD9202407 Si02
#       8
#     8   8   8   8   8   8   8   8
#     4  10  20  38  61  86 121 162 200 239 298 377
#     4  10  22  43  64  80 115 173 217 241 287 366
#     4  11  23  35  57  94 127 154 190 257 314 345
#     4  10  22  41  66  91 121 164 209 256 309 371
#     4  12  26  43  64  93 122 164 211 260 308 364
#     4  10  23  41  65  92 123 168 205 249 319 385
#     4  11  21  36  60  92 124 150 193 255 311 363
#     4  11  21  35  59  92 119 157 197 244 305 367
#
# _framework density 19.261443
#
# number of rings (size 3 to 8) (size 9 to 14) (size 15 to 20)
#    0.000    1.375    2.500    4.500    3.500    2.500 
#    0.000    1.875    0.000    2.250    0.000    0.000 
#    0.000    0.000    0.000    0.000    0.000    0.000 
#
# Total GULP energy -178404.387153 kJ/mol
# GULP energy per Si atom -5575.137099 kJ/mol
# Density = 1.921760 g / cm^3
# Si number density = 19.261443 Si / 1000 Ang^3
#
#
#
# Elastic Constant Matrix: (Units=GPa)
#
#
# Indices 1 2 3 4 5 6 
#
# 1 77.9773 7.1750 29.6022 0.0000 20.4200 0.0000
# 2 7.1750 69.6776 38.0626 0.0000 17.0188 0.0000
# 3 29.6022 38.0626 92.3478 0.0000 28.5106 0.0000
# 4 0.0000 0.0000 0.0000 29.7262 0.0000 -8.9033
# 5 20.4200 17.0188 28.5106 0.0000 28.0542 0.0000
# 6 0.0000 0.0000 0.0000 -8.9033 0.0000 39.4167
#
#
#
# Elastic Compliance Matrix: (Units=1/GPa)
#
#
# Indices 1 2 3 4 5 6 
#
# 1 0.016495 0.002547 -0.003138 0.000000 -0.010362 0.000000
# 2 0.002547 0.019423 -0.006721 0.000000 -0.006807 0.000000
# 3 -0.003138 -0.006721 0.018420 0.000000 -0.012359 0.000000
# 4 0.000000 0.000000 0.000000 0.036081 0.000000 0.008150
# 5 -0.010362 -0.006807 -0.012359 0.000000 0.059876 0.000000
# 6 0.000000 0.000000 0.000000 0.008150 0.000000 0.027211
#
#
# Mechanical properties :
#
#
# Convention : Reuss Voigt Hill
#
# Bulk Modulus (GPa) = 25.17997 43.29804 34.23900
# Shear Modulus (GPa) = 24.34648 30.45026 27.39837
#
# Velocity S-wave (km/s) = 3.55914 3.98036 3.77563
# Velocity P-wave (km/s) = 5.47641 6.60698 6.06808
#
# Compressibility (1/GPa) = 0.03971411
#
# Stress axis : x y z
#
# Youngs Moduli (GPa) = 60.62566 51.48451 54.28888
#
# Poissons Ratio (x) = -0.13111 0.17036
# Poissons Ratio (y) = -0.15438 0.36485
# Poissons Ratio (z) = 0.19024 0.34600
#
# Static dielectric constant tensor:
#      x y z
#    x 1.663400 0.000000 0.028890 
#    y 0.000000 1.710370 0.000000 
#    z 0.028890 0.000000 1.678800 
# 
# From -- ./inp_files/332967.got.cif
#   From: 2010.05.17/outbox.cif.g08.bks.cpg/sg12_167_cif.got.tgz:332967.got - 2010.06.03 13:09:07.
