data_PCOD9202757
_publ_section_title
;
Structure prediction by ZEFSAII (Michael W. Deem and Ramdas Pophale) SiO2 
 PCOD9202757
Probable space group: C 2/M
;
_chemical_formula_sum "Si O2"
_cell_formula_units_Z 56
_cell_length_a 22.345371
_cell_length_b 9.021691
_cell_length_c 17.626010
_cell_angle_alpha 90.000000
_cell_angle_beta 128.643737
_cell_angle_gamma 90.000000
_cell_volume 2775.268666
_symmetry_space_group_name_H-M "C 2/M"
_symmetry_group_IT_number 12
_symmetry_cell_setting 'monoclinic'
loop_
_space_group_symop_operation_xyz
x,y,z
-x,y,-z
-x,-y,-z
x,-y,z
1/2+x,1/2+y,z
1/2-x,1/2+y,-z
1/2-x,1/2-y,-z
1/2+x,1/2-y,z
loop_
_atom_site_type_symbol
_atom_site_label
_atom_site_fract_x
_atom_site_fract_y
_atom_site_fract_z
Si Si1 0.671647 0.173255 0.911513
Si Si2 0.910087 0.678047 0.445860
Si Si3 0.396173 0.327471 0.740421
Si Si4 0.333022 0.177019 0.547190
Si Si5 0.175991 0.824750 0.762194
Si Si6 0.671735 0.673779 0.158139
Si Si7 0.434412 0.330635 0.060226
O O1 0.643357 0.247094 0.811275
O O2 0.610761 0.210293 0.927553
O O3 0.684162 0.000000 0.910589
O O4 0.750000 0.250000 0.000000
O O5 0.900869 0.500000 0.431131
O O6 0.874626 0.719028 0.500444
O O7 0.862785 0.760546 0.343519
O O8 0.000000 0.710524 0.500000
O O9 0.383593 0.500000 0.709345
O O10 0.386481 0.227775 0.659320
O O11 0.337140 0.287944 0.760693
O O12 0.477825 0.318582 0.846669
O O13 0.250000 0.250000 0.500000
O O14 0.323333 0.000000 0.538509
O O15 0.264559 0.775189 0.829022
O O16 0.168233 0.000000 0.760929
O O17 0.694686 0.500000 0.171836
O O18 0.592915 0.686140 0.048210
O O19 0.410017 0.500000 0.062147
#
# Coordination Sequence:
#
# PCOD9202757 Si02
#       7
#     8   8   8   8   8   8   8
#     4  12  24  40  62  90 126 167 210 254 306 370
#     4  10  24  46  68  92 124 166 215 268 328 385
#     4  10  22  39  63  94 127 164 207 255 313 375
#     4  11  24  43  67  94 125 167 216 268 326 385
#     4  12  25  40  63  94 126 163 208 259 315 372
#     4  10  20  38  63  90 126 171 210 250 303 370
#     4  10  21  38  61  91 127 166 208 254 306 369
#
# _framework density 20.178228000000001
#
# number of rings (size 3 to 8) (size 9 to 14) (size 15 to 20)
#    0.000    1.286    1.429    4.286    2.000    7.714 
#    0.000    0.000    0.000    2.571    0.000    0.000 
#    0.000    0.000    0.000    0.000    0.000    0.000 
#
# Total GULP energy -156426.208624 kJ/mol
# GULP energy per Si atom -5586.650308 kJ/mol
# Density = 2.013230 g / cm^3
# Si number density = 20.178228 Si / 1000 Ang^3
#
#
#
# Elastic Constant Matrix: (Units=GPa)
#
#
# Indices 1 2 3 4 5 6 
#
# 1 77.6123 39.8059 39.1319 0.0000 -16.9412 0.0000
# 2 39.8059 74.9266 61.3059 0.0000 -14.3015 0.0000
# 3 39.1319 61.3059 133.3065 0.0000 -21.9711 0.0000
# 4 0.0000 0.0000 0.0000 25.4109 0.0000 -4.7381
# 5 -16.9412 -14.3015 -21.9711 0.0000 36.2612 0.0000
# 6 0.0000 0.0000 0.0000 -4.7381 0.0000 24.3167
#
#
#
# Elastic Compliance Matrix: (Units=1/GPa)
#
#
# Indices 1 2 3 4 5 6 
#
# 1 0.018625 -0.008250 -0.000862 0.000000 0.004926 0.000000
# 2 -0.008250 0.025302 -0.009115 0.000000 0.000602 0.000000
# 3 -0.000862 -0.009115 0.012540 0.000000 0.003600 0.000000
# 4 0.000000 0.000000 0.000000 0.040837 0.000000 0.007957
# 5 0.004926 0.000602 0.003600 0.000000 0.032298 0.000000
# 6 0.000000 0.000000 0.000000 0.007957 0.000000 0.042674
#
#
# Mechanical properties :
#
#
# Convention : Reuss Voigt Hill
#
# Bulk Modulus (GPa) = 49.96456 62.92587 56.44522
# Shear Modulus (GPa) = 23.21243 26.90454 25.05849
#
# Velocity S-wave (km/s) = 3.39539 3.65546 3.52782
# Velocity P-wave (km/s) = 6.33932 7.00495 6.68043
#
# Compressibility (1/GPa) = 0.02001418
#
# Stress axis : x y z
#
# Youngs Moduli (GPa) = 53.69017 39.52194 79.74582
#
# Poissons Ratio (x) = 0.32605 0.06871
# Poissons Ratio (y) = 0.44294 0.72691
# Poissons Ratio (z) = 0.04626 0.36025
#
# Static dielectric constant tensor:
#      x y z
#    x 1.736280 0.000000 0.010720 
#    y 0.000000 1.676070 0.000000 
#    z 0.010720 0.000000 1.717280 
# 
# From -- ./inp_files/238967.got.cif
#   From: 2010.05.17/outbox.cif.g08.bks.cpg/sg12_120_cif.got.tgz:238967.got - 2010.06.03 13:09:07.
