data_PCOD9202328
_publ_section_title
;
Structure prediction by ZEFSAII (Michael W. Deem and Ramdas Pophale) SiO2 
 PCOD9202328
Probable space group: C 2/M
;
_chemical_formula_sum "Si O2"
_cell_formula_units_Z 64
_cell_length_a 14.844540
_cell_length_b 15.372407
_cell_length_c 18.057341
_cell_angle_alpha 90.000000
_cell_angle_beta 47.326305
_cell_angle_gamma 90.000000
_cell_volume 3029.585379
_symmetry_space_group_name_H-M "C 2/M"
_symmetry_group_IT_number 12
_symmetry_cell_setting 'monoclinic'
loop_
_space_group_symop_operation_xyz
x,y,z
-x,y,-z
-x,-y,-z
x,-y,z
1/2+x,1/2+y,z
1/2-x,1/2+y,-z
1/2-x,1/2-y,-z
1/2+x,1/2-y,z
loop_
_atom_site_type_symbol
_atom_site_label
_atom_site_fract_x
_atom_site_fract_y
_atom_site_fract_z
Si Si1 0.532236 0.095489 0.789650
Si Si2 0.407288 0.598610 0.323905
Si Si3 0.504044 0.400460 0.109305
Si Si4 0.785715 0.224698 0.180508
Si Si5 0.405211 0.403374 0.486525
Si Si6 0.718076 0.235068 0.648212
Si Si7 0.773036 0.335405 0.936399
Si Si8 0.636515 0.909170 0.891970
O O1 0.591037 0.179515 0.717823
O O2 0.395423 0.116279 0.894114
O O3 0.618624 0.088457 0.813554
O O4 0.533050 0.000000 0.752228
O O5 0.359123 0.500000 0.344264
O O6 0.490446 0.612258 0.205512
O O7 0.466911 0.606125 0.371507
O O8 0.304254 0.671996 0.376206
O O9 0.467026 0.500000 0.112016
O O10 0.411856 0.330495 0.123388
O O11 0.644854 0.385981 0.011640
O O12 0.743266 0.244803 0.287827
O O13 0.704677 0.176449 0.164670
O O14 0.805982 0.316170 0.127214
O O15 0.500000 0.402559 0.500000
O O16 0.345220 0.500000 0.520656
O O17 0.312711 0.326096 0.553998
O O18 0.750000 0.250000 0.000000
O O19 0.698030 0.000000 0.882030
O O20 0.500000 0.908313 0.000000
#
# Coordination Sequence:
#
# PCOD9202328 Si02
#       8
#     8   8   8   8   8   8   8   8
#     4  10  21  34  50  77 109 141 183 228 274 331
#     4   9  19  37  59  85 113 144 188 234 279 335
#     4  10  21  37  57  78 107 151 196 237 279 321
#     4  10  21  35  52  77 106 142 189 230 267 325
#     4  10  21  37  61  91 116 140 178 230 286 344
#     4  10  20  38  61  80 109 151 185 225 281 336
#     4  12  22  33  51  77 114 152 189 234 282 331
#     4   9  16  30  49  66  92 131 172 215 263 314
#
# _framework density 21.125001999999999
#
# number of rings (size 3 to 8) (size 9 to 14) (size 15 to 20)
#    0.000    2.000    0.000    5.250    0.000    4.000 
#    0.000    0.625    0.000    7.125    0.000    0.000 
#    0.000    0.000    0.000    0.000    0.000    0.000 
#
# Total GULP energy -178380.458726 kJ/mol
# GULP energy per Si atom -5574.389335 kJ/mol
# Density = 2.107692 g / cm^3
# Si number density = 21.125002 Si / 1000 Ang^3
#
#
#
# Elastic Constant Matrix: (Units=GPa)
#
#
# Indices 1 2 3 4 5 6 
#
# 1 54.6717 15.0363 23.6649 0.0000 22.8855 0.0000
# 2 15.0363 103.8461 20.0318 0.0000 8.6280 0.0000
# 3 23.6649 20.0318 57.7588 0.0000 19.2919 0.0000
# 4 0.0000 0.0000 0.0000 9.8603 0.0000 -2.8024
# 5 22.8855 8.6280 19.2919 0.0000 30.1947 0.0000
# 6 0.0000 0.0000 0.0000 -2.8024 0.0000 -0.0965
#
#
#
# Elastic Compliance Matrix: (Units=1/GPa)
#
#
# Indices 1 2 3 4 5 6 
#
# 1 0.028408 -0.001647 -0.005128 0.000000 -0.017784 0.000000
# 2 -0.001647 0.010432 -0.003006 0.000000 0.000188 0.000000
# 3 -0.005128 -0.003006 0.023992 0.000000 -0.010583 0.000000
# 4 0.000000 0.000000 0.000000 0.010960 0.000000 -0.318271
# 5 -0.017784 0.000188 -0.010583 0.000000 0.053306 0.000000
# 6 0.000000 0.000000 0.000000 -0.318271 0.000000 -1.119839
#
#
# Mechanical properties :
#
#
# Convention : Reuss Voigt Hill
#
# Bulk Modulus (GPa) = 23.11038 37.08253 30.09646
# Shear Modulus (GPa) = -5.21509 18.49460 6.63975
#
# Velocity S-wave (km/s) = -1.57291 2.96207 1.77480
# Velocity P-wave (km/s) = 2.76855 5.41206 4.29856
#
# Compressibility (1/GPa) = 0.04327059
#
# Stress axis : x y z
#
# Youngs Moduli (GPa) = 35.20125 95.85570 41.68060
#
# Poissons Ratio (x) = 0.15783 0.21375
# Poissons Ratio (y) = 0.05796 0.12530
# Poissons Ratio (z) = 0.18052 0.28816
#
# Static dielectric constant tensor:
#      x y z
#    x 1.762240 0.000000 0.030670 
#    y 0.000000 1.846290 0.000000 
#    z 0.030670 0.000000 1.774620 
# 
# From -- ./inp_files/270663.got.cif
#   From: 2010.05.17/outbox.cif.g08.bks.cpg/sg12_136_cif.got.tgz:270663.got - 2010.06.03 13:09:07.
