data_PCOD9202707
_publ_section_title
;
Structure prediction by ZEFSAII (Michael W. Deem and Ramdas Pophale) SiO2 
 PCOD9202707
Probable space group: C 2/M
;
_chemical_formula_sum "Si O2"
_cell_formula_units_Z 56
_cell_length_a 21.050273
_cell_length_b 16.795428
_cell_length_c 9.254221
_cell_angle_alpha 90.000000
_cell_angle_beta 59.473425
_cell_angle_gamma 90.000000
_cell_volume 2818.320282
_symmetry_space_group_name_H-M "C 2/M"
_symmetry_group_IT_number 12
_symmetry_cell_setting 'monoclinic'
loop_
_space_group_symop_operation_xyz
x,y,z
-x,y,-z
-x,-y,-z
x,-y,z
1/2+x,1/2+y,z
1/2-x,1/2+y,-z
1/2-x,1/2-y,-z
1/2+x,1/2-y,z
loop_
_atom_site_type_symbol
_atom_site_label
_atom_site_fract_x
_atom_site_fract_y
_atom_site_fract_z
Si Si1 0.823328 0.094041 0.222432
Si Si2 0.467060 0.156901 0.198532
Si Si3 0.065699 0.328343 0.321635
Si Si4 0.933675 0.091906 0.679837
Si Si5 0.655003 0.093175 0.478091
Si Si6 0.965115 0.156008 0.196489
Si Si7 0.326762 0.297334 0.929960
O O1 0.742177 0.106535 0.380992
O O2 0.885636 0.116100 0.267400
O O3 0.830764 0.000000 0.171885
O O4 0.828316 0.153479 0.078196
O O5 0.521822 0.118690 0.255373
O O6 0.387409 0.122056 0.329647
O O7 0.459584 0.251226 0.245009
O O8 0.500000 0.147623 0.000000
O O9 0.121696 0.365822 0.372208
O O10 0.110318 0.268909 0.166182
O O11 0.000000 0.295653 0.500000
O O12 0.856829 0.139682 0.774951
O O13 0.000000 0.119955 0.500000
O O14 0.976614 0.105380 0.780011
O O15 0.919095 0.000000 0.666738
O O16 0.641789 0.000000 0.476810
O O17 0.000000 0.158446 0.000000
O O18 0.250000 0.250000 0.000000
#
# Coordination Sequence:
#
# PCOD9202707 Si02
#       7
#     8   8   8   8   8   8   8
#     4  11  23  39  61  91 128 164 209 260 313 382
#     4  10  21  38  62  90 121 156 206 264 311 375
#     4  10  20  38  63  87 120 160 210 259 304 374
#     4  11  24  40  62  94 131 169 211 265 326 381
#     4  10  23  41  62  90 122 162 209 259 315 375
#     4  11  21  37  64  90 121 162 213 253 310 381
#     4  12  21  35  61  92 122 162 206 257 314 368
#
# _framework density 19.869990999999999
#
# number of rings (size 3 to 8) (size 9 to 14) (size 15 to 20)
#    0.000    1.286    4.286    2.143    2.000    4.000 
#    0.000    1.429    0.000    0.000    0.000    0.000 
#    0.000    0.000    0.000    0.000    0.000    0.000 
#
# Total GULP energy -155940.371742 kJ/mol
# GULP energy per Si atom -5569.298991 kJ/mol
# Density = 1.982477 g / cm^3
# Si number density = 19.869991 Si / 1000 Ang^3
#
#
#
# Elastic Constant Matrix: (Units=GPa)
#
#
# Indices 1 2 3 4 5 6 
#
# 1 104.6122 35.5135 37.5544 0.0000 -29.7646 0.0000
# 2 35.5135 51.3523 33.7212 0.0000 -24.5193 0.0000
# 3 37.5544 33.7212 112.6084 0.0000 -20.7367 0.0000
# 4 0.0000 0.0000 0.0000 39.9058 0.0000 -16.4225
# 5 -29.7646 -24.5193 -20.7367 0.0000 38.9020 0.0000
# 6 0.0000 0.0000 0.0000 -16.4225 0.0000 29.8397
#
#
#
# Elastic Compliance Matrix: (Units=1/GPa)
#
#
# Indices 1 2 3 4 5 6 
#
# 1 0.013812 -0.005378 -0.001856 0.000000 0.006189 0.000000
# 2 -0.005378 0.033641 -0.005692 0.000000 0.014054 0.000000
# 3 -0.001856 -0.005692 0.011401 0.000000 0.001069 0.000000
# 4 0.000000 0.000000 0.000000 0.032396 0.000000 0.017830
# 5 0.006189 0.014054 0.001069 0.000000 0.039869 0.000000
# 6 0.000000 0.000000 0.000000 0.017830 0.000000 0.043325
#
#
# Mechanical properties :
#
#
# Convention : Reuss Voigt Hill
#
# Bulk Modulus (GPa) = 30.30240 53.57234 41.93737
# Shear Modulus (GPa) = 23.66329 32.51511 28.08920
#
# Velocity S-wave (km/s) = 3.45469 4.04962 3.76393
# Velocity P-wave (km/s) = 5.58540 6.99184 6.32782
#
# Compressibility (1/GPa) = 0.03300069
#
# Stress axis : x y z
#
# Youngs Moduli (GPa) = 72.40081 29.72553 87.71284
#
# Poissons Ratio (x) = 0.15987 0.16280
# Poissons Ratio (y) = 0.38939 0.49929
# Poissons Ratio (z) = 0.13438 0.16921
#
# Static dielectric constant tensor:
#      x y z
#    x 1.702740 0.000000 -0.051260 
#    y 0.000000 1.749960 0.000000 
#    z -0.051260 0.000000 1.657410 
# 
# From -- ./inp_files/87801.got.cif
#   From: 2010.05.17/outbox.cif.g08.bks.cpg/sg12_44_cif.got.tgz:87801.got - 2010.06.03 13:09:07.
