data_PCOD9202158
_publ_section_title
;
Structure prediction by ZEFSAII (Michael W. Deem and Ramdas Pophale) SiO2 
 PCOD9202158
Probable space group: C 2/M
;
_chemical_formula_sum "Si O2"
_cell_formula_units_Z 50
_cell_length_a 8.405553
_cell_length_b 25.631172
_cell_length_c 12.025059
_cell_angle_alpha 90.000000
_cell_angle_beta 64.334102
_cell_angle_gamma 90.000000
_cell_volume 2335.114572
_symmetry_space_group_name_H-M "C 2/M"
_symmetry_group_IT_number 12
_symmetry_cell_setting 'monoclinic'
loop_
_space_group_symop_operation_xyz
x,y,z
-x,y,-z
-x,-y,-z
x,-y,z
1/2+x,1/2+y,z
1/2-x,1/2+y,-z
1/2-x,1/2-y,-z
1/2+x,1/2-y,z
loop_
_atom_site_type_symbol
_atom_site_label
_atom_site_fract_x
_atom_site_fract_y
_atom_site_fract_z
Si Si1 0.620502 0.297021 0.071697
Si Si2 0.280773 0.718765 0.321647
Si Si3 0.000000 0.500000 0.000000
Si Si4 0.830939 0.061311 0.172552
Si Si5 0.308998 0.672521 0.562802
Si Si6 0.211619 0.908963 0.072506
Si Si7 0.036564 0.373377 0.358356
O O1 0.471562 0.282174 0.207324
O O2 0.500000 0.311070 0.000000
O O3 0.750000 0.250000 0.000000
O O4 0.735923 0.346810 0.077060
O O5 0.283285 0.695794 0.446160
O O6 0.203259 0.776723 0.355334
O O7 0.148637 0.679182 0.299445
O O8 0.149800 0.452740 0.930431
O O9 0.803629 0.081093 0.055537
O O10 0.657080 0.079055 0.287990
O O11 0.848663 0.000000 0.160170
O O12 0.009594 0.082468 0.174066
O O13 0.500000 0.647545 0.500000
O O14 0.152679 0.633567 0.640345
O O15 0.000000 0.376495 0.500000
#
# Coordination Sequence:
#
# PCOD9202158 Si02
#       7
#     8   8   2   8   8   8   8
#     4  12  27  41  61  99 140 175 206 262 333 400
#     4  10  20  38  59  84 121 168 212 248 302 385
#     4  12  24  42  68 104 114 162 234 274 306 376
#     4  11  20  42  68  86 114 171 206 263 319 386
#     4  10  21  36  60  85 119 166 211 265 303 365
#     4  11  22  43  65  91 129 164 215 262 320 383
#     4  10  21  38  61  89 116 160 216 252 311 387
#
# _framework density 21.412227000000001
#
# number of rings (size 3 to 8) (size 9 to 14) (size 15 to 20)
#    0.000    1.280    4.800    2.880    7.840    0.320 
#    2.880    0.000    0.000    0.480    0.000    0.000 
#    0.000    0.000    0.000    0.000    0.000    0.000 
#
# Total GULP energy -139347.520240 kJ/mol
# GULP energy per Si atom -5573.900810 kJ/mol
# Density = 2.136349 g / cm^3
# Si number density = 21.412227 Si / 1000 Ang^3
#
#
#
# Elastic Constant Matrix: (Units=GPa)
#
#
# Indices 1 2 3 4 5 6 
#
# 1 51.5466 8.8640 6.1486 0.0000 -28.7184 0.0000
# 2 8.8640 104.1005 27.1099 0.0000 -22.5108 0.0000
# 3 6.1486 27.1099 77.2367 0.0000 -25.7845 0.0000
# 4 0.0000 0.0000 0.0000 14.1342 0.0000 -19.8179
# 5 -28.7184 -22.5108 -25.7845 0.0000 37.7947 0.0000
# 6 0.0000 0.0000 0.0000 -19.8179 0.0000 31.0721
#
#
#
# Elastic Compliance Matrix: (Units=1/GPa)
#
#
# Indices 1 2 3 4 5 6 
#
# 1 0.037964 0.002402 0.008083 0.000000 0.035792 0.000000
# 2 0.002402 0.011467 -0.001718 0.000000 0.007483 0.000000
# 3 0.008083 -0.001718 0.018926 0.000000 0.018031 0.000000
# 4 0.000000 0.000000 0.000000 0.669206 0.000000 0.426822
# 5 0.035792 0.007483 0.018031 0.000000 0.070414 0.000000
# 6 0.000000 0.000000 0.000000 0.426822 0.000000 0.304412
#
#
# Mechanical properties :
#
#
# Convention : Reuss Voigt Hill
#
# Bulk Modulus (GPa) = 11.64254 35.23654 23.43954
# Shear Modulus (GPa) = 4.45044 29.31763 16.88404
#
# Velocity S-wave (km/s) = 1.44325 3.70429 2.81111
# Velocity P-wave (km/s) = 2.86818 5.89810 4.63757
#
# Compressibility (1/GPa) = 0.08589192
#
# Stress axis : x y z
#
# Youngs Moduli (GPa) = 26.34095 87.20591 52.83719
#
# Poissons Ratio (x) = -0.20948 -0.42711
# Poissons Ratio (y) = -0.06327 0.09078
# Poissons Ratio (z) = -0.21293 0.14982
#
# Static dielectric constant tensor:
#      x y z
#    x 1.887860 0.000000 0.002320 
#    y 0.000000 1.691680 0.000000 
#    z 0.002320 0.000000 1.801990 
# 
# From -- ./inp_files/199641.got.cif
#   From: 2010.05.17/outbox.cif.g08.bks.cpg/sg12_100_cif.got.tgz:199641.got - 2010.06.03 13:09:07.
