data_PCOD9202817
_publ_section_title
;
Structure prediction by ZEFSAII (Michael W. Deem and Ramdas Pophale) SiO2 
 PCOD9202817
Probable space group: C 2/M
;
_chemical_formula_sum "Si O2"
_cell_formula_units_Z 56
_cell_length_a 14.431029
_cell_length_b 32.062373
_cell_length_c 12.181725
_cell_angle_alpha 90.000000
_cell_angle_beta 31.624837
_cell_angle_gamma 90.000000
_cell_volume 2955.474551
_symmetry_space_group_name_H-M "C 2/M"
_symmetry_group_IT_number 12
_symmetry_cell_setting 'monoclinic'
loop_
_space_group_symop_operation_xyz
x,y,z
-x,y,-z
-x,-y,-z
x,-y,z
1/2+x,1/2+y,z
1/2-x,1/2+y,-z
1/2-x,1/2-y,-z
1/2+x,1/2-y,z
loop_
_atom_site_type_symbol
_atom_site_label
_atom_site_fract_x
_atom_site_fract_y
_atom_site_fract_z
Si Si1 0.623969 0.711654 0.158642
Si Si2 0.162667 0.256682 0.421029
Si Si3 0.063888 0.047891 0.308823
Si Si4 0.296961 0.173213 0.201391
Si Si5 0.023893 0.452049 0.107088
Si Si6 0.780910 0.889147 0.526738
Si Si7 0.087702 0.164569 0.800175
O O1 0.441831 0.735718 0.372743
O O2 0.702129 0.682506 0.179244
O O3 0.575542 0.682624 0.106183
O O4 0.750000 0.750000 0.000000
O O5 0.291449 0.219696 0.254845
O O6 0.277366 0.297737 0.311637
O O7 0.000000 0.262181 0.500000
O O8 0.000000 0.050918 0.500000
O O9 0.944243 0.079635 0.365584
O O10 0.033940 0.000000 0.306393
O O11 0.269721 0.057347 0.085816
O O12 0.205379 0.141915 0.380993
O O13 0.500000 0.158936 0.000000
O O14 0.986238 0.500000 0.181878
O O15 0.894182 0.417443 0.286534
O O16 0.000000 0.451999 0.000000
O O17 0.801168 0.864686 0.393237
O O18 0.000000 0.147448 0.000000
#
# Coordination Sequence:
#
# PCOD9202817 Si02
#       7
#     8   8   8   8   8   8   8
#     4  11  23  39  64  82 116 168 217 262 317 375
#     4  10  21  43  60  81 114 167 218 262 316 370
#     4  10  21  38  63  93 130 165 193 239 315 398
#     4  11  24  38  61  92 122 159 207 269 321 369
#     4  10  20  38  63  94 130 165 192 235 318 400
#     4  12  25  38  63  96 134 154 210 262 319 371
#     4  12  26  43  59  86 124 171 219 268 316 370
#
# _framework density 18.947887000000001
#
# number of rings (size 3 to 8) (size 9 to 14) (size 15 to 20)
#    0.000    1.143    2.857    4.286    4.000    0.000 
#    2.571    0.000    0.000    1.714    0.000    2.000 
#    0.000    0.000    0.000    0.000    0.000    0.000 
#
# Total GULP energy -156267.662803 kJ/mol
# GULP energy per Si atom -5580.987957 kJ/mol
# Density = 1.890476 g / cm^3
# Si number density = 18.947887 Si / 1000 Ang^3
#
#
#
# Elastic Constant Matrix: (Units=GPa)
#
#
# Indices 1 2 3 4 5 6 
#
# 1 46.4970 42.2270 47.4740 0.0000 5.3274 0.0000
# 2 42.2270 105.0293 59.2537 0.0000 -7.7042 0.0000
# 3 47.4740 59.2537 98.1344 0.0000 0.9997 0.0000
# 4 0.0000 0.0000 0.0000 32.9252 0.0000 13.4848
# 5 5.3274 -7.7042 0.9997 0.0000 29.3859 0.0000
# 6 0.0000 0.0000 0.0000 13.4848 0.0000 -33.8455
#
#
#
# Elastic Compliance Matrix: (Units=1/GPa)
#
#
# Indices 1 2 3 4 5 6 
#
# 1 0.051548 -0.011505 -0.017871 0.000000 -0.011754 0.000000
# 2 -0.011505 0.017515 -0.005080 0.000000 0.006851 0.000000
# 3 -0.017871 -0.005080 0.021891 0.000000 0.001163 0.000000
# 4 0.000000 0.000000 0.000000 0.026111 0.000000 0.010403
# 5 -0.011754 0.006851 0.001163 0.000000 0.037917 0.000000
# 6 0.000000 0.000000 0.000000 0.010403 0.000000 -0.025401
#
#
# Mechanical properties :
#
#
# Convention : Reuss Voigt Hill
#
# Bulk Modulus (GPa) = 45.36596 60.84113 53.10355
# Shear Modulus (GPa) = 24.29077 12.40686 18.34882
#
# Velocity S-wave (km/s) = 3.58436 2.56166 3.11526
# Velocity P-wave (km/s) = 6.41285 6.39757 6.40521
#
# Compressibility (1/GPa) = 0.02204296
#
# Stress axis : x y z
#
# Youngs Moduli (GPa) = 19.39930 57.09386 45.68180
#
# Poissons Ratio (x) = 0.65687 0.81637
# Poissons Ratio (y) = 0.22319 0.23205
# Poissons Ratio (z) = 0.34668 0.29001
#
# Static dielectric constant tensor:
#      x y z
#    x 1.765100 0.000000 0.001930 
#    y 0.000000 1.660160 0.000000 
#    z 0.001930 0.000000 1.762160 
# 
# From -- ./inp_files/150400.got.cif
#   From: 2010.05.17/outbox.cif.g08.bks.cpg/sg12_76_cif.got.tgz:150400.got - 2010.06.03 13:09:07.
