data_PCOD9202882
_publ_section_title
;
Structure prediction by ZEFSAII (Michael W. Deem and Ramdas Pophale) SiO2 
 PCOD9202882
Probable space group: C 2/M
;
_chemical_formula_sum "Si O2"
_cell_formula_units_Z 64
_cell_length_a 12.841142
_cell_length_b 13.878253
_cell_length_c 16.502310
_cell_angle_alpha 90.000000
_cell_angle_beta 61.896627
_cell_angle_gamma 90.000000
_cell_volume 2594.182867
_symmetry_space_group_name_H-M "C 2/M"
_symmetry_group_IT_number 12
_symmetry_cell_setting 'monoclinic'
loop_
_space_group_symop_operation_xyz
x,y,z
-x,y,-z
-x,-y,-z
x,-y,z
1/2+x,1/2+y,z
1/2-x,1/2+y,-z
1/2-x,1/2-y,-z
1/2+x,1/2-y,z
loop_
_atom_site_type_symbol
_atom_site_label
_atom_site_fract_x
_atom_site_fract_y
_atom_site_fract_z
Si Si1 0.248562 0.810999 0.296527
Si Si2 0.609727 0.189419 0.908189
Si Si3 0.764516 0.113728 0.367810
Si Si4 0.437398 0.108423 0.754572
Si Si5 0.840690 0.896492 0.105497
Si Si6 0.811362 0.103111 0.925806
Si Si7 0.472213 0.670398 0.733050
Si Si8 0.351788 0.890321 0.425923
O O1 0.340040 0.851462 0.194777
O O2 0.247625 0.694717 0.305477
O O3 0.121032 0.836157 0.306508
O O4 0.287712 0.846835 0.370509
O O5 0.591005 0.301416 0.893738
O O6 0.720204 0.183124 0.928909
O O7 0.500000 0.150851 0.000000
O O8 0.684802 0.146786 0.473083
O O9 0.901625 0.131029 0.339675
O O10 0.744471 0.000000 0.354695
O O11 0.297765 0.106289 0.820503
O O12 0.472507 0.218444 0.766116
O O13 0.507585 0.110127 0.642705
O O14 0.475133 0.000000 0.772989
O O15 0.888121 0.000000 0.116287
O O16 0.842835 0.893630 0.007412
O O17 0.920868 0.110197 0.825903
O O18 0.749462 0.000000 0.934210
O O19 0.311166 0.000000 0.443557
#
# Coordination Sequence:
#
# PCOD9202882 Si02
#       8
#     8   8   8   8   8   8   8   8
#     4  11  24  41  65  98 128 177 214 278 328 397
#     4  11  25  38  59  93 131 166 211 268 323 390
#     4  11  25  45  69  98 134 175 222 277 339 399
#     4  10  20  38  64  90 122 164 209 263 325 385
#     4  10  21  39  62  87 121 169 216 263 325 394
#     4  10  22  39  60  88 122 169 218 264 321 390
#     4  11  23  41  66  96 133 173 217 273 328 396
#     4  10  23  43  67  94 127 166 220 277 329 396
#
# _framework density 24.670583000000001
#
# number of rings (size 3 to 8) (size 9 to 14) (size 15 to 20)
#    0.000    1.500    3.750    1.125    3.500    4.500 
#    0.000    1.250    0.000    2.250    0.000    0.000 
#    0.000    0.000    0.000    0.000    0.000    0.000 
#
# Total GULP energy -178581.404364 kJ/mol
# GULP energy per Si atom -5580.668886 kJ/mol
# Density = 2.461443 g / cm^3
# Si number density = 24.670583 Si / 1000 Ang^3
#
#
#
# Elastic Constant Matrix: (Units=GPa)
#
#
# Indices 1 2 3 4 5 6 
#
# 1 45.7522 -15.3386 35.2324 0.0000 -7.4713 0.0000
# 2 -15.3386 87.7396 7.0342 0.0000 5.9894 0.0000
# 3 35.2324 7.0342 148.2483 0.0000 -12.3427 0.0000
# 4 0.0000 0.0000 0.0000 26.3756 0.0000 -5.9878
# 5 -7.4713 5.9894 -12.3427 0.0000 39.4188 0.0000
# 6 0.0000 0.0000 0.0000 -5.9878 0.0000 29.4260
#
#
#
# Elastic Compliance Matrix: (Units=1/GPa)
#
#
# Indices 1 2 3 4 5 6 
#
# 1 0.029596 0.005568 -0.007086 0.000000 0.002545 0.000000
# 2 0.005568 0.012638 -0.002048 0.000000 -0.001506 0.000000
# 3 -0.007086 -0.002048 0.008667 0.000000 0.001682 0.000000
# 4 0.000000 0.000000 0.000000 0.039750 0.000000 0.008089
# 5 0.002545 -0.001506 0.001682 0.000000 0.026606 0.000000
# 6 0.000000 0.000000 0.000000 0.008089 0.000000 0.035630
#
#
# Mechanical properties :
#
#
# Convention : Reuss Voigt Hill
#
# Bulk Modulus (GPa) = 22.84756 37.28843 30.06799
# Shear Modulus (GPa) = 28.63550 36.03154 32.33352
#
# Velocity S-wave (km/s) = 3.41062 3.82580 3.62416
# Velocity P-wave (km/s) = 4.97905 5.88753 5.45225
#
# Compressibility (1/GPa) = 0.04376836
#
# Stress axis : x y z
#
# Youngs Moduli (GPa) = 33.78831 79.12729 115.38385
#
# Poissons Ratio (x) = -0.44061 0.81762
# Poissons Ratio (y) = -0.18815 0.23635
# Poissons Ratio (z) = 0.23943 0.16209
#
# Static dielectric constant tensor:
#      x y z
#    x 1.973420 0.000000 0.002090 
#    y 0.000000 2.035600 0.000000 
#    z 0.002090 0.000000 2.014440 
# 
# From -- ./inp_files/270645.got.cif
#   From: 2010.05.17/outbox.cif.g08.bks.cpg/sg12_136_cif.got.tgz:270645.got - 2010.06.03 13:09:07.
