data_PCOD9202255
_publ_section_title
;
Structure prediction by ZEFSAII (Michael W. Deem and Ramdas Pophale) SiO2 
 PCOD9202255
Probable space group: C 2/M
;
_chemical_formula_sum "Si O2"
_cell_formula_units_Z 56
_cell_length_a 12.187538
_cell_length_b 29.086123
_cell_length_c 13.586440
_cell_angle_alpha 90.000000
_cell_angle_beta 34.346543
_cell_angle_gamma 90.000000
_cell_volume 2717.303888
_symmetry_space_group_name_H-M "C 2/M"
_symmetry_group_IT_number 12
_symmetry_cell_setting 'monoclinic'
loop_
_space_group_symop_operation_xyz
x,y,z
-x,y,-z
-x,-y,-z
x,-y,z
1/2+x,1/2+y,z
1/2-x,1/2+y,-z
1/2-x,1/2-y,-z
1/2+x,1/2-y,z
loop_
_atom_site_type_symbol
_atom_site_label
_atom_site_fract_x
_atom_site_fract_y
_atom_site_fract_z
Si Si1 0.674179 0.000000 0.217525
Si Si2 0.090278 0.105101 0.706255
Si Si3 0.124246 0.263625 0.190069
Si Si4 0.497795 0.904325 0.699882
Si Si5 0.561329 0.500000 0.801715
Si Si6 0.294381 0.164141 0.713108
Si Si7 0.943595 0.665177 0.191135
Si Si8 0.670026 0.330586 0.224480
O O1 0.553490 0.956346 0.275988
O O2 0.738917 0.000000 0.283267
O O3 0.874443 0.000000 0.009889
O O4 0.299131 0.105575 0.501227
O O5 0.124609 0.142422 0.770097
O O6 0.937033 0.126266 0.743774
O O7 0.052131 0.051224 0.759618
O O8 0.235955 0.290763 0.195910
O O9 0.963490 0.298675 0.266181
O O10 0.051968 0.215860 0.288975
O O11 0.250000 0.250000 0.000000
O O12 0.335314 0.875916 0.761675
O O13 0.514976 0.885019 0.796006
O O14 0.500000 0.170946 0.500000
O O15 0.741489 0.666593 0.283490
O O16 0.126091 0.674863 0.985294
#
# Coordination Sequence:
#
# PCOD9202255 Si02
#       8
#     4   8   8   8   4   8   8   8
#     4  11  21  37  62  91 120 161 191 251 309 360
#     4  11  22  37  60  93 122 159 201 254 305 367
#     4   9  19  37  58  85 115 163 208 253 302 370
#     4  10  20  38  60  84 123 160 195 243 310 364
#     4  11  23  37  60  97 126 147 205 245 301 376
#     4   9  19  36  56  86 124 158 196 248 311 364
#     4   9  20  40  56  81 122 159 203 250 308 361
#     4  10  21  37  60  84 119 161 206 258 300 355
#
# _framework density 20.608663
#
# number of rings (size 3 to 8) (size 9 to 14) (size 15 to 20)
#    0.000    2.143    1.429    1.286    2.000    1.143 
#    5.143    2.857    0.000    4.286    0.000    0.000 
#    0.000    0.000    0.000    0.000    0.000    0.000 
#
# Total GULP energy -156066.365408 kJ/mol
# GULP energy per Si atom -5573.798765 kJ/mol
# Density = 2.056176 g / cm^3
# Si number density = 20.608663 Si / 1000 Ang^3
#
#
#
# Elastic Constant Matrix: (Units=GPa)
#
#
# Indices 1 2 3 4 5 6 
#
# 1 137.1457 69.2643 6.0508 0.0000 -11.4208 0.0000
# 2 69.2643 148.8239 0.3024 0.0000 -0.1927 0.0000
# 3 6.0508 0.3024 25.2590 0.0000 -7.3497 0.0000
# 4 0.0000 0.0000 0.0000 4.8599 0.0000 17.3263
# 5 -11.4208 -0.1927 -7.3497 0.0000 20.3714 0.0000
# 6 0.0000 0.0000 0.0000 17.3263 0.0000 11.9849
#
#
#
# Elastic Compliance Matrix: (Units=1/GPa)
#
#
# Indices 1 2 3 4 5 6 
#
# 1 0.010156 -0.004718 -0.000819 0.000000 0.005354 0.000000
# 2 -0.004718 0.008912 0.000311 0.000000 -0.002449 0.000000
# 3 -0.000819 0.000311 0.044300 0.000000 0.015527 0.000000
# 4 0.000000 0.000000 0.000000 -0.049533 0.000000 0.071609
# 5 0.005354 -0.002449 0.015527 0.000000 0.057669 0.000000
# 6 0.000000 0.000000 0.000000 0.071609 0.000000 -0.020086
#
#
# Mechanical properties :
#
#
# Convention : Reuss Voigt Hill
#
# Bulk Modulus (GPa) = 18.89768 51.38483 35.14125
# Shear Modulus (GPa) = 62.88587 23.15063 43.01825
#
# Velocity S-wave (km/s) = 5.52997 3.35527 4.57375
# Velocity P-wave (km/s) = 7.06850 6.32441 6.70678
#
# Compressibility (1/GPa) = 0.05291654
#
# Stress axis : x y z
#
# Youngs Moduli (GPa) = 98.45973 112.21448 22.57323
#
# Poissons Ratio (x) = 0.52946 0.01848
# Poissons Ratio (y) = 0.46456 -0.00702
# Poissons Ratio (z) = 0.08060 -0.03491
#
# Static dielectric constant tensor:
#      x y z
#    x 1.793740 0.000000 0.064740 
#    y 0.000000 1.715900 0.000000 
#    z 0.064740 0.000000 1.830260 
# 
# From -- ./inp_files/209149.got.cif
#   From: 2010.05.17/outbox.cif.g08.bks.cpg/sg12_105_cif.got.tgz:209149.got - 2010.06.03 13:09:07.
