data_PCOD9202374
_publ_section_title
;
Structure prediction by ZEFSAII (Michael W. Deem and Ramdas Pophale) SiO2 
 PCOD9202374
Probable space group: C 2/M
;
_chemical_formula_sum "Si O2"
_cell_formula_units_Z 32
_cell_length_a 10.685991
_cell_length_b 11.154443
_cell_length_c 13.165276
_cell_angle_alpha 90.000000
_cell_angle_beta 53.633118
_cell_angle_gamma 90.000000
_cell_volume 1263.619167
_symmetry_space_group_name_H-M "C 2/M"
_symmetry_group_IT_number 12
_symmetry_cell_setting 'monoclinic'
loop_
_space_group_symop_operation_xyz
x,y,z
-x,y,-z
-x,-y,-z
x,-y,z
1/2+x,1/2+y,z
1/2-x,1/2+y,-z
1/2-x,1/2-y,-z
1/2+x,1/2-y,z
loop_
_atom_site_type_symbol
_atom_site_label
_atom_site_fract_x
_atom_site_fract_y
_atom_site_fract_z
Si Si1 0.814206 0.500000 0.609860
Si Si2 0.683920 0.500000 0.446908
Si Si3 0.064541 0.627065 0.082271
Si Si4 0.157745 0.765645 0.357228
Si Si5 0.590654 0.635288 0.164455
O O1 0.723889 0.500000 0.545975
O O2 0.783228 0.628515 0.678238
O O3 0.000000 0.500000 0.500000
O O4 0.500000 0.500000 0.500000
O O5 0.744992 0.373026 0.374960
O O6 0.025721 0.500000 0.152331
O O7 0.006639 0.749520 0.158518
O O8 0.250074 0.628724 0.977176
O O9 0.000000 0.623717 0.000000
O O10 0.126805 0.823968 0.262052
O O11 0.000000 0.753078 0.500000
O O12 0.526671 0.500000 0.192611
#
# Coordination Sequence:
#
# PCOD9202374 Si02
#       5
#     4   4   8   8   8
#     4  10  22  40  58  87 124 165 206 246 293 364
#     4  10  20  40  62  81 124 163 198 250 299 356
#     4   9  20  40  60  85 113 152 202 248 296 350
#     4  10  21  39  58  88 122 158 200 247 302 366
#     4  10  20  38  61  84 118 154 194 245 300 357
#
# _framework density 25.324086000000001
#
# number of rings (size 3 to 8) (size 9 to 14) (size 15 to 20)
#    0.000    2.250    1.250    0.750    1.750    0.500 
#   18.000    0.000    0.000    0.000    0.000    0.000 
#    0.000    0.000    0.000    0.000    0.000    0.000 
#
# Total GULP energy -89364.539200 kJ/mol
# GULP energy per Si atom -5585.283700 kJ/mol
# Density = 2.526645 g / cm^3
# Si number density = 25.324086 Si / 1000 Ang^3
#
#
#
# Elastic Constant Matrix: (Units=GPa)
#
#
# Indices 1 2 3 4 5 6 
#
# 1 54.1358 47.4436 10.5257 0.0000 -14.6350 0.0000
# 2 47.4436 362.8456 74.6592 0.0000 -2.8367 0.0000
# 3 10.5257 74.6592 58.7563 0.0000 -11.5743 0.0000
# 4 0.0000 0.0000 0.0000 61.0619 0.0000 -3.7617
# 5 -14.6350 -2.8367 -11.5743 0.0000 44.3479 0.0000
# 6 0.0000 0.0000 0.0000 -3.7617 0.0000 55.5405
#
#
#
# Elastic Compliance Matrix: (Units=1/GPa)
#
#
# Indices 1 2 3 4 5 6 
#
# 1 0.023173 -0.003294 0.001580 0.000000 0.007849 0.000000
# 2 -0.003294 0.004247 -0.005236 0.000000 -0.002182 0.000000
# 3 0.001580 -0.005236 0.024696 0.000000 0.006632 0.000000
# 4 0.000000 0.000000 0.000000 0.016445 0.000000 0.001114
# 5 0.007849 -0.002182 0.006632 0.000000 0.026731 0.000000
# 6 0.000000 0.000000 0.000000 0.001114 0.000000 0.018080
#
#
# Mechanical properties :
#
#
# Convention : Reuss Voigt Hill
#
# Bulk Modulus (GPa) = 26.16653 82.33276 54.24964
# Shear Modulus (GPa) = 35.71128 55.06400 45.38764
#
# Velocity S-wave (km/s) = 3.75930 4.66808 4.23812
# Velocity P-wave (km/s) = 5.40353 7.85091 6.73925
#
# Compressibility (1/GPa) = 0.03821677
#
# Stress axis : x y z
#
# Youngs Moduli (GPa) = 43.15308 235.45891 40.49186
#
# Poissons Ratio (x) = 0.77555 -0.06398
# Poissons Ratio (y) = 0.14214 0.21203
# Poissons Ratio (z) = -0.06819 1.23293
#
# Static dielectric constant tensor:
#      x y z
#    x 2.094340 0.000000 -0.132320 
#    y 0.000000 2.053780 0.000000 
#    z -0.132320 0.000000 2.007080 
# 
# From -- ./inp_files/127334.got.cif
#   From: 2010.05.17/outbox.cif.g08.bks.cpg/sg12_64_cif.got.tgz:127334.got - 2010.06.03 13:09:07.
