data_PCOD9202974
_publ_section_title
;
Structure prediction by ZEFSAII (Michael W. Deem and Ramdas Pophale) SiO2 
 PCOD9202974
Probable space group: C 2/M
;
_chemical_formula_sum "Si O2"
_cell_formula_units_Z 36
_cell_length_a 9.709335
_cell_length_b 26.614127
_cell_length_c 11.816501
_cell_angle_alpha 90.000000
_cell_angle_beta 144.081949
_cell_angle_gamma 90.000000
_cell_volume 1791.236984
_symmetry_space_group_name_H-M "C 2/M"
_symmetry_group_IT_number 12
_symmetry_cell_setting 'monoclinic'
loop_
_space_group_symop_operation_xyz
x,y,z
-x,y,-z
-x,-y,-z
x,-y,z
1/2+x,1/2+y,z
1/2-x,1/2+y,-z
1/2-x,1/2-y,-z
1/2+x,1/2-y,z
loop_
_atom_site_type_symbol
_atom_site_label
_atom_site_fract_x
_atom_site_fract_y
_atom_site_fract_z
Si Si1 0.667398 0.558109 0.005139
Si Si2 0.883785 0.554403 0.547208
Si Si3 0.508793 0.362279 0.278932
Si Si4 0.500000 0.299790 0.500000
Si Si5 0.978773 0.763552 0.851516
O O1 0.604432 0.500000 0.934672
O O2 0.921554 0.557283 0.228048
O O3 0.500000 0.573103 0.000000
O O4 0.656186 0.597273 0.895004
O O5 0.763776 0.500000 0.480545
O O6 0.727594 0.602838 0.451937
O O7 0.000000 0.554584 0.500000
O O8 0.449676 0.333543 0.355428
O O9 0.562090 0.319139 0.223701
O O10 0.252529 0.268083 0.345410
O O11 0.000000 0.761518 0.000000
O O12 0.250000 0.750000 0.000000
#
# Coordination Sequence:
#
# PCOD9202974 Si02
#       5
#     8   8   8   4   8
#     4  10  20  38  65 102 137 172 226 289 347 416
#     4  10  21  37  64 102 138 172 226 290 349 421
#     4  12  25  41  70  96 136 186 232 281 367 412
#     4  12  30  48  67 102 143 188 242 304 336 440
#     4  12  28  49  73 103 141 186 239 302 356 419
#
# _framework density 20.097842
#
# number of rings (size 3 to 8) (size 9 to 14) (size 15 to 20)
#    0.000    0.889    4.444    2.000    4.667    0.000 
#    0.000    2.222    0.000    2.667    0.000    0.000 
#    0.000    0.000    0.000    0.000    0.000    0.000 
#
# Total GULP energy -100295.005046 kJ/mol
# GULP energy per Si atom -5571.944725 kJ/mol
# Density = 2.005210 g / cm^3
# Si number density = 20.097842 Si / 1000 Ang^3
#
#
#
# Elastic Constant Matrix: (Units=GPa)
#
#
# Indices 1 2 3 4 5 6 
#
# 1 80.1360 48.3209 39.9485 0.0000 -10.9857 0.0000
# 2 48.3209 146.9747 65.8420 0.0000 1.6205 0.0000
# 3 39.9485 65.8420 164.1608 0.0000 -9.9899 0.0000
# 4 0.0000 0.0000 0.0000 91.8835 0.0000 -11.9361
# 5 -10.9857 1.6205 -9.9899 0.0000 40.8704 0.0000
# 6 0.0000 0.0000 0.0000 -11.9361 0.0000 23.4014
#
#
#
# Elastic Compliance Matrix: (Units=1/GPa)
#
#
# Indices 1 2 3 4 5 6 
#
# 1 0.016883 -0.004721 -0.001957 0.000000 0.004247 0.000000
# 2 -0.004721 0.009669 -0.002872 0.000000 -0.002354 0.000000
# 3 -0.001957 -0.002872 0.007811 0.000000 0.001497 0.000000
# 4 0.000000 0.000000 0.000000 0.011656 0.000000 0.005945
# 5 0.004247 -0.002354 0.001497 0.000000 0.026068 0.000000
# 6 0.000000 0.000000 0.000000 0.005945 0.000000 0.045765
#
#
# Mechanical properties :
#
#
# Convention : Reuss Voigt Hill
#
# Bulk Modulus (GPa) = 65.51848 77.72159 71.62003
# Shear Modulus (GPa) = 35.20159 47.04173 41.12166
#
# Velocity S-wave (km/s) = 4.18965 4.84326 4.52826
# Velocity P-wave (km/s) = 7.48830 8.36850 7.94061
#
# Compressibility (1/GPa) = 0.01526287
#
# Stress axis : x y z
#
# Youngs Moduli (GPa) = 59.23099 103.42603 128.02647
#
# Poissons Ratio (x) = 0.48827 0.25049
# Poissons Ratio (y) = 0.27963 0.36774
# Poissons Ratio (z) = 0.11589 0.29708
#
# Static dielectric constant tensor:
#      x y z
#    x 1.742540 0.000000 0.041720 
#    y 0.000000 1.667540 0.000000 
#    z 0.041720 0.000000 1.727380 
# 
# From -- ./inp_files/124016.got.cif
#   From: 2010.05.17/outbox.cif.g08.bks.cpg/sg12_63_cif.got.tgz:124016.got - 2010.06.03 13:09:07.
