data_PCOD9202402
_publ_section_title
;
Structure prediction by ZEFSAII (Michael W. Deem and Ramdas Pophale) SiO2 
 PCOD9202402
Probable space group: C 2/M
;
_chemical_formula_sum "Si O2"
_cell_formula_units_Z 56
_cell_length_a 26.173417
_cell_length_b 7.644445
_cell_length_c 14.761433
_cell_angle_alpha 90.000000
_cell_angle_beta 122.098195
_cell_angle_gamma 90.000000
_cell_volume 2502.012108
_symmetry_space_group_name_H-M "C 2/M"
_symmetry_group_IT_number 12
_symmetry_cell_setting 'monoclinic'
loop_
_space_group_symop_operation_xyz
x,y,z
-x,y,-z
-x,-y,-z
x,-y,z
1/2+x,1/2+y,z
1/2-x,1/2+y,-z
1/2-x,1/2-y,-z
1/2+x,1/2-y,z
loop_
_atom_site_type_symbol
_atom_site_label
_atom_site_fract_x
_atom_site_fract_y
_atom_site_fract_z
Si Si1 0.456262 0.285488 0.376873
Si Si2 0.176455 0.793710 0.698908
Si Si3 0.277866 0.790045 0.929092
Si Si4 0.616231 0.712469 0.216728
Si Si5 0.513699 0.298338 0.245296
Si Si6 0.751625 0.207582 0.607275
Si Si7 0.911351 0.293373 0.012414
O O1 0.500000 0.236438 0.500000
O O2 0.454132 0.500000 0.372370
O O3 0.388470 0.222691 0.333455
O O4 0.483551 0.222754 0.307204
O O5 0.231689 0.719734 0.810178
O O6 0.195227 0.774654 0.612189
O O7 0.174144 0.000000 0.716754
O O8 0.345924 0.723853 0.982500
O O9 0.282100 0.000000 0.922023
O O10 0.250000 0.750000 0.000000
O O11 0.616476 0.500000 0.218808
O O12 0.574772 0.777669 0.260374
O O13 0.685038 0.775194 0.291545
O O14 0.587690 0.767056 0.094410
O O15 0.527749 0.500000 0.281002
O O16 0.464626 0.293273 0.118837
O O17 0.750000 0.250000 0.500000
O O18 0.751682 0.000000 0.617200
O O19 0.915494 0.500000 0.035399
#
# Coordination Sequence:
#
# PCOD9202402 Si02
#       7
#     8   8   8   8   8   8   8
#     4   9  19  35  61  89 113 149 198 246 288 337
#     4  10  20  38  61  86 118 153 192 241 294 347
#     4  10  21  35  55  84 116 155 196 238 289 346
#     4  10  22  39  61  88 117 154 199 242 285 343
#     4  10  21  38  60  87 117 154 200 244 287 342
#     4  11  24  40  62  91 119 154 196 243 295 347
#     4  11  22  37  57  86 121 155 191 237 298 355
#
# _framework density 22.381985
#
# number of rings (size 3 to 8) (size 9 to 14) (size 15 to 20)
#    0.000    1.857    1.429    2.143    2.000    5.714 
#    0.000    0.714    0.000    0.857    0.000    0.000 
#    0.000    0.000    0.000    0.000    0.000    0.000 
#
# Total GULP energy -156517.045588 kJ/mol
# GULP energy per Si atom -5589.894485 kJ/mol
# Density = 2.233104 g / cm^3
# Si number density = 22.381985 Si / 1000 Ang^3
#
#
#
# Elastic Constant Matrix: (Units=GPa)
#
#
# Indices 1 2 3 4 5 6 
#
# 1 167.0487 -4.7315 20.5500 0.0000 -16.2999 0.0000
# 2 -4.7315 45.5239 -12.9432 0.0000 9.0685 0.0000
# 3 20.5500 -12.9432 61.3756 0.0000 -18.6993 0.0000
# 4 0.0000 0.0000 0.0000 11.3956 0.0000 -6.7170
# 5 -16.2999 9.0685 -18.6993 0.0000 37.0497 0.0000
# 6 0.0000 0.0000 0.0000 -6.7170 0.0000 16.6747
#
#
#
# Elastic Compliance Matrix: (Units=1/GPa)
#
#
# Indices 1 2 3 4 5 6 
#
# 1 0.006373 -0.000189 -0.001542 0.000000 0.002071 0.000000
# 2 -0.000189 0.023840 0.003885 0.000000 -0.003957 0.000000
# 3 -0.001542 0.003885 0.020246 0.000000 0.008589 0.000000
# 4 0.000000 0.000000 0.000000 0.115078 0.000000 0.046357
# 5 0.002071 -0.003957 0.008589 0.000000 0.033205 0.000000
# 6 0.000000 0.000000 0.000000 0.046357 0.000000 0.078645
#
#
# Mechanical properties :
#
#
# Convention : Reuss Voigt Hill
#
# Bulk Modulus (GPa) = 18.25971 31.07764 24.66867
# Shear Modulus (GPa) = 17.16243 31.09553 24.12898
#
# Velocity S-wave (km/s) = 2.77211 3.73139 3.28693
# Velocity P-wave (km/s) = 4.29209 5.69909 5.04488
#
# Compressibility (1/GPa) = 0.05476540
#
# Stress axis : x y z
#
# Youngs Moduli (GPa) = 156.91683 41.94676 49.39356
#
# Poissons Ratio (x) = 0.00792 0.07619
# Poissons Ratio (y) = 0.02963 -0.19189
# Poissons Ratio (z) = 0.24204 -0.16296
#
# Static dielectric constant tensor:
#      x y z
#    x 1.826970 0.000000 0.017730 
#    y 0.000000 1.855690 0.000000 
#    z 0.017730 0.000000 1.773250 
# 
# From -- ./inp_files/239028.got.cif
#   From: 2010.05.17/outbox.cif.g08.bks.cpg/sg12_120_cif.got.tgz:239028.got - 2010.06.03 13:09:07.
