data_PCOD9202831
_publ_section_title
;
Structure prediction by ZEFSAII (Michael W. Deem and Ramdas Pophale) SiO2 
 PCOD9202831
Probable space group: C 2/M
;
_chemical_formula_sum "Si O2"
_cell_formula_units_Z 38
_cell_length_a 13.313646
_cell_length_b 10.369026
_cell_length_c 11.792082
_cell_angle_alpha 90.000000
_cell_angle_beta 123.675433
_cell_angle_gamma 90.000000
_cell_volume 1354.718212
_symmetry_space_group_name_H-M "C 2/M"
_symmetry_group_IT_number 12
_symmetry_cell_setting 'monoclinic'
loop_
_space_group_symop_operation_xyz
x,y,z
-x,y,-z
-x,-y,-z
x,-y,z
1/2+x,1/2+y,z
1/2-x,1/2+y,-z
1/2-x,1/2-y,-z
1/2+x,1/2-y,z
loop_
_atom_site_type_symbol
_atom_site_label
_atom_site_fract_x
_atom_site_fract_y
_atom_site_fract_z
Si Si1 0.204923 0.779972 0.116837
Si Si2 0.000000 0.000000 0.500000
Si Si3 0.616479 0.000000 0.849548
Si Si4 0.088813 0.260045 0.464242
Si Si5 0.517898 0.346743 0.183015
Si Si6 0.805642 0.500000 0.856345
Si Si7 0.153183 0.500000 0.389091
O O1 0.301565 0.880788 0.136847
O O2 0.256496 0.636098 0.157237
O O3 0.143068 0.815843 0.196987
O O4 0.090588 0.792471 0.960926
O O5 0.901288 0.116556 0.471457
O O6 0.493098 0.000000 0.705887
O O7 0.599540 0.000000 0.976770
O O8 0.024908 0.217686 0.308146
O O9 0.183389 0.369558 0.479454
O O10 0.000000 0.325798 0.500000
O O11 0.502989 0.500000 0.182729
O O12 0.832370 0.500000 0.739423
#
# Coordination Sequence:
#
# PCOD9202831 Si02
#       7
#     8   2   4   8   8   4   4
#     4  11  23  39  62  93 133 172 214 254 321 391
#     4   8  20  34  64  98 120 144 222 274 302 362
#     4  12  25  42  59  98 137 180 203 254 323 404
#     4  10  20  38  64 101 119 164 218 280 306 376
#     4  11  18  36  67  94 128 169 218 263 316 381
#     4  12  25  39  58  95 133 172 210 267 313 385
#     4  12  24  40  67  95 138 162 213 269 330 371
#
# _framework density 28.050113
#
# number of rings (size 3 to 8) (size 9 to 14) (size 15 to 20)
#    0.632    0.421    5.263    3.158    2.947    0.000 
#    0.000    1.053    0.000    1.263    5.474    0.000 
#    0.000    0.000    0.000    0.000    0.000    0.000 
#
# Total GULP energy -106110.506230 kJ/mol
# GULP energy per Si atom -5584.763486 kJ/mol
# Density = 2.798627 g / cm^3
# Si number density = 28.050113 Si / 1000 Ang^3
#
#
#
# Elastic Constant Matrix: (Units=GPa)
#
#
# Indices 1 2 3 4 5 6 
#
# 1 108.1068 50.5744 52.7815 0.0000 -25.9490 0.0000
# 2 50.5744 302.2445 39.6975 0.0000 -23.6309 0.0000
# 3 52.7815 39.6975 189.0997 0.0000 -28.6071 0.0000
# 4 0.0000 0.0000 0.0000 44.0048 0.0000 -15.3157
# 5 -25.9490 -23.6309 -28.6071 0.0000 53.4416 0.0000
# 6 0.0000 0.0000 0.0000 -15.3157 0.0000 14.5918
#
#
#
# Elastic Compliance Matrix: (Units=1/GPa)
#
#
# Indices 1 2 3 4 5 6 
#
# 1 0.012047 -0.001384 -0.002481 0.000000 0.003910 0.000000
# 2 -0.001384 0.003636 -0.000256 0.000000 0.000799 0.000000
# 3 -0.002481 -0.000256 0.006349 0.000000 0.002081 0.000000
# 4 0.000000 0.000000 0.000000 0.035805 0.000000 0.037581
# 5 0.003910 0.000799 0.002081 0.000000 0.022077 0.000000
# 6 0.000000 0.000000 0.000000 0.037581 0.000000 0.107977
#
#
# Mechanical properties :
#
#
# Convention : Reuss Voigt Hill
#
# Bulk Modulus (GPa) = 72.51317 98.39531 85.45424
# Shear Modulus (GPa) = 24.90898 52.83416 38.87157
#
# Velocity S-wave (km/s) = 2.98319 4.34471 3.72666
# Velocity P-wave (km/s) = 6.14600 7.76680 7.00345
#
# Compressibility (1/GPa) = 0.01379060
#
# Stress axis : x y z
#
# Youngs Moduli (GPa) = 83.00615 275.00414 157.50083
#
# Poissons Ratio (x) = 0.38071 0.39069
# Poissons Ratio (y) = 0.11491 0.04034
# Poissons Ratio (z) = 0.20590 0.07044
#
# Static dielectric constant tensor:
#      x y z
#    x 2.282890 0.000000 0.001770 
#    y 0.000000 2.379700 0.000000 
#    z 0.001770 0.000000 2.156060 
# 
# From -- ./inp_files/140451.got.cif
#   From: 2010.05.17/outbox.cif.g08.bks.cpg/sg12_71_cif.got.tgz:140451.got - 2010.06.03 13:09:07.
