data_PCOD9202691
_publ_section_title
;
Structure prediction by ZEFSAII (Michael W. Deem and Ramdas Pophale) SiO2 
 PCOD9202691
Probable space group: C 2/M
;
_chemical_formula_sum "Si O2"
_cell_formula_units_Z 44
_cell_length_a 11.166370
_cell_length_b 24.368721
_cell_length_c 9.385058
_cell_angle_alpha 90.000000
_cell_angle_beta 115.328038
_cell_angle_gamma 90.000000
_cell_volume 2308.284175
_symmetry_space_group_name_H-M "C 2/M"
_symmetry_group_IT_number 12
_symmetry_cell_setting 'monoclinic'
loop_
_space_group_symop_operation_xyz
x,y,z
-x,y,-z
-x,-y,-z
x,-y,z
1/2+x,1/2+y,z
1/2-x,1/2+y,-z
1/2-x,1/2-y,-z
1/2+x,1/2-y,z
loop_
_atom_site_type_symbol
_atom_site_label
_atom_site_fract_x
_atom_site_fract_y
_atom_site_fract_z
Si Si1 0.030499 0.408065 0.181736
Si Si2 0.157172 0.000000 0.353909
Si Si3 0.760671 0.500000 0.694203
Si Si4 0.931883 0.287068 0.688235
Si Si5 0.758875 0.414606 0.201467
Si Si6 0.208395 0.708886 0.691683
Si Si7 0.130018 0.000000 0.930814
O O1 0.151305 0.446385 0.284394
O O2 0.058777 0.344539 0.225602
O O3 0.904532 0.424000 0.212603
O O4 0.000000 0.416847 0.000000
O O5 0.148197 0.000000 0.517978
O O6 0.235153 0.052972 0.335447
O O7 0.017312 0.000000 0.203745
O O8 0.717799 0.500000 0.834870
O O9 0.858142 0.297373 0.499087
O O10 0.837564 0.246496 0.730633
O O11 0.084062 0.269613 0.725769
O O12 0.746991 0.349799 0.222108
O O13 0.663845 0.445814 0.040363
#
# Coordination Sequence:
#
# PCOD9202691 Si02
#       7
#     8   4   4   8   8   8   4
#     4  11  21  37  61  88 116 151 194 250 296 349
#     4  11  24  38  57  90 117 156 204 237 291 367
#     4  12  22  38  62  85 118 155 196 247 304 347
#     4   9  19  36  59  86 123 151 202 243 294 348
#     4  10  20  38  63  86 119 154 196 240 298 348
#     4   9  18  37  60  88 116 160 194 247 293 353
#     4  11  22  41  57  85 124 160 188 245 298 363
#
# _framework density 19.061775999999998
#
# number of rings (size 3 to 8) (size 9 to 14) (size 15 to 20)
#    0.000    1.818    1.818    3.818    0.000    2.909 
#    3.273    5.455    0.000    0.000    0.000    0.000 
#    0.000    0.000    0.000    0.000    0.000    0.000 
#
# Total GULP energy -122695.893354 kJ/mol
# GULP energy per Si atom -5577.086062 kJ/mol
# Density = 1.901839 g / cm^3
# Si number density = 19.061776 Si / 1000 Ang^3
#
#
#
# Elastic Constant Matrix: (Units=GPa)
#
#
# Indices 1 2 3 4 5 6 
#
# 1 127.4572 77.5699 40.2411 0.0000 2.2417 0.0000
# 2 77.5699 90.6578 36.1785 0.0000 3.1258 0.0000
# 3 40.2411 36.1785 82.9443 0.0000 -1.3743 0.0000
# 4 0.0000 0.0000 0.0000 23.9693 0.0000 -1.2384
# 5 2.2417 3.1258 -1.3743 0.0000 16.0796 0.0000
# 6 0.0000 0.0000 0.0000 -1.2384 0.0000 37.7775
#
#
#
# Elastic Compliance Matrix: (Units=1/GPa)
#
#
# Indices 1 2 3 4 5 6 
#
# 1 0.016715 -0.013402 -0.002262 0.000000 0.000082 0.000000
# 2 -0.013402 0.024257 -0.004131 0.000000 -0.003200 0.000000
# 3 -0.002262 -0.004131 0.014996 0.000000 0.002400 0.000000
# 4 0.000000 0.000000 0.000000 0.041791 0.000000 0.001370
# 5 0.000082 -0.003200 0.002400 0.000000 0.063007 0.000000
# 6 0.000000 0.000000 0.000000 0.001370 0.000000 0.026516
#
#
# Mechanical properties :
#
#
# Convention : Reuss Voigt Hill
#
# Bulk Modulus (GPa) = 61.06437 67.67093 64.36765
# Shear Modulus (GPa) = 21.52113 25.36992 23.44553
#
# Velocity S-wave (km/s) = 3.36373 3.65215 3.51091
# Velocity P-wave (km/s) = 6.86956 7.30494 7.09059
#
# Compressibility (1/GPa) = 0.01637616
#
# Stress axis : x y z
#
# Youngs Moduli (GPa) = 59.82672 41.22604 66.68606
#
# Poissons Ratio (x) = 0.55250 0.15087
# Poissons Ratio (y) = 0.80179 0.27549
# Poissons Ratio (z) = 0.13535 0.17031
#
# Static dielectric constant tensor:
#      x y z
#    x 1.688210 0.000000 -0.003490 
#    y 0.000000 1.637490 0.000000 
#    z -0.003490 0.000000 1.660780 
# 
# From -- ./inp_files/50912.got.cif
#   From: 2010.05.17/outbox.cif.g08.bks.cpg/sg12_26_cif.got.tgz:50912.got - 2010.06.03 13:09:07.
