data_PCOD9202264
_publ_section_title
;
Structure prediction by ZEFSAII (Michael W. Deem and Ramdas Pophale) SiO2 
 PCOD9202264
Probable space group: C 2/M
;
_chemical_formula_sum "Si O2"
_cell_formula_units_Z 44
_cell_length_a 10.090386
_cell_length_b 9.731104
_cell_length_c 22.923241
_cell_angle_alpha 90.000000
_cell_angle_beta 84.619112
_cell_angle_gamma 90.000000
_cell_volume 2240.927882
_symmetry_space_group_name_H-M "C 2/M"
_symmetry_group_IT_number 12
_symmetry_cell_setting 'monoclinic'
loop_
_space_group_symop_operation_xyz
x,y,z
-x,y,-z
-x,-y,-z
x,-y,z
1/2+x,1/2+y,z
1/2-x,1/2+y,-z
1/2-x,1/2-y,-z
1/2+x,1/2-y,z
loop_
_atom_site_type_symbol
_atom_site_label
_atom_site_fract_x
_atom_site_fract_y
_atom_site_fract_z
Si Si1 0.338145 0.000000 0.207267
Si Si2 0.851590 0.000000 0.960505
Si Si3 0.578324 0.279534 0.738294
Si Si4 0.962780 0.000000 0.828111
Si Si5 0.944643 0.500000 0.078564
Si Si6 0.000000 0.247992 0.000000
Si Si7 0.853420 0.662190 0.532651
Si Si8 0.353541 0.157931 0.668093
O O1 0.368742 0.866010 0.242384
O O2 0.434761 0.000000 0.147620
O O3 0.187892 0.000000 0.189858
O O4 0.881114 0.137780 0.996207
O O5 0.948004 0.000000 0.898963
O O6 0.702880 0.000000 0.943234
O O7 0.536431 0.370093 0.795945
O O8 0.450472 0.252963 0.702637
O O9 0.703269 0.341632 0.698551
O O10 0.004880 0.643432 0.053027
O O11 0.819557 0.500000 0.530951
O O12 0.750000 0.750000 0.500000
O O13 0.853292 0.702040 0.600731
O O14 0.000000 0.680034 0.500000
O O15 0.403741 0.000000 0.668720
#
# Coordination Sequence:
#
# PCOD9202264 Si02
#       8
#     4   4   8   4   4   4   8   8
#     4  11  23  38  60  88 121 159 197 251 299 352
#     4  10  21  37  59  84 120 154 191 243 298 346
#     4  12  22  40  60  88 121 160 202 246 301 355
#     4  11  23  38  58  90 123 156 200 251 295 357
#     4  10  21  37  59  86 118 150 196 244 292 349
#     4  10  20  38  60  86 112 156 196 238 290 356
#     4  10  22  42  62  90 122 156 199 247 297 354
#     4  11  23  39  63  89 123 158 198 248 299 352
#
# _framework density 19.634723000000001
#
# number of rings (size 3 to 8) (size 9 to 14) (size 15 to 20)
#    0.000    1.273    3.636    2.727    0.000    0.364 
#    3.273    0.000    4.000    0.000    0.000    0.000 
#    0.000    0.000    0.000    0.000    0.000    0.000 
#
# Total GULP energy -122825.137511 kJ/mol
# GULP energy per Si atom -5582.960796 kJ/mol
# Density = 1.959003 g / cm^3
# Si number density = 19.634723 Si / 1000 Ang^3
#
#
#
# Elastic Constant Matrix: (Units=GPa)
#
#
# Indices 1 2 3 4 5 6 
#
# 1 62.3059 14.4579 5.0588 0.0000 3.5180 0.0000
# 2 14.4579 109.1925 18.6732 0.0000 4.7760 0.0000
# 3 5.0588 18.6732 75.6813 0.0000 -9.5913 0.0000
# 4 0.0000 0.0000 0.0000 -3.5185 0.0000 -63.6146
# 5 3.5180 4.7760 -9.5913 0.0000 30.5481 0.0000
# 6 0.0000 0.0000 0.0000 -63.6146 0.0000 -189.8921
#
#
#
# Elastic Compliance Matrix: (Units=1/GPa)
#
#
# Indices 1 2 3 4 5 6 
#
# 1 0.016686 -0.001979 -0.000866 0.000000 -0.001884 0.000000
# 2 -0.001979 0.009958 -0.002596 0.000000 -0.002144 0.000000
# 3 -0.000866 -0.002596 0.014555 0.000000 0.005076 0.000000
# 4 0.000000 0.000000 0.000000 0.056203 0.000000 -0.018828
# 5 -0.001884 -0.002144 0.005076 0.000000 0.034881 0.000000
# 6 0.000000 0.000000 0.000000 -0.018828 0.000000 0.001041
#
#
# Mechanical properties :
#
#
# Convention : Reuss Voigt Hill
#
# Bulk Modulus (GPa) = 32.98539 35.95107 34.46823
# Shear Modulus (GPa) = 32.40186 -18.63986 6.88100
#
# Velocity S-wave (km/s) = 4.06671 -3.08446 1.87406
# Velocity P-wave (km/s) = 6.23593 2.38001 4.71971
#
# Compressibility (1/GPa) = 0.03031645
#
# Stress axis : x y z
#
# Youngs Moduli (GPa) = 59.93149 100.42223 68.70461
#
# Poissons Ratio (x) = 0.19872 0.05949
# Poissons Ratio (y) = 0.11859 0.17839
# Poissons Ratio (z) = 0.05189 0.26074
#
# Static dielectric constant tensor:
#      x y z
#    x 1.673420 0.000000 -0.019740 
#    y 0.000000 1.626520 0.000000 
#    z -0.019740 0.000000 1.677410 
# 
# From -- ./inp_files/303641.got.cif
#   From: 2010.05.17/outbox.cif.g08.bks.cpg/sg12_152_cif.got.tgz:303641.got - 2010.06.03 13:09:07.
