data_PCOD9202538
_publ_section_title
;
Structure prediction by ZEFSAII (Michael W. Deem and Ramdas Pophale) SiO2 
 PCOD9202538
Probable space group: C 2/M
;
_chemical_formula_sum "Si O2"
_cell_formula_units_Z 48
_cell_length_a 13.004695
_cell_length_b 24.177188
_cell_length_c 11.355702
_cell_angle_alpha 90.000000
_cell_angle_beta 43.918364
_cell_angle_gamma 90.000000
_cell_volume 2476.563846
_symmetry_space_group_name_H-M "C 2/M"
_symmetry_group_IT_number 12
_symmetry_cell_setting 'monoclinic'
loop_
_space_group_symop_operation_xyz
x,y,z
-x,y,-z
-x,-y,-z
x,-y,z
1/2+x,1/2+y,z
1/2-x,1/2+y,-z
1/2-x,1/2-y,-z
1/2+x,1/2-y,z
loop_
_atom_site_type_symbol
_atom_site_label
_atom_site_fract_x
_atom_site_fract_y
_atom_site_fract_z
Si Si1 0.113493 0.881137 0.230291
Si Si2 0.344555 0.564065 0.058427
Si Si3 0.323925 0.154315 0.656327
Si Si4 0.230344 0.144651 0.467072
Si Si5 0.329913 0.274823 0.684790
Si Si6 0.855407 0.565057 0.193997
O O1 0.173052 0.818889 0.206703
O O2 0.209653 0.918668 0.239454
O O3 0.938726 0.877562 0.403543
O O4 0.134692 0.905895 0.083827
O O5 0.297422 0.500000 0.081461
O O6 0.235980 0.601566 0.225291
O O7 0.500000 0.563594 0.000000
O O8 0.500000 0.150497 0.500000
O O9 0.259474 0.157866 0.577767
O O10 0.280582 0.212803 0.752552
O O11 0.249078 0.196117 0.361946
O O12 0.340899 0.098066 0.327282
O O13 0.500000 0.270465 0.500000
O O14 0.862097 0.500000 0.208250
O O15 0.000000 0.581831 0.000000
#
# Coordination Sequence:
#
# PCOD9202538 Si02
#       6
#     8   8   8   8   8   8
#     4  10  20  40  64  87 116 159 203 246 296 356
#     4  11  24  41  60  86 123 163 205 248 290 352
#     4  11  23  39  60  89 121 161 198 243 306 359
#     4  10  20  38  62  86 119 157 200 244 298 363
#     4   8  18  37  63  89 115 151 196 252 301 353
#     4  10  22  37  58  89 121 154 198 257 304 344
#
# _framework density 19.381694
#
# number of rings (size 3 to 8) (size 9 to 14) (size 15 to 20)
#    0.000    2.000    1.667    2.500    2.333    3.667 
#    0.000    3.333    0.000    0.000    0.000    0.000 
#    0.000    0.000    0.000    0.000    0.000    0.000 
#
# Total GULP energy -133903.046467 kJ/mol
# GULP energy per Si atom -5579.293603 kJ/mol
# Density = 1.933758 g / cm^3
# Si number density = 19.381694 Si / 1000 Ang^3
#
#
#
# Elastic Constant Matrix: (Units=GPa)
#
#
# Indices 1 2 3 4 5 6 
#
# 1 49.7263 28.9683 18.6949 0.0000 13.9897 0.0000
# 2 28.9683 160.2733 72.2334 0.0000 13.9604 0.0000
# 3 18.6949 72.2334 63.9370 0.0000 5.5355 0.0000
# 4 0.0000 0.0000 0.0000 186.4072 0.0000 3.3100
# 5 13.9897 13.9604 5.5355 0.0000 30.7690 0.0000
# 6 0.0000 0.0000 0.0000 3.3100 0.0000 4.8226
#
#
#
# Elastic Compliance Matrix: (Units=1/GPa)
#
#
# Indices 1 2 3 4 5 6 
#
# 1 0.025694 -0.001574 -0.004860 0.000000 -0.010094 0.000000
# 2 -0.001574 0.013133 -0.014143 0.000000 -0.002699 0.000000
# 3 -0.004860 -0.014143 0.032804 0.000000 0.002725 0.000000
# 4 0.000000 0.000000 0.000000 0.005431 0.000000 -0.003727
# 5 -0.010094 -0.002699 0.002725 0.000000 0.037824 0.000000
# 6 0.000000 0.000000 0.000000 -0.003727 0.000000 0.209916
#
#
# Mechanical properties :
#
#
# Convention : Reuss Voigt Hill
#
# Bulk Modulus (GPa) = 32.81332 57.08107 44.94719
# Shear Modulus (GPa) = 13.29375 54.66909 33.98142
#
# Velocity S-wave (km/s) = 2.62180 5.31675 4.19175
# Velocity P-wave (km/s) = 5.11194 8.19789 6.83144
#
# Compressibility (1/GPa) = 0.03047543
#
# Stress axis : x y z
#
# Youngs Moduli (GPa) = 38.91932 76.14267 30.48382
#
# Poissons Ratio (x) = 0.11987 0.14816
# Poissons Ratio (y) = 0.06127 0.43115
# Poissons Ratio (z) = 0.18916 1.07692
#
# Static dielectric constant tensor:
#      x y z
#    x 1.687210 0.000000 0.002810 
#    y 0.000000 1.690740 0.000000 
#    z 0.002810 0.000000 1.664480 
# 
# From -- ./inp_files/133726.got.cif
#   From: 2010.05.17/outbox.cif.g08.bks.cpg/sg12_67_cif.got.tgz:133726.got - 2010.06.03 13:09:07.
