data_PCOD9202891
_publ_section_title
;
Structure prediction by ZEFSAII (Michael W. Deem and Ramdas Pophale) SiO2 
 PCOD9202891
Probable space group: C 2/M
;
_chemical_formula_sum "Si O2"
_cell_formula_units_Z 64
_cell_length_a 14.317948
_cell_length_b 14.758915
_cell_length_c 18.024677
_cell_angle_alpha 90.000000
_cell_angle_beta 129.508134
_cell_angle_gamma 90.000000
_cell_volume 2938.718096
_symmetry_space_group_name_H-M "C 2/M"
_symmetry_group_IT_number 12
_symmetry_cell_setting 'monoclinic'
loop_
_space_group_symop_operation_xyz
x,y,z
-x,y,-z
-x,-y,-z
x,-y,z
1/2+x,1/2+y,z
1/2-x,1/2+y,-z
1/2-x,1/2-y,-z
1/2+x,1/2-y,z
loop_
_atom_site_type_symbol
_atom_site_label
_atom_site_fract_x
_atom_site_fract_y
_atom_site_fract_z
Si Si1 0.275949 0.144669 0.328937
Si Si2 0.552173 0.100576 0.711053
Si Si3 0.861907 0.603422 0.959584
Si Si4 0.561631 0.799557 0.860484
Si Si5 0.787975 0.660305 0.763159
Si Si6 0.377613 0.776208 0.528975
Si Si7 0.001640 0.100055 0.220566
Si Si8 0.532834 0.400558 0.619745
O O1 0.354545 0.092398 0.309302
O O2 0.248231 0.237817 0.272510
O O3 0.351065 0.168721 0.440603
O O4 0.146940 0.103783 0.284857
O O5 0.607541 0.154406 0.808472
O O6 0.446468 0.162452 0.623748
O O7 0.512364 0.000000 0.713592
O O8 0.829049 0.500000 0.962377
O O9 0.790342 0.636866 0.851455
O O10 0.861511 0.669197 0.029784
O O11 0.000000 0.601901 0.000000
O O12 0.425917 0.844113 0.802922
O O13 0.548413 0.691121 0.844072
O O14 0.675372 0.605672 0.671709
O O15 0.250000 0.750000 0.500000
O O16 0.455087 0.685185 0.554020
O O17 0.975285 0.106452 0.294745
O O18 0.959786 0.000000 0.173173
O O19 0.484710 0.500000 0.574952
#
# Coordination Sequence:
#
# PCOD9202891 Si02
#       8
#     8   8   8   8   8   8   8   8
#     4  11  22  40  64  85 125 165 209 259 313 373
#     4  12  25  40  62  90 123 164 215 260 310 377
#     4   9  18  34  61  94 128 163 208 255 313 382
#     4  10  20  40  64  94 130 164 203 264 317 371
#     4  10  20  38  65  93 124 165 200 259 322 379
#     4  12  23  43  62  87 125 162 207 263 317 368
#     4  10  20  38  64  91 122 163 207 256 314 376
#     4  11  22  39  63  90 123 159 206 257 317 378
#
# _framework density 21.778203999999999
#
# number of rings (size 3 to 8) (size 9 to 14) (size 15 to 20)
#    0.000    1.375    3.750    2.250    0.000    3.500 
#    0.000    4.375    0.000   11.625    0.000    0.000 
#    0.000    0.000    0.000    0.000    0.000    0.000 
#
# Total GULP energy -178808.867129 kJ/mol
# GULP energy per Si atom -5587.777098 kJ/mol
# Density = 2.172864 g / cm^3
# Si number density = 21.778204 Si / 1000 Ang^3
#
#
#
# Elastic Constant Matrix: (Units=GPa)
#
#
# Indices 1 2 3 4 5 6 
#
# 1 81.9031 1.9743 7.8540 0.0000 -0.7113 0.0000
# 2 1.9743 131.6776 25.0715 0.0000 -16.8959 0.0000
# 3 7.8540 25.0715 79.9801 0.0000 -20.5635 0.0000
# 4 0.0000 0.0000 0.0000 1.9792 0.0000 -17.3005
# 5 -0.7113 -16.8959 -20.5635 0.0000 38.7682 0.0000
# 6 0.0000 0.0000 0.0000 -17.3005 0.0000 27.4571
#
#
#
# Elastic Compliance Matrix: (Units=1/GPa)
#
#
# Indices 1 2 3 4 5 6 
#
# 1 0.012333 0.000008 -0.001337 0.000000 -0.000479 0.000000
# 2 0.000008 0.008295 -0.001935 0.000000 0.002589 0.000000
# 3 -0.001337 -0.001935 0.015074 0.000000 0.007127 0.000000
# 4 0.000000 0.000000 0.000000 -0.112086 0.000000 -0.070625
# 5 -0.000479 0.002589 0.007127 0.000000 0.030694 0.000000
# 6 0.000000 0.000000 0.000000 -0.070625 0.000000 -0.008080
#
#
# Mechanical properties :
#
#
# Convention : Reuss Voigt Hill
#
# Bulk Modulus (GPa) = 34.27783 40.37337 37.32560
# Shear Modulus (GPa) = -133.27217 30.88499 -51.19359
#
# Velocity S-wave (km/s) = -7.83122 3.76993 -4.85364
# Velocity P-wave (km/s) = 8.12386 6.12605 3.77283
#
# Compressibility (1/GPa) = 0.02917337
#
# Stress axis : x y z
#
# Youngs Moduli (GPa) = 81.08068 120.55688 66.34119
#
# Poissons Ratio (x) = -0.00098 0.08869
# Poissons Ratio (y) = -0.00066 0.12840
# Poissons Ratio (z) = 0.10840 0.23333
#
# Static dielectric constant tensor:
#      x y z
#    x 1.864290 0.000000 0.040160 
#    y 0.000000 1.794240 0.000000 
#    z 0.040160 0.000000 1.793580 
# 
# From -- ./inp_files/270696.got.cif
#   From: 2010.05.17/outbox.cif.g08.bks.cpg/sg12_136_cif.got.tgz:270696.got - 2010.06.03 13:09:07.
