data_PCOD9202813
_publ_section_title
;
Structure prediction by ZEFSAII (Michael W. Deem and Ramdas Pophale) SiO2 
 PCOD9202813
Probable space group: C 2/M
;
_chemical_formula_sum "Si O2"
_cell_formula_units_Z 52
_cell_length_a 8.495753
_cell_length_b 20.624730
_cell_length_c 16.503253
_cell_angle_alpha 90.000000
_cell_angle_beta 124.099456
_cell_angle_gamma 90.000000
_cell_volume 2394.553146
_symmetry_space_group_name_H-M "C 2/M"
_symmetry_group_IT_number 12
_symmetry_cell_setting 'monoclinic'
loop_
_space_group_symop_operation_xyz
x,y,z
-x,y,-z
-x,-y,-z
x,-y,z
1/2+x,1/2+y,z
1/2-x,1/2+y,-z
1/2-x,1/2-y,-z
1/2+x,1/2-y,z
loop_
_atom_site_type_symbol
_atom_site_label
_atom_site_fract_x
_atom_site_fract_y
_atom_site_fract_z
Si Si1 0.781029 0.000000 0.643940
Si Si2 0.541662 0.108902 0.660829
Si Si3 0.113371 0.108839 0.735303
Si Si4 0.417129 0.199752 0.062890
Si Si5 0.301514 0.685562 0.405540
Si Si6 0.625142 0.711036 0.248495
Si Si7 0.464648 0.070653 0.154754
O O1 0.624567 0.942873 0.622760
O O2 0.947364 0.943689 0.680424
O O3 0.335631 0.139142 0.581428
O O4 0.691314 0.167393 0.715966
O O5 0.528569 0.075975 0.745818
O O6 0.044988 0.161793 0.780920
O O7 0.144266 0.145383 0.659248
O O8 0.318550 0.078401 0.813889
O O9 0.567872 0.238339 0.162511
O O10 0.357476 0.133677 0.090462
O O11 0.500000 0.182176 0.000000
O O12 0.250000 0.250000 0.000000
O O13 0.500000 0.706181 0.500000
O O14 0.177301 0.746595 0.342105
O O15 0.387895 0.000000 0.109748
#
# Coordination Sequence:
#
# PCOD9202813 Si02
#       7
#     4   8   8   8   8   8   8
#     4  10  20  38  63  94 125 178 219 270 322 397
#     4  10  21  38  65  94 128 173 218 266 331 395
#     4  10  21  38  65  97 128 173 221 268 329 395
#     4  12  25  40  66  99 135 173 221 273 329 394
#     4  11  24  40  66  97 131 171 221 279 339 398
#     4  11  22  40  66  96 133 171 218 273 335 389
#     4  11  21  40  68  92 136 174 223 268 332 397
#
# _framework density 21.715952000000001
#
# number of rings (size 3 to 8) (size 9 to 14) (size 15 to 20)
#    0.000    1.231    4.615    2.769    0.000    2.769 
#    0.000    4.615    1.692    1.385    0.000    0.000 
#    0.000    0.000    0.000    0.000    0.000    0.000 
#
# Total GULP energy -144834.070901 kJ/mol
# GULP energy per Si atom -5570.541188 kJ/mol
# Density = 2.166653 g / cm^3
# Si number density = 21.715952 Si / 1000 Ang^3
#
#
#
# Elastic Constant Matrix: (Units=GPa)
#
#
# Indices 1 2 3 4 5 6 
#
# 1 78.6156 22.4106 -4.7547 0.0000 16.2676 0.0000
# 2 22.4106 136.7768 16.3566 0.0000 8.1873 0.0000
# 3 -4.7547 16.3566 47.6912 0.0000 14.6423 0.0000
# 4 0.0000 0.0000 0.0000 2.0554 0.0000 3.8619
# 5 16.2676 8.1873 14.6423 0.0000 24.1183 0.0000
# 6 0.0000 0.0000 0.0000 3.8619 0.0000 26.7856
#
#
#
# Elastic Compliance Matrix: (Units=1/GPa)
#
#
# Indices 1 2 3 4 5 6 
#
# 1 0.017038 -0.002762 0.007235 0.000000 -0.014947 0.000000
# 2 -0.002762 0.008101 -0.003419 0.000000 0.001188 0.000000
# 3 0.007235 -0.003419 0.029503 0.000000 -0.021631 0.000000
# 4 0.000000 0.000000 0.000000 0.667310 0.000000 -0.096213
# 5 -0.014947 0.001188 -0.021631 0.000000 0.064273 0.000000
# 6 0.000000 0.000000 0.000000 -0.096213 0.000000 0.051205
#
#
# Mechanical properties :
#
#
# Convention : Reuss Voigt Hill
#
# Bulk Modulus (GPa) = 17.62093 36.78983 27.20538
# Shear Modulus (GPa) = 5.85316 25.86326 15.85821
#
# Velocity S-wave (km/s) = 1.64353 3.45480 2.70526
# Velocity P-wave (km/s) = 3.42541 5.73519 4.72366
#
# Compressibility (1/GPa) = 0.05675070
#
# Stress axis : x y z
#
# Youngs Moduli (GPa) = 58.69257 123.43469 33.89451
#
# Poissons Ratio (x) = 0.34094 -0.24523
# Poissons Ratio (y) = 0.16212 0.11588
# Poissons Ratio (z) = -0.42464 0.42200
#
# Static dielectric constant tensor:
#      x y z
#    x 1.795060 0.000000 -0.006150 
#    y 0.000000 1.798810 0.000000 
#    z -0.006150 0.000000 1.813090 
# 
# From -- ./inp_files/258546.got.cif
#   From: 2010.05.17/outbox.cif.g08.bks.cpg/sg12_130_cif.got.tgz:258546.got - 2010.06.03 13:09:07.
