data_PCOD9202911
_publ_section_title
;
Structure prediction by ZEFSAII (Michael W. Deem and Ramdas Pophale) SiO2 
 PCOD9202911
Probable space group: C 2/M
;
_chemical_formula_sum "Si O2"
_cell_formula_units_Z 48
_cell_length_a 7.740912
_cell_length_b 31.843348
_cell_length_c 9.413715
_cell_angle_alpha 90.000000
_cell_angle_beta 97.361301
_cell_angle_gamma 90.000000
_cell_volume 2301.323012
_symmetry_space_group_name_H-M "C 2/M"
_symmetry_group_IT_number 12
_symmetry_cell_setting 'monoclinic'
loop_
_space_group_symop_operation_xyz
x,y,z
-x,y,-z
-x,-y,-z
x,-y,z
1/2+x,1/2+y,z
1/2-x,1/2+y,-z
1/2-x,1/2-y,-z
1/2+x,1/2-y,z
loop_
_atom_site_type_symbol
_atom_site_label
_atom_site_fract_x
_atom_site_fract_y
_atom_site_fract_z
Si Si1 0.624674 0.329442 0.145695
Si Si2 0.811699 0.616964 0.556413
Si Si3 0.378292 0.593682 0.201138
Si Si4 0.164386 0.594229 0.917433
Si Si5 0.694092 0.451842 0.335566
Si Si6 0.793259 0.704797 0.442680
O O1 0.502794 0.365160 0.205466
O O2 0.790837 0.356892 0.110134
O O3 0.708783 0.299216 0.274806
O O4 0.500000 0.313718 0.000000
O O5 0.785995 0.607196 0.719220
O O6 0.718306 0.578484 0.470775
O O7 0.727967 0.662283 0.513595
O O8 0.000000 0.617079 0.500000
O O9 0.494994 0.556042 0.270595
O O10 0.319895 0.581937 0.038740
O O11 0.184008 0.567167 0.777290
O O12 0.000000 0.588478 0.000000
O O13 0.734167 0.500000 0.366706
O O14 0.750000 0.750000 0.500000
O O15 0.000000 0.702266 0.500000
#
# Coordination Sequence:
#
# PCOD9202911 Si02
#       6
#     8   8   8   8   8   8
#     4   9  20  42  66  96 132 173 224 269 331 402
#     4  11  23  41  63  92 129 169 219 274 334 394
#     4  10  21  36  66  87 123 176 214 272 326 397
#     4  10  20  38  64  92 124 175 220 266 336 391
#     4  11  23  39  60  91 129 168 222 275 329 398
#     4  11  25  41  69 100 135 171 222 274 332 400
#
# _framework density 20.857565000000001
#
# number of rings (size 3 to 8) (size 9 to 14) (size 15 to 20)
#    0.000    1.667    3.333    3.000    4.667    3.333 
#    0.000    2.500    0.000    0.000    0.000    0.000 
#    0.000    0.000    0.000    0.000    0.000    0.000 
#
# Total GULP energy -133626.216171 kJ/mol
# GULP energy per Si atom -5567.759007 kJ/mol
# Density = 2.081009 g / cm^3
# Si number density = 20.857565 Si / 1000 Ang^3
#
#
#
# Elastic Constant Matrix: (Units=GPa)
#
#
# Indices 1 2 3 4 5 6 
#
# 1 71.3658 22.7560 5.1283 0.0000 -11.6636 0.0000
# 2 22.7560 127.7370 55.8650 0.0000 17.3572 0.0000
# 3 5.1283 55.8650 89.6181 0.0000 8.0514 0.0000
# 4 0.0000 0.0000 0.0000 13.6162 0.0000 6.7934
# 5 -11.6636 17.3572 8.0514 0.0000 45.9225 0.0000
# 6 0.0000 0.0000 0.0000 6.7934 0.0000 8.4800
#
#
#
# Elastic Compliance Matrix: (Units=1/GPa)
#
#
# Indices 1 2 3 4 5 6 
#
# 1 0.016134 -0.004121 0.001155 0.000000 0.005453 0.000000
# 2 -0.004121 0.012220 -0.006983 0.000000 -0.004441 0.000000
# 3 0.001155 -0.006983 0.015425 0.000000 0.000228 0.000000
# 4 0.000000 0.000000 0.000000 0.122339 0.000000 -0.098006
# 5 0.005453 -0.004441 0.000228 0.000000 0.024799 0.000000
# 6 0.000000 0.000000 0.000000 -0.098006 0.000000 0.196439
#
#
# Mechanical properties :
#
#
# Convention : Reuss Voigt Hill
#
# Bulk Modulus (GPa) = 41.87027 50.69104 46.28065
# Shear Modulus (GPa) = 12.04203 27.26852 19.65527
#
# Velocity S-wave (km/s) = 2.40541 3.61968 3.07311
# Velocity P-wave (km/s) = 5.27566 6.46727 5.90162
#
# Compressibility (1/GPa) = 0.02388329
#
# Stress axis : x y z
#
# Youngs Moduli (GPa) = 61.97963 81.83331 64.83139
#
# Poissons Ratio (x) = 0.33720 -0.07491
# Poissons Ratio (y) = 0.25539 0.45270
# Poissons Ratio (z) = -0.07162 0.57142
#
# Static dielectric constant tensor:
#      x y z
#    x 1.884640 0.000000 0.029260 
#    y 0.000000 1.722960 0.000000 
#    z 0.029260 0.000000 1.910280 
# 
# From -- ./inp_files/42234.got.cif
#   From: 2010.05.17/outbox.cif.g08.bks.cpg/sg12_22_cif.got.tgz:42234.got - 2010.06.03 13:09:07.
