data_PCOD9202121
_publ_section_title
;
Structure prediction by ZEFSAII (Michael W. Deem and Ramdas Pophale) SiO2 
 PCOD9202121
Probable space group: C 2/M
;
_chemical_formula_sum "Si O2"
_cell_formula_units_Z 64
_cell_length_a 15.570244
_cell_length_b 7.995284
_cell_length_c 34.992281
_cell_angle_alpha 90.000000
_cell_angle_beta 43.765553
_cell_angle_gamma 90.000000
_cell_volume 3013.179932
_symmetry_space_group_name_H-M "C 2/M"
_symmetry_group_IT_number 12
_symmetry_cell_setting 'monoclinic'
loop_
_space_group_symop_operation_xyz
x,y,z
-x,y,-z
-x,-y,-z
x,-y,z
1/2+x,1/2+y,z
1/2-x,1/2+y,-z
1/2-x,1/2-y,-z
1/2+x,1/2-y,z
loop_
_atom_site_type_symbol
_atom_site_label
_atom_site_fract_x
_atom_site_fract_y
_atom_site_fract_z
Si Si1 0.447039 0.797267 0.244416
Si Si2 0.826848 0.195261 0.011808
Si Si3 0.477335 0.198271 0.697959
Si Si4 0.696893 0.796027 0.779943
Si Si5 0.630752 0.303420 0.577554
Si Si6 0.936692 0.309313 0.105410
Si Si7 0.283249 0.796058 0.873449
Si Si8 0.091191 0.198030 0.504769
O O1 0.456511 0.736256 0.284728
O O2 0.336764 0.742616 0.252175
O O3 0.574873 0.758119 0.181338
O O4 0.440881 0.000000 0.248520
O O5 0.968651 0.228697 0.954860
O O6 0.812213 0.000000 0.021070
O O7 0.750000 0.250000 0.000000
O O8 0.768743 0.266459 0.069149
O O9 0.330650 0.229441 0.748663
O O10 0.530325 0.279706 0.642791
O O11 0.499044 0.000000 0.688317
O O12 0.587621 0.740304 0.844317
O O13 0.699081 0.000000 0.781138
O O14 0.656806 0.500000 0.563900
O O15 0.761067 0.223072 0.549544
O O16 0.582354 0.236970 0.551761
O O17 0.979349 0.500000 0.095769
O O18 0.802325 0.292344 0.130053
O O19 0.268802 0.000000 0.874860
O O20 0.000000 0.264478 0.500000
O O21 0.064182 0.000000 0.515289
#
# Coordination Sequence:
#
# PCOD9202121 Si02
#       8
#     8   8   8   8   8   8   8   8
#     4   9  19  37  60  80 107 150 195 235 285 348
#     4  11  23  37  56  80 109 144 185 237 291 356
#     4  11  22  38  60  85 116 155 199 243 285 342
#     4  10  21  39  60  82 111 151 195 241 292 345
#     4  10  21  37  59  88 123 157 192 242 291 333
#     4  11  22  36  57  83 112 143 184 238 296 355
#     4  10  20  38  59  79 107 146 191 232 288 356
#     4   9  19  38  63  89 119 159 202 236 277 338
#
# _framework density 21.240019
#
# number of rings (size 3 to 8) (size 9 to 14) (size 15 to 20)
#    0.000    1.875    1.250    2.625    0.000    6.750 
#    0.000    6.875    0.000    0.000    0.000    0.000 
#    0.000    0.000    0.000    0.000    0.000    0.000 
#
# Total GULP energy -178522.167855 kJ/mol
# GULP energy per Si atom -5578.817745 kJ/mol
# Density = 2.119168 g / cm^3
# Si number density = 21.240019 Si / 1000 Ang^3
#
#
#
# Elastic Constant Matrix: (Units=GPa)
#
#
# Indices 1 2 3 4 5 6 
#
# 1 95.9251 -0.0669 19.3552 -0.0015 30.8831 -0.0011
# 2 -0.0669 14.2656 0.7445 -0.0026 4.9104 -0.0017
# 3 19.3552 0.7445 101.2659 -0.0012 23.8131 0.0000
# 4 -0.0015 -0.0026 -0.0012 22.1488 -0.0007 -6.5804
# 5 30.8831 4.9104 23.8131 -0.0007 26.0100 -0.0003
# 6 -0.0011 -0.0017 0.0000 -6.5804 -0.0003 22.6395
#
#
#
# Elastic Compliance Matrix: (Units=1/GPa)
#
#
# Indices 1 2 3 4 5 6 
#
# 1 0.018109 0.008693 0.002443 0.000002 -0.025379 0.000002
# 2 0.008693 0.080152 0.004759 0.000012 -0.029811 0.000010
# 3 0.002443 0.004759 0.013083 0.000001 -0.015777 0.000001
# 4 0.000002 0.000012 0.000001 0.049417 -0.000004 0.014363
# 5 -0.025379 -0.029811 -0.015777 -0.000004 0.088654 -0.000003
# 6 0.000002 0.000010 0.000001 0.014363 -0.000003 0.048345
#
#
# Mechanical properties :
#
#
# Convention : Reuss Voigt Hill
#
# Bulk Modulus (GPa) = 6.98639 27.94693 17.46666
# Shear Modulus (GPa) = 15.93978 26.92126 21.43052
#
# Velocity S-wave (km/s) = 2.74242 3.56403 3.17987
# Velocity P-wave (km/s) = 3.65024 5.48841 4.66084
#
# Compressibility (1/GPa) = 0.14313539
#
# Stress axis : x y z
#
# Youngs Moduli (GPa) = 55.22165 12.47624 76.43423
#
# Poissons Ratio (x) = -0.10846 -0.18673
# Poissons Ratio (y) = -0.48006 -0.36377
# Poissons Ratio (z) = -0.13490 -0.05938
#
# Static dielectric constant tensor:
#      x y z
#    x 1.792270 0.000000 0.011130 
#    y 0.000000 1.778320 0.000000 
#    z 0.011130 0.000000 1.833990 
# 
# From -- ./inp_files/375372.got.cif
#   From: 2010.05.17/outbox.cif.g08.bks.cpg/sg12_188_cif.got.tgz:375372.got - 2010.06.03 13:09:07.
