data_PCOD9202065
_publ_section_title
;
Structure prediction by ZEFSAII (Michael W. Deem and Ramdas Pophale) SiO2 
 PCOD9202065
Probable space group: C 2/M
;
_chemical_formula_sum "Si O2"
_cell_formula_units_Z 60
_cell_length_a 8.897186
_cell_length_b 27.824001
_cell_length_c 15.479408
_cell_angle_alpha 90.000000
_cell_angle_beta 75.047850
_cell_angle_gamma 90.000000
_cell_volume 3702.264115
_symmetry_space_group_name_H-M "C 2/M"
_symmetry_group_IT_number 12
_symmetry_cell_setting 'monoclinic'
loop_
_space_group_symop_operation_xyz
x,y,z
-x,y,-z
-x,-y,-z
x,-y,z
1/2+x,1/2+y,z
1/2-x,1/2+y,-z
1/2-x,1/2-y,-z
1/2+x,1/2-y,z
loop_
_atom_site_type_symbol
_atom_site_label
_atom_site_fract_x
_atom_site_fract_y
_atom_site_fract_z
Si Si1 0.003967 0.651431 0.231205
Si Si2 0.500000 0.744909 0.500000
Si Si3 0.927743 0.151204 0.916094
Si Si4 0.761836 0.944858 0.946134
Si Si5 0.193325 0.715014 0.626195
Si Si6 0.965361 0.444819 0.862375
Si Si7 0.184786 0.207189 0.777373
Si Si8 0.125497 0.708077 0.912253
O O1 0.864505 0.668712 0.313339
O O2 0.026574 0.595278 0.211973
O O3 0.963173 0.674717 0.144111
O O4 0.159307 0.676050 0.244795
O O5 0.371704 0.714572 0.570693
O O6 0.408608 0.776740 0.443922
O O7 0.890716 0.094948 0.908898
O O8 0.762636 0.178055 0.935240
O O9 0.039611 0.174258 0.827059
O O10 0.000000 0.157574 0.000000
O O11 0.622465 0.941366 0.896792
O O12 0.817617 0.000000 0.938289
O O13 0.677524 0.934867 0.050620
O O14 0.167076 0.761369 0.693035
O O15 0.951974 0.500000 0.834943
O O16 0.197271 0.247297 0.850529
O O17 0.000000 0.724889 0.000000
#
# Coordination Sequence:
#
# PCOD9202065 Si02
#       8
#     8   4   8   8   8   8   8   8
#     4  11  20  34  53  74 103 136 174 212 252 295
#     4  10  20  38  58  80 108 130 166 198 258 326
#     4  12  23  32  47  71 101 142 182 220 258 294
#     4   9  18  33  49  69  96 137 186 228 259 288
#     4  10  21  36  57  81 107 136 161 208 255 313
#     4   9  17  31  53  73  96 134 184 223 253 296
#     4  11  23  34  47  75 108 136 171 210 252 299
#     4  11  21  33  47  65 100 146 180 207 245 297
#
# _framework density 16.206299000000001
#
# number of rings (size 3 to 8) (size 9 to 14) (size 15 to 20)
#    0.000    1.600    2.667    5.200    1.867    1.867 
#    0.000    0.667    0.000    0.000    0.000    0.933 
#    0.000    0.000    0.000    0.267    0.000    0.000 
#
# Total GULP energy -167535.276012 kJ/mol
# GULP energy per Si atom -5584.509200 kJ/mol
# Density = 1.616941 g / cm^3
# Si number density = 16.206299 Si / 1000 Ang^3
#
#
#
# Elastic Constant Matrix: (Units=GPa)
#
#
# Indices 1 2 3 4 5 6 
#
# 1 51.2380 21.0745 16.4059 0.0000 -5.5410 0.0000
# 2 21.0745 109.9632 32.1464 0.0000 -11.0103 0.0000
# 3 16.4059 32.1464 65.2689 0.0000 -10.4949 0.0000
# 4 0.0000 0.0000 0.0000 12.5874 0.0000 3.1574
# 5 -5.5410 -11.0103 -10.4949 0.0000 28.7013 0.0000
# 6 0.0000 0.0000 0.0000 3.1574 0.0000 10.4671
#
#
#
# Elastic Compliance Matrix: (Units=1/GPa)
#
#
# Indices 1 2 3 4 5 6 
#
# 1 0.022146 -0.002949 -0.003834 0.000000 0.001742 0.000000
# 2 -0.002949 0.011161 -0.004419 0.000000 0.002096 0.000000
# 3 -0.003834 -0.004419 0.019198 0.000000 0.004585 0.000000
# 4 0.000000 0.000000 0.000000 0.085948 0.000000 -0.025926
# 5 0.001742 0.002096 0.004585 0.000000 0.037659 0.000000
# 6 0.000000 0.000000 0.000000 -0.025926 0.000000 0.103358
#
#
# Mechanical properties :
#
#
# Convention : Reuss Voigt Hill
#
# Bulk Modulus (GPa) = 33.22053 40.63596 36.92824
# Shear Modulus (GPa) = 16.03043 20.80736 18.41889
#
# Velocity S-wave (km/s) = 3.14848 3.58705 3.37490
# Velocity P-wave (km/s) = 5.81036 6.50265 6.16623
#
# Compressibility (1/GPa) = 0.03010187
#
# Stress axis : x y z
#
# Youngs Moduli (GPa) = 45.15550 89.59974 52.08770
#
# Poissons Ratio (x) = 0.26423 0.19970
# Poissons Ratio (y) = 0.13316 0.23015
# Poissons Ratio (z) = 0.17312 0.39590
#
# Static dielectric constant tensor:
#      x y z
#    x 1.566280 0.000000 -0.002350 
#    y 0.000000 1.549360 0.000000 
#    z -0.002350 0.000000 1.534240 
# 
# From -- ./inp_files/199347.got.cif
#   From: 2010.05.17/outbox.cif.g08.bks.cpg/sg12_100_cif.got.tgz:199347.got - 2010.06.03 13:09:07.
