data_PCOD9202295
_publ_section_title
;
Structure prediction by ZEFSAII (Michael W. Deem and Ramdas Pophale) SiO2 
 PCOD9202295
Probable space group: C 2/M
;
_chemical_formula_sum "Si O2"
_cell_formula_units_Z 52
_cell_length_a 16.420524
_cell_length_b 19.023498
_cell_length_c 12.469745
_cell_angle_alpha 90.000000
_cell_angle_beta 45.906083
_cell_angle_gamma 90.000000
_cell_volume 2797.566828
_symmetry_space_group_name_H-M "C 2/M"
_symmetry_group_IT_number 12
_symmetry_cell_setting 'monoclinic'
loop_
_space_group_symop_operation_xyz
x,y,z
-x,y,-z
-x,-y,-z
x,-y,z
1/2+x,1/2+y,z
1/2-x,1/2+y,-z
1/2-x,1/2-y,-z
1/2+x,1/2-y,z
loop_
_atom_site_type_symbol
_atom_site_label
_atom_site_fract_x
_atom_site_fract_y
_atom_site_fract_z
Si Si1 0.164119 0.642976 0.616419
Si Si2 0.006753 0.000000 0.278233
Si Si3 0.266124 0.000000 0.116405
Si Si4 0.777011 0.000000 0.591175
Si Si5 0.009190 0.125183 0.871880
Si Si6 0.737857 0.282640 0.669802
Si Si7 0.689619 0.265629 0.944058
Si Si8 0.062054 0.621679 0.051794
O O1 0.228487 0.569825 0.578432
O O2 0.178855 0.673880 0.483613
O O3 0.219385 0.704174 0.640422
O O4 0.034693 0.630726 0.770480
O O5 0.913091 0.000000 0.457213
O O6 0.982989 0.932556 0.226164
O O7 0.137255 0.000000 0.194325
O O8 0.261326 0.000000 0.250283
O O9 0.337980 0.067653 0.013305
O O10 0.116737 0.177407 0.771731
O O11 0.000000 0.093761 0.000000
O O12 0.896443 0.170723 0.959818
O O13 0.766862 0.280491 0.769134
O O14 0.750000 0.250000 0.000000
O O15 0.616110 0.197407 0.980143
O O16 0.000000 0.596630 0.000000
#
# Coordination Sequence:
#
# PCOD9202295 Si02
#       8
#     8   4   4   4   8   8   8   8
#     4  11  21  36  65  88 119 159 214 250 297 361
#     4  12  24  39  54  89 127 161 196 255 324 363
#     4  12  25  37  58  91 127 159 204 262 313 370
#     4  12  22  37  59  91 122 164 198 260 316 363
#     4  10  20  38  62  85 113 157 206 247 297 371
#     4  10  20  38  60  89 119 156 202 251 302 363
#     4  11  21  37  61  91 121 155 198 256 310 364
#     4  12  20  39  62  87 119 162 214 249 298 369
#
# _framework density 18.587581
#
# number of rings (size 3 to 8) (size 9 to 14) (size 15 to 20)
#    0.000    0.923    6.154    2.538    0.000    0.000 
#    0.000    0.769    0.000    0.000    0.000    4.308 
#    0.000    0.000    0.000    0.000    0.000    0.000 
#
# Total GULP energy -145210.861346 kJ/mol
# GULP energy per Si atom -5585.033129 kJ/mol
# Density = 1.854528 g / cm^3
# Si number density = 18.587581 Si / 1000 Ang^3
#
#
#
# Elastic Constant Matrix: (Units=GPa)
#
#
# Indices 1 2 3 4 5 6 
#
# 1 75.4150 17.0003 40.7888 0.0000 11.0712 0.0000
# 2 17.0003 105.5017 35.6972 0.0000 1.9061 0.0000
# 3 40.7888 35.6972 159.0639 0.0000 7.6333 0.0000
# 4 0.0000 0.0000 0.0000 24.9487 0.0000 2.6956
# 5 11.0712 1.9061 7.6333 0.0000 29.5975 0.0000
# 6 0.0000 0.0000 0.0000 2.6956 0.0000 12.7331
#
#
#
# Elastic Compliance Matrix: (Units=1/GPa)
#
#
# Indices 1 2 3 4 5 6 
#
# 1 0.016262 -0.001299 -0.003636 0.000000 -0.005062 0.000000
# 2 -0.001299 0.010361 -0.002008 0.000000 0.000337 0.000000
# 3 -0.003636 -0.002008 0.007694 0.000000 -0.000495 0.000000
# 4 0.000000 0.000000 0.000000 0.041021 0.000000 -0.008684
# 5 -0.005062 0.000337 -0.000495 0.000000 0.035786 0.000000
# 6 0.000000 0.000000 0.000000 -0.008684 0.000000 0.080374
#
#
# Mechanical properties :
#
#
# Convention : Reuss Voigt Hill
#
# Bulk Modulus (GPa) = 48.94477 58.55036 53.74756
# Shear Modulus (GPa) = 23.56335 29.88880 26.72607
#
# Velocity S-wave (km/s) = 3.56433 4.01434 3.79601
# Velocity P-wave (km/s) = 6.58243 7.28386 6.94201
#
# Compressibility (1/GPa) = 0.02043119
#
# Stress axis : x y z
#
# Youngs Moduli (GPa) = 61.49204 96.51320 129.97873
#
# Poissons Ratio (x) = 0.12536 0.47257
# Poissons Ratio (y) = 0.07987 0.26105
# Poissons Ratio (z) = 0.22357 0.19383
#
# Static dielectric constant tensor:
#      x y z
#    x 1.627110 0.000000 0.011860 
#    y 0.000000 1.633420 0.000000 
#    z 0.011860 0.000000 1.666020 
# 
# From -- ./inp_files/147572.got.cif
#   From: 2010.05.17/outbox.cif.g08.bks.cpg/sg12_74_cif.got.tgz:147572.got - 2010.06.03 13:09:07.
