data_PCOD9202932
_publ_section_title
;
Structure prediction by ZEFSAII (Michael W. Deem and Ramdas Pophale) SiO2 
 PCOD9202932
Probable space group: C 2/M
;
_chemical_formula_sum "Si O2"
_cell_formula_units_Z 56
_cell_length_a 29.117546
_cell_length_b 8.602883
_cell_length_c 22.115715
_cell_angle_alpha 90.000000
_cell_angle_beta 150.305423
_cell_angle_gamma 90.000000
_cell_volume 2744.322389
_symmetry_space_group_name_H-M "C 2/M"
_symmetry_group_IT_number 12
_symmetry_cell_setting 'monoclinic'
loop_
_space_group_symop_operation_xyz
x,y,z
-x,y,-z
-x,-y,-z
x,-y,z
1/2+x,1/2+y,z
1/2-x,1/2+y,-z
1/2-x,1/2-y,-z
1/2+x,1/2-y,z
loop_
_atom_site_type_symbol
_atom_site_label
_atom_site_fract_x
_atom_site_fract_y
_atom_site_fract_z
Si Si1 0.245780 0.186226 0.771360
Si Si2 0.403238 0.680086 0.637721
Si Si3 0.453451 0.681617 0.012916
Si Si4 0.625137 0.820153 0.270534
Si Si5 0.201993 0.682240 0.594913
Si Si6 0.707132 0.685272 0.861750
Si Si7 0.601703 0.818177 0.852652
O O1 0.195275 0.254676 0.655122
O O2 0.198678 0.224078 0.781676
O O3 0.251272 0.000000 0.772555
O O4 0.349907 0.253580 0.892207
O O5 0.384161 0.500000 0.627898
O O6 0.360294 0.781584 0.642642
O O7 0.362143 0.729607 0.526395
O O8 0.512556 0.714293 0.762445
O O9 0.452874 0.500000 0.029499
O O10 0.519906 0.777439 0.133321
O O11 0.500000 0.694837 0.000000
O O12 0.693383 0.716476 0.308251
O O13 0.643917 0.000000 0.279232
O O14 0.183008 0.500000 0.571138
O O15 0.690371 0.500000 0.851041
O O16 0.642150 0.780030 0.832593
O O17 0.813283 0.713531 0.004458
O O18 0.576339 0.000000 0.828660
#
# Coordination Sequence:
#
# PCOD9202932 Si02
#       7
#     8   8   8   8   8   8   8
#     4  11  22  38  61  89 122 162 203 245 300 358
#     4  12  25  42  63  87 118 157 201 248 300 354
#     4  11  22  36  57  87 122 158 198 244 293 349
#     4  12  24  40  62  88 119 158 203 248 300 355
#     4  12  25  42  60  84 120 159 203 250 297 355
#     4   9  20  38  62  92 124 156 192 239 297 357
#     4  10  20  38  64  94 123 154 195 243 296 352
#
# _framework density 20.405764999999999
#
# number of rings (size 3 to 8) (size 9 to 14) (size 15 to 20)
#    0.000    1.000    1.429    6.429    0.000    3.429 
#    0.000    0.714    0.000    4.286    0.000    0.000 
#    0.000    0.000    0.000    0.000    0.000    0.000 
#
# Total GULP energy -156719.977859 kJ/mol
# GULP energy per Si atom -5597.142066 kJ/mol
# Density = 2.035932 g / cm^3
# Si number density = 20.405765 Si / 1000 Ang^3
#
#
#
# Elastic Constant Matrix: (Units=GPa)
#
#
# Indices 1 2 3 4 5 6 
#
# 1 54.5471 -4.3052 8.2533 0.0000 -27.6751 0.0000
# 2 -4.3052 49.7168 -0.0311 0.0000 -3.6435 0.0000
# 3 8.2533 -0.0311 46.5885 0.0000 -22.1327 0.0000
# 4 0.0000 0.0000 0.0000 31.8716 0.0000 -2.9211
# 5 -27.6751 -3.6435 -22.1327 0.0000 30.7095 0.0000
# 6 0.0000 0.0000 0.0000 -2.9211 0.0000 28.2594
#
#
#
# Elastic Compliance Matrix: (Units=1/GPa)
#
#
# Indices 1 2 3 4 5 6 
#
# 1 0.042309 0.007420 0.016791 0.000000 0.051111 0.000000
# 2 0.007420 0.021687 0.004713 0.000000 0.012656 0.000000
# 3 0.016791 0.004713 0.039457 0.000000 0.044128 0.000000
# 4 0.000000 0.000000 0.000000 0.031676 0.000000 0.003274
# 5 0.051111 0.012656 0.044128 0.000000 0.111929 0.000000
# 6 0.000000 0.000000 0.000000 0.003274 0.000000 0.035725
#
#
# Mechanical properties :
#
#
# Convention : Reuss Voigt Hill
#
# Bulk Modulus (GPa) = 6.19963 17.63182 11.91572
# Shear Modulus (GPa) = 17.94022 27.96378 22.95200
#
# Velocity S-wave (km/s) = 2.96830 3.70589 3.35741
# Velocity P-wave (km/s) = 3.84611 5.19335 4.56965
#
# Compressibility (1/GPa) = 0.16129998
#
# Stress axis : x y z
#
# Youngs Moduli (GPa) = 23.63538 46.11076 25.34402
#
# Poissons Ratio (x) = -0.34214 -0.42555
# Poissons Ratio (y) = -0.17537 -0.11944
# Poissons Ratio (z) = -0.39686 -0.21730
#
# Static dielectric constant tensor:
#      x y z
#    x 1.715880 0.000000 -0.011960 
#    y 0.000000 1.682940 0.000000 
#    z -0.011960 0.000000 1.730220 
# 
# From -- ./inp_files/329658.got.cif
#   From: 2010.05.17/outbox.cif.g08.bks.cpg/sg12_165_cif.got.tgz:329658.got - 2010.06.03 13:09:07.
