data_PCOD9202247
_publ_section_title
;
Structure prediction by ZEFSAII (Michael W. Deem and Ramdas Pophale) SiO2 
 PCOD9202247
Probable space group: C 2/M
;
_chemical_formula_sum "Si O2"
_cell_formula_units_Z 56
_cell_length_a 16.170571
_cell_length_b 20.568101
_cell_length_c 9.010595
_cell_angle_alpha 90.000000
_cell_angle_beta 108.125219
_cell_angle_gamma 90.000000
_cell_volume 2848.195557
_symmetry_space_group_name_H-M "C 2/M"
_symmetry_group_IT_number 12
_symmetry_cell_setting 'monoclinic'
loop_
_space_group_symop_operation_xyz
x,y,z
-x,y,-z
-x,-y,-z
x,-y,z
1/2+x,1/2+y,z
1/2-x,1/2+y,-z
1/2-x,1/2-y,-z
1/2+x,1/2-y,z
loop_
_atom_site_type_symbol
_atom_site_label
_atom_site_fract_x
_atom_site_fract_y
_atom_site_fract_z
Si Si1 0.706077 0.423042 0.953688
Si Si2 0.092530 0.577765 0.485863
Si Si3 0.352739 0.633485 0.562954
Si Si4 0.204376 0.575393 0.294939
Si Si5 0.421245 0.733991 0.356693
Si Si6 0.275033 0.159188 0.261916
Si Si7 0.980753 0.129906 0.164334
O O1 0.722449 0.500000 0.995447
O O2 0.764902 0.400186 0.847245
O O3 0.604145 0.414500 0.860496
O O4 0.727076 0.372817 0.096410
O O5 0.094323 0.500000 0.476736
O O6 0.123056 0.604420 0.341458
O O7 0.164493 0.602218 0.639458
O O8 0.000000 0.595894 0.500000
O O9 0.286750 0.583073 0.450804
O O10 0.386037 0.678295 0.448082
O O11 0.295922 0.674313 0.650445
O O12 0.434326 0.605330 0.699071
O O13 0.185611 0.500000 0.259457
O O14 0.500000 0.763709 0.500000
O O15 0.342058 0.781972 0.275095
O O16 0.458054 0.698735 0.230749
O O17 0.000000 0.135142 0.000000
#
# Coordination Sequence:
#
# PCOD9202247 Si02
#       7
#     8   8   8   8   8   8   8
#     4  11  23  39  59  88 125 160 197 244 297 356
#     4   9  18  35  59  83 113 151 197 251 298 346
#     4  10  20  38  60  84 115 156 197 246 291 347
#     4   9  19  36  58  86 117 155 199 240 292 357
#     4  10  22  39  61  83 116 155 202 246 292 352
#     4  11  21  37  58  87 116 154 197 245 297 352
#     4  11  22  41  57  87 126 156 195 247 293 354
#
# _framework density 19.661570999999999
#
# number of rings (size 3 to 8) (size 9 to 14) (size 15 to 20)
#    0.000    1.857    2.857    1.286    0.000    2.000 
#    0.000    5.000    0.000    3.429    0.000    0.000 
#    0.000    0.000    0.000    0.000    0.000    0.000 
#
# Total GULP energy -156008.563699 kJ/mol
# GULP energy per Si atom -5571.734418 kJ/mol
# Density = 1.961682 g / cm^3
# Si number density = 19.661571 Si / 1000 Ang^3
#
#
#
# Elastic Constant Matrix: (Units=GPa)
#
#
# Indices 1 2 3 4 5 6 
#
# 1 108.8882 -1.0013 17.7250 0.0000 -18.3998 0.0000
# 2 -1.0013 21.5614 5.3525 0.0000 -6.8197 0.0000
# 3 17.7250 5.3525 56.1381 0.0000 -14.9965 0.0000
# 4 0.0000 0.0000 0.0000 21.6974 0.0000 6.9183
# 5 -18.3998 -6.8197 -14.9965 0.0000 39.2312 0.0000
# 6 0.0000 0.0000 0.0000 6.9183 0.0000 26.0531
#
#
#
# Elastic Compliance Matrix: (Units=1/GPa)
#
#
# Indices 1 2 3 4 5 6 
#
# 1 0.010324 0.002441 -0.002323 0.000000 0.004379 0.000000
# 2 0.002441 0.050018 -0.003242 0.000000 0.008600 0.000000
# 3 -0.002323 -0.003242 0.020508 0.000000 0.006187 0.000000
# 4 0.000000 0.000000 0.000000 0.050352 0.000000 -0.013371
# 5 0.004379 0.008600 0.006187 0.000000 0.031403 0.000000
# 6 0.000000 0.000000 0.000000 -0.013371 0.000000 0.041934
#
#
# Mechanical properties :
#
#
# Convention : Reuss Voigt Hill
#
# Bulk Modulus (GPa) = 13.40446 25.63779 19.52112
# Shear Modulus (GPa) = 21.21750 28.36377 24.79064
#
# Velocity S-wave (km/s) = 3.28858 3.80228 3.55472
# Velocity P-wave (km/s) = 4.61000 5.68720 5.17670
#
# Compressibility (1/GPa) = 0.07460205
#
# Stress axis : x y z
#
# Youngs Moduli (GPa) = 96.86010 19.99295 48.76050
#
# Poissons Ratio (x) = -0.04880 0.11326
# Poissons Ratio (y) = -0.23644 0.15809
# Poissons Ratio (z) = 0.22499 0.06482
#
# Static dielectric constant tensor:
#      x y z
#    x 1.756540 0.000000 -0.004230 
#    y 0.000000 1.685420 0.000000 
#    z -0.004230 0.000000 1.694280 
# 
# From -- ./inp_files/65941.got.cif
#   From: 2010.05.17/outbox.cif.g08.bks.cpg/sg12_33_cif.got.tgz:65941.got - 2010.06.03 13:09:07.
