data_PCOD9202994
_publ_section_title
;
Structure prediction by ZEFSAII (Michael W. Deem and Ramdas Pophale) SiO2 
 PCOD9202994
Probable space group: C 2/M
;
_chemical_formula_sum "Si O2"
_cell_formula_units_Z 44
_cell_length_a 15.891102
_cell_length_b 19.985729
_cell_length_c 9.745615
_cell_angle_alpha 90.000000
_cell_angle_beta 48.499549
_cell_angle_gamma 90.000000
_cell_volume 2318.122477
_symmetry_space_group_name_H-M "C 2/M"
_symmetry_group_IT_number 12
_symmetry_cell_setting 'monoclinic'
loop_
_space_group_symop_operation_xyz
x,y,z
-x,y,-z
-x,-y,-z
x,-y,z
1/2+x,1/2+y,z
1/2-x,1/2+y,-z
1/2-x,1/2-y,-z
1/2+x,1/2-y,z
loop_
_atom_site_type_symbol
_atom_site_label
_atom_site_fract_x
_atom_site_fract_y
_atom_site_fract_z
Si Si1 0.992867 0.235300 0.233254
Si Si2 0.689076 0.725186 0.813973
Si Si3 0.352498 0.140665 0.463548
Si Si4 0.113913 0.500000 0.964232
Si Si5 0.759622 0.875646 0.705749
Si Si6 0.500000 0.352575 0.500000
Si Si7 0.532304 0.000000 0.620572
O O1 0.895636 0.221299 0.225298
O O2 0.958331 0.311514 0.309640
O O3 0.991889 0.193294 0.373244
O O4 0.109434 0.217642 0.031814
O O5 0.788352 0.674720 0.662007
O O6 0.737159 0.799971 0.780480
O O7 0.267518 0.133927 0.426323
O O8 0.396665 0.066649 0.434142
O O9 0.179395 0.432657 0.852518
O O10 0.000000 0.500000 0.000000
O O11 0.074359 0.500000 0.163578
O O12 0.885569 0.893925 0.612648
O O13 0.500000 0.000000 0.500000
#
# Coordination Sequence:
#
# PCOD9202994 Si02
#       7
#     8   8   8   4   8   4   4
#     4  10  21  35  62  93 126 163 214 267 306 376
#     4  10  20  38  65  90 124 175 213 251 322 376
#     4  11  20  43  62  94 132 170 210 259 329 376
#     4  12  24  45  68  93 124 172 214 256 325 389
#     4  11  22  39  66  93 126 169 213 257 315 385
#     4  12  22  37  58  99 130 160 216 268 314 369
#     4  12  28  40  66  95 127 159 211 276 319 373
#
# _framework density 18.980878000000001
#
# number of rings (size 3 to 8) (size 9 to 14) (size 15 to 20)
#    0.000    1.091    5.455    2.182    3.818    2.545 
#    0.000    0.000    0.000    3.273    0.000    0.000 
#    0.000    0.000    0.000    0.000    0.000    0.000 
#
# Total GULP energy -122678.594518 kJ/mol
# GULP energy per Si atom -5576.299751 kJ/mol
# Density = 1.893768 g / cm^3
# Si number density = 18.980878 Si / 1000 Ang^3
#
#
#
# Elastic Constant Matrix: (Units=GPa)
#
#
# Indices 1 2 3 4 5 6 
#
# 1 72.8598 14.9961 34.2941 0.0000 -13.0230 0.0000
# 2 14.9961 112.9641 68.6663 0.0000 -23.1866 0.0000
# 3 34.2941 68.6663 146.6433 0.0000 -13.3079 0.0000
# 4 0.0000 0.0000 0.0000 25.0573 0.0000 -14.6970
# 5 -13.0230 -23.1866 -13.3079 0.0000 25.8316 0.0000
# 6 0.0000 0.0000 0.0000 -14.6970 0.0000 11.3271
#
#
#
# Elastic Compliance Matrix: (Units=1/GPa)
#
#
# Indices 1 2 3 4 5 6 
#
# 1 0.016680 0.001903 -0.004064 0.000000 0.008024 0.000000
# 2 0.001903 0.014681 -0.006333 0.000000 0.010875 0.000000
# 3 -0.004064 -0.006333 0.010525 0.000000 -0.002311 0.000000
# 4 0.000000 0.000000 0.000000 0.167004 0.000000 0.216688
# 5 0.008024 0.010875 -0.002311 0.000000 0.051328 0.000000
# 6 0.000000 0.000000 0.000000 0.216688 0.000000 0.369438
#
#
# Mechanical properties :
#
#
# Convention : Reuss Voigt Hill
#
# Bulk Modulus (GPa) = 40.16133 63.15337 51.65735
# Shear Modulus (GPa) = 7.63424 26.74393 17.18908
#
# Velocity S-wave (km/s) = 2.00769 3.75773 3.01258
# Velocity P-wave (km/s) = 5.15550 7.22300 6.27498
#
# Compressibility (1/GPa) = 0.02489957
#
# Stress axis : x y z
#
# Youngs Moduli (GPa) = 59.95111 68.11411 95.01004
#
# Poissons Ratio (x) = -0.12960 0.38609
# Poissons Ratio (y) = -0.11407 0.60166
# Poissons Ratio (z) = 0.24362 0.43134
#
# Static dielectric constant tensor:
#      x y z
#    x 1.670220 0.000000 -0.010410 
#    y 0.000000 1.612790 0.000000 
#    z -0.010410 0.000000 1.695080 
# 
# From -- ./inp_files/75742.got.cif
#   From: 2010.05.17/outbox.cif.g08.bks.cpg/sg12_38_cif.got.tgz:75742.got - 2010.06.03 13:09:07.
