data_PCOD9202908
_publ_section_title
;
Structure prediction by ZEFSAII (Michael W. Deem and Ramdas Pophale) SiO2 
 PCOD9202908
Probable space group: C 2/M
;
_chemical_formula_sum "Si O2"
_cell_formula_units_Z 58
_cell_length_a 15.761898
_cell_length_b 7.551407
_cell_length_c 20.833795
_cell_angle_alpha 90.000000
_cell_angle_beta 96.728163
_cell_angle_gamma 90.000000
_cell_volume 2462.654711
_symmetry_space_group_name_H-M "C 2/M"
_symmetry_group_IT_number 12
_symmetry_cell_setting 'monoclinic'
loop_
_space_group_symop_operation_xyz
x,y,z
-x,y,-z
-x,-y,-z
x,-y,z
1/2+x,1/2+y,z
1/2-x,1/2+y,-z
1/2-x,1/2-y,-z
1/2+x,1/2-y,z
loop_
_atom_site_type_symbol
_atom_site_label
_atom_site_fract_x
_atom_site_fract_y
_atom_site_fract_z
Si Si1 0.698929 0.212489 0.430967
Si Si2 0.070144 0.286022 0.233252
Si Si3 0.020425 0.713486 0.369980
Si Si4 0.498620 0.197344 0.907264
Si Si5 0.000000 0.000000 0.000000
Si Si6 0.743085 0.284622 0.797198
Si Si7 0.668836 0.710223 0.662068
Si Si8 0.310088 0.287859 0.065463
O O1 0.750000 0.250000 0.500000
O O2 0.600865 0.275743 0.419369
O O3 0.755245 0.280995 0.376109
O O4 0.695054 0.000000 0.424057
O O5 0.073495 0.500000 0.239293
O O6 0.039432 0.220603 0.299235
O O7 0.164724 0.228654 0.221251
O O8 0.010225 0.246322 0.167653
O O9 0.021641 0.500000 0.370290
O O10 0.923561 0.761755 0.377165
O O11 0.460187 0.344715 0.949497
O O12 0.598523 0.196709 0.931978
O O13 0.461197 0.000000 0.911695
O O14 0.742085 0.500000 0.799521
O O15 0.676288 0.224189 0.736357
O O16 0.727812 0.231142 0.869065
O O17 0.681991 0.500000 0.667170
O O18 0.328787 0.500000 0.067675
O O19 0.250000 0.250000 0.000000
#
# Coordination Sequence:
#
# PCOD9202908 Si02
#       8
#     8   8   8   8   2   8   8   8
#     4  10  22  40  63  90 130 171 209 259 316 386
#     4   9  18  36  64  92 120 159 211 260 320 388
#     4  10  20  38  64  92 126 166 211 263 320 381
#     4  11  24  42  64  90 122 166 213 271 336 398
#     4  12  26  44  64  86 128 160 216 270 322 410
#     4   9  18  35  62  89 118 161 209 258 318 382
#     4  10  20  38  64  92 121 163 214 263 318 379
#     4  11  23  39  59  88 126 164 210 270 330 399
#
# _framework density 23.551819999999999
#
# number of rings (size 3 to 8) (size 9 to 14) (size 15 to 20)
#    0.000    1.931    2.069    1.448    1.931    1.655 
#    1.241    3.448    1.517    0.000    0.000    0.000 
#    0.000    0.000    0.000    0.000    0.000    0.000 
#
# Total GULP energy -161840.189576 kJ/mol
# GULP energy per Si atom -5580.696192 kJ/mol
# Density = 2.349821 g / cm^3
# Si number density = 23.551820 Si / 1000 Ang^3
#
#
#
# Elastic Constant Matrix: (Units=GPa)
#
#
# Indices 1 2 3 4 5 6 
#
# 1 87.6491 -12.7952 19.0210 0.0000 27.9157 0.0000
# 2 -12.7952 80.4765 2.4452 0.0000 -3.7552 0.0000
# 3 19.0210 2.4452 110.4869 0.0000 31.3872 0.0000
# 4 0.0000 0.0000 0.0000 19.5578 0.0000 -0.8493
# 5 27.9157 -3.7552 31.3872 0.0000 39.5595 0.0000
# 6 0.0000 0.0000 0.0000 -0.8493 0.0000 13.2427
#
#
#
# Elastic Compliance Matrix: (Units=1/GPa)
#
#
# Indices 1 2 3 4 5 6 
#
# 1 0.015016 0.001872 0.000430 0.000000 -0.010760 0.000000
# 2 0.001872 0.012769 -0.000741 0.000000 0.000479 0.000000
# 3 0.000430 -0.000741 0.011747 0.000000 -0.009694 0.000000
# 4 0.000000 0.000000 0.000000 0.051273 0.000000 0.003288
# 5 -0.010760 0.000479 -0.009694 0.000000 0.040608 0.000000
# 6 0.000000 0.000000 0.000000 0.003288 0.000000 0.075724
#
#
# Mechanical properties :
#
#
# Convention : Reuss Voigt Hill
#
# Bulk Modulus (GPa) = 23.44405 32.88383 28.16394
# Shear Modulus (GPa) = 22.91133 32.46810 27.68972
#
# Velocity S-wave (km/s) = 3.12237 3.71695 3.43256
# Velocity P-wave (km/s) = 4.79320 5.69330 5.26253
#
# Compressibility (1/GPa) = 0.04265475
#
# Stress axis : x y z
#
# Youngs Moduli (GPa) = 66.59540 78.31758 85.12713
#
# Poissons Ratio (x) = -0.14663 -0.03661
# Poissons Ratio (y) = -0.12469 0.06307
# Poissons Ratio (z) = -0.02864 0.05803
#
# Static dielectric constant tensor:
#      x y z
#    x 1.923550 0.000000 -0.020850 
#    y 0.000000 1.923080 0.000000 
#    z -0.020850 0.000000 1.905230 
# 
# From -- ./inp_files/314305.got.cif
#   From: 2010.05.17/outbox.cif.g08.bks.cpg/sg12_158_cif.got.tgz:314305.got - 2010.06.03 13:09:07.
