data_PCOD9202600
_publ_section_title
;
Structure prediction by ZEFSAII (Michael W. Deem and Ramdas Pophale) SiO2 
 PCOD9202600
Probable space group: C 2/M
;
_chemical_formula_sum "Si O2"
_cell_formula_units_Z 64
_cell_length_a 16.013281
_cell_length_b 14.231997
_cell_length_c 19.360747
_cell_angle_alpha 90.000000
_cell_angle_beta 45.878958
_cell_angle_gamma 90.000000
_cell_volume 3167.484440
_symmetry_space_group_name_H-M "C 2/M"
_symmetry_group_IT_number 12
_symmetry_cell_setting 'monoclinic'
loop_
_space_group_symop_operation_xyz
x,y,z
-x,y,-z
-x,-y,-z
x,-y,z
1/2+x,1/2+y,z
1/2-x,1/2+y,-z
1/2-x,1/2-y,-z
1/2+x,1/2-y,z
loop_
_atom_site_type_symbol
_atom_site_label
_atom_site_fract_x
_atom_site_fract_y
_atom_site_fract_z
Si Si1 0.891201 0.213551 0.536745
Si Si2 0.022691 0.272273 0.724497
Si Si3 0.680552 0.765974 0.758532
Si Si4 0.981840 0.109468 0.091454
Si Si5 0.363990 0.108490 0.087373
Si Si6 0.163408 0.893653 0.566889
Si Si7 0.063043 0.605153 0.572337
Si Si8 0.181462 0.174022 0.082987
O O1 0.799744 0.240540 0.647846
O O2 0.831399 0.152755 0.511696
O O3 0.952802 0.303825 0.466088
O O4 0.000000 0.153357 0.500000
O O5 0.086420 0.304690 0.757661
O O6 0.096192 0.183633 0.651353
O O7 0.021592 0.356867 0.670620
O O8 0.899399 0.228678 0.815544
O O9 0.624557 0.668695 0.816214
O O10 0.689194 0.831188 0.820031
O O11 0.092902 0.125313 0.078817
O O12 0.954211 0.000000 0.107865
O O13 0.000000 0.136689 0.000000
O O14 0.280429 0.118327 0.068620
O O15 0.367356 0.000000 0.105689
O O16 0.500000 0.138342 0.000000
O O17 0.297050 0.901041 0.511370
O O18 0.113603 0.000000 0.597543
O O19 0.017076 0.500000 0.582798
O O20 0.250000 0.250000 0.000000
#
# Coordination Sequence:
#
# PCOD9202600 Si02
#       8
#     8   8   8   8   8   8   8   8
#     4  11  23  38  57  87 126 163 205 253 305 374
#     4  10  20  38  62  89 119 155 210 257 306 375
#     4  11  21  38  61  88 123 164 205 250 319 364
#     4  10  22  42  68  96 125 159 209 266 316 376
#     4  11  25  43  63  93 130 166 207 256 314 385
#     4  10  20  38  63  88 120 160 206 257 310 364
#     4  10  20  39  62  85 120 163 207 253 305 363
#     4  11  23  41  68  94 124 166 206 257 322 378
#
# _framework density 20.205307999999999
#
# number of rings (size 3 to 8) (size 9 to 14) (size 15 to 20)
#    0.000    1.500    2.500    3.750    3.500    4.500 
#    0.000    1.250    0.000    0.000    0.000    0.000 
#    0.000    0.000    0.000    0.000    0.000    0.000 
#
# Total GULP energy -178447.602538 kJ/mol
# GULP energy per Si atom -5576.487579 kJ/mol
# Density = 2.015932 g / cm^3
# Si number density = 20.205308 Si / 1000 Ang^3
#
#
#
# Elastic Constant Matrix: (Units=GPa)
#
#
# Indices 1 2 3 4 5 6 
#
# 1 83.5313 7.5379 18.9768 0.0000 4.9876 0.0000
# 2 7.5379 73.5597 -0.8503 0.0000 12.8228 0.0000
# 3 18.9768 -0.8503 78.3101 0.0000 4.0978 0.0000
# 4 0.0000 0.0000 0.0000 8.4175 0.0000 -3.9744
# 5 4.9876 12.8228 4.0978 0.0000 32.7545 0.0000
# 6 0.0000 0.0000 0.0000 -3.9744 0.0000 1.9475
#
#
#
# Elastic Compliance Matrix: (Units=1/GPa)
#
#
# Indices 1 2 3 4 5 6 
#
# 1 0.012839 -0.001156 -0.003065 0.000000 -0.001119 0.000000
# 2 -0.001156 0.014711 0.000737 0.000000 -0.005675 0.000000
# 3 -0.003065 0.000737 0.013600 0.000000 -0.001523 0.000000
# 4 0.000000 0.000000 0.000000 3.262668 0.000000 6.658463
# 5 -0.001119 -0.005675 -0.001523 0.000000 0.033113 0.000000
# 6 0.000000 0.000000 0.000000 6.658463 0.000000 14.102097
#
#
# Mechanical properties :
#
#
# Convention : Reuss Voigt Hill
#
# Bulk Modulus (GPa) = 29.25600 31.85890 30.55745
# Shear Modulus (GPa) = 0.28641 22.60633 11.44637
#
# Velocity S-wave (km/s) = 0.37691 3.34852 2.38271
# Velocity P-wave (km/s) = 3.83409 5.54544 4.76719
#
# Compressibility (1/GPa) = 0.03418102
#
# Stress axis : x y z
#
# Youngs Moduli (GPa) = 77.88724 67.97791 73.52807
#
# Poissons Ratio (x) = 0.07858 0.22538
# Poissons Ratio (y) = 0.09004 -0.05418
# Poissons Ratio (z) = 0.23875 -0.05009
#
# Static dielectric constant tensor:
#      x y z
#    x 1.784420 0.000000 0.023050 
#    y 0.000000 1.852540 0.000000 
#    z 0.023050 0.000000 1.686730 
# 
# From -- ./inp_files/270650.got.cif
#   From: 2010.05.17/outbox.cif.g08.bks.cpg/sg12_136_cif.got.tgz:270650.got - 2010.06.03 13:09:07.
