data_PCOD9202502
_publ_section_title
;
Structure prediction by ZEFSAII (Michael W. Deem and Ramdas Pophale) SiO2 
 PCOD9202502
Probable space group: C 2/M
;
_chemical_formula_sum "Si O2"
_cell_formula_units_Z 64
_cell_length_a 15.861618
_cell_length_b 8.102510
_cell_length_c 34.233319
_cell_angle_alpha 90.000000
_cell_angle_beta 46.109506
_cell_angle_gamma 90.000000
_cell_volume 3170.663766
_symmetry_space_group_name_H-M "C 2/M"
_symmetry_group_IT_number 12
_symmetry_cell_setting 'monoclinic'
loop_
_space_group_symop_operation_xyz
x,y,z
-x,y,-z
-x,-y,-z
x,-y,z
1/2+x,1/2+y,z
1/2-x,1/2+y,-z
1/2-x,1/2-y,-z
1/2+x,1/2-y,z
loop_
_atom_site_type_symbol
_atom_site_label
_atom_site_fract_x
_atom_site_fract_y
_atom_site_fract_z
Si Si1 0.880302 0.701638 0.060336
Si Si2 0.188609 0.197529 0.060116
Si Si3 0.543807 0.194054 0.443599
Si Si4 0.637890 0.690629 0.559763
Si Si5 0.468758 0.299572 0.326489
Si Si6 0.723076 0.803800 0.666539
Si Si7 0.267158 0.298322 0.741014
Si Si8 0.922028 0.698904 0.135278
O O1 0.878379 0.500000 0.061318
O O2 0.768873 0.756760 0.070602
O O3 0.887497 0.757955 0.102871
O O4 0.000000 0.750448 0.000000
O O5 0.055329 0.257336 0.102568
O O6 0.187901 0.000000 0.061704
O O7 0.250000 0.250000 0.000000
O O8 0.500000 0.251781 0.500000
O O9 0.473909 0.286014 0.432077
O O10 0.680411 0.221175 0.392442
O O11 0.515684 0.000000 0.449629
O O12 0.659619 0.500000 0.560317
O O13 0.750000 0.750000 0.500000
O O14 0.604584 0.765204 0.612393
O O15 0.467535 0.500000 0.327175
O O16 0.404195 0.238331 0.308776
O O17 0.602883 0.247318 0.288044
O O18 0.742393 0.745544 0.704612
O O19 0.742068 0.000000 0.659189
O O20 0.265541 0.500000 0.741366
O O21 0.168740 0.241173 0.802879
O O22 0.914577 0.500000 0.136748
#
# Coordination Sequence:
#
# PCOD9202502 Si02
#       8
#     8   8   8   8   8   8   8   8
#     4   9  17  32  55  83 113 150 192 229 276 343
#     4  11  21  35  57  87 120 153 194 242 291 345
#     4  11  23  38  57  85 118 153 195 243 297 358
#     4  11  22  37  58  85 119 152 191 243 298 357
#     4  10  21  40  61  84 115 155 197 241 290 351
#     4  11  22  39  61  88 117 153 197 245 297 354
#     4   9  20  40  62  83 115 157 197 236 291 354
#     4  10  20  38  62  84 113 157 198 237 288 346
#
# _framework density 20.185048999999999
#
# number of rings (size 3 to 8) (size 9 to 14) (size 15 to 20)
#    0.000    1.750    2.500    2.250    0.000    6.000 
#    0.000    5.000    0.000    0.000    0.000    0.000 
#    0.000    0.000    0.000    0.000    0.000    0.000 
#
# Total GULP energy -178765.686064 kJ/mol
# GULP energy per Si atom -5586.427689 kJ/mol
# Density = 2.013911 g / cm^3
# Si number density = 20.185049 Si / 1000 Ang^3
#
#
#
# Elastic Constant Matrix: (Units=GPa)
#
#
# Indices 1 2 3 4 5 6 
#
# 1 176.5443 -2.3230 82.8568 0.0004 -1.7986 0.0006
# 2 -2.3230 12.5450 11.9759 -0.0008 -0.0599 0.0018
# 3 82.8568 11.9759 151.5137 0.0010 -4.1661 0.0009
# 4 0.0004 -0.0008 0.0010 8.0579 -0.0005 -7.0029
# 5 -1.7986 -0.0599 -4.1661 -0.0005 29.1700 -0.0003
# 6 0.0006 0.0018 0.0009 -7.0029 -0.0003 30.3175
#
#
#
# Elastic Compliance Matrix: (Units=1/GPa)
#
#
# Indices 1 2 3 4 5 6 
#
# 1 0.008037 0.006152 -0.004886 0.000001 -0.000190 0.000000
# 2 0.006152 0.090946 -0.010579 0.000006 -0.000945 -0.000004
# 3 -0.004886 -0.010579 0.010139 -0.000002 0.001125 0.000000
# 4 0.000001 0.000006 -0.000002 0.155271 0.000003 0.035866
# 5 -0.000190 -0.000945 0.001125 0.000003 0.034429 0.000001
# 6 0.000000 -0.000004 0.000000 0.035866 0.000001 0.041269
#
#
# Mechanical properties :
#
#
# Convention : Reuss Voigt Hill
#
# Bulk Modulus (GPa) = 11.05023 58.40250 34.72637
# Shear Modulus (GPa) = 12.85734 30.04863 21.45298
#
# Velocity S-wave (km/s) = 2.52657 3.86250 3.26362
# Velocity P-wave (km/s) = 3.74136 6.99201 5.60740
#
# Compressibility (1/GPa) = 0.09049586
#
# Stress axis : x y z
#
# Youngs Moduli (GPa) = 124.43030 10.99549 98.62574
#
# Poissons Ratio (x) = -0.06764 0.48192
# Poissons Ratio (y) = -0.76549 1.04334
# Poissons Ratio (z) = 0.60802 0.11632
#
# Static dielectric constant tensor:
#      x y z
#    x 1.702280 0.000000 0.016940 
#    y 0.000000 1.708190 0.000000 
#    z 0.016940 0.000000 1.690550 
# 
# From -- ./inp_files/375512.got.cif
#   From: 2010.05.17/outbox.cif.g08.bks.cpg/sg12_188_cif.got.tgz:375512.got - 2010.06.03 13:09:07.
