data_PCOD9202945
_publ_section_title
;
Structure prediction by ZEFSAII (Michael W. Deem and Ramdas Pophale) SiO2 
 PCOD9202945
Probable space group: C 2/M
;
_chemical_formula_sum "Si O2"
_cell_formula_units_Z 56
_cell_length_a 23.788836
_cell_length_b 18.803028
_cell_length_c 9.806073
_cell_angle_alpha 90.000000
_cell_angle_beta 137.298433
_cell_angle_gamma 90.000000
_cell_volume 2974.684682
_symmetry_space_group_name_H-M "C 2/M"
_symmetry_group_IT_number 12
_symmetry_cell_setting 'monoclinic'
loop_
_space_group_symop_operation_xyz
x,y,z
-x,y,-z
-x,-y,-z
x,-y,z
1/2+x,1/2+y,z
1/2-x,1/2+y,-z
1/2-x,1/2-y,-z
1/2+x,1/2-y,z
loop_
_atom_site_type_symbol
_atom_site_label
_atom_site_fract_x
_atom_site_fract_y
_atom_site_fract_z
Si Si1 0.440236 0.639939 0.525363
Si Si2 0.343415 0.822730 0.942583
Si Si3 0.270544 0.414470 0.090728
Si Si4 0.302917 0.340756 0.864141
Si Si5 0.958262 0.075820 0.072642
Si Si6 0.022668 0.265307 0.195584
Si Si7 0.697930 0.823296 0.428405
O O1 0.500000 0.647979 0.500000
O O2 0.348948 0.619536 0.312011
O O3 0.475714 0.579458 0.688271
O O4 0.448210 0.708006 0.639467
O O5 0.312234 0.877947 0.998190
O O6 0.302107 0.744171 0.891224
O O7 0.310987 0.852502 0.739511
O O8 0.441534 0.806912 0.104792
O O9 0.271708 0.500000 0.101702
O O10 0.280858 0.386462 0.955690
O O11 0.247732 0.361328 0.636106
O O12 0.396041 0.360295 0.988200
O O13 0.912996 0.000000 0.999939
O O14 0.000000 0.080054 0.000000
O O15 0.105333 0.310453 0.316289
O O16 0.000000 0.239436 0.000000
O O17 0.750000 0.750000 0.500000
#
# Coordination Sequence:
#
# PCOD9202945 Si02
#       7
#     8   8   8   8   8   8   8
#     4  12  22  36  58  90 128 165 204 243 308 378
#     4  10  21  39  64  91 116 159 210 258 309 363
#     4  12  26  41  59  87 132 172 208 255 308 374
#     4  11  21  39  60  87 123 161 208 256 310 367
#     4  11  24  37  56  86 127 167 200 246 311 387
#     4  10  20  38  64  95 124 154 201 265 313 362
#     4   9  20  34  62  93 119 151 198 264 312 362
#
# _framework density 18.825524999999999
#
# number of rings (size 3 to 8) (size 9 to 14) (size 15 to 20)
#    0.000    1.286    2.857    3.429    6.000    1.714 
#    0.000    0.714    0.000    6.429    0.000    0.000 
#    0.000    0.000    0.000    0.000    0.000    0.000 
#
# Total GULP energy -156153.920360 kJ/mol
# GULP energy per Si atom -5576.925727 kJ/mol
# Density = 1.878268 g / cm^3
# Si number density = 18.825525 Si / 1000 Ang^3
#
#
#
# Elastic Constant Matrix: (Units=GPa)
#
#
# Indices 1 2 3 4 5 6 
#
# 1 120.2238 42.2128 28.1799 0.0000 -13.3591 0.0000
# 2 42.2128 64.7624 30.9090 0.0000 -9.9103 0.0000
# 3 28.1799 30.9090 88.2378 0.0000 -13.8775 0.0000
# 4 0.0000 0.0000 0.0000 26.0558 0.0000 -11.2300
# 5 -13.3591 -9.9103 -13.8775 0.0000 33.7155 0.0000
# 6 0.0000 0.0000 0.0000 -11.2300 0.0000 27.1740
#
#
#
# Elastic Compliance Matrix: (Units=1/GPa)
#
#
# Indices 1 2 3 4 5 6 
#
# 1 0.011024 -0.006414 -0.000944 0.000000 0.002094 0.000000
# 2 -0.006414 0.022555 -0.005570 0.000000 0.001796 0.000000
# 3 -0.000944 -0.005570 0.014188 0.000000 0.003828 0.000000
# 4 0.000000 0.000000 0.000000 0.046697 0.000000 0.019298
# 5 0.002094 0.001796 0.003828 0.000000 0.032593 0.000000
# 6 0.000000 0.000000 0.000000 0.019298 0.000000 0.044775
#
#
# Mechanical properties :
#
#
# Convention : Reuss Voigt Hill
#
# Bulk Modulus (GPa) = 45.64244 52.86970 49.25607
# Shear Modulus (GPa) = 24.39110 28.85054 26.62082
#
# Velocity S-wave (km/s) = 3.60340 3.91899 3.76451
# Velocity P-wave (km/s) = 6.45061 6.97302 6.71689
#
# Compressibility (1/GPa) = 0.02190943
#
# Stress axis : x y z
#
# Youngs Moduli (GPa) = 90.71038 44.33565 70.48289
#
# Poissons Ratio (x) = 0.28439 0.06657
# Poissons Ratio (y) = 0.58186 0.39259
# Poissons Ratio (z) = 0.08567 0.24695
#
# Static dielectric constant tensor:
#      x y z
#    x 1.664940 0.000000 0.015380 
#    y 0.000000 1.671730 0.000000 
#    z 0.015380 0.000000 1.687890 
# 
# From -- ./inp_files/89677.got.cif
#   From: 2010.05.17/outbox.cif.g08.bks.cpg/sg12_45_cif.got.tgz:89677.got - 2010.06.03 13:09:07.
