data_PCOD9202416
_publ_section_title
;
Structure prediction by ZEFSAII (Michael W. Deem and Ramdas Pophale) SiO2 
 PCOD9202416
Probable space group: C 2/M
;
_chemical_formula_sum "Si O2"
_cell_formula_units_Z 48
_cell_length_a 25.486876
_cell_length_b 8.575970
_cell_length_c 12.870807
_cell_angle_alpha 90.000000
_cell_angle_beta 70.643327
_cell_angle_gamma 90.000000
_cell_volume 2654.210573
_symmetry_space_group_name_H-M "C 2/M"
_symmetry_group_IT_number 12
_symmetry_cell_setting 'monoclinic'
loop_
_space_group_symop_operation_xyz
x,y,z
-x,y,-z
-x,-y,-z
x,-y,z
1/2+x,1/2+y,z
1/2-x,1/2+y,-z
1/2-x,1/2-y,-z
1/2+x,1/2-y,z
loop_
_atom_site_type_symbol
_atom_site_label
_atom_site_fract_x
_atom_site_fract_y
_atom_site_fract_z
Si Si1 0.687898 0.186926 0.770012
Si Si2 0.189143 0.189506 0.377769
Si Si3 0.309111 0.313064 0.001389
Si Si4 0.993750 0.686447 0.383285
Si Si5 0.377627 0.313185 0.376917
Si Si6 0.889885 0.188528 0.762216
O O1 0.748452 0.241765 0.688353
O O2 0.679771 0.251260 0.890807
O O3 0.642021 0.243220 0.718890
O O4 0.688761 0.000000 0.773717
O O5 0.164562 0.241461 0.504084
O O6 0.147603 0.236558 0.312373
O O7 0.189740 0.000000 0.378075
O O8 0.306514 0.500000 0.004111
O O9 0.250000 0.250000 0.000000
O O10 0.356547 0.266728 0.887754
O O11 0.988221 0.500000 0.384277
O O12 0.938980 0.761750 0.370322
O O13 0.000000 0.735663 0.500000
O O14 0.049544 0.738579 0.288384
O O15 0.375182 0.500000 0.373383
O O16 0.894632 0.000000 0.756659
#
# Coordination Sequence:
#
# PCOD9202416 Si02
#       6
#     8   8   8   8   8   8
#     4  11  22  39  59  86 124 158 194 243 294 346
#     4   9  18  34  58  87 119 154 191 235 291 348
#     4  11  22  38  61  88 119 155 198 241 288 345
#     4  11  23  38  58  88 120 152 193 243 294 345
#     4  11  22  38  60  86 118 159 200 237 289 353
#     4  10  20  38  61  87 116 152 197 241 285 344
#
# _framework density 18.084472999999999
#
# number of rings (size 3 to 8) (size 9 to 14) (size 15 to 20)
#    0.000    1.500    3.333    2.500    0.000    2.000 
#    0.000    3.333    0.000    5.000    0.000    0.000 
#    0.000    0.000    0.000    0.000    0.000    0.000 
#
# Total GULP energy -134119.461604 kJ/mol
# GULP energy per Si atom -5588.310900 kJ/mol
# Density = 1.804331 g / cm^3
# Si number density = 18.084473 Si / 1000 Ang^3
#
#
#
# Elastic Constant Matrix: (Units=GPa)
#
#
# Indices 1 2 3 4 5 6 
#
# 1 82.1985 19.1059 71.7016 0.0000 10.3292 0.0000
# 2 19.1059 39.2208 39.8595 0.0000 1.2868 0.0000
# 3 71.7016 39.8595 163.8180 0.0000 9.5136 0.0000
# 4 0.0000 0.0000 0.0000 27.2258 0.0000 0.7014
# 5 10.3292 1.2868 9.5136 0.0000 36.8229 0.0000
# 6 0.0000 0.0000 0.0000 0.7014 0.0000 24.5835
#
#
#
# Elastic Compliance Matrix: (Units=1/GPa)
#
#
# Indices 1 2 3 4 5 6 
#
# 1 0.020140 -0.001253 -0.008309 0.000000 -0.003459 0.000000
# 2 -0.001253 0.033984 -0.007789 0.000000 0.001176 0.000000
# 3 -0.008309 -0.007789 0.011660 0.000000 -0.000409 0.000000
# 4 0.000000 0.000000 0.000000 0.036757 0.000000 -0.001049
# 5 -0.003459 0.001176 -0.000409 0.000000 0.028192 0.000000
# 6 0.000000 0.000000 0.000000 -0.001049 0.000000 0.040708
#
#
# Mechanical properties :
#
#
# Convention : Reuss Voigt Hill
#
# Bulk Modulus (GPa) = 32.17281 60.73015 46.45148
# Shear Modulus (GPa) = 23.09441 28.03113 25.56277
#
# Velocity S-wave (km/s) = 3.57743 3.94129 3.76376
# Velocity P-wave (km/s) = 5.90703 7.37333 6.68053
#
# Compressibility (1/GPa) = 0.03108214
#
# Stress axis : x y z
#
# Youngs Moduli (GPa) = 49.65329 29.42562 85.76218
#
# Poissons Ratio (x) = 0.03686 0.71262
# Poissons Ratio (y) = 0.06220 0.66799
# Poissons Ratio (z) = 0.41258 0.22919
#
# Static dielectric constant tensor:
#      x y z
#    x 1.586400 0.000000 -0.006760 
#    y 0.000000 1.613290 0.000000 
#    z -0.006760 0.000000 1.608480 
# 
# From -- ./inp_files/172169.got.cif
#   From: 2010.05.17/outbox.cif.g08.bks.cpg/sg12_87_cif.got.tgz:172169.got - 2010.06.03 13:09:07.
