data_PCOD9202393
_publ_section_title
;
Structure prediction by ZEFSAII (Michael W. Deem and Ramdas Pophale) SiO2 
 PCOD9202393
Probable space group: C 2/M
;
_chemical_formula_sum "Si O2"
_cell_formula_units_Z 56
_cell_length_a 19.773838
_cell_length_b 7.580526
_cell_length_c 30.043835
_cell_angle_alpha 90.000000
_cell_angle_beta 147.580897
_cell_angle_gamma 90.000000
_cell_volume 2414.338671
_symmetry_space_group_name_H-M "C 2/M"
_symmetry_group_IT_number 12
_symmetry_cell_setting 'monoclinic'
loop_
_space_group_symop_operation_xyz
x,y,z
-x,y,-z
-x,-y,-z
x,-y,z
1/2+x,1/2+y,z
1/2-x,1/2+y,-z
1/2-x,1/2-y,-z
1/2+x,1/2-y,z
loop_
_atom_site_type_symbol
_atom_site_label
_atom_site_fract_x
_atom_site_fract_y
_atom_site_fract_z
Si Si1 0.699682 0.788293 0.521136
Si Si2 0.052183 0.215047 0.855573
Si Si3 0.744069 0.287079 0.888009
Si Si4 0.495293 0.291526 0.072331
Si Si5 0.218322 0.201361 0.777567
Si Si6 0.421827 0.797504 0.387881
Si Si7 0.708774 0.715909 0.334887
O O1 0.750000 0.750000 0.500000
O O2 0.558338 0.719440 0.452527
O O3 0.785233 0.729819 0.610308
O O4 0.694315 0.000000 0.520387
O O5 0.162133 0.277318 0.884052
O O6 0.061233 0.270779 0.911722
O O7 0.917525 0.270680 0.760696
O O8 0.055710 0.000000 0.857188
O O9 0.737447 0.500000 0.882795
O O10 0.690461 0.223293 0.811006
O O11 0.889147 0.238682 0.976538
O O12 0.520924 0.500000 0.089476
O O13 0.630022 0.203085 0.140695
O O14 0.159235 0.295924 0.702483
O O15 0.172300 0.000000 0.749680
O O16 0.332584 0.721134 0.376843
O O17 0.444865 0.000000 0.414305
O O18 0.709011 0.500000 0.333399
#
# Coordination Sequence:
#
# PCOD9202393 Si02
#       7
#     8   8   8   8   8   8   8
#     4  10  22  37  61  91 120 150 183 230 284 339
#     4   9  18  34  58  84 109 145 192 236 275 329
#     4  10  22  37  55  81 114 150 192 235 283 342
#     4  11  21  37  60  84 111 147 192 240 286 332
#     4  11  23  37  57  84 115 153 190 231 284 341
#     4  10  20  38  61  86 113 147 195 239 274 327
#     4   9  17  35  62  85 110 149 195 233 273 330
#
# _framework density 23.194756000000002
#
# number of rings (size 3 to 8) (size 9 to 14) (size 15 to 20)
#    0.000    2.000    1.429    2.143    2.000    5.143 
#    0.000    1.429    0.000    1.714    0.000    0.000 
#    0.000    0.000    0.000    0.000    0.000    0.000 
#
# Total GULP energy -156525.391461 kJ/mol
# GULP energy per Si atom -5590.192552 kJ/mol
# Density = 2.314196 g / cm^3
# Si number density = 23.194756 Si / 1000 Ang^3
#
#
#
# Elastic Constant Matrix: (Units=GPa)
#
#
# Indices 1 2 3 4 5 6 
#
# 1 78.7800 -5.5003 27.7240 0.0003 -14.1271 0.0005
# 2 -5.5003 55.9065 -3.4887 0.0000 -3.2663 0.0007
# 3 27.7240 -3.4887 82.2612 0.0000 -17.3641 0.0001
# 4 0.0003 0.0000 0.0000 2.2524 0.0000 -0.0014
# 5 -14.1271 -3.2663 -17.3641 0.0000 43.7367 -0.0001
# 6 0.0005 0.0007 0.0001 -0.0014 -0.0001 14.4852
#
#
#
# Elastic Compliance Matrix: (Units=1/GPa)
#
#
# Indices 1 2 3 4 5 6 
#
# 1 0.014870 0.001384 -0.004276 -0.000002 0.003209 0.000000
# 2 0.001384 0.018193 0.000749 0.000000 0.002103 -0.000001
# 3 -0.004276 0.000749 0.014571 0.000001 0.004460 0.000000
# 4 -0.000002 0.000000 0.000001 0.443970 0.000000 0.000042
# 5 0.003209 0.002103 0.004460 0.000000 0.025828 0.000000
# 6 0.000000 -0.000001 0.000000 0.000042 0.000000 0.069036
#
#
# Mechanical properties :
#
#
# Convention : Reuss Voigt Hill
#
# Bulk Modulus (GPa) = 23.06914 28.26864 25.66889
# Shear Modulus (GPa) = 8.26170 25.30903 16.78536
#
# Velocity S-wave (km/s) = 1.88934 3.30684 2.69303
# Velocity P-wave (km/s) = 3.83757 5.17632 4.55638
#
# Compressibility (1/GPa) = 0.04334796
#
# Stress axis : x y z
#
# Youngs Moduli (GPa) = 67.24819 54.96698 68.63175
#
# Poissons Ratio (x) = -0.07606 0.29344
# Poissons Ratio (y) = -0.09305 -0.05141
# Poissons Ratio (z) = 0.28753 -0.04118
#
# Static dielectric constant tensor:
#      x y z
#    x 1.872820 0.000000 -0.003050 
#    y 0.000000 1.897700 0.000000 
#    z -0.003050 0.000000 1.818280 
# 
# From -- ./inp_files/363203.got.cif
#   From: 2010.05.17/outbox.cif.g08.bks.cpg/sg12_182_cif.got.tgz:363203.got - 2010.06.03 13:09:07.
