data_PCOD9202090
_publ_section_title
;
Structure prediction by ZEFSAII (Michael W. Deem and Ramdas Pophale) SiO2 
 PCOD9202090
Probable space group: C 2/M
;
_chemical_formula_sum "Si O2"
_cell_formula_units_Z 42
_cell_length_a 19.170848
_cell_length_b 7.885248
_cell_length_c 15.928821
_cell_angle_alpha 90.000000
_cell_angle_beta 118.945123
_cell_angle_gamma 90.000000
_cell_volume 2107.122971
_symmetry_space_group_name_H-M "C 2/M"
_symmetry_group_IT_number 12
_symmetry_cell_setting 'monoclinic'
loop_
_space_group_symop_operation_xyz
x,y,z
-x,y,-z
-x,-y,-z
x,-y,z
1/2+x,1/2+y,z
1/2-x,1/2+y,-z
1/2-x,1/2-y,-z
1/2+x,1/2-y,z
loop_
_atom_site_type_symbol
_atom_site_label
_atom_site_fract_x
_atom_site_fract_y
_atom_site_fract_z
Si Si1 0.093298 0.311885 0.146316
Si Si2 0.500000 0.500000 0.000000
Si Si3 0.510638 0.304922 0.766404
Si Si4 0.943176 0.795985 0.392650
Si Si5 0.676506 0.806667 0.901791
Si Si6 0.230532 0.693880 0.739956
O O1 0.079687 0.500000 0.101271
O O2 0.187346 0.292910 0.219088
O O3 0.048160 0.297111 0.209040
O O4 0.060100 0.153010 0.072547
O O5 0.483260 0.500000 0.745448
O O6 0.527174 0.236410 0.682266
O O7 0.596791 0.302501 0.862579
O O8 0.850480 0.752762 0.352372
O O9 0.000000 0.733575 0.500000
O O10 0.948341 0.000000 0.392233
O O11 0.705993 0.797625 0.823499
O O12 0.654831 0.000000 0.909238
O O13 0.750000 0.750000 0.000000
O O14 0.246280 0.500000 0.725624
#
# Coordination Sequence:
#
# PCOD9202090 Si02
#       6
#     8   2   8   8   8   8
#     4  12  25  41  63  88 126 169 211 254 305 364
#     4  12  26  44  60  90 124 172 214 250 308 358
#     4  10  20  38  58  84 122 158 198 257 307 363
#     4   9  19  38  66  94 120 157 206 257 319 379
#     4  10  21  33  52  78 111 151 198 246 299 359
#     4  10  21  39  57  84 123 160 202 257 307 366
#
# _framework density 19.932392
#
# number of rings (size 3 to 8) (size 9 to 14) (size 15 to 20)
#    0.000    1.714    1.905    2.000    2.667    3.429 
#    0.000    0.952    0.000    0.000    0.000    0.000 
#    0.000    0.000    0.000    0.000    0.000    0.000 
#
# Total GULP energy -116957.820109 kJ/mol
# GULP energy per Si atom -5569.420005 kJ/mol
# Density = 1.988702 g / cm^3
# Si number density = 19.932392 Si / 1000 Ang^3
#
#
#
# Elastic Constant Matrix: (Units=GPa)
#
#
# Indices 1 2 3 4 5 6 
#
# 1 61.7206 38.5908 26.9898 0.0000 26.3121 0.0000
# 2 38.5908 113.2024 30.8714 0.0000 11.5771 0.0000
# 3 26.9898 30.8714 129.8256 0.0000 31.6875 0.0000
# 4 0.0000 0.0000 0.0000 18.8221 0.0000 8.4792
# 5 26.3121 11.5771 31.6875 0.0000 23.0718 0.0000
# 6 0.0000 0.0000 0.0000 8.4792 0.0000 20.4290
#
#
#
# Elastic Compliance Matrix: (Units=1/GPa)
#
#
# Indices 1 2 3 4 5 6 
#
# 1 0.042016 -0.010815 0.006330 0.000000 -0.051184 0.000000
# 2 -0.010815 0.012326 -0.003285 0.000000 0.010660 0.000000
# 3 0.006330 -0.003285 0.012828 0.000000 -0.023188 0.000000
# 4 0.000000 0.000000 0.000000 0.065348 0.000000 -0.027123
# 5 -0.051184 0.010660 -0.023188 0.000000 0.128214 0.000000
# 6 0.000000 0.000000 0.000000 -0.027123 0.000000 0.060208
#
#
# Mechanical properties :
#
#
# Convention : Reuss Voigt Hill
#
# Bulk Modulus (GPa) = 19.36852 55.29471 37.33161
# Shear Modulus (GPa) = 14.13670 26.35102 20.24386
#
# Velocity S-wave (km/s) = 2.66603 3.63990 3.19035
# Velocity P-wave (km/s) = 4.38351 6.74289 5.68690
#
# Compressibility (1/GPa) = 0.05163018
#
# Stress axis : x y z
#
# Youngs Moduli (GPa) = 23.80024 81.12844 77.95747
#
# Poissons Ratio (x) = 0.87741 -0.49344
# Poissons Ratio (y) = 0.25740 0.25605
# Poissons Ratio (z) = -0.15065 0.26647
#
# Static dielectric constant tensor:
#      x y z
#    x 1.690400 0.000000 -0.007300 
#    y 0.000000 1.736620 0.000000 
#    z -0.007300 0.000000 1.708180 
# 
# From -- ./inp_files/279996.got.cif
#   From: 2010.05.17/outbox.cif.g08.bks.cpg/sg12_140_cif.got.tgz:279996.got - 2010.06.03 13:09:07.
