data_PCOD9202670
_publ_section_title
;
Structure prediction by ZEFSAII (Michael W. Deem and Ramdas Pophale) SiO2 
 PCOD9202670
Probable space group: C 2/M
;
_chemical_formula_sum "Si O2"
_cell_formula_units_Z 36
_cell_length_a 9.452770
_cell_length_b 25.310910
_cell_length_c 14.048941
_cell_angle_alpha 90.000000
_cell_angle_beta 28.737420
_cell_angle_gamma 90.000000
_cell_volume 1616.112245
_symmetry_space_group_name_H-M "C 2/M"
_symmetry_group_IT_number 12
_symmetry_cell_setting 'monoclinic'
loop_
_space_group_symop_operation_xyz
x,y,z
-x,y,-z
-x,-y,-z
x,-y,z
1/2+x,1/2+y,z
1/2-x,1/2+y,-z
1/2-x,1/2-y,-z
1/2+x,1/2-y,z
loop_
_atom_site_type_symbol
_atom_site_label
_atom_site_fract_x
_atom_site_fract_y
_atom_site_fract_z
Si Si1 0.197809 0.903050 0.144005
Si Si2 0.647868 0.000000 0.179050
Si Si3 0.500000 0.766659 0.500000
Si Si4 0.303764 0.122999 0.880928
Si Si5 0.847043 0.822175 0.451322
Si Si6 0.714794 0.500000 0.606311
O O1 0.065644 0.870186 0.308791
O O2 0.967718 0.948674 0.259275
O O3 0.500000 0.927953 0.000000
O O4 0.249609 0.864910 0.023512
O O5 0.622314 0.060032 0.155081
O O6 0.360054 0.000000 0.417360
O O7 0.000000 0.000000 0.000000
O O8 0.737041 0.804510 0.410942
O O9 0.476600 0.725122 0.601425
O O10 0.561791 0.157209 0.678905
O O11 0.000000 0.128972 0.000000
O O12 0.000000 0.500000 0.500000
#
# Coordination Sequence:
#
# PCOD9202670 Si02
#       6
#     8   4   4   8   8   4
#     4  12  26  43  68 104 142 179 224 276 340 405
#     4  10  20  38  63 104 134 168 220 265 318 398
#     4  10  24  44  70  94 130 176 230 298 338 408
#     4  11  22  41  69 100 134 179 229 272 332 421
#     4  11  23  46  67  96 136 175 228 286 354 387
#     4  12  23  42  70 103 144 184 220 273 326 403
#
# _framework density 22.275682
#
# number of rings (size 3 to 8) (size 9 to 14) (size 15 to 20)
#    0.000    0.889    2.222    6.333    1.556    0.000 
#    0.000   23.333    0.000    0.000    0.000    0.000 
#    0.000    0.000    0.000    0.000    0.000    0.000 
#
# Total GULP energy -100257.817112 kJ/mol
# GULP energy per Si atom -5569.878728 kJ/mol
# Density = 2.222498 g / cm^3
# Si number density = 22.275682 Si / 1000 Ang^3
#
#
#
# Elastic Constant Matrix: (Units=GPa)
#
#
# Indices 1 2 3 4 5 6 
#
# 1 89.8226 -4.5860 39.0529 0.0000 -15.2426 0.0000
# 2 -4.5860 78.2570 39.3142 0.0000 -9.4661 0.0000
# 3 39.0529 39.3142 142.2003 -0.0002 2.5912 -0.0001
# 4 0.0000 0.0000 -0.0002 49.6491 0.0000 3.2515
# 5 -15.2426 -9.4661 2.5912 0.0000 33.3818 0.0000
# 6 0.0000 0.0000 -0.0001 3.2515 0.0000 25.3314
#
#
#
# Elastic Compliance Matrix: (Units=1/GPa)
#
#
# Indices 1 2 3 4 5 6 
#
# 1 0.015366 0.004843 -0.005720 0.000000 0.008834 0.000000
# 2 0.004843 0.017084 -0.006190 0.000000 0.007536 0.000000
# 3 -0.005720 -0.006190 0.010409 0.000000 -0.005175 0.000000
# 4 0.000000 0.000000 0.000000 0.020312 0.000000 -0.002607
# 5 0.008834 0.007536 -0.005175 0.000000 0.036529 0.000000
# 6 0.000000 0.000000 0.000000 -0.002607 0.000000 0.039811
#
#
# Mechanical properties :
#
#
# Convention : Reuss Voigt Hill
#
# Bulk Modulus (GPa) = 34.81485 50.87136 42.84310
# Shear Modulus (GPa) = 30.63334 37.43904 34.03619
#
# Velocity S-wave (km/s) = 3.71238 4.10410 3.91314
# Velocity P-wave (km/s) = 5.83427 6.73386 6.30014
#
# Compressibility (1/GPa) = 0.02872338
#
# Stress axis : x y z
#
# Youngs Moduli (GPa) = 65.07794 58.53554 96.07120
#
# Poissons Ratio (x) = -0.28346 0.54951
# Poissons Ratio (y) = -0.31514 0.59472
# Poissons Ratio (z) = 0.37224 0.36236
#
# Static dielectric constant tensor:
#      x y z
#    x 1.895590 0.000000 0.032800 
#    y 0.000000 1.842810 0.000000 
#    z 0.032800 0.000000 1.799800 
# 
# From -- ./inp_files/67489.got.cif
#   From: 2010.05.17/outbox.cif.g08.bks.cpg/sg12_34_cif.got.tgz:67489.got - 2010.06.03 13:09:07.
