data_PCOD9202768
_publ_section_title
;
Structure prediction by ZEFSAII (Michael W. Deem and Ramdas Pophale) SiO2 
 PCOD9202768
Probable space group: C 2/M
;
_chemical_formula_sum "Si O2"
_cell_formula_units_Z 28
_cell_length_a 8.905246
_cell_length_b 34.614760
_cell_length_c 5.081116
_cell_angle_alpha 90.000000
_cell_angle_beta 117.543392
_cell_angle_gamma 90.000000
_cell_volume 1388.749462
_symmetry_space_group_name_H-M "C 2/M"
_symmetry_group_IT_number 12
_symmetry_cell_setting 'monoclinic'
loop_
_space_group_symop_operation_xyz
x,y,z
-x,y,-z
-x,-y,-z
x,-y,z
1/2+x,1/2+y,z
1/2-x,1/2+y,-z
1/2-x,1/2-y,-z
1/2+x,1/2-y,z
loop_
_atom_site_type_symbol
_atom_site_label
_atom_site_fract_x
_atom_site_fract_y
_atom_site_fract_z
Si Si1 0.376675 0.500000 0.150193
Si Si2 0.699045 0.724401 0.203470
Si Si3 0.623073 0.415731 0.849006
Si Si4 0.106749 0.350874 0.825188
O O1 0.500000 0.500000 0.500000
O O2 0.288507 0.458207 0.079789
O O3 0.500000 0.500000 0.000000
O O4 0.750000 0.750000 0.500000
O O5 0.803879 0.685094 0.250216
O O6 0.500000 0.716206 0.000000
O O7 0.750000 0.750000 0.000000
O O8 0.500000 0.412772 0.500000
O O9 0.500000 0.413214 0.000000
O O10 0.755669 0.381313 0.963548
O O11 0.000000 0.369536 0.500000
O O12 0.000000 0.338924 0.000000
#
# Coordination Sequence:
#
# PCOD9202768 Si02
#       4
#     4   8   8   8
#     4   8  16  32  58  88 120 156 204 252 296 352
#     4  12  25  43  65  88 116 153 196 246 302 360
#     4  10  20  38  63  91 121 163 209 252 299 357
#     4  12  25  41  60  90 126 160 200 251 303 361
#
# _framework density 20.162022
#
# number of rings (size 3 to 8) (size 9 to 14) (size 15 to 20)
#    0.000    1.143    0.000    7.714    0.000    2.286 
#    0.000    1.429    0.000    0.000    0.000    0.000 
#    0.000    0.000    0.000    0.000    0.000    0.000 
#
# Total GULP energy -78142.425693 kJ/mol
# GULP energy per Si atom -5581.601835 kJ/mol
# Density = 2.011613 g / cm^3
# Si number density = 20.162022 Si / 1000 Ang^3
#
#
#
# Elastic Constant Matrix: (Units=GPa)
#
#
# Indices 1 2 3 4 5 6 
#
# 1 99.3833 42.2994 52.9624 0.0000 -8.2088 0.0000
# 2 42.2994 152.5742 44.2712 0.0000 6.6098 0.0000
# 3 52.9624 44.2712 150.5649 0.0000 -25.4204 0.0000
# 4 0.0000 0.0000 0.0000 33.5820 0.0000 -1.6868
# 5 -8.2088 6.6098 -25.4204 0.0000 40.9939 0.0000
# 6 0.0000 0.0000 0.0000 -1.6868 0.0000 16.0420
#
#
#
# Elastic Compliance Matrix: (Units=1/GPa)
#
#
# Indices 1 2 3 4 5 6 
#
# 1 0.013241 -0.002610 -0.003766 0.000000 0.000737 0.000000
# 2 -0.002610 0.007969 -0.001932 0.000000 -0.003006 0.000000
# 3 -0.003766 -0.001932 0.009449 0.000000 0.005417 0.000000
# 4 0.000000 0.000000 0.000000 0.029936 0.000000 0.003148
# 5 0.000737 -0.003006 0.005417 0.000000 0.028385 0.000000
# 6 0.000000 0.000000 0.000000 0.003148 0.000000 0.062668
#
#
# Mechanical properties :
#
#
# Convention : Reuss Voigt Hill
#
# Bulk Modulus (GPa) = 71.21456 75.73206 73.47331
# Shear Modulus (GPa) = 28.91113 35.65620 32.28366
#
# Velocity S-wave (km/s) = 3.79085 4.20990 4.00586
# Velocity P-wave (km/s) = 7.38637 7.82779 7.61028
#
# Compressibility (1/GPa) = 0.01404207
#
# Stress axis : x y z
#
# Youngs Moduli (GPa) = 75.52558 125.49023 105.83169
#
# Poissons Ratio (x) = 0.32754 0.39851
# Poissons Ratio (y) = 0.19713 0.20451
# Poissons Ratio (z) = 0.28439 0.24250
#
# Static dielectric constant tensor:
#      x y z
#    x 1.609080 0.000000 -0.059030 
#    y 0.000000 1.737510 0.000000 
#    z -0.059030 0.000000 1.631580 
# 
# From -- ./inp_files/3683.got.cif
#   From: 2010.05.17/outbox.cif.g08.bks.cpg/sg12_2_cif.got.tgz:3683.got - 2010.06.03 13:09:07.
