data_PCOD9202163
_publ_section_title
;
Structure prediction by ZEFSAII (Michael W. Deem and Ramdas Pophale) SiO2 
 PCOD9202163
Probable space group: C 2/M
;
_chemical_formula_sum "Si O2"
_cell_formula_units_Z 50
_cell_length_a 15.939329
_cell_length_b 20.244842
_cell_length_c 7.035838
_cell_angle_alpha 90.000000
_cell_angle_beta 112.390639
_cell_angle_gamma 90.000000
_cell_volume 2099.220392
_symmetry_space_group_name_H-M "C 2/M"
_symmetry_group_IT_number 12
_symmetry_cell_setting 'monoclinic'
loop_
_space_group_symop_operation_xyz
x,y,z
-x,y,-z
-x,-y,-z
x,-y,z
1/2+x,1/2+y,z
1/2-x,1/2+y,-z
1/2-x,1/2-y,-z
1/2+x,1/2-y,z
loop_
_atom_site_type_symbol
_atom_site_label
_atom_site_fract_x
_atom_site_fract_y
_atom_site_fract_z
Si Si1 0.000000 0.500000 0.500000
Si Si2 0.904761 0.627231 0.389749
Si Si3 0.078089 0.074212 0.286221
Si Si4 0.792088 0.815404 0.702818
Si Si5 0.105769 0.424384 0.049131
Si Si6 0.873106 0.924641 0.221643
Si Si7 0.243639 0.678562 0.243621
O O1 0.931137 0.558520 0.515914
O O2 0.811264 0.661203 0.359001
O O3 0.000000 0.667228 0.500000
O O4 0.890099 0.602475 0.161920
O O5 0.136235 0.125629 0.215196
O O6 0.111282 0.073590 0.535166
O O7 0.970900 0.087295 0.211691
O O8 0.091395 0.000000 0.224770
O O9 0.803664 0.748916 0.836392
O O10 0.800634 0.803129 0.481375
O O11 0.137423 0.500000 0.084796
O O12 0.165639 0.374622 0.221861
O O13 0.000000 0.423506 0.000000
O O14 0.804342 0.862688 0.146431
O O15 0.842622 0.000000 0.144896
#
# Coordination Sequence:
#
# PCOD9202163 Si02
#       7
#     2   8   8   8   8   8   8
#     4   8  20  36  58  92 112 144 188 246 302 360
#     4  10  20  38  59  85 117 151 193 245 300 361
#     4   8  15  27  52  77 108 146 193 240 276 337
#     4  10  21  36  54  87 120 156 195 235 305 353
#     4  11  22  38  61  88 117 155 200 250 301 351
#     4   8  14  30  49  79 107 145 194 239 283 326
#     4  10  21  36  54  86 121 154 194 240 291 366
#
# _framework density 23.818366000000001
#
# number of rings (size 3 to 8) (size 9 to 14) (size 15 to 20)
#    0.480    2.080    0.800    2.400    1.120    1.280 
#   11.520    0.000    0.000    0.000    0.000    3.360 
#    0.000    0.000    0.000    0.000    0.000    0.160 
#
# Total GULP energy -139197.146728 kJ/mol
# GULP energy per Si atom -5567.885869 kJ/mol
# Density = 2.376415 g / cm^3
# Si number density = 23.818366 Si / 1000 Ang^3
#
#
#
# Elastic Constant Matrix: (Units=GPa)
#
#
# Indices 1 2 3 4 5 6 
#
# 1 164.1623 115.6136 3.6890 0.0000 -8.0086 0.0000
# 2 115.6136 200.6646 28.3870 0.0000 -6.4866 0.0000
# 3 3.6890 28.3870 65.7960 0.0000 -1.5687 0.0000
# 4 0.0000 0.0000 0.0000 175.7332 0.0000 131.9993
# 5 -8.0086 -6.4866 -1.5687 0.0000 28.7337 0.0000
# 6 0.0000 0.0000 0.0000 131.9993 0.0000 197.6494
#
#
#
# Elastic Compliance Matrix: (Units=1/GPa)
#
#
# Indices 1 2 3 4 5 6 
#
# 1 0.010607 -0.006369 0.002192 0.000000 0.001638 0.000000
# 2 -0.006369 0.009164 -0.003594 0.000000 0.000098 0.000000
# 3 0.002192 -0.003594 0.016643 0.000000 0.000708 0.000000
# 4 0.000000 0.000000 0.000000 0.011418 0.000000 -0.007626
# 5 0.001638 0.000098 0.000708 0.000000 0.035320 0.000000
# 6 0.000000 0.000000 0.000000 -0.007626 0.000000 0.010152
#
#
# Mechanical properties :
#
#
# Convention : Reuss Voigt Hill
#
# Bulk Modulus (GPa) = 47.90906 80.66691 64.28799
# Shear Modulus (GPa) = 43.17596 99.28549 71.23072
#
# Velocity S-wave (km/s) = 4.26222 6.46335 5.47455
# Velocity P-wave (km/s) = 6.66183 9.46789 8.18599
#
# Compressibility (1/GPa) = 0.02087288
#
# Stress axis : x y z
#
# Youngs Moduli (GPa) = 94.27389 109.11800 60.08431
#
# Poissons Ratio (x) = 0.69493 -0.13171
# Poissons Ratio (y) = 0.60039 0.21597
# Poissons Ratio (z) = -0.20665 0.39222
#
# Static dielectric constant tensor:
#      x y z
#    x 1.917600 0.000000 -0.002150 
#    y 0.000000 1.934060 0.000000 
#    z -0.002150 0.000000 2.117060 
# 
# From -- ./inp_files/63539.got.cif
#   From: 2010.05.17/outbox.cif.g08.bks.cpg/sg12_32_cif.got.tgz:63539.got - 2010.06.03 13:09:07.
