data_PCOD9202201
_publ_section_title
;
Structure prediction by ZEFSAII (Michael W. Deem and Ramdas Pophale) SiO2 
 PCOD9202201
Probable space group: C 2/M
;
_chemical_formula_sum "Si O2"
_cell_formula_units_Z 64
_cell_length_a 31.110791
_cell_length_b 22.951180
_cell_length_c 15.503070
_cell_angle_alpha 90.000000
_cell_angle_beta 18.247702
_cell_angle_gamma 90.000000
_cell_volume 3466.191210
_symmetry_space_group_name_H-M "C 2/M"
_symmetry_group_IT_number 12
_symmetry_cell_setting 'monoclinic'
loop_
_space_group_symop_operation_xyz
x,y,z
-x,y,-z
-x,-y,-z
x,-y,z
1/2+x,1/2+y,z
1/2-x,1/2+y,-z
1/2-x,1/2-y,-z
1/2+x,1/2-y,z
loop_
_atom_site_type_symbol
_atom_site_label
_atom_site_fract_x
_atom_site_fract_y
_atom_site_fract_z
Si Si1 0.153259 0.305471 0.683317
Si Si2 0.776473 0.350123 0.268752
Si Si3 0.577107 0.855360 0.644854
Si Si4 0.761558 0.430876 0.798155
Si Si5 0.933941 0.067632 0.411470
Si Si6 0.619235 0.644105 0.339305
Si Si7 0.343520 0.748442 0.620132
Si Si8 0.158133 0.665819 0.224237
O O1 0.250000 0.250000 0.500000
O O2 0.202484 0.343456 0.669962
O O3 0.142398 0.338381 0.612820
O O4 0.000000 0.285859 0.000000
O O5 0.646344 0.390962 0.500920
O O6 0.751203 0.288548 0.265991
O O7 0.919733 0.374201 0.958061
O O8 0.665218 0.902272 0.424416
O O9 0.577908 0.795995 0.586540
O O10 0.784554 0.500000 0.759834
O O11 0.821623 0.395724 0.765428
O O12 0.597049 0.420833 0.106638
O O13 0.865263 0.086887 0.632816
O O14 0.914364 0.000000 0.430156
O O15 0.500000 0.633619 0.500000
O O16 0.576054 0.696285 0.485912
O O17 0.752445 0.663599 0.032738
O O18 0.290070 0.786839 0.803464
O O19 0.000000 0.677143 0.500000
#
# Coordination Sequence:
#
# PCOD9202201 Si02
#       8
#     8   8   8   8   8   8   8   8
#     4  10  20  38  59  93 127 156 190 231 283 354
#     4  10  22  38  62  90 119 157 195 235 291 349
#     4  10  22  38  61  90 122 155 193 239 288 350
#     4  10  23  43  62  83 115 153 199 250 298 345
#     4  10  23  42  62  84 114 153 201 250 295 347
#     4  11  22  37  56  84 114 155 196 240 294 344
#     4  10  22  33  58  82 124 149 190 231 292 347
#     4  11  24  39  55  85 118 155 196 245 293 349
#
# _framework density 18.46407
#
# number of rings (size 3 to 8) (size 9 to 14) (size 15 to 20)
#    0.000    1.750    2.500    0.750    8.750    3.500 
#    0.000    0.625    0.000    3.750    0.000    0.000 
#    0.000    0.000    0.000    0.000    0.000    0.000 
#
# Total GULP energy -178401.224036 kJ/mol
# GULP energy per Si atom -5575.038251 kJ/mol
# Density = 1.842205 g / cm^3
# Si number density = 18.464070 Si / 1000 Ang^3
#
#
#
# Elastic Constant Matrix: (Units=GPa)
#
#
# Indices 1 2 3 4 5 6 
#
# 1 81.0979 22.8766 21.2909 0.0005 5.9904 -0.0008
# 2 22.8766 89.3329 24.7850 0.0004 5.2049 -0.0002
# 3 21.2909 24.7850 47.8431 0.0006 9.8779 -0.0003
# 4 0.0005 0.0004 0.0006 20.8811 0.0004 -3.5419
# 5 5.9904 5.2049 9.8779 0.0004 24.5518 -0.0002
# 6 -0.0008 -0.0002 -0.0003 -3.5419 -0.0002 11.0420
#
#
#
# Elastic Compliance Matrix: (Units=1/GPa)
#
#
# Indices 1 2 3 4 5 6 
#
# 1 0.014352 -0.002222 -0.005028 0.000000 -0.001008 0.000001
# 2 -0.002222 0.013417 -0.005984 0.000000 0.000105 0.000000
# 3 -0.005028 -0.005984 0.028054 0.000000 -0.008792 0.000000
# 4 0.000000 0.000000 0.000000 0.050646 0.000000 0.016246
# 5 -0.001008 0.000105 -0.008792 0.000000 0.044491 0.000001
# 6 0.000001 0.000000 0.000000 0.016246 0.000001 0.095775
#
#
# Mechanical properties :
#
#
# Convention : Reuss Voigt Hill
#
# Bulk Modulus (GPa) = 34.06367 39.57543 36.81955
# Shear Modulus (GPa) = 17.66868 21.24972 19.45920
#
# Velocity S-wave (km/s) = 3.09677 3.39613 3.24990
# Velocity P-wave (km/s) = 5.59244 6.07112 5.83669
#
# Compressibility (1/GPa) = 0.02935679
#
# Stress axis : x y z
#
# Youngs Moduli (GPa) = 69.67725 74.53217 35.64534
#
# Poissons Ratio (x) = 0.16558 0.17922
# Poissons Ratio (y) = 0.15479 0.21329
# Poissons Ratio (z) = 0.35033 0.44598
#
# Static dielectric constant tensor:
#      x y z
#    x 1.651650 0.000000 0.016980 
#    y 0.000000 1.637730 0.000000 
#    z 0.016980 0.000000 1.646110 
# 
# From -- ./inp_files/251893.got.cif
#   From: 2010.05.17/outbox.cif.g08.bks.cpg/sg12_126_cif.got.tgz:251893.got - 2010.06.03 13:09:07.
