data_PCOD9202356
_publ_section_title
;
Structure prediction by ZEFSAII (Michael W. Deem and Ramdas Pophale) SiO2 
 PCOD9202356
Probable space group: C 2/M
;
_chemical_formula_sum "Si O2"
_cell_formula_units_Z 64
_cell_length_a 15.019215
_cell_length_b 8.490229
_cell_length_c 27.494843
_cell_angle_alpha 90.000000
_cell_angle_beta 107.127107
_cell_angle_gamma 90.000000
_cell_volume 3350.568272
_symmetry_space_group_name_H-M "C 2/M"
_symmetry_group_IT_number 12
_symmetry_cell_setting 'monoclinic'
loop_
_space_group_symop_operation_xyz
x,y,z
-x,y,-z
-x,-y,-z
x,-y,z
1/2+x,1/2+y,z
1/2-x,1/2+y,-z
1/2-x,1/2-y,-z
1/2+x,1/2-y,z
loop_
_atom_site_type_symbol
_atom_site_label
_atom_site_fract_x
_atom_site_fract_y
_atom_site_fract_z
Si Si1 0.207036 0.690188 0.421999
Si Si2 0.503969 0.689886 0.880275
Si Si3 0.330256 0.187728 0.249905
Si Si4 0.200485 0.687273 0.309361
Si Si5 0.193508 0.311937 0.944951
Si Si6 0.706497 0.308317 0.137509
Si Si7 0.899575 0.809953 0.504271
Si Si8 0.987742 0.186891 0.766142
O O1 0.203586 0.500000 0.423435
O O2 0.193797 0.740140 0.364236
O O3 0.129020 0.754221 0.446377
O O4 0.310079 0.739572 0.457338
O O5 0.508014 0.500000 0.883434
O O6 0.586775 0.757814 0.925674
O O7 0.400814 0.741906 0.879089
O O8 0.515361 0.736432 0.825412
O O9 0.283516 0.231756 0.293152
O O10 0.260130 0.239131 0.195167
O O11 0.427724 0.271329 0.255597
O O12 0.342820 0.000000 0.248355
O O13 0.215299 0.500000 0.311277
O O14 0.105367 0.728889 0.266409
O O15 0.197213 0.500000 0.945599
O O16 0.240868 0.253953 0.902330
O O17 0.250000 0.250000 0.000000
O O18 0.706470 0.500000 0.137553
O O19 0.000000 0.754895 0.500000
O O20 0.901959 0.000000 0.504520
O O21 0.969900 0.000000 0.764488
#
# Coordination Sequence:
#
# PCOD9202356 Si02
#       8
#     8   8   8   8   8   8   8   8
#     4   9  20  37  55  82 119 152 191 242 290 344
#     4  10  20  38  61  84 109 144 189 236 285 344
#     4  11  21  38  60  86 117 154 197 239 291 355
#     4  11  23  38  56  85 124 161 198 244 294 346
#     4  11  23  40  60  85 115 149 187 237 292 347
#     4   9  19  37  60  82 110 148 187 228 284 346
#     4   9  18  35  60  85 111 151 197 240 291 348
#     4  11  22  37  59  87 116 152 197 244 293 351
#
# _framework density 19.101239
#
# number of rings (size 3 to 8) (size 9 to 14) (size 15 to 20)
#    0.000    1.875    2.500    1.500    0.000    3.250 
#    0.000    5.000    0.000    0.000    0.000    0.000 
#    0.000    0.000    0.000    0.000    0.000    0.000 
#
# Total GULP energy -178705.640577 kJ/mol
# GULP energy per Si atom -5584.551268 kJ/mol
# Density = 1.905776 g / cm^3
# Si number density = 19.101239 Si / 1000 Ang^3
#
#
#
# Elastic Constant Matrix: (Units=GPa)
#
#
# Indices 1 2 3 4 5 6 
#
# 1 85.6235 -0.4619 -10.3596 0.0000 -9.0870 0.0000
# 2 -0.4619 14.3781 11.3088 0.0000 -1.7836 0.0000
# 3 -10.3596 11.3088 48.3009 0.0000 -9.2820 0.0000
# 4 0.0000 0.0000 0.0000 26.9488 0.0000 -0.5781
# 5 -9.0870 -1.7836 -9.2820 0.0000 21.0351 0.0000
# 6 0.0000 0.0000 0.0000 -0.5781 0.0000 28.0553
#
#
#
# Elastic Compliance Matrix: (Units=1/GPa)
#
#
# Indices 1 2 3 4 5 6 
#
# 1 0.013052 -0.002436 0.004822 0.000000 0.007560 0.000000
# 2 -0.002436 0.085761 -0.021205 0.000000 -0.003137 0.000000
# 3 0.004822 -0.021205 0.029237 0.000000 0.013186 0.000000
# 4 0.000000 0.000000 0.000000 0.037124 0.000000 0.000765
# 5 0.007560 -0.003137 0.013186 0.000000 0.056358 0.000000
# 6 0.000000 0.000000 0.000000 0.000765 0.000000 0.035660
#
#
# Mechanical properties :
#
#
# Convention : Reuss Voigt Hill
#
# Bulk Modulus (GPa) = 11.06041 16.58634 13.82337
# Shear Modulus (GPa) = 15.38633 25.06219 20.22426
#
# Velocity S-wave (km/s) = 2.84124 3.62618 3.25744
# Velocity P-wave (km/s) = 4.07020 5.12196 4.62607
#
# Compressibility (1/GPa) = 0.09041259
#
# Stress axis : x y z
#
# Youngs Moduli (GPa) = 76.61872 11.66036 34.20378
#
# Poissons Ratio (x) = 0.02840 -0.16494
# Poissons Ratio (y) = 0.18663 0.72528
# Poissons Ratio (z) = -0.36948 0.24725
#
# Static dielectric constant tensor:
#      x y z
#    x 1.657000 0.000000 -0.008140 
#    y 0.000000 1.654070 0.000000 
#    z -0.008140 0.000000 1.651740 
# 
# From -- ./inp_files/359946.got.cif
#   From: 2010.05.17/outbox.cif.g08.bks.cpg/sg12_180_cif.got.tgz:359946.got - 2010.06.03 13:09:07.
