data_PCOD9202466
_publ_section_title
;
Structure prediction by ZEFSAII (Michael W. Deem and Ramdas Pophale) SiO2 
 PCOD9202466
Probable space group: C 2/M
;
_chemical_formula_sum "Si O2"
_cell_formula_units_Z 56
_cell_length_a 15.244998
_cell_length_b 19.073028
_cell_length_c 11.438257
_cell_angle_alpha 90.000000
_cell_angle_beta 120.546806
_cell_angle_gamma 90.000000
_cell_volume 2864.297199
_symmetry_space_group_name_H-M "C 2/M"
_symmetry_group_IT_number 12
_symmetry_cell_setting 'monoclinic'
loop_
_space_group_symop_operation_xyz
x,y,z
-x,y,-z
-x,-y,-z
x,-y,z
1/2+x,1/2+y,z
1/2-x,1/2+y,-z
1/2-x,1/2-y,-z
1/2+x,1/2-y,z
loop_
_atom_site_type_symbol
_atom_site_label
_atom_site_fract_x
_atom_site_fract_y
_atom_site_fract_z
Si Si1 0.759084 0.579618 0.619095
Si Si2 0.379798 0.849888 0.903917
Si Si3 0.750509 0.078221 0.995648
Si Si4 0.020797 0.771936 0.646241
Si Si5 0.584586 0.426628 0.696261
Si Si6 0.254547 0.788607 0.175772
Si Si7 0.183843 0.193315 0.388773
O O1 0.792328 0.500000 0.612078
O O2 0.844424 0.623139 0.750849
O O3 0.669818 0.573497 0.654280
O O4 0.710105 0.622333 0.478194
O O5 0.319317 0.778145 0.894951
O O6 0.500000 0.841249 0.000000
O O7 0.337759 0.906413 0.969087
O O8 0.755401 0.143802 0.912517
O O9 0.736867 0.000000 0.935044
O O10 0.854586 0.077357 0.140955
O O11 0.026940 0.855676 0.640306
O O12 0.129680 0.740484 0.755137
O O13 0.000000 0.744500 0.500000
O O14 0.928149 0.770795 0.675082
O O15 0.525625 0.500000 0.652155
O O16 0.223848 0.812222 0.285062
O O17 0.250000 0.250000 0.500000
#
# Coordination Sequence:
#
# PCOD9202466 Si02
#       7
#     8   8   8   8   8   8   8
#     4  10  20  38  61  91 126 159 207 264 314 373
#     4  11  22  39  68  99 124 163 218 274 313 369
#     4  10  23  43  63  88 131 170 209 263 319 381
#     4  12  21  38  64  91 125 164 206 266 316 366
#     4   9  18  36  61  89 120 157 204 255 311 373
#     4  12  25  41  64  96 128 167 216 256 323 389
#     4  12  23  40  60  93 129 164 210 260 317 378
#
# _framework density 19.551043
#
# number of rings (size 3 to 8) (size 9 to 14) (size 15 to 20)
#    0.000    1.143    7.143    1.714    2.000    2.571 
#    0.000    0.000    0.000    2.571    0.000    0.000 
#    0.000    0.000    0.000    0.000    0.000    0.000 
#
# Total GULP energy -156105.023331 kJ/mol
# GULP energy per Si atom -5575.179405 kJ/mol
# Density = 1.950654 g / cm^3
# Si number density = 19.551043 Si / 1000 Ang^3
#
#
#
# Elastic Constant Matrix: (Units=GPa)
#
#
# Indices 1 2 3 4 5 6 
#
# 1 90.2464 27.7199 45.4186 0.0000 7.2312 0.0000
# 2 27.7199 126.2045 37.2346 0.0000 -5.6189 0.0000
# 3 45.4186 37.2346 73.2637 0.0000 -8.5387 0.0000
# 4 0.0000 0.0000 0.0000 11.6614 0.0000 1.2195
# 5 7.2312 -5.6189 -8.5387 0.0000 33.4365 0.0000
# 6 0.0000 0.0000 0.0000 1.2195 0.0000 14.2194
#
#
#
# Elastic Compliance Matrix: (Units=1/GPa)
#
#
# Indices 1 2 3 4 5 6 
#
# 1 0.017541 -0.000839 -0.011241 0.000000 -0.006805 0.000000
# 2 -0.000839 0.009366 -0.004159 0.000000 0.000693 0.000000
# 3 -0.011241 -0.004159 0.023637 0.000000 0.007768 0.000000
# 4 0.000000 0.000000 0.000000 0.086529 0.000000 -0.007421
# 5 -0.006805 0.000693 0.007768 0.000000 0.033479 0.000000
# 6 0.000000 0.000000 0.000000 -0.007421 0.000000 0.070963
#
#
# Mechanical properties :
#
#
# Convention : Reuss Voigt Hill
#
# Bulk Modulus (GPa) = 55.35317 56.71785 56.03551
# Shear Modulus (GPa) = 17.85615 23.81955 20.83785
#
# Velocity S-wave (km/s) = 3.02538 3.49424 3.26823
# Velocity P-wave (km/s) = 6.37005 6.73444 6.55478
#
# Compressibility (1/GPa) = 0.01806581
#
# Stress axis : x y z
#
# Youngs Moduli (GPa) = 57.00900 106.77065 42.30669
#
# Poissons Ratio (x) = 0.08961 0.47556
# Poissons Ratio (y) = 0.04785 0.17595
# Poissons Ratio (z) = 0.64083 0.44404
#
# Static dielectric constant tensor:
#      x y z
#    x 1.696220 0.000000 0.021360 
#    y 0.000000 1.731950 0.000000 
#    z 0.021360 0.000000 1.711370 
# 
# From -- ./inp_files/146243.got.cif
#   From: 2010.05.17/outbox.cif.g08.bks.cpg/sg12_74_cif.got.tgz:146243.got - 2010.06.03 13:09:07.
