data_PCOD9202127
_publ_section_title
;
Structure prediction by ZEFSAII (Michael W. Deem and Ramdas Pophale) SiO2 
 PCOD9202127
Probable space group: C 2/M
;
_chemical_formula_sum "Si O2"
_cell_formula_units_Z 44
_cell_length_a 32.008649
_cell_length_b 10.010942
_cell_length_c 25.298893
_cell_angle_alpha 90.000000
_cell_angle_beta 162.453637
_cell_angle_gamma 90.000000
_cell_volume 2443.985478
_symmetry_space_group_name_H-M "C 2/M"
_symmetry_group_IT_number 12
_symmetry_cell_setting 'monoclinic'
loop_
_space_group_symop_operation_xyz
x,y,z
-x,y,-z
-x,-y,-z
x,-y,z
1/2+x,1/2+y,z
1/2-x,1/2+y,-z
1/2-x,1/2-y,-z
1/2+x,1/2-y,z
loop_
_atom_site_type_symbol
_atom_site_label
_atom_site_fract_x
_atom_site_fract_y
_atom_site_fract_z
Si Si1 0.435094 0.727064 0.120945
Si Si2 0.854006 0.000000 0.612277
Si Si3 0.063620 0.500000 0.315971
Si Si4 0.455067 0.500000 0.613786
Si Si5 0.061800 0.226659 0.489930
Si Si6 0.782518 0.159326 0.217926
Si Si7 0.534316 0.000000 0.396171
Si Si8 0.788208 0.000000 0.011599
O O1 0.568189 0.632445 0.272337
O O2 0.338118 0.632237 0.040303
O O3 0.478376 0.864292 0.201791
O O4 0.349386 0.766905 0.965774
O O5 0.694918 0.000000 0.435493
O O6 0.883449 0.000000 0.584689
O O7 0.116326 0.500000 0.440015
O O8 0.417220 0.626799 0.533325
O O9 0.620926 0.500000 0.825563
O O10 0.174567 0.205914 0.671851
O O11 0.914800 0.191634 0.340188
O O12 0.058837 0.372567 0.461988
O O13 0.762129 0.000000 0.193355
O O14 0.375456 0.000000 0.183881
#
# Coordination Sequence:
#
# PCOD9202127 Si02
#       8
#     8   4   4   4   8   8   4   4
#     4  10  21  38  62  84 117 153 189 242 285 345
#     4  10  24  43  59  84 114 156 197 245 292 326
#     4  12  24  39  62  86 113 158 201 236 286 342
#     4  10  20  38  59  79 119 158 184 244 283 338
#     4  11  22  35  57  88 125 154 185 229 287 354
#     4  11  20  37  60  88 120 153 191 227 285 359
#     4  12  24  33  56  91 122 153 185 241 288 350
#     4  10  22  35  53  91 124 148 184 230 303 342
#
# _framework density 18.00338
#
# number of rings (size 3 to 8) (size 9 to 14) (size 15 to 20)
#    0.000    1.455    4.545    3.273    2.545    4.364 
#    0.000    0.000    0.000    6.545    0.000    0.000 
#    0.000    0.000    0.000    0.000    0.000    0.000 
#
# Total GULP energy -122859.653434 kJ/mol
# GULP energy per Si atom -5584.529702 kJ/mol
# Density = 1.796240 g / cm^3
# Si number density = 18.003380 Si / 1000 Ang^3
#
#
#
# Elastic Constant Matrix: (Units=GPa)
#
#
# Indices 1 2 3 4 5 6 
#
# 1 97.3352 55.0151 54.5198 0.0003 -26.9146 0.0000
# 2 55.0151 171.2657 55.0788 0.0001 -21.8758 0.0001
# 3 54.5198 55.0788 66.5907 0.0003 -31.2413 0.0001
# 4 0.0003 0.0001 0.0003 44.6019 0.0003 -17.7670
# 5 -26.9146 -21.8758 -31.2413 0.0003 30.6774 0.0000
# 6 0.0000 0.0001 0.0001 -17.7670 0.0000 10.7529
#
#
#
# Elastic Compliance Matrix: (Units=1/GPa)
#
#
# Indices 1 2 3 4 5 6 
#
# 1 0.019326 -0.001588 -0.013568 0.000000 0.002005 0.000000
# 2 -0.001588 0.008148 -0.006447 0.000000 -0.002149 0.000000
# 3 -0.013568 -0.006447 0.045415 -0.000001 0.029748 -0.000003
# 4 0.000000 0.000000 -0.000001 0.065592 -0.000002 0.108377
# 5 0.002005 -0.002149 0.029748 -0.000002 0.063119 -0.000003
# 6 0.000000 0.000000 -0.000003 0.108377 -0.000003 0.272069
#
#
# Mechanical properties :
#
#
# Convention : Reuss Voigt Hill
#
# Bulk Modulus (GPa) = 33.69110 73.82432 53.75771
# Shear Modulus (GPa) = 9.49182 28.57831 19.03507
#
# Velocity S-wave (km/s) = 2.29863 3.98852 3.25515
# Velocity P-wave (km/s) = 5.07930 7.89341 6.63721
#
# Compressibility (1/GPa) = 0.02968143
#
# Stress axis : x y z
#
# Youngs Moduli (GPa) = 51.74423 122.72918 22.01929
#
# Poissons Ratio (x) = 0.19494 0.29876
# Poissons Ratio (y) = 0.08219 0.14196
# Poissons Ratio (z) = 0.70207 0.79125
#
# Static dielectric constant tensor:
#      x y z
#    x 1.600650 0.000000 -0.000320 
#    y 0.000000 1.586790 0.000000 
#    z -0.000320 0.000000 1.608810 
# 
# From -- ./inp_files/186283.got.cif
#   From: 2010.05.17/outbox.cif.g08.bks.cpg/sg12_94_cif.got.tgz:186283.got - 2010.06.03 13:09:07.
