data_PCOD9202159
_publ_section_title
;
Structure prediction by ZEFSAII (Michael W. Deem and Ramdas Pophale) SiO2 
 PCOD9202159
Probable space group: C 2/M
;
_chemical_formula_sum "Si O2"
_cell_formula_units_Z 64
_cell_length_a 11.060398
_cell_length_b 20.027887
_cell_length_c 19.058267
_cell_angle_alpha 90.000000
_cell_angle_beta 50.695291
_cell_angle_gamma 90.000000
_cell_volume 3266.715924
_symmetry_space_group_name_H-M "C 2/M"
_symmetry_group_IT_number 12
_symmetry_cell_setting 'monoclinic'
loop_
_space_group_symop_operation_xyz
x,y,z
-x,y,-z
-x,-y,-z
x,-y,z
1/2+x,1/2+y,z
1/2-x,1/2+y,-z
1/2-x,1/2-y,-z
1/2+x,1/2-y,z
loop_
_atom_site_type_symbol
_atom_site_label
_atom_site_fract_x
_atom_site_fract_y
_atom_site_fract_z
Si Si1 0.680017 0.195902 0.441030
Si Si2 0.134959 0.926751 0.250185
Si Si3 0.240234 0.672283 0.259488
Si Si4 0.872477 0.330726 0.386237
Si Si5 0.986285 0.078187 0.860742
Si Si6 0.366874 0.577645 0.597139
Si Si7 0.706942 0.178226 0.987491
Si Si8 0.868602 0.689296 0.149508
O O1 0.500000 0.221137 0.500000
O O2 0.728980 0.164652 0.348397
O O3 0.799611 0.256913 0.405792
O O4 0.668714 0.152384 0.516684
O O5 0.039486 0.918199 0.214346
O O6 0.054817 0.923880 0.354709
O O7 0.258716 0.869241 0.214690
O O8 0.211198 0.000000 0.216184
O O9 0.349093 0.614586 0.186794
O O10 0.323989 0.742038 0.205371
O O11 0.058283 0.671658 0.304531
O O12 0.786138 0.379584 0.363958
O O13 0.842634 0.122740 0.943675
O O14 0.981021 0.000000 0.882941
O O15 0.500000 0.607548 0.500000
O O16 0.334924 0.500000 0.591112
O O17 0.671271 0.191892 0.918705
O O18 0.750000 0.250000 0.000000
O O19 0.546166 0.163956 0.086997
#
# Coordination Sequence:
#
# PCOD9202159 Si02
#       8
#     8   8   8   8   8   8   8   8
#     4   9  20  36  53  83 117 150 197 246 295 339
#     4   9  20  37  58  86 114 150 194 242 297 342
#     4  11  22  35  57  88 117 158 196 237 295 354
#     4  10  21  34  55  82 117 157 193 245 294 347
#     4  10  22  39  61  87 121 158 195 241 293 357
#     4  10  21  36  56  81 112 152 200 248 291 340
#     4  10  20  38  59  85 114 146 189 239 294 353
#     4  10  21  34  60  88 112 143 188 248 289 352
#
# _framework density 19.591540999999999
#
# number of rings (size 3 to 8) (size 9 to 14) (size 15 to 20)
#    0.000    2.125    1.250    1.125    5.250    3.000 
#    0.000    2.500    0.000    3.750    0.000    0.000 
#    0.000    0.000    0.000    0.000    0.000    0.000 
#
# Total GULP energy -178166.443101 kJ/mol
# GULP energy per Si atom -5567.701347 kJ/mol
# Density = 1.954695 g / cm^3
# Si number density = 19.591541 Si / 1000 Ang^3
#
#
#
# Elastic Constant Matrix: (Units=GPa)
#
#
# Indices 1 2 3 4 5 6 
#
# 1 39.6928 15.0645 16.6154 0.0000 -22.3247 0.0000
# 2 15.0645 92.8000 33.9461 0.0000 -24.5486 0.0000
# 3 16.6154 33.9461 75.7445 0.0000 -27.8903 0.0000
# 4 0.0000 0.0000 0.0000 19.5944 0.0000 0.6116
# 5 -22.3247 -24.5486 -27.8903 0.0000 32.2958 0.0000
# 6 0.0000 0.0000 0.0000 0.6116 0.0000 17.6357
#
#
#
# Elastic Compliance Matrix: (Units=1/GPa)
#
#
# Indices 1 2 3 4 5 6 
#
# 1 0.041491 0.000729 0.001960 0.000000 0.030928 0.000000
# 2 0.000729 0.014098 -0.003441 0.000000 0.008249 0.000000
# 3 0.001960 -0.003441 0.020308 0.000000 0.016277 0.000000
# 4 0.000000 0.000000 0.000000 0.051090 0.000000 -0.001772
# 5 0.030928 0.008249 0.016277 0.000000 0.072669 0.000000
# 6 0.000000 0.000000 0.000000 -0.001772 0.000000 0.056765
#
#
# Mechanical properties :
#
#
# Convention : Reuss Voigt Hill
#
# Bulk Modulus (GPa) = 13.44207 37.72103 25.58155
# Shear Modulus (GPa) = 17.68510 23.41259 20.54885
#
# Velocity S-wave (km/s) = 3.00774 3.46068 3.24213
# Velocity P-wave (km/s) = 4.35179 5.93834 5.20586
#
# Compressibility (1/GPa) = 0.07439332
#
# Stress axis : x y z
#
# Youngs Moduli (GPa) = 24.10142 70.93068 49.24188
#
# Poissons Ratio (x) = -0.05172 -0.09650
# Poissons Ratio (y) = -0.01757 0.16944
# Poissons Ratio (z) = -0.04723 0.24407
#
# Static dielectric constant tensor:
#      x y z
#    x 1.691410 0.000000 0.070060 
#    y 0.000000 2.081620 0.000000 
#    z 0.070060 0.000000 1.813580 
# 
# From -- ./inp_files/306766.got.cif
#   From: 2010.05.17/outbox.cif.g08.bks.cpg/sg12_154_cif.got.tgz:306766.got - 2010.06.03 13:09:07.
