data_PCOD9202267
_publ_section_title
;
Structure prediction by ZEFSAII (Michael W. Deem and Ramdas Pophale) SiO2 
 PCOD9202267
Probable space group: C 2/M
;
_chemical_formula_sum "Si O2"
_cell_formula_units_Z 56
_cell_length_a 14.937667
_cell_length_b 21.834526
_cell_length_c 16.755413
_cell_angle_alpha 90.000000
_cell_angle_beta 32.412282
_cell_angle_gamma 90.000000
_cell_volume 2929.225240
_symmetry_space_group_name_H-M "C 2/M"
_symmetry_group_IT_number 12
_symmetry_cell_setting 'monoclinic'
loop_
_space_group_symop_operation_xyz
x,y,z
-x,y,-z
-x,-y,-z
x,-y,z
1/2+x,1/2+y,z
1/2-x,1/2+y,-z
1/2-x,1/2-y,-z
1/2+x,1/2-y,z
loop_
_atom_site_type_symbol
_atom_site_label
_atom_site_fract_x
_atom_site_fract_y
_atom_site_fract_z
Si Si1 0.893799 0.334872 0.655040
Si Si2 0.073723 0.705370 0.676415
Si Si3 0.078436 0.332181 0.052765
Si Si4 0.145002 0.072930 0.125885
Si Si5 0.574949 0.663424 0.613204
Si Si6 0.826693 0.069082 0.083366
Si Si7 0.753553 0.208738 0.775173
O O1 0.788835 0.385735 0.779687
O O2 0.782329 0.275369 0.715824
O O3 0.000000 0.356827 0.500000
O O4 0.018190 0.310094 0.629032
O O5 0.243504 0.667321 0.563344
O O6 0.088412 0.778719 0.663889
O O7 0.938724 0.686996 0.843201
O O8 0.889729 0.330255 0.160581
O O9 0.186846 0.394103 0.967515
O O10 0.179810 0.284644 0.920769
O O11 0.990324 0.105462 0.287736
O O12 0.145071 0.000000 0.137630
O O13 0.142321 0.085611 0.032663
O O14 0.431661 0.676945 0.655240
O O15 0.755495 0.000000 0.136485
O O16 0.000000 0.068074 0.000000
#
# Coordination Sequence:
#
# PCOD9202267 Si02
#       7
#     8   8   8   8   8   8   8
#     4  11  24  37  55  89 123 156 195 244 305 356
#     4  10  21  36  59  86 118 159 188 248 302 359
#     4  10  20  38  60  86 117 153 200 243 303 345
#     4  10  21  40  62  85 119 161 207 245 285 357
#     4   9  21  36  55  86 121 152 196 238 308 352
#     4  10  23  40  59  84 115 161 207 246 288 350
#     4   9  22  35  56  90 117 152 188 253 301 356
#
# _framework density 19.117683
#
# number of rings (size 3 to 8) (size 9 to 14) (size 15 to 20)
#    0.000    2.143    1.429    0.000   12.000    2.000 
#    0.000    7.143    0.000    0.000    0.000   10.000 
#    0.000    0.000    0.000    0.000    0.000    0.000 
#
# Total GULP energy -156053.290389 kJ/mol
# GULP energy per Si atom -5573.331800 kJ/mol
# Density = 1.907417 g / cm^3
# Si number density = 19.117683 Si / 1000 Ang^3
#
#
#
# Elastic Constant Matrix: (Units=GPa)
#
#
# Indices 1 2 3 4 5 6 
#
# 1 60.0963 10.9875 13.9546 -0.0069 -8.7371 -0.0085
# 2 10.9875 90.3416 40.8109 -0.0085 3.8548 0.0005
# 3 13.9546 40.8109 70.5787 -0.0152 4.3569 -0.0154
# 4 -0.0069 -0.0085 -0.0152 11.4563 0.0098 -7.5610
# 5 -8.7371 3.8548 4.3569 0.0098 37.4488 0.0072
# 6 -0.0085 0.0005 -0.0154 -7.5610 0.0072 9.9594
#
#
#
# Elastic Compliance Matrix: (Units=1/GPa)
#
#
# Indices 1 2 3 4 5 6 
#
# 1 0.018282 -0.000894 -0.003391 0.000013 0.004752 0.000017
# 2 -0.000894 0.015037 -0.008471 -0.000019 -0.000771 -0.000028
# 3 -0.003391 -0.008471 0.019875 0.000080 -0.002231 0.000090
# 4 0.000013 -0.000019 0.000080 0.174945 -0.000076 0.132815
# 5 0.004752 -0.000771 -0.002231 -0.000076 0.028151 -0.000077
# 6 0.000017 -0.000028 0.000090 0.132815 -0.000077 0.201238
#
#
# Mechanical properties :
#
#
# Convention : Reuss Voigt Hill
#
# Bulk Modulus (GPa) = 36.12442 39.16919 37.64681
# Shear Modulus (GPa) = 10.15711 22.12382 16.14046
#
# Velocity S-wave (km/s) = 2.30748 3.40552 2.90878
# Velocity P-wave (km/s) = 5.10256 5.99970 5.56922
#
# Compressibility (1/GPa) = 0.02768211
#
# Stress axis : x y z
#
# Youngs Moduli (GPa) = 54.69959 66.50126 50.31513
#
# Poissons Ratio (x) = 0.05949 0.17060
# Poissons Ratio (y) = 0.04893 0.42620
# Poissons Ratio (z) = 0.18547 0.56331
#
# Static dielectric constant tensor:
#      x y z
#    x 1.720210 0.000000 -0.019530 
#    y 0.000000 1.669190 0.000010 
#    z -0.019530 0.000010 1.691970 
# 
# From -- ./inp_files/272355.got.cif
#   From: 2010.05.17/outbox.cif.g08.bks.cpg/sg12_137_cif.got.tgz:272355.got - 2010.06.03 13:09:07.
