data_PCOD9202949
_publ_section_title
;
Structure prediction by ZEFSAII (Michael W. Deem and Ramdas Pophale) SiO2 
 PCOD9202949
Probable space group: C 2/M
;
_chemical_formula_sum "Si O2"
_cell_formula_units_Z 56
_cell_length_a 9.403070
_cell_length_b 28.637095
_cell_length_c 15.079902
_cell_angle_alpha 90.000000
_cell_angle_beta 136.004996
_cell_angle_gamma 90.000000
_cell_volume 2820.520132
_symmetry_space_group_name_H-M "C 2/M"
_symmetry_group_IT_number 12
_symmetry_cell_setting 'monoclinic'
loop_
_space_group_symop_operation_xyz
x,y,z
-x,y,-z
-x,-y,-z
x,-y,z
1/2+x,1/2+y,z
1/2-x,1/2+y,-z
1/2-x,1/2-y,-z
1/2+x,1/2-y,z
loop_
_atom_site_type_symbol
_atom_site_label
_atom_site_fract_x
_atom_site_fract_y
_atom_site_fract_z
Si Si1 0.783943 0.945136 0.450894
Si Si2 0.344435 0.824008 0.009447
Si Si3 0.204815 0.945888 0.337295
Si Si4 0.448614 0.777605 0.377809
Si Si5 0.058213 0.620420 0.677143
Si Si6 0.498320 0.747741 0.208273
Si Si7 0.492829 0.600717 0.091612
O O1 0.826465 0.935640 0.574018
O O2 0.610187 0.908171 0.342720
O O3 0.000000 0.939022 0.500000
O O4 0.720988 0.000000 0.412801
O O5 0.193015 0.785147 0.899390
O O6 0.198509 0.865538 0.977747
O O7 0.500000 0.837529 0.000000
O O8 0.455908 0.797681 0.141812
O O9 0.383824 0.916182 0.373365
O O10 0.017262 0.931691 0.188819
O O11 0.251234 0.000000 0.348861
O O12 0.519722 0.830992 0.396396
O O13 0.529342 0.750884 0.327881
O O14 0.203510 0.773801 0.260384
O O15 0.211482 0.871457 0.182673
O O16 0.000000 0.738988 0.500000
O O17 0.500000 0.574956 0.000000
#
# Coordination Sequence:
#
# PCOD9202949 Si02
#       7
#     8   8   8   8   8   8   8
#     4  10  20  38  64  95 127 162 201 242 294 363
#     4  11  22  40  66  84 116 154 214 266 296 361
#     4   9  19  37  62  88 123 159 198 242 294 361
#     4  12  23  40  60  87 130 157 200 255 317 374
#     4  10  21  37  62  92 120 160 204 250 297 362
#     4  11  23  40  60  90 111 163 208 253 316 358
#     4  10  22  39  60  90 119 155 205 254 303 357
#
# _framework density 19.854493000000002
#
# number of rings (size 3 to 8) (size 9 to 14) (size 15 to 20)
#    0.857    0.714    2.857    3.000    0.000    1.429 
#    5.143    2.143    0.000    0.429    0.000    0.000 
#    0.000    0.000    0.000    0.000    0.000    0.000 
#
# Total GULP energy -155927.298619 kJ/mol
# GULP energy per Si atom -5568.832094 kJ/mol
# Density = 1.980930 g / cm^3
# Si number density = 19.854493 Si / 1000 Ang^3
#
#
#
# Elastic Constant Matrix: (Units=GPa)
#
#
# Indices 1 2 3 4 5 6 
#
# 1 115.4326 25.5495 12.0069 0.0000 10.8355 0.0000
# 2 25.5495 44.3984 -6.4229 0.0000 9.6955 0.0000
# 3 12.0069 -6.4229 39.2655 0.0000 2.9380 0.0000
# 4 0.0000 0.0000 0.0000 54.0831 0.0000 2.3762
# 5 10.8355 9.6955 2.9380 0.0000 31.6207 0.0000
# 6 0.0000 0.0000 0.0000 2.3762 0.0000 29.4805
#
#
#
# Elastic Compliance Matrix: (Units=1/GPa)
#
#
# Indices 1 2 3 4 5 6 
#
# 1 0.010652 -0.006461 -0.004219 0.000000 -0.001277 0.000000
# 2 -0.006461 0.028888 0.007249 0.000000 -0.007317 0.000000
# 3 -0.004219 0.007249 0.028198 0.000000 -0.003397 0.000000
# 4 0.000000 0.000000 0.000000 0.018556 0.000000 -0.001496
# 5 -0.001277 -0.007317 -0.003397 0.000000 0.034622 0.000000
# 6 0.000000 0.000000 0.000000 -0.001496 0.000000 0.034041
#
#
# Mechanical properties :
#
#
# Convention : Reuss Voigt Hill
#
# Bulk Modulus (GPa) = 16.42703 29.04039 22.73371
# Shear Modulus (GPa) = 27.45597 34.23439 30.84518
#
# Velocity S-wave (km/s) = 3.72272 4.15693 3.94580
# Velocity P-wave (km/s) = 5.17396 6.13991 5.67751
#
# Compressibility (1/GPa) = 0.06087527
#
# Stress axis : x y z
#
# Youngs Moduli (GPa) = 93.88066 34.61649 35.46409
#
# Poissons Ratio (x) = 0.22366 0.14961
# Poissons Ratio (y) = 0.60657 -0.25707
# Poissons Ratio (z) = 0.39604 -0.25092
#
# Static dielectric constant tensor:
#      x y z
#    x 1.667990 0.000000 0.011500 
#    y 0.000000 1.698430 0.000000 
#    z 0.011500 0.000000 1.805990 
# 
# From -- ./inp_files/200827.got.cif
#   From: 2010.05.17/outbox.cif.g08.bks.cpg/sg12_101_cif.got.tgz:200827.got - 2010.06.03 13:09:07.
