data_PCOD9202340
_publ_section_title
;
Structure prediction by ZEFSAII (Michael W. Deem and Ramdas Pophale) SiO2 
 PCOD9202340
Probable space group: C 2/M
;
_chemical_formula_sum "Si O2"
_cell_formula_units_Z 64
_cell_length_a 26.943845
_cell_length_b 9.039941
_cell_length_c 14.403992
_cell_angle_alpha 90.000000
_cell_angle_beta 113.094937
_cell_angle_gamma 90.000000
_cell_volume 3227.215460
_symmetry_space_group_name_H-M "C 2/M"
_symmetry_group_IT_number 12
_symmetry_cell_setting 'monoclinic'
loop_
_space_group_symop_operation_xyz
x,y,z
-x,y,-z
-x,-y,-z
x,-y,z
1/2+x,1/2+y,z
1/2-x,1/2+y,-z
1/2-x,1/2-y,-z
1/2+x,1/2-y,z
loop_
_atom_site_type_symbol
_atom_site_label
_atom_site_fract_x
_atom_site_fract_y
_atom_site_fract_z
Si Si1 0.899552 0.180076 0.762925
Si Si2 0.768751 0.822833 0.917454
Si Si3 0.672451 0.673644 0.756028
Si Si4 0.891706 0.820383 0.966153
Si Si5 0.804316 0.170526 0.570096
Si Si6 0.026333 0.324416 0.340472
Si Si7 0.606554 0.672165 0.527970
Si Si8 0.073328 0.826316 0.812292
O O1 0.909717 0.223452 0.876610
O O2 0.839015 0.222735 0.684603
O O3 0.940755 0.254250 0.722086
O O4 0.903406 0.000000 0.757140
O O5 0.725802 0.767809 0.810069
O O6 0.829448 0.777121 0.936038
O O7 0.767546 0.000000 0.925192
O O8 0.750000 0.750000 0.000000
O O9 0.686033 0.500000 0.751990
O O10 0.635583 0.722398 0.642926
O O11 0.634099 0.682989 0.818115
O O12 0.892962 0.000000 0.969082
O O13 0.926202 0.772777 0.080778
O O14 0.750000 0.250000 0.500000
O O15 0.847672 0.178777 0.518334
O O16 0.790520 0.000000 0.576446
O O17 0.028577 0.500000 0.339663
O O18 0.056060 0.263904 0.453905
O O19 0.966294 0.264469 0.282036
O O20 0.590650 0.500000 0.527779
O O21 0.057633 0.000000 0.797508
#
# Coordination Sequence:
#
# PCOD9202340 Si02
#       8
#     8   8   8   8   8   8   8   8
#     4   9  19  38  59  79 108 149 192 231 276 335
#     4  11  21  36  58  85 120 156 191 233 281 332
#     4  10  21  38  60  87 116 149 194 236 278 337
#     4   9  19  36  59  85 112 149 196 231 268 336
#     4   9  18  31  50  76 108 143 183 225 271 327
#     4  11  23  39  58  83 114 144 185 242 294 337
#     4   9  20  39  59  80 111 152 191 229 279 341
#     4  10  20  38  61  82 110 149 192 232 279 344
#
# _framework density 19.831337999999999
#
# number of rings (size 3 to 8) (size 9 to 14) (size 15 to 20)
#    0.000    2.250    1.250    2.250    1.750    4.000 
#    0.000    6.875    0.000    0.000    0.000    0.000 
#    0.000    0.000    0.000    0.000    0.000    0.000 
#
# Total GULP energy -178630.877170 kJ/mol
# GULP energy per Si atom -5582.214912 kJ/mol
# Density = 1.978620 g / cm^3
# Si number density = 19.831338 Si / 1000 Ang^3
#
#
#
# Elastic Constant Matrix: (Units=GPa)
#
#
# Indices 1 2 3 4 5 6 
#
# 1 18.9364 12.6850 -3.0320 0.0000 16.8733 0.0000
# 2 12.6850 48.1430 23.5813 0.0000 16.1023 0.0000
# 3 -3.0320 23.5813 107.3915 0.0000 6.8369 0.0000
# 4 0.0000 0.0000 0.0000 26.3535 0.0000 9.9384
# 5 16.8733 16.1023 6.8369 0.0000 32.7176 0.0000
# 6 0.0000 0.0000 0.0000 9.9384 0.0000 22.6852
#
#
#
# Elastic Compliance Matrix: (Units=1/GPa)
#
#
# Indices 1 2 3 4 5 6 
#
# 1 0.111654 -0.017294 0.010210 0.000000 -0.051205 0.000000
# 2 -0.017294 0.030180 -0.006828 0.000000 -0.004508 0.000000
# 3 0.010210 -0.006828 0.011372 0.000000 -0.004281 0.000000
# 4 0.000000 0.000000 0.000000 0.045455 0.000000 -0.019914
# 5 -0.051205 -0.004508 -0.004281 0.000000 0.060086 0.000000
# 6 0.000000 0.000000 0.000000 -0.019914 0.000000 0.052806
#
#
# Mechanical properties :
#
#
# Convention : Reuss Voigt Hill
#
# Bulk Modulus (GPa) = 7.97566 26.77106 17.37336
# Shear Modulus (GPa) = 13.11745 25.76705 19.44225
#
# Velocity S-wave (km/s) = 2.57466 3.60850 3.13450
# Velocity P-wave (km/s) = 3.58733 5.55791 4.67757
#
# Compressibility (1/GPa) = 0.12538143
#
# Stress axis : x y z
#
# Youngs Moduli (GPa) = 8.95626 33.13403 87.93598
#
# Poissons Ratio (x) = 0.57301 -0.89779
# Poissons Ratio (y) = 0.15489 0.60046
# Poissons Ratio (z) = -0.09144 0.22625
#
# Static dielectric constant tensor:
#      x y z
#    x 1.689830 0.000000 -0.008630 
#    y 0.000000 1.665780 0.000000 
#    z -0.008630 0.000000 1.738830 
# 
# From -- ./inp_files/249052.got.cif
#   From: 2010.05.17/outbox.cif.g08.bks.cpg/sg12_125_cif.got.tgz:249052.got - 2010.06.03 13:09:07.
