data_PCOD9202217
_publ_section_title
;
Structure prediction by ZEFSAII (Michael W. Deem and Ramdas Pophale) SiO2 
 PCOD9202217
Probable space group: C 2/M
;
_chemical_formula_sum "Si O2"
_cell_formula_units_Z 56
_cell_length_a 23.772106
_cell_length_b 17.821355
_cell_length_c 20.536735
_cell_angle_alpha 90.000000
_cell_angle_beta 19.283012
_cell_angle_gamma 90.000000
_cell_volume 2873.176328
_symmetry_space_group_name_H-M "C 2/M"
_symmetry_group_IT_number 12
_symmetry_cell_setting 'monoclinic'
loop_
_space_group_symop_operation_xyz
x,y,z
-x,y,-z
-x,-y,-z
x,-y,z
1/2+x,1/2+y,z
1/2-x,1/2+y,-z
1/2-x,1/2-y,-z
1/2+x,1/2-y,z
loop_
_atom_site_type_symbol
_atom_site_label
_atom_site_fract_x
_atom_site_fract_y
_atom_site_fract_z
Si Si1 0.806410 0.694245 0.736180
Si Si2 0.038269 0.912201 0.076778
Si Si3 0.424418 0.218800 0.740040
Si Si4 0.385823 0.913625 0.872618
Si Si5 0.534995 0.633139 0.232355
Si Si6 0.671788 0.816864 0.633528
Si Si7 0.814278 0.783102 0.267517
O O1 0.814764 0.737414 0.795887
O O2 0.697132 0.730064 0.797083
O O3 0.000000 0.685214 0.500000
O O4 0.715405 0.616084 0.852593
O O5 0.032765 0.890190 0.159222
O O6 0.896698 0.862853 0.194539
O O7 0.012562 0.000000 0.097932
O O8 0.386738 0.135367 0.805583
O O9 0.412488 0.280549 0.809694
O O10 0.619162 0.217802 0.504435
O O11 0.522743 0.866914 0.765242
O O12 0.437357 0.000000 0.809990
O O13 0.182640 0.910738 0.110131
O O14 0.336769 0.631547 0.469198
O O15 0.750000 0.750000 0.500000
O O16 0.604535 0.776883 0.772127
#
# Coordination Sequence:
#
# PCOD9202217 Si02
#       7
#     8   8   8   8   8   8   8
#     4  10  23  37  55  81 114 157 208 242 292 356
#     4  12  23  36  55  82 120 161 199 243 294 354
#     4  10  20  38  60  81 118 155 192 254 298 353
#     4  12  23  35  58  92 123 155 197 248 309 363
#     4  11  22  38  61  86 118 157 205 251 307 354
#     4  11  21  40  63  87 118 161 203 260 310 350
#     4  10  21  39  56  84 113 153 206 244 291 354
#
# _framework density 19.490624
#
# number of rings (size 3 to 8) (size 9 to 14) (size 15 to 20)
#    0.000    1.143    5.714    1.286    2.000    4.286 
#    0.000    2.857    0.000    0.000    0.000    3.000 
#    0.000   14.286    0.000    0.000    0.000    0.000 
#
# Total GULP energy -156012.283893 kJ/mol
# GULP energy per Si atom -5571.867282 kJ/mol
# Density = 1.944626 g / cm^3
# Si number density = 19.490624 Si / 1000 Ang^3
#
#
#
# Elastic Constant Matrix: (Units=GPa)
#
#
# Indices 1 2 3 4 5 6 
#
# 1 136.4669 44.9676 25.9386 -0.0034 -17.9353 0.0013
# 2 44.9676 79.1484 14.6551 -0.0208 -3.6522 0.0124
# 3 25.9386 14.6551 59.4631 -0.0142 -19.1684 0.0126
# 4 -0.0034 -0.0208 -0.0142 17.3293 0.0082 -4.6999
# 5 -17.9353 -3.6522 -19.1684 0.0082 36.1172 -0.0043
# 6 0.0013 0.0124 0.0126 -4.6999 -0.0043 9.0114
#
#
#
# Elastic Compliance Matrix: (Units=1/GPa)
#
#
# Indices 1 2 3 4 5 6 
#
# 1 0.009801 -0.005052 -0.001962 -0.000005 0.003315 0.000007
# 2 -0.005052 0.015850 -0.002406 0.000014 -0.002183 -0.000011
# 3 -0.001962 -0.002406 0.021562 0.000004 0.010226 -0.000019
# 4 -0.000005 0.000014 0.000004 0.067213 -0.000010 0.035056
# 5 0.003315 -0.002183 0.010226 -0.000010 0.034540 0.000000
# 6 0.000007 -0.000011 -0.000019 0.035056 0.000000 0.129254
#
#
# Mechanical properties :
#
#
# Convention : Reuss Voigt Hill
#
# Bulk Modulus (GPa) = 35.24448 49.57788 42.41118
# Shear Modulus (GPa) = 16.31221 25.12605 20.71913
#
# Velocity S-wave (km/s) = 2.89611 3.59435 3.26395
# Velocity P-wave (km/s) = 5.41344 6.53589 6.00096
#
# Compressibility (1/GPa) = 0.02837324
#
# Stress axis : x y z
#
# Youngs Moduli (GPa) = 102.02934 63.09269 46.37709
#
# Poissons Ratio (x) = 0.31876 0.09097
# Poissons Ratio (y) = 0.51548 0.11159
# Poissons Ratio (z) = 0.20013 0.15181
#
# Static dielectric constant tensor:
#      x y z
#    x 1.755590 0.000000 -0.030840 
#    y 0.000000 1.660330 0.000000 
#    z -0.030840 0.000000 1.781440 
# 
# From -- ./inp_files/325976.got.cif
#   From: 2010.05.17/outbox.cif.g08.bks.cpg/sg12_163_cif.got.tgz:325976.got - 2010.06.03 13:09:07.
