data_PCOD9202893
_publ_section_title
;
Structure prediction by ZEFSAII (Michael W. Deem and Ramdas Pophale) SiO2 
 PCOD9202893
Probable space group: C 2/M
;
_chemical_formula_sum "Si O2"
_cell_formula_units_Z 48
_cell_length_a 30.906805
_cell_length_b 8.505594
_cell_length_c 15.139980
_cell_angle_alpha 90.000000
_cell_angle_beta 39.764779
_cell_angle_gamma 90.000000
_cell_volume 2545.762247
_symmetry_space_group_name_H-M "C 2/M"
_symmetry_group_IT_number 12
_symmetry_cell_setting 'monoclinic'
loop_
_space_group_symop_operation_xyz
x,y,z
-x,y,-z
-x,-y,-z
x,-y,z
1/2+x,1/2+y,z
1/2-x,1/2+y,-z
1/2-x,1/2-y,-z
1/2+x,1/2-y,z
loop_
_atom_site_type_symbol
_atom_site_label
_atom_site_fract_x
_atom_site_fract_y
_atom_site_fract_z
Si Si1 0.571381 0.808681 0.845725
Si Si2 0.663603 0.190071 0.860793
Si Si3 0.424150 0.686318 0.837657
Si Si4 0.071916 0.688045 0.642207
Si Si5 0.316723 0.312371 0.666319
Si Si6 0.822478 0.313465 0.853147
O O1 0.631270 0.762100 0.817988
O O2 0.578686 0.756665 0.733384
O O3 0.569672 0.000000 0.846510
O O4 0.500000 0.756996 0.000000
O O5 0.741740 0.233309 0.750611
O O6 0.658341 0.000000 0.875749
O O7 0.619221 0.262014 0.008958
O O8 0.433710 0.500000 0.823124
O O9 0.496686 0.769216 0.728496
O O10 0.380999 0.737064 0.820362
O O11 0.080388 0.500000 0.626761
O O12 0.127408 0.765515 0.492540
O O13 0.317037 0.500000 0.679604
O O14 0.330106 0.230119 0.738805
O O15 0.823957 0.500000 0.863451
O O16 0.750000 0.250000 0.000000
#
# Coordination Sequence:
#
# PCOD9202893 Si02
#       6
#     8   8   8   8   8   8
#     4   9  17  34  63  93 120 162 213 257 306 371
#     4  10  20  38  64  91 123 166 211 255 309 370
#     4  12  24  39  63  94 126 161 209 259 311 371
#     4  11  23  41  64  90 127 168 211 259 316 372
#     4  11  24  41  62  92 131 166 206 259 314 368
#     4  12  24  41  66  95 125 162 209 254 308 370
#
# _framework density 18.854863000000002
#
# number of rings (size 3 to 8) (size 9 to 14) (size 15 to 20)
#    0.000    1.167    3.333    4.000    0.000    2.000 
#    0.000    5.833    0.000    0.000    0.000    0.000 
#    0.000    0.000    0.000    0.000    0.000    0.000 
#
# Total GULP energy -134198.157956 kJ/mol
# GULP energy per Si atom -5591.589915 kJ/mol
# Density = 1.881195 g / cm^3
# Si number density = 18.854863 Si / 1000 Ang^3
#
#
#
# Elastic Constant Matrix: (Units=GPa)
#
#
# Indices 1 2 3 4 5 6 
#
# 1 110.2980 -17.1606 12.2092 0.0002 6.5004 -0.0001
# 2 -17.1606 23.0783 -15.6508 -0.0005 0.1929 0.0001
# 3 12.2092 -15.6508 87.8798 0.0001 7.6297 -0.0001
# 4 0.0002 -0.0005 0.0001 31.2562 0.0000 1.8871
# 5 6.5004 0.1929 7.6297 0.0000 32.6812 0.0000
# 6 -0.0001 0.0001 -0.0001 1.8871 0.0000 20.7597
#
#
#
# Elastic Compliance Matrix: (Units=1/GPa)
#
#
# Indices 1 2 3 4 5 6 
#
# 1 0.010398 0.007844 0.000139 0.000000 -0.002147 0.000000
# 2 0.007844 0.055383 0.009122 0.000001 -0.004017 0.000000
# 3 0.000139 0.009122 0.013260 0.000000 -0.003177 0.000000
# 4 0.000000 0.000001 0.000000 0.032170 0.000000 -0.002924
# 5 -0.002147 -0.004017 -0.003177 0.000000 0.031791 0.000000
# 6 0.000000 0.000000 0.000000 -0.002924 0.000000 0.048436
#
#
# Mechanical properties :
#
#
# Convention : Reuss Voigt Hill
#
# Bulk Modulus (GPa) = 8.82994 20.00574 14.41784
# Shear Modulus (GPa) = 25.64370 33.06330 29.35350
#
# Velocity S-wave (km/s) = 3.69190 4.19211 3.94993
# Velocity P-wave (km/s) = 4.78192 5.83653 5.33535
#
# Compressibility (1/GPa) = 0.11325109
#
# Stress axis : x y z
#
# Youngs Moduli (GPa) = 96.17351 18.05601 75.41260
#
# Poissons Ratio (x) = -0.14163 -0.01046
# Poissons Ratio (y) = -0.75436 -0.68794
# Poissons Ratio (z) = -0.01334 -0.16471
#
# Static dielectric constant tensor:
#      x y z
#    x 1.645630 0.000000 0.000960 
#    y 0.000000 1.642690 0.000000 
#    z 0.000960 0.000000 1.608630 
# 
# From -- ./inp_files/221615.got.cif
#   From: 2010.05.17/outbox.cif.g08.bks.cpg/sg12_111_cif.got.tgz:221615.got - 2010.06.03 13:09:07.
