data_PCOD9202369
_publ_section_title
;
Structure prediction by ZEFSAII (Michael W. Deem and Ramdas Pophale) SiO2 
 PCOD9202369
Probable space group: C 2/M
;
_chemical_formula_sum "Si O2"
_cell_formula_units_Z 42
_cell_length_a 15.288616
_cell_length_b 7.603841
_cell_length_c 17.724748
_cell_angle_alpha 90.000000
_cell_angle_beta 67.040272
_cell_angle_gamma 90.000000
_cell_volume 1897.303461
_symmetry_space_group_name_H-M "C 2/M"
_symmetry_group_IT_number 12
_symmetry_cell_setting 'monoclinic'
loop_
_space_group_symop_operation_xyz
x,y,z
-x,y,-z
-x,-y,-z
x,-y,z
1/2+x,1/2+y,z
1/2-x,1/2+y,-z
1/2-x,1/2-y,-z
1/2+x,1/2-y,z
loop_
_atom_site_type_symbol
_atom_site_label
_atom_site_fract_x
_atom_site_fract_y
_atom_site_fract_z
Si Si1 0.181849 0.209415 0.593804
Si Si2 0.757791 0.710095 0.111224
Si Si3 0.783406 0.794300 0.712713
Si Si4 0.500000 0.000000 0.000000
Si Si5 0.587333 0.305249 0.061422
Si Si6 0.986265 0.784355 0.591414
O O1 0.250000 0.250000 0.500000
O O2 0.221491 0.281544 0.658520
O O3 0.076927 0.273076 0.608464
O O4 0.178765 0.000000 0.602538
O O5 0.784557 0.500000 0.097018
O O6 0.761305 0.776259 0.195364
O O7 0.650846 0.729023 0.114824
O O8 0.831003 0.802191 0.030892
O O9 0.886739 0.720314 0.657546
O O10 0.798212 0.000000 0.725416
O O11 0.516467 0.845289 0.059290
O O12 0.544795 0.500000 0.080897
O O13 0.000000 0.730679 0.500000
O O14 0.984678 0.000000 0.591546
#
# Coordination Sequence:
#
# PCOD9202369 Si02
#       6
#     8   8   8   2   8   8
#     4  11  21  35  56  82 113 152 203 252 307 369
#     4   9  19  39  62  88 119 167 209 250 312 387
#     4  10  20  38  61  84 116 157 200 251 308 367
#     4  12  22  40  64 102 124 158 210 264 306 374
#     4  10  21  39  66  91 127 167 207 254 315 376
#     4   9  17  33  56  78 107 152 195 236 297 367
#
# _framework density 22.136679000000001
#
# number of rings (size 3 to 8) (size 9 to 14) (size 15 to 20)
#    0.000    2.095    2.857    0.857    1.333    0.762 
#    3.429    2.857    0.000    0.000    0.000    0.000 
#    0.000    0.000    0.000    0.000    0.000    0.000 
#
# Total GULP energy -117089.165093 kJ/mol
# GULP energy per Si atom -5575.674528 kJ/mol
# Density = 2.208630 g / cm^3
# Si number density = 22.136679 Si / 1000 Ang^3
#
#
#
# Elastic Constant Matrix: (Units=GPa)
#
#
# Indices 1 2 3 4 5 6 
#
# 1 91.9764 2.3340 25.0536 0.0000 16.9282 0.0000
# 2 2.3340 86.5954 -13.9143 0.0000 4.2945 0.0000
# 3 25.0536 -13.9143 110.0530 0.0000 28.5526 0.0000
# 4 0.0000 0.0000 0.0000 8.1697 0.0000 7.9510
# 5 16.9282 4.2945 28.5526 0.0000 26.0401 0.0000
# 6 0.0000 0.0000 0.0000 7.9510 0.0000 30.2821
#
#
#
# Elastic Compliance Matrix: (Units=1/GPa)
#
#
# Indices 1 2 3 4 5 6 
#
# 1 0.012434 -0.000164 -0.001064 0.000000 -0.006890 0.000000
# 2 -0.000164 0.012275 0.002917 0.000000 -0.005115 0.000000
# 3 -0.001064 0.002917 0.013477 0.000000 -0.014566 0.000000
# 4 0.000000 0.000000 0.000000 0.164418 0.000000 -0.043170
# 5 -0.006890 -0.005115 -0.014566 0.000000 0.059696 0.000000
# 6 0.000000 0.000000 0.000000 -0.043170 0.000000 0.044358
#
#
# Mechanical properties :
#
#
# Convention : Reuss Voigt Hill
#
# Bulk Modulus (GPa) = 24.06057 35.06348 29.56202
# Shear Modulus (GPa) = 15.76614 31.24181 23.50398
#
# Velocity S-wave (km/s) = 2.67164 3.76082 3.26201
# Velocity P-wave (km/s) = 4.51769 5.89341 5.25080
#
# Compressibility (1/GPa) = 0.04156177
#
# Stress axis : x y z
#
# Youngs Moduli (GPa) = 80.42215 81.46830 74.20273
#
# Poissons Ratio (x) = 0.01340 0.07895
# Poissons Ratio (y) = 0.01322 -0.21641
# Poissons Ratio (z) = 0.08557 -0.23760
#
# Static dielectric constant tensor:
#      x y z
#    x 1.856360 0.000000 -0.023320 
#    y 0.000000 1.840730 0.000000 
#    z -0.023320 0.000000 1.735420 
# 
# From -- ./inp_files/267044.got.cif
#   From: 2010.05.17/outbox.cif.g08.bks.cpg/sg12_134_cif.got.tgz:267044.got - 2010.06.03 13:09:07.
