data_PCOD9202716
_publ_section_title
;
Structure prediction by ZEFSAII (Michael W. Deem and Ramdas Pophale) SiO2 
 PCOD9202716
Probable space group: C 2/M
;
_chemical_formula_sum "Si O2"
_cell_formula_units_Z 48
_cell_length_a 8.279990
_cell_length_b 27.989658
_cell_length_c 14.952943
_cell_angle_alpha 90.000000
_cell_angle_beta 143.831569
_cell_angle_gamma 90.000000
_cell_volume 2045.147127
_symmetry_space_group_name_H-M "C 2/M"
_symmetry_group_IT_number 12
_symmetry_cell_setting 'monoclinic'
loop_
_space_group_symop_operation_xyz
x,y,z
-x,y,-z
-x,-y,-z
x,-y,z
1/2+x,1/2+y,z
1/2-x,1/2+y,-z
1/2-x,1/2-y,-z
1/2+x,1/2-y,z
loop_
_atom_site_type_symbol
_atom_site_label
_atom_site_fract_x
_atom_site_fract_y
_atom_site_fract_z
Si Si1 0.331116 0.553651 0.143328
Si Si2 0.227958 0.311015 0.794986
Si Si3 0.758559 0.100744 0.939554
Si Si4 0.318259 0.702671 0.155331
Si Si5 0.659005 0.304875 0.477001
Si Si6 0.164708 0.057107 0.658283
O O1 0.424892 0.500000 0.157845
O O2 0.452273 0.564949 0.294587
O O3 0.359496 0.596554 0.086486
O O4 0.000000 0.549599 0.000000
O O5 0.242402 0.349236 0.881244
O O6 0.189344 0.259522 0.825009
O O7 0.958063 0.327810 0.619748
O O8 0.500000 0.428370 0.000000
O O9 0.467033 0.077590 0.796700
O O10 0.021052 0.195852 0.161897
O O11 0.459946 0.680303 0.307287
O O12 0.000000 0.687545 0.000000
O O13 0.500000 0.307434 0.500000
O O14 0.750000 0.250000 0.500000
O O15 0.000000 0.076538 0.500000
O O16 0.184261 0.000000 0.657635
#
# Coordination Sequence:
#
# PCOD9202716 Si02
#       6
#     8   8   8   8   8   8
#     4   8  16  36  66  95 125 165 208 252 313 386
#     4  11  23  41  62  92 130 174 231 283 340 407
#     4  11  23  38  59  95 134 168 215 273 327 391
#     4  11  22  41  68  92 120 169 233 296 349 403
#     4  10  20  38  63  88 118 163 214 270 340 407
#     4   9  19  41  72 102 134 173 216 262 322 397
#
# _framework density 23.470193999999999
#
# number of rings (size 3 to 8) (size 9 to 14) (size 15 to 20)
#    0.000    2.000    0.000    7.000    0.000    3.333 
#    0.000   16.667    0.000    5.000    0.000    0.000 
#    0.000    0.000    0.000    0.000    0.000    0.000 
#
# Total GULP energy -133988.818466 kJ/mol
# GULP energy per Si atom -5582.867436 kJ/mol
# Density = 2.341677 g / cm^3
# Si number density = 23.470194 Si / 1000 Ang^3
#
#
#
# Elastic Constant Matrix: (Units=GPa)
#
#
# Indices 1 2 3 4 5 6 
#
# 1 167.5068 60.8907 77.1809 0.0000 -14.9769 0.0000
# 2 60.8907 93.6234 45.8919 0.0000 -22.7350 0.0000
# 3 77.1809 45.8919 207.1970 0.0000 -19.9570 0.0000
# 4 0.0000 0.0000 0.0000 29.3809 0.0000 -8.7092
# 5 -14.9769 -22.7350 -19.9570 0.0000 44.0772 0.0000
# 6 0.0000 0.0000 0.0000 -8.7092 0.0000 27.1692
#
#
#
# Elastic Compliance Matrix: (Units=1/GPa)
#
#
# Indices 1 2 3 4 5 6 
#
# 1 0.008646 -0.004640 -0.002238 0.000000 -0.000469 0.000000
# 2 -0.004640 0.015735 -0.001178 0.000000 0.006006 0.000000
# 3 -0.002238 -0.001178 0.006053 0.000000 0.001373 0.000000
# 4 0.000000 0.000000 0.000000 0.037609 0.000000 0.012056
# 5 -0.000469 0.006006 0.001373 0.000000 0.026247 0.000000
# 6 0.000000 0.000000 0.000000 0.012056 0.000000 0.040671
#
#
# Mechanical properties :
#
#
# Convention : Reuss Voigt Hill
#
# Bulk Modulus (GPa) = 69.82546 92.91715 81.37131
# Shear Modulus (GPa) = 32.08260 39.08303 35.58281
#
# Velocity S-wave (km/s) = 3.70124 4.08514 3.89792
# Velocity P-wave (km/s) = 6.93404 7.86934 7.41645
#
# Compressibility (1/GPa) = 0.01432142
#
# Stress axis : x y z
#
# Youngs Moduli (GPa) = 115.66235 63.55347 165.20281
#
# Poissons Ratio (x) = 0.29488 0.36973
# Poissons Ratio (y) = 0.53666 0.19465
# Poissons Ratio (z) = 0.25886 0.07488
#
# Static dielectric constant tensor:
#      x y z
#    x 1.970340 0.000000 -0.034420 
#    y 0.000000 1.948680 0.000000 
#    z -0.034420 0.000000 2.045460 
# 
# From -- ./inp_files/265898.got.cif
#   From: 2010.05.17/outbox.cif.g08.bks.cpg/sg12_133_cif.got.tgz:265898.got - 2010.06.03 13:09:07.
