data_PCOD9202576
_publ_section_title
;
Structure prediction by ZEFSAII (Michael W. Deem and Ramdas Pophale) SiO2 
 PCOD9202576
Probable space group: C 2/M
;
_chemical_formula_sum "Si O2"
_cell_formula_units_Z 64
_cell_length_a 33.650386
_cell_length_b 10.526830
_cell_length_c 19.758842
_cell_angle_alpha 90.000000
_cell_angle_beta 150.855786
_cell_angle_gamma 90.000000
_cell_volume 3408.682794
_symmetry_space_group_name_H-M "C 2/M"
_symmetry_group_IT_number 12
_symmetry_cell_setting 'monoclinic'
loop_
_space_group_symop_operation_xyz
x,y,z
-x,y,-z
-x,-y,-z
x,-y,z
1/2+x,1/2+y,z
1/2-x,1/2+y,-z
1/2-x,1/2-y,-z
1/2+x,1/2-y,z
loop_
_atom_site_type_symbol
_atom_site_label
_atom_site_fract_x
_atom_site_fract_y
_atom_site_fract_z
Si Si1 0.676128 0.350815 0.509525
Si Si2 0.038195 0.264656 0.212615
Si Si3 0.567865 0.367315 0.042912
Si Si4 0.096110 0.353928 0.636070
Si Si5 0.297660 0.654621 0.291501
Si Si6 0.139499 0.646662 0.232877
Si Si7 0.180315 0.647031 0.906109
Si Si8 0.872275 0.352715 0.025720
O O1 0.656533 0.500000 0.472527
O O2 0.606481 0.272215 0.368221
O O3 0.687019 0.325528 0.605701
O O4 0.765525 0.330318 0.609695
O O5 0.082987 0.327715 0.214287
O O6 0.985714 0.148214 0.103792
O O7 0.963189 0.339995 0.132920
O O8 0.615878 0.500000 0.113471
O O9 0.615729 0.242011 0.137018
O O10 0.500000 0.375715 0.000000
O O11 0.109573 0.500000 0.630098
O O12 0.140993 0.244883 0.659336
O O13 0.129051 0.350644 0.761527
O O14 0.000000 0.331894 0.500000
O O15 0.307921 0.500000 0.295071
O O16 0.205989 0.698798 0.132534
O O17 0.130361 0.500000 0.197518
O O18 0.209516 0.500000 0.958229
O O19 0.250000 0.750000 0.000000
O O20 0.132720 0.686872 0.903341
O O21 0.854642 0.500000 0.998540
#
# Coordination Sequence:
#
# PCOD9202576 Si02
#       8
#     8   8   8   8   8   8   8   8
#     4  10  22  39  57  82 119 159 195 242 298 347
#     4  11  21  35  59  88 118 153 195 244 291 348
#     4   9  19  35  56  81 111 148 187 233 289 342
#     4  10  22  39  62  89 121 156 191 239 297 350
#     4  10  21  40  62  84 116 159 199 238 289 348
#     4  10  21  39  63  87 115 154 201 244 288 347
#     4  10  20  38  62  88 118 155 193 238 291 349
#     4  10  21  37  59  87 119 152 194 245 294 343
#
# _framework density 18.775580000000001
#
# number of rings (size 3 to 8) (size 9 to 14) (size 15 to 20)
#    0.000    2.000    1.250    1.875    1.750    4.500 
#    0.000    6.250    0.000    0.000    0.000    0.000 
#    0.000    0.000    0.000    0.000    0.000    0.000 
#
# Total GULP energy -178182.165402 kJ/mol
# GULP energy per Si atom -5568.192669 kJ/mol
# Density = 1.873285 g / cm^3
# Si number density = 18.775580 Si / 1000 Ang^3
#
#
#
# Elastic Constant Matrix: (Units=GPa)
#
#
# Indices 1 2 3 4 5 6 
#
# 1 112.6632 43.8342 47.8873 0.0000 7.9810 0.0000
# 2 43.8342 92.0177 66.5978 0.0000 -0.8733 0.0000
# 3 47.8873 66.5978 121.0806 0.0000 10.9439 0.0000
# 4 0.0000 0.0000 0.0000 28.2973 0.0000 10.9161
# 5 7.9810 -0.8733 10.9439 0.0000 21.4036 0.0000
# 6 0.0000 0.0000 0.0000 10.9161 0.0000 43.9928
#
#
#
# Elastic Compliance Matrix: (Units=1/GPa)
#
#
# Indices 1 2 3 4 5 6 
#
# 1 0.011566 -0.004082 -0.002017 0.000000 -0.003448 0.000000
# 2 -0.004082 0.020288 -0.010229 0.000000 0.007580 0.000000
# 3 -0.002017 -0.010229 0.015363 0.000000 -0.007520 0.000000
# 4 0.000000 0.000000 0.000000 0.039080 0.000000 -0.009697
# 5 -0.003448 0.007580 -0.007520 0.000000 0.052161 0.000000
# 6 0.000000 0.000000 0.000000 -0.009697 0.000000 0.025137
#
#
# Mechanical properties :
#
#
# Convention : Reuss Voigt Hill
#
# Bulk Modulus (GPa) = 68.68801 71.37777 70.03289
# Shear Modulus (GPa) = 24.86252 29.90156 27.38204
#
# Velocity S-wave (km/s) = 3.64290 3.99504 3.82302
# Velocity P-wave (km/s) = 7.37275 7.70579 7.54111
#
# Compressibility (1/GPa) = 0.01455858
#
# Stress axis : x y z
#
# Youngs Moduli (GPa) = 86.45993 49.29118 65.09158
#
# Poissons Ratio (x) = 0.20123 0.13131
# Poissons Ratio (y) = 0.35296 0.66584
# Poissons Ratio (z) = 0.17442 0.50422
#
# Static dielectric constant tensor:
#      x y z
#    x 1.668460 0.000000 -0.007990 
#    y 0.000000 1.700130 0.000000 
#    z -0.007990 0.000000 1.626550 
# 
# From -- ./inp_files/296509.got.cif
#   From: 2010.05.17/outbox.cif.g08.bks.cpg/sg12_149_cif.got.tgz:296509.got - 2010.06.03 13:09:07.
