data_PCOD9202662
_publ_section_title
;
Structure prediction by ZEFSAII (Michael W. Deem and Ramdas Pophale) SiO2 
 PCOD9202662
Probable space group: C 2/M
;
_chemical_formula_sum "Si O2"
_cell_formula_units_Z 56
_cell_length_a 11.773684
_cell_length_b 28.550387
_cell_length_c 15.215735
_cell_angle_alpha 90.000000
_cell_angle_beta 27.807096
_cell_angle_gamma 90.000000
_cell_volume 2385.972384
_symmetry_space_group_name_H-M "C 2/M"
_symmetry_group_IT_number 12
_symmetry_cell_setting 'monoclinic'
loop_
_space_group_symop_operation_xyz
x,y,z
-x,y,-z
-x,-y,-z
x,-y,z
1/2+x,1/2+y,z
1/2-x,1/2+y,-z
1/2-x,1/2-y,-z
1/2+x,1/2-y,z
loop_
_atom_site_type_symbol
_atom_site_label
_atom_site_fract_x
_atom_site_fract_y
_atom_site_fract_z
Si Si1 0.329551 0.052204 0.938287
Si Si2 0.487599 0.294421 0.773479
Si Si3 0.265656 0.652316 0.773555
Si Si4 0.978518 0.311573 0.228506
Si Si5 0.825225 0.050420 0.703896
Si Si6 0.642577 0.612529 0.734193
Si Si7 0.967772 0.397025 0.674642
O O1 0.546376 0.053955 0.860645
O O2 0.447992 0.064411 0.763631
O O3 0.225455 0.000000 0.007961
O O4 0.125039 0.091169 0.092023
O O5 0.428683 0.311369 0.715314
O O6 0.583995 0.241921 0.706501
O O7 0.658032 0.332169 0.703677
O O8 0.235440 0.302678 0.001027
O O9 0.375066 0.600660 0.711162
O O10 0.211005 0.665370 0.710261
O O11 0.000000 0.652851 0.000000
O O12 0.008406 0.347587 0.288851
O O13 0.000000 0.048442 0.500000
O O14 0.853222 0.000000 0.731624
O O15 0.736637 0.603909 0.767987
O O16 0.815774 0.591766 0.540787
#
# Coordination Sequence:
#
# PCOD9202662 Si02
#       7
#     8   8   8   8   8   8   8
#     4  11  23  45  72  99 134 179 227 280 349 413
#     4  10  22  37  66  99 134 178 229 279 343 409
#     4  10  20  38  62  96 136 171 225 281 333 405
#     4  10  21  40  64  97 134 182 227 278 343 407
#     4  10  22  41  66  97 130 173 225 276 339 407
#     4  11  25  43  66 102 138 178 230 284 336 409
#     4  11  24  43  68  99 138 178 230 286 339 403
#
# _framework density 23.470516
#
# number of rings (size 3 to 8) (size 9 to 14) (size 15 to 20)
#    0.000    1.571    2.857    1.286    4.000    2.571 
#    0.000    2.143    0.000    0.000    0.000    0.000 
#    0.000    0.000    0.000    0.000    0.000    0.000 
#
# Total GULP energy -156665.716190 kJ/mol
# GULP energy per Si atom -5595.204150 kJ/mol
# Density = 2.341710 g / cm^3
# Si number density = 23.470516 Si / 1000 Ang^3
#
#
#
# Elastic Constant Matrix: (Units=GPa)
#
#
# Indices 1 2 3 4 5 6 
#
# 1 90.0377 28.4090 10.4024 0.0000 20.4000 0.0002
# 2 28.4090 149.1478 7.9883 0.0000 9.0823 0.0000
# 3 10.4024 7.9883 70.5468 -0.0003 8.6348 0.0002
# 4 0.0000 0.0000 -0.0003 9.6296 0.0001 -1.0536
# 5 20.4000 9.0823 8.6348 0.0001 34.2818 -0.0001
# 6 0.0002 0.0000 0.0002 -1.0536 -0.0001 12.7832
#
#
#
# Elastic Compliance Matrix: (Units=1/GPa)
#
#
# Indices 1 2 3 4 5 6 
#
# 1 0.013511 -0.002084 -0.000866 0.000000 -0.007270 0.000000
# 2 -0.002084 0.007158 -0.000436 0.000000 -0.000546 0.000000
# 3 -0.000866 -0.000436 0.014729 0.000000 -0.003079 0.000000
# 4 0.000000 0.000000 0.000000 0.104791 -0.000001 0.008637
# 5 -0.007270 -0.000546 -0.003079 -0.000001 0.034416 0.000000
# 6 0.000000 0.000000 0.000000 0.008637 0.000000 0.078939
#
#
# Mechanical properties :
#
#
# Convention : Reuss Voigt Hill
#
# Bulk Modulus (GPa) = 34.93555 44.81463 39.87509
# Shear Modulus (GPa) = 18.52802 28.86776 23.69789
#
# Velocity S-wave (km/s) = 2.81270 3.51088 3.18101
# Velocity P-wave (km/s) = 5.04634 5.96410 5.52431
#
# Compressibility (1/GPa) = 0.02862414
#
# Stress axis : x y z
#
# Youngs Moduli (GPa) = 74.01176 139.69534 67.89330
#
# Poissons Ratio (x) = 0.29119 0.05883
# Poissons Ratio (y) = 0.15428 0.02963
# Poissons Ratio (z) = 0.06413 0.06096
#
# Static dielectric constant tensor:
#      x y z
#    x 1.858990 0.000000 0.017670 
#    y 0.000000 1.886290 0.000000 
#    z 0.017670 0.000000 1.956180 
# 
# From -- ./inp_files/209997.got.cif
#   From: 2010.05.17/outbox.cif.g08.bks.cpg/sg12_105_cif.got.tgz:209997.got - 2010.06.03 13:09:07.
