data_PCOD9202896
_publ_section_title
;
Structure prediction by ZEFSAII (Michael W. Deem and Ramdas Pophale) SiO2 
 PCOD9202896
Probable space group: C 2/M
;
_chemical_formula_sum "Si O2"
_cell_formula_units_Z 32
_cell_length_a 12.637665
_cell_length_b 13.659763
_cell_length_c 9.819521
_cell_angle_alpha 90.000000
_cell_angle_beta 55.154702
_cell_angle_gamma 90.000000
_cell_volume 1391.180711
_symmetry_space_group_name_H-M "C 2/M"
_symmetry_group_IT_number 12
_symmetry_cell_setting 'monoclinic'
loop_
_space_group_symop_operation_xyz
x,y,z
-x,y,-z
-x,-y,-z
x,-y,z
1/2+x,1/2+y,z
1/2-x,1/2+y,-z
1/2-x,1/2-y,-z
1/2+x,1/2-y,z
loop_
_atom_site_type_symbol
_atom_site_label
_atom_site_fract_x
_atom_site_fract_y
_atom_site_fract_z
Si Si1 0.409737 0.188854 0.273525
Si Si2 0.676820 0.881326 0.951915
Si Si3 0.214647 0.891190 0.619776
Si Si4 0.129876 0.112769 0.970366
O O1 0.552294 0.155046 0.128201
O O2 0.344282 0.126728 0.441435
O O3 0.382702 0.301254 0.338145
O O4 0.330090 0.164717 0.192989
O O5 0.803314 0.851198 0.942988
O O6 0.670823 0.000000 0.946084
O O7 0.230108 0.887203 0.771744
O O8 0.164232 0.000000 0.624304
O O9 0.096931 0.000000 0.024005
O O10 0.000000 0.157611 0.000000
#
# Coordination Sequence:
#
# PCOD9202896 Si02
#       4
#     8   8   8   8
#     4  10  21  37  61  98 121 157 206 250 314 370
#     4  10  20  38  64  91 124 160 203 259 306 360
#     4  10  21  39  60  87 128 164 200 252 303 369
#     4   9  20  38  61  88 121 165 205 247 307 366
#
# _framework density 23.002044999999999
#
# number of rings (size 3 to 8) (size 9 to 14) (size 15 to 20)
#    0.000    2.250    0.000    3.000    3.500    2.000 
#    0.000    5.000    0.000    6.000    0.000    0.000 
#    0.000    0.000    0.000    0.000    0.000    0.000 
#
# Total GULP energy -89320.268097 kJ/mol
# GULP energy per Si atom -5582.516756 kJ/mol
# Density = 2.294969 g / cm^3
# Si number density = 23.002045 Si / 1000 Ang^3
#
#
#
# Elastic Constant Matrix: (Units=GPa)
#
#
# Indices 1 2 3 4 5 6 
#
# 1 119.7482 17.9343 15.9840 0.0000 28.3493 0.0000
# 2 17.9343 195.7576 9.7998 0.0000 -3.4083 0.0000
# 3 15.9840 9.7998 86.9522 0.0000 -0.9178 0.0000
# 4 0.0000 0.0000 0.0000 34.5619 0.0000 -0.9119
# 5 28.3493 -3.4083 -0.9178 0.0000 17.5835 0.0000
# 6 0.0000 0.0000 0.0000 -0.9119 0.0000 9.9782
#
#
#
# Elastic Compliance Matrix: (Units=1/GPa)
#
#
# Indices 1 2 3 4 5 6 
#
# 1 0.014673 -0.001626 -0.002769 0.000000 -0.024117 0.000000
# 2 -0.001626 0.005334 -0.000264 0.000000 0.003641 0.000000
# 3 -0.002769 -0.000264 0.012092 0.000000 0.005044 0.000000
# 4 0.000000 0.000000 0.000000 0.029004 0.000000 0.002651
# 5 -0.024117 0.003641 0.005044 0.000000 0.096723 0.000000
# 6 0.000000 0.000000 0.000000 0.002651 0.000000 0.100461
#
#
# Mechanical properties :
#
#
# Convention : Reuss Voigt Hill
#
# Bulk Modulus (GPa) = 43.89158 54.43268 49.16213
# Shear Modulus (GPa) = 18.16871 36.34070 27.25471
#
# Velocity S-wave (km/s) = 2.81352 3.97910 3.44595
# Velocity P-wave (km/s) = 5.44771 6.69527 6.10345
#
# Compressibility (1/GPa) = 0.02278341
#
# Stress axis : x y z
#
# Youngs Moduli (GPa) = 68.15089 187.48044 82.69589
#
# Poissons Ratio (x) = 0.30476 0.22896
# Poissons Ratio (y) = 0.11078 0.02182
# Poissons Ratio (z) = 0.18869 0.04948
#
# Static dielectric constant tensor:
#      x y z
#    x 1.855490 0.000000 -0.032610 
#    y 0.000000 1.948250 0.000000 
#    z -0.032610 0.000000 1.871210 
# 
# From -- ./inp_files/58214.got.cif
#   From: 2010.05.17/outbox.cif.g08.bks.cpg/sg12_30_cif.got.tgz:58214.got - 2010.06.03 13:09:07.
