data_PCOD9202612
_publ_section_title
;
Structure prediction by ZEFSAII (Michael W. Deem and Ramdas Pophale) SiO2 
 PCOD9202612
Probable space group: C 2/M
;
_chemical_formula_sum "Si O2"
_cell_formula_units_Z 48
_cell_length_a 12.955947
_cell_length_b 22.128990
_cell_length_c 12.258152
_cell_angle_alpha 90.000000
_cell_angle_beta 139.101043
_cell_angle_gamma 90.000000
_cell_volume 2300.996958
_symmetry_space_group_name_H-M "C 2/M"
_symmetry_group_IT_number 12
_symmetry_cell_setting 'monoclinic'
loop_
_space_group_symop_operation_xyz
x,y,z
-x,y,-z
-x,-y,-z
x,-y,z
1/2+x,1/2+y,z
1/2-x,1/2+y,-z
1/2-x,1/2-y,-z
1/2+x,1/2-y,z
loop_
_atom_site_type_symbol
_atom_site_label
_atom_site_fract_x
_atom_site_fract_y
_atom_site_fract_z
Si Si1 0.380511 0.849461 0.154100
Si Si2 0.327739 0.067305 0.918423
Si Si3 0.679482 0.071880 0.473731
Si Si4 0.832410 0.126156 0.396225
Si Si5 0.917414 0.266071 0.816670
Si Si6 0.185245 0.662658 0.660508
O O1 0.520867 0.895908 0.300996
O O2 0.456064 0.786647 0.172827
O O3 0.281735 0.840316 0.184350
O O4 0.301034 0.882023 0.988057
O O5 0.206088 0.074918 0.723263
O O6 0.323041 0.000000 0.961998
O O7 0.500000 0.075377 0.000000
O O8 0.813629 0.097284 0.500175
O O9 0.699840 0.098965 0.610525
O O10 0.669007 0.000000 0.462035
O O11 0.701165 0.177191 0.274611
O O12 0.000000 0.152643 0.500000
O O13 0.807884 0.208803 0.704627
O O14 0.000000 0.259817 0.000000
O O15 0.000000 0.681465 0.500000
#
# Coordination Sequence:
#
# PCOD9202612 Si02
#       6
#     8   8   8   8   8   8
#     4  10  20  38  62  90 118 156 206 241 299 351
#     4  11  19  35  61  90 120 156 200 250 296 349
#     4  10  21  39  61  88 126 160 197 246 293 355
#     4  11  22  37  63  92 121 155 198 249 308 348
#     4  11  21  41  62  88 121 155 198 253 299 352
#     4  10  24  39  60  92 120 160 202 241 300 355
#
# _framework density 20.860523000000001
#
# number of rings (size 3 to 8) (size 9 to 14) (size 15 to 20)
#    0.000    1.500    5.000    1.500    0.000   13.000 
#    3.000    0.000    0.000    0.500    0.000    0.000 
#    0.000    0.000    0.000    0.000    0.000    0.000 
#
# Total GULP energy -134034.515821 kJ/mol
# GULP energy per Si atom -5584.771493 kJ/mol
# Density = 2.081304 g / cm^3
# Si number density = 20.860523 Si / 1000 Ang^3
#
#
#
# Elastic Constant Matrix: (Units=GPa)
#
#
# Indices 1 2 3 4 5 6 
#
# 1 79.1526 17.7219 23.3795 0.0000 -23.1304 0.0000
# 2 17.7219 81.2927 1.1839 0.0000 -4.3603 0.0000
# 3 23.3795 1.1839 34.3994 0.0000 -14.7835 0.0000
# 4 0.0000 0.0000 0.0000 12.3375 0.0000 -5.9768
# 5 -23.1304 -4.3603 -14.7835 0.0000 29.6328 0.0000
# 6 0.0000 0.0000 0.0000 -5.9768 0.0000 11.4057
#
#
#
# Elastic Compliance Matrix: (Units=1/GPa)
#
#
# Indices 1 2 3 4 5 6 
#
# 1 0.018793 -0.003439 -0.008360 0.000000 0.009993 0.000000
# 2 -0.003439 0.013034 0.001985 0.000000 0.000224 0.000000
# 3 -0.008360 0.001985 0.040740 0.000000 0.014091 0.000000
# 4 0.000000 0.000000 0.000000 0.108630 0.000000 0.056924
# 5 0.009993 0.000224 0.014091 0.000000 0.048609 0.000000
# 6 0.000000 0.000000 0.000000 0.056924 0.000000 0.117505
#
#
# Mechanical properties :
#
#
# Convention : Reuss Voigt Hill
#
# Bulk Modulus (GPa) = 18.88983 31.04614 24.96799
# Shear Modulus (GPa) = 13.00100 20.84582 16.92341
#
# Velocity S-wave (km/s) = 2.49917 3.16459 2.85136
# Velocity P-wave (km/s) = 4.17167 5.31676 4.77863
#
# Compressibility (1/GPa) = 0.05293853
#
# Stress axis : x y z
#
# Youngs Moduli (GPa) = 53.21055 76.72199 24.54611
#
# Poissons Ratio (x) = 0.26386 0.20521
# Poissons Ratio (y) = 0.18300 -0.04872
# Poissons Ratio (z) = 0.44484 -0.15229
#
# Static dielectric constant tensor:
#      x y z
#    x 1.777730 0.000000 0.014620 
#    y 0.000000 1.720300 0.000000 
#    z 0.014620 0.000000 1.781920 
# 
# From -- ./inp_files/134078.got.cif
#   From: 2010.05.17/outbox.cif.g08.bks.cpg/sg12_68_cif.got.tgz:134078.got - 2010.06.03 13:09:07.
