data_PCOD9202324
_publ_section_title
;
Structure prediction by ZEFSAII (Michael W. Deem and Ramdas Pophale) SiO2 
 PCOD9202324
Probable space group: C 2/M
;
_chemical_formula_sum "Si O2"
_cell_formula_units_Z 52
_cell_length_a 17.698892
_cell_length_b 20.733604
_cell_length_c 6.781815
_cell_angle_alpha 90.000000
_cell_angle_beta 105.272384
_cell_angle_gamma 90.000000
_cell_volume 2400.778613
_symmetry_space_group_name_H-M "C 2/M"
_symmetry_group_IT_number 12
_symmetry_cell_setting 'monoclinic'
loop_
_space_group_symop_operation_xyz
x,y,z
-x,y,-z
-x,-y,-z
x,-y,z
1/2+x,1/2+y,z
1/2-x,1/2+y,-z
1/2-x,1/2-y,-z
1/2+x,1/2-y,z
loop_
_atom_site_type_symbol
_atom_site_label
_atom_site_fract_x
_atom_site_fract_y
_atom_site_fract_z
Si Si1 0.071100 0.765138 0.890132
Si Si2 0.525128 0.000000 0.772772
Si Si3 0.174288 0.662622 0.426262
Si Si4 0.753954 0.923236 0.145861
Si Si5 0.874638 0.375756 0.214502
Si Si6 0.082146 0.125806 0.584499
Si Si7 0.160462 0.802193 0.288853
O O1 0.097968 0.693523 0.849854
O O2 0.059509 0.809675 0.691743
O O3 0.141263 0.802934 0.048130
O O4 0.000000 0.766291 0.000000
O O5 0.500000 0.000000 0.500000
O O6 0.570489 0.933112 0.811479
O O7 0.500000 0.000000 0.000000
O O8 0.205088 0.615505 0.279451
O O9 0.121332 0.627728 0.546909
O O10 0.136920 0.728586 0.325835
O O11 0.249467 0.687640 0.599953
O O12 0.845327 0.908747 0.255556
O O13 0.742025 0.000000 0.147458
O O14 0.712481 0.895992 0.920365
O O15 0.114670 0.148053 0.394386
O O16 0.000000 0.088995 0.500000
#
# Coordination Sequence:
#
# PCOD9202324 Si02
#       7
#     8   4   8   8   8   8   8
#     4  12  23  37  64  96 133 170 217 280 359 433
#     4  12  32  52  74 106 151 199 247 299 358 430
#     4  10  22  37  65  95 126 169 223 288 344 421
#     4  11  25  43  67  93 129 180 239 282 344 420
#     4  12  25  42  70  96 138 182 236 287 351 428
#     4  11  23  41  64  97 134 170 222 289 359 424
#     4  10  20  38  60  96 130 165 215 281 362 421
#
# _framework density 21.65964
#
# number of rings (size 3 to 8) (size 9 to 14) (size 15 to 20)
#    0.000    0.923    5.385    1.385    3.231    3.385 
#    0.000    0.000    0.000    0.462    0.000    0.000 
#    0.000    0.000    0.000    0.000    0.000    0.000 
#
# Total GULP energy -144826.916413 kJ/mol
# GULP energy per Si atom -5570.266016 kJ/mol
# Density = 2.161034 g / cm^3
# Si number density = 21.659640 Si / 1000 Ang^3
#
#
#
# Elastic Constant Matrix: (Units=GPa)
#
#
# Indices 1 2 3 4 5 6 
#
# 1 30.8304 2.4477 -1.4963 0.0000 -0.4988 0.0000
# 2 2.4477 83.7368 13.5215 0.0000 1.1033 0.0000
# 3 -1.4963 13.5215 86.6774 0.0000 12.7308 0.0000
# 4 0.0000 0.0000 0.0000 27.3834 0.0000 0.6240
# 5 -0.4988 1.1033 12.7308 0.0000 28.6991 0.0000
# 6 0.0000 0.0000 0.0000 0.6240 0.0000 31.9202
#
#
#
# Elastic Compliance Matrix: (Units=1/GPa)
#
#
# Indices 1 2 3 4 5 6 
#
# 1 0.032558 -0.001066 0.000684 0.000000 0.000304 0.000000
# 2 -0.001066 0.012290 -0.001993 0.000000 0.000393 0.000000
# 3 0.000684 -0.001993 0.012672 0.000000 -0.005533 0.000000
# 4 0.000000 0.000000 0.000000 0.036535 0.000000 -0.000714
# 5 0.000304 0.000393 -0.005533 0.000000 0.037289 0.000000
# 6 0.000000 0.000000 0.000000 -0.000714 0.000000 0.031342
#
#
# Mechanical properties :
#
#
# Convention : Reuss Voigt Hill
#
# Bulk Modulus (GPa) = 18.95040 25.57671 22.26356
# Shear Modulus (GPa) = 27.02299 30.05200 28.53749
#
# Velocity S-wave (km/s) = 3.53600 3.72891 3.63373
# Velocity P-wave (km/s) = 5.04373 5.51124 5.28266
#
# Compressibility (1/GPa) = 0.05276932
#
# Stress axis : x y z
#
# Youngs Moduli (GPa) = 30.71413 81.36665 78.91135
#
# Poissons Ratio (x) = 0.08675 -0.05396
# Poissons Ratio (y) = 0.03274 0.15730
# Poissons Ratio (z) = -0.02100 0.16219
#
# Static dielectric constant tensor:
#      x y z
#    x 1.865210 0.000000 0.032300 
#    y 0.000000 1.733350 0.000000 
#    z 0.032300 0.000000 2.001540 
# 
# From -- ./inp_files/21254.got.cif
#   From: 2010.05.17/outbox.cif.g08.bks.cpg/sg12_11_cif.got.tgz:21254.got - 2010.06.03 13:09:07.
