data_PCOD9202066
_publ_section_title
;
Structure prediction by ZEFSAII (Michael W. Deem and Ramdas Pophale) SiO2 
 PCOD9202066
Probable space group: C 2/M
;
_chemical_formula_sum "Si O2"
_cell_formula_units_Z 58
_cell_length_a 23.924818
_cell_length_b 9.856073
_cell_length_c 23.358814
_cell_angle_alpha 90.000000
_cell_angle_beta 30.946669
_cell_angle_gamma 90.000000
_cell_volume 2832.495295
_symmetry_space_group_name_H-M "C 2/M"
_symmetry_group_IT_number 12
_symmetry_cell_setting 'monoclinic'
loop_
_space_group_symop_operation_xyz
x,y,z
-x,y,-z
-x,-y,-z
x,-y,z
1/2+x,1/2+y,z
1/2-x,1/2+y,-z
1/2-x,1/2-y,-z
1/2+x,1/2-y,z
loop_
_atom_site_type_symbol
_atom_site_label
_atom_site_fract_x
_atom_site_fract_y
_atom_site_fract_z
Si Si1 0.389505 0.655323 0.454987
Si Si2 0.407758 0.262438 0.647885
Si Si3 0.428625 0.654327 0.115034
Si Si4 0.983010 0.656250 0.280380
Si Si5 0.069677 0.844474 0.105774
Si Si6 0.239588 0.847031 0.320968
Si Si7 0.000000 0.500000 0.500000
Si Si8 0.786008 0.344329 0.856828
O O1 0.376437 0.500000 0.446406
O O2 0.499877 0.664903 0.395907
O O3 0.401198 0.762687 0.393763
O O4 0.296659 0.688759 0.582808
O O5 0.363379 0.338630 0.631198
O O6 0.455525 0.119629 0.583305
O O7 0.307778 0.236275 0.779488
O O8 0.395066 0.500000 0.130090
O O9 0.504291 0.650448 0.104166
O O10 0.325592 0.742651 0.221166
O O11 0.500000 0.708398 0.000000
O O12 0.950724 0.500000 0.298023
O O13 0.007766 0.744406 0.202691
O O14 0.098816 0.654147 0.211924
O O15 0.076468 0.000000 0.123003
O O16 0.190450 0.794668 0.982427
O O17 0.281949 0.000000 0.284024
O O18 0.756392 0.500000 0.868565
#
# Coordination Sequence:
#
# PCOD9202066 Si02
#       8
#     8   8   8   8   8   8   2   8
#     4  10  21  37  56  82 117 152 185 230 282 344
#     4  11  20  32  54  87 122 154 188 230 284 339
#     4  10  23  41  62  85 110 148 196 237 279 334
#     4  10  21  35  58  87 114 143 184 231 282 341
#     4  10  20  38  58  80 110 149 185 232 281 333
#     4  11  23  37  56  83 116 153 191 236 288 337
#     4  12  20  28  54  92 122 160 186 236 286 332
#     4   9  18  32  54  83 115 146 187 226 274 335
#
# _framework density 20.476645000000001
#
# number of rings (size 3 to 8) (size 9 to 14) (size 15 to 20)
#    0.000    1.793    2.069    2.069    1.931    3.586 
#    0.000    5.517    0.000    0.000    0.000    0.000 
#    0.000    0.000    0.000    0.000    0.000    0.000 
#
# Total GULP energy -161707.495648 kJ/mol
# GULP energy per Si atom -5576.120540 kJ/mol
# Density = 2.043004 g / cm^3
# Si number density = 20.476645 Si / 1000 Ang^3
#
#
#
# Elastic Constant Matrix: (Units=GPa)
#
#
# Indices 1 2 3 4 5 6 
#
# 1 23.7559 12.8642 12.9275 0.0007 19.3237 -0.0002
# 2 12.8642 106.6207 74.1658 0.0022 23.3899 -0.0005
# 3 12.9275 74.1658 124.1275 0.0003 29.4078 -0.0001
# 4 0.0007 0.0022 0.0003 -185.8792 0.0004 58.4453
# 5 19.3237 23.3899 29.4078 0.0004 35.5410 -0.0001
# 6 -0.0002 -0.0005 -0.0001 58.4453 -0.0001 -1.4335
#
#
#
# Elastic Compliance Matrix: (Units=1/GPa)
#
#
# Indices 1 2 3 4 5 6 
#
# 1 0.076331 -0.002284 0.003596 0.000000 -0.042974 0.000000
# 2 -0.002284 0.016429 -0.009094 0.000000 -0.002046 0.000000
# 3 0.003596 -0.009094 0.015126 0.000000 -0.008486 0.000000
# 4 0.000000 0.000000 0.000000 0.000455 0.000000 0.018558
# 5 -0.042974 -0.002046 -0.008486 0.000000 0.059869 0.000000
# 6 0.000000 0.000000 0.000000 0.018558 0.000000 0.059021
#
#
# Mechanical properties :
#
#
# Convention : Reuss Voigt Hill
#
# Bulk Modulus (GPa) = 10.83158 50.49100 30.66129
# Shear Modulus (GPa) = 18.27701 -20.05125 -0.88712
#
# Velocity S-wave (km/s) = 2.99085 -3.13265 -0.65892
# Velocity P-wave (km/s) = 4.15067 3.40979 3.79834
#
# Compressibility (1/GPa) = 0.09232262
#
# Stress axis : x y z
#
# Youngs Moduli (GPa) = 13.10091 60.86760 66.11274
#
# Poissons Ratio (x) = 0.13900 -0.23775
# Poissons Ratio (y) = 0.02992 0.60121
# Poissons Ratio (z) = -0.04711 0.55352
#
# Static dielectric constant tensor:
#      x y z
#    x 1.744160 0.000000 -0.016660 
#    y 0.000000 1.715160 0.000000 
#    z -0.016660 0.000000 1.742530 
# 
# From -- ./inp_files/351379.got.cif
#   From: 2010.05.17/outbox.cif.g08.bks.cpg/sg12_176_cif.got.tgz:351379.got - 2010.06.03 13:09:07.
