data_PCOD9202130
_publ_section_title
;
Structure prediction by ZEFSAII (Michael W. Deem and Ramdas Pophale) SiO2 
 PCOD9202130
Probable space group: C 2/M
;
_chemical_formula_sum "Si O2"
_cell_formula_units_Z 48
_cell_length_a 25.160774
_cell_length_b 7.576240
_cell_length_c 11.956733
_cell_angle_alpha 90.000000
_cell_angle_beta 113.970934
_cell_angle_gamma 90.000000
_cell_volume 2082.660301
_symmetry_space_group_name_H-M "C 2/M"
_symmetry_group_IT_number 12
_symmetry_cell_setting 'monoclinic'
loop_
_space_group_symop_operation_xyz
x,y,z
-x,y,-z
-x,-y,-z
x,-y,z
1/2+x,1/2+y,z
1/2-x,1/2+y,-z
1/2-x,1/2-y,-z
1/2+x,1/2-y,z
loop_
_atom_site_type_symbol
_atom_site_label
_atom_site_fract_x
_atom_site_fract_y
_atom_site_fract_z
Si Si1 0.310605 0.710189 0.989775
Si Si2 0.770364 0.216192 0.712830
Si Si3 0.632555 0.707103 0.362526
Si Si4 0.481999 0.213738 0.861611
Si Si5 0.422311 0.202561 0.226042
Si Si6 0.861567 0.705114 0.388225
O O1 0.319840 0.500000 0.999407
O O2 0.302932 0.767259 0.854952
O O3 0.250000 0.750000 0.000000
O O4 0.364391 0.794893 0.100253
O O5 0.807273 0.277982 0.637882
O O6 0.703979 0.279423 0.663021
O O7 0.769763 0.000000 0.708693
O O8 0.639478 0.500000 0.388580
O O9 0.582596 0.735293 0.228901
O O10 0.615210 0.787769 0.466273
O O11 0.526316 0.281828 0.804487
O O12 0.485582 0.000000 0.866499
O O13 0.500000 0.276585 0.000000
O O14 0.402775 0.283688 0.327844
O O15 0.440329 0.000000 0.263552
O O16 0.854099 0.500000 0.349307
#
# Coordination Sequence:
#
# PCOD9202130 Si02
#       6
#     8   8   8   8   8   8
#     4  11  20  34  57  86 118 149 186 231 284 339
#     4   9  19  36  57  82 116 153 188 232 284 339
#     4  11  23  38  58  85 115 150 193 236 284 336
#     4  10  22  41  63  86 113 148 192 235 280 342
#     4  10  21  38  60  85 115 152 192 235 285 337
#     4  10  20  38  59  80 114 153 191 235 285 340
#
# _framework density 23.047445
#
# number of rings (size 3 to 8) (size 9 to 14) (size 15 to 20)
#    0.000    1.833    1.667    2.500    0.000    2.333 
#    0.000    6.667    0.000    0.000    0.000    0.000 
#    0.000    0.000    0.000    0.000    0.000    0.000 
#
# Total GULP energy -134172.616195 kJ/mol
# GULP energy per Si atom -5590.525675 kJ/mol
# Density = 2.299499 g / cm^3
# Si number density = 23.047445 Si / 1000 Ang^3
#
#
#
# Elastic Constant Matrix: (Units=GPa)
#
#
# Indices 1 2 3 4 5 6 
#
# 1 121.0798 7.2647 22.4876 0.0000 -31.7136 0.0000
# 2 7.2647 60.6469 -0.3063 0.0000 -11.2007 0.0000
# 3 22.4876 -0.3063 102.3194 0.0000 -25.0000 0.0000
# 4 0.0000 0.0000 0.0000 18.7284 0.0000 11.2070
# 5 -31.7136 -11.2007 -25.0000 0.0000 34.2640 0.0000
# 6 0.0000 0.0000 0.0000 11.2070 0.0000 4.1877
#
#
#
# Elastic Compliance Matrix: (Units=1/GPa)
#
#
# Indices 1 2 3 4 5 6 
#
# 1 0.010924 0.000617 0.000147 0.000000 0.010419 0.000000
# 2 0.000617 0.017850 0.001805 0.000000 0.007723 0.000000
# 3 0.000147 0.001805 0.012077 0.000000 0.009537 0.000000
# 4 0.000000 0.000000 0.000000 -0.088783 0.000000 0.237599
# 5 0.010419 0.007723 0.009537 0.000000 0.048312 0.000000
# 6 0.000000 0.000000 0.000000 0.237599 0.000000 -0.397060
#
#
# Mechanical properties :
#
#
# Convention : Reuss Voigt Hill
#
# Bulk Modulus (GPa) = 21.74508 38.10426 29.92467
# Shear Modulus (GPa) = -12.93704 28.40935 7.73615
#
# Velocity S-wave (km/s) = -2.37179 3.51472 1.83410
# Velocity P-wave (km/s) = 1.39816 5.74803 4.18298
#
# Compressibility (1/GPa) = 0.04598742
#
# Stress axis : x y z
#
# Youngs Moduli (GPa) = 91.54286 56.02110 82.80363
#
# Poissons Ratio (x) = -0.03454 -0.01216
# Poissons Ratio (y) = -0.05644 -0.14945
# Poissons Ratio (z) = -0.01344 -0.10111
#
# Static dielectric constant tensor:
#      x y z
#    x 1.860030 0.000000 -0.029890 
#    y 0.000000 1.962120 0.000000 
#    z -0.029890 0.000000 1.839050 
# 
# From -- ./inp_files/173031.got.cif
#   From: 2010.05.17/outbox.cif.g08.bks.cpg/sg12_87_cif.got.tgz:173031.got - 2010.06.03 13:09:07.
