data_PCOD9202940
_publ_section_title
;
Structure prediction by ZEFSAII (Michael W. Deem and Ramdas Pophale) SiO2 
 PCOD9202940
Probable space group: C 2/M
;
_chemical_formula_sum "Si O2"
_cell_formula_units_Z 56
_cell_length_a 15.283810
_cell_length_b 14.003469
_cell_length_c 11.905646
_cell_angle_alpha 90.000000
_cell_angle_beta 111.014696
_cell_angle_gamma 90.000000
_cell_volume 2378.642591
_symmetry_space_group_name_H-M "C 2/M"
_symmetry_group_IT_number 12
_symmetry_cell_setting 'monoclinic'
loop_
_space_group_symop_operation_xyz
x,y,z
-x,y,-z
-x,-y,-z
x,-y,z
1/2+x,1/2+y,z
1/2-x,1/2+y,-z
1/2-x,1/2-y,-z
1/2+x,1/2-y,z
loop_
_atom_site_type_symbol
_atom_site_label
_atom_site_fract_x
_atom_site_fract_y
_atom_site_fract_z
Si Si1 0.760186 0.386514 0.027806
Si Si2 0.470763 0.195947 0.114450
Si Si3 0.366084 0.896577 0.706602
Si Si4 0.459128 0.607409 0.754624
Si Si5 0.080135 0.182288 0.610143
Si Si6 0.284716 0.641562 0.519494
Si Si7 0.754163 0.235199 0.188273
O O1 0.757722 0.500000 0.034462
O O2 0.713649 0.328570 0.109314
O O3 0.864540 0.340591 0.074855
O O4 0.720218 0.344745 0.893525
O O5 0.527867 0.137393 0.235630
O O6 0.501389 0.306027 0.151005
O O7 0.500000 0.171653 0.000000
O O8 0.314053 0.903456 0.563337
O O9 0.315119 0.817580 0.759595
O O10 0.357224 0.000000 0.758282
O O11 0.467186 0.500000 0.804407
O O12 0.525711 0.618589 0.675168
O O13 0.351702 0.621160 0.656886
O O14 0.145920 0.123763 0.554691
O O15 0.150345 0.254945 0.701858
O O16 0.000000 0.231398 0.500000
O O17 0.250000 0.750000 0.500000
#
# Coordination Sequence:
#
# PCOD9202940 Si02
#       7
#     8   8   8   8   8   8   8
#     4  11  23  40  63  89 122 165 207 254 313 370
#     4  12  24  41  61  89 128 165 214 260 310 372
#     4  11  22  38  66  93 120 159 208 262 314 367
#     4  11  23  41  63  90 127 167 210 263 316 370
#     4   9  20  37  63  91 121 160 200 252 311 367
#     4  10  20  38  64  94 129 156 199 261 316 372
#     4  10  21  39  60  94 122 156 205 261 307 367
#
# _framework density 23.542839000000001
#
# number of rings (size 3 to 8) (size 9 to 14) (size 15 to 20)
#    0.000    1.429    4.286    1.286    0.000    6.286 
#    0.000    0.714    0.000    0.429    0.000    0.000 
#    0.000    0.000    0.000    0.000    0.000    0.000 
#
# Total GULP energy -156169.338901 kJ/mol
# GULP energy per Si atom -5577.476389 kJ/mol
# Density = 2.348925 g / cm^3
# Si number density = 23.542839 Si / 1000 Ang^3
#
#
#
# Elastic Constant Matrix: (Units=GPa)
#
#
# Indices 1 2 3 4 5 6 
#
# 1 49.3734 4.3821 12.6697 0.0000 20.0859 0.0000
# 2 4.3821 163.3457 17.6540 0.0000 -1.9483 0.0000
# 3 12.6697 17.6540 88.8339 0.0000 25.4295 0.0000
# 4 0.0000 0.0000 0.0000 7.2844 0.0000 -8.6284
# 5 20.0859 -1.9483 25.4295 0.0000 36.9070 0.0000
# 6 0.0000 0.0000 0.0000 -8.6284 0.0000 7.6612
#
#
#
# Elastic Compliance Matrix: (Units=1/GPa)
#
#
# Indices 1 2 3 4 5 6 
#
# 1 0.026169 -0.000952 0.000683 0.000000 -0.014763 0.000000
# 2 -0.000952 0.006356 -0.001709 0.000000 0.002031 0.000000
# 3 0.000683 -0.001709 0.014489 0.000000 -0.010445 0.000000
# 4 0.000000 0.000000 0.000000 -0.410969 0.000000 -0.462852
# 5 -0.014763 0.002031 -0.010445 0.000000 0.042433 0.000000
# 6 0.000000 0.000000 0.000000 -0.462852 0.000000 -0.390757
#
#
# Mechanical properties :
#
#
# Convention : Reuss Voigt Hill
#
# Bulk Modulus (GPa) = 23.22419 41.21829 32.22124
# Shear Modulus (GPa) = -7.20493 28.16035 10.47771
#
# Velocity S-wave (km/s) = -1.75128 3.46227 2.11191
# Velocity P-wave (km/s) = 2.40764 5.79041 4.43428
#
# Compressibility (1/GPa) = 0.04305855
#
# Stress axis : x y z
#
# Youngs Moduli (GPa) = 38.21349 157.32085 69.01704
#
# Poissons Ratio (x) = 0.14976 -0.04713
# Poissons Ratio (y) = 0.03638 0.11794
# Poissons Ratio (z) = -0.02609 0.26884
#
# Static dielectric constant tensor:
#      x y z
#    x 1.984230 0.000000 0.006950 
#    y 0.000000 1.950190 0.000000 
#    z 0.006950 0.000000 1.974210 
# 
# From -- ./inp_files/223911.got.cif
#   From: 2010.05.17/outbox.cif.g08.bks.cpg/sg12_112_cif.got.tgz:223911.got - 2010.06.03 13:09:07.
