data_PCOD9202992
_publ_section_title
;
Structure prediction by ZEFSAII (Michael W. Deem and Ramdas Pophale) SiO2 
 PCOD9202992
Probable space group: C 2/M
;
_chemical_formula_sum "Si O2"
_cell_formula_units_Z 24
_cell_length_a 7.311724
_cell_length_b 18.683534
_cell_length_c 5.824442
_cell_angle_alpha 90.000000
_cell_angle_beta 91.384840
_cell_angle_gamma 90.000000
_cell_volume 795.437888
_symmetry_space_group_name_H-M "C 2/M"
_symmetry_group_IT_number 12
_symmetry_cell_setting 'monoclinic'
loop_
_space_group_symop_operation_xyz
x,y,z
-x,y,-z
-x,-y,-z
x,-y,z
1/2+x,1/2+y,z
1/2-x,1/2+y,-z
1/2-x,1/2-y,-z
1/2+x,1/2-y,z
loop_
_atom_site_type_symbol
_atom_site_label
_atom_site_fract_x
_atom_site_fract_y
_atom_site_fract_z
Si Si1 0.500000 0.876534 0.000000
Si Si2 0.500000 0.778560 0.500000
Si Si3 0.856711 0.000000 0.756862
Si Si4 0.340760 0.000000 0.744711
Si Si5 0.331326 0.661087 0.751946
O O1 0.691508 0.838390 0.961128
O O2 0.467886 0.930935 0.787617
O O3 0.470353 0.725179 0.714221
O O4 0.317324 0.823655 0.454568
O O5 0.756169 0.000000 0.501599
O O6 0.924465 0.083168 0.748113
O O7 0.780587 0.000000 0.021995
#
# Coordination Sequence:
#
# PCOD9202992 Si02
#       5
#     4   4   4   4   8
#     4   9  18  32  58  88 120 159 210 256 306 369
#     4  10  22  38  56  88 128 164 200 258 320 374
#     4  10  20  38  65  90 121 163 215 258 307 373
#     4   9  18  32  59  96 121 156 209 264 307 368
#     4  10  21  37  60  87 124 162 208 256 313 372
#
# _framework density 30.172059999999998
#
# number of rings (size 3 to 8) (size 9 to 14) (size 15 to 20)
#    0.000    2.333    0.000    3.000    0.000   12.000 
#    0.000    3.333    0.000    8.000    0.000    0.000 
#    0.000    1.333    0.000    0.000    0.000    0.000 
#
# Total GULP energy -67020.232653 kJ/mol
# GULP energy per Si atom -5585.019388 kJ/mol
# Density = 3.010339 g / cm^3
# Si number density = 30.172060 Si / 1000 Ang^3
#
#
#
# Elastic Constant Matrix: (Units=GPa)
#
#
# Indices 1 2 3 4 5 6 
#
# 1 101.8914 47.8281 44.2694 0.0000 4.5748 0.0000
# 2 47.8281 158.3265 57.0224 0.0000 5.6084 0.0000
# 3 44.2694 57.0224 186.5963 0.0000 -5.4098 0.0000
# 4 0.0000 0.0000 0.0000 47.2760 0.0000 -15.4205
# 5 4.5748 5.6084 -5.4098 0.0000 77.7827 0.0000
# 6 0.0000 0.0000 0.0000 -15.4205 0.0000 40.7535
#
#
#
# Elastic Compliance Matrix: (Units=1/GPa)
#
#
# Indices 1 2 3 4 5 6 
#
# 1 0.012074 -0.002906 -0.001995 0.000000 -0.000639 0.000000
# 2 -0.002906 0.007831 -0.001719 0.000000 -0.000513 0.000000
# 3 -0.001995 -0.001719 0.006377 0.000000 0.000685 0.000000
# 4 0.000000 0.000000 0.000000 0.024131 0.000000 0.009131
# 5 -0.000639 -0.000513 0.000685 0.000000 0.012979 0.000000
# 6 0.000000 0.000000 0.000000 0.009131 0.000000 0.027993
#
#
# Mechanical properties :
#
#
# Convention : Reuss Voigt Hill
#
# Bulk Modulus (GPa) = 76.66814 82.78378 79.72596
# Shear Modulus (GPa) = 45.88348 53.00872 49.44610
#
# Velocity S-wave (km/s) = 3.90388 4.19606 4.05261
# Velocity P-wave (km/s) = 6.76652 7.13952 6.95552
#
# Compressibility (1/GPa) = 0.01304323
#
# Stress axis : x y z
#
# Youngs Moduli (GPa) = 82.82242 127.69581 156.80190
#
# Poissons Ratio (x) = 0.37112 0.31281
# Poissons Ratio (y) = 0.24070 0.26947
# Poissons Ratio (z) = 0.16523 0.21945
#
# Static dielectric constant tensor:
#      x y z
#    x 2.464010 0.000000 -0.031020 
#    y 0.000000 2.287450 0.000000 
#    z -0.031020 0.000000 2.332690 
# 
# From -- ./inp_files/5433.got.cif
#   From: 2010.05.17/outbox.cif.g08.bks.cpg/sg12_3_cif.got.tgz:5433.got - 2010.06.03 13:09:07.
