data_PCOD9202433
_publ_section_title
;
Structure prediction by ZEFSAII (Michael W. Deem and Ramdas Pophale) SiO2 
 PCOD9202433
Probable space group: C 2/M
;
_chemical_formula_sum "Si O2"
_cell_formula_units_Z 44
_cell_length_a 18.827767
_cell_length_b 14.609661
_cell_length_c 7.828232
_cell_angle_alpha 90.000000
_cell_angle_beta 67.811452
_cell_angle_gamma 90.000000
_cell_volume 1993.830994
_symmetry_space_group_name_H-M "C 2/M"
_symmetry_group_IT_number 12
_symmetry_cell_setting 'monoclinic'
loop_
_space_group_symop_operation_xyz
x,y,z
-x,y,-z
-x,-y,-z
x,-y,z
1/2+x,1/2+y,z
1/2-x,1/2+y,-z
1/2-x,1/2-y,-z
1/2+x,1/2-y,z
loop_
_atom_site_type_symbol
_atom_site_label
_atom_site_fract_x
_atom_site_fract_y
_atom_site_fract_z
Si Si1 0.050252 0.360099 0.604128
Si Si2 0.659395 0.311453 0.744397
Si Si3 0.850872 0.500000 0.946866
Si Si4 0.764276 0.000000 0.262821
Si Si5 0.591541 0.786869 0.110629
Si Si6 0.825266 0.235198 0.643234
Si Si7 0.647794 0.000000 0.686788
O O1 0.127355 0.326798 0.442970
O O2 0.086596 0.418484 0.720604
O O3 0.000000 0.405995 0.500000
O O4 0.992265 0.284002 0.726748
O O5 0.683567 0.410376 0.787683
O O6 0.734958 0.247556 0.704788
O O7 0.648407 0.321611 0.548779
O O8 0.598426 0.261183 0.920868
O O9 0.812230 0.500000 0.168254
O O10 0.792442 0.500000 0.845496
O O11 0.891969 0.398368 0.906714
O O12 0.710769 0.000000 0.481224
O O13 0.648900 0.728018 0.183260
#
# Coordination Sequence:
#
# PCOD9202433 Si02
#       7
#     8   8   4   4   8   8   4
#     4  10  20  38  61  87 125 165 198 254 312 373
#     4  11  23  39  63  87 122 166 211 258 305 362
#     4  12  25  35  59  96 126 171 200 248 307 373
#     4  12  24  42  60  90 129 166 210 259 309 359
#     4  11  23  39  61  91 130 162 206 249 307 378
#     4  10  21  38  60  86 117 161 206 252 304 361
#     4  12  22  37  58  92 129 164 202 240 309 389
#
# _framework density 22.068069000000001
#
# number of rings (size 3 to 8) (size 9 to 14) (size 15 to 20)
#    0.000    1.091    3.636    3.545    2.545    3.636 
#    0.000    0.000    0.000    2.182    0.000    3.818 
#    0.000    0.000    0.000    0.000    0.000    0.000 
#
# Total GULP energy -122475.611509 kJ/mol
# GULP energy per Si atom -5567.073250 kJ/mol
# Density = 2.201784 g / cm^3
# Si number density = 22.068069 Si / 1000 Ang^3
#
#
#
# Elastic Constant Matrix: (Units=GPa)
#
#
# Indices 1 2 3 4 5 6 
#
# 1 52.7380 5.1017 35.5342 0.0000 17.5440 0.0000
# 2 5.1017 61.0259 29.7106 0.0000 7.6518 0.0000
# 3 35.5342 29.7106 126.0682 0.0000 18.4559 0.0000
# 4 0.0000 0.0000 0.0000 16.0189 0.0000 10.7591
# 5 17.5440 7.6518 18.4559 0.0000 47.3515 0.0000
# 6 0.0000 0.0000 0.0000 10.7591 0.0000 12.0504
#
#
#
# Elastic Compliance Matrix: (Units=1/GPa)
#
#
# Indices 1 2 3 4 5 6 
#
# 1 0.025651 0.001996 -0.006641 0.000000 -0.007238 0.000000
# 2 0.001996 0.018750 -0.004698 0.000000 -0.001939 0.000000
# 3 -0.006641 -0.004698 0.011072 0.000000 -0.001096 0.000000
# 4 0.000000 0.000000 0.000000 0.155942 0.000000 -0.139232
# 5 -0.007238 -0.001939 -0.001096 0.000000 0.024541 0.000000
# 6 0.000000 0.000000 0.000000 -0.139232 0.000000 0.207297
#
#
# Mechanical properties :
#
#
# Convention : Reuss Voigt Hill
#
# Bulk Modulus (GPa) = 27.18299 42.28056 34.73177
# Shear Modulus (GPa) = 10.54410 26.38319 18.46365
#
# Velocity S-wave (km/s) = 2.18823 3.46141 2.89566
# Velocity P-wave (km/s) = 4.32770 5.93092 5.19157
#
# Compressibility (1/GPa) = 0.03678771
#
# Stress axis : x y z
#
# Youngs Moduli (GPa) = 38.98485 53.33411 90.32144
#
# Poissons Ratio (x) = -0.10647 0.59982
# Poissons Ratio (y) = -0.07783 0.42430
# Poissons Ratio (z) = 0.25890 0.25055
#
# Static dielectric constant tensor:
#      x y z
#    x 1.868870 0.000000 0.072190 
#    y 0.000000 1.853890 0.000000 
#    z 0.072190 0.000000 1.893310 
# 
# From -- ./inp_files/85632.got.cif
#   From: 2010.05.17/outbox.cif.g08.bks.cpg/sg12_43_cif.got.tgz:85632.got - 2010.06.03 13:09:07.
