data_PCOD9202133
_publ_section_title
;
Structure prediction by ZEFSAII (Michael W. Deem and Ramdas Pophale) SiO2 
 PCOD9202133
Probable space group: C 2/M
;
_chemical_formula_sum "Si O2"
_cell_formula_units_Z 56
_cell_length_a 14.703229
_cell_length_b 8.788425
_cell_length_c 26.351552
_cell_angle_alpha 90.000000
_cell_angle_beta 113.731267
_cell_angle_gamma 90.000000
_cell_volume 3117.176049
_symmetry_space_group_name_H-M "C 2/M"
_symmetry_group_IT_number 12
_symmetry_cell_setting 'monoclinic'
loop_
_space_group_symop_operation_xyz
x,y,z
-x,y,-z
-x,-y,-z
x,-y,z
1/2+x,1/2+y,z
1/2-x,1/2+y,-z
1/2-x,1/2-y,-z
1/2+x,1/2-y,z
loop_
_atom_site_type_symbol
_atom_site_label
_atom_site_fract_x
_atom_site_fract_y
_atom_site_fract_z
Si Si1 0.081441 0.818623 0.767490
Si Si2 0.508608 0.183453 0.151264
Si Si3 0.482184 0.180041 0.647044
Si Si4 0.705221 0.182344 0.939012
Si Si5 0.416445 0.177454 0.439217
Si Si6 0.728645 0.179159 0.440327
Si Si7 0.788265 0.183442 0.848258
O O1 0.191731 0.747686 0.797433
O O2 0.015420 0.749266 0.798407
O O3 0.033106 0.770775 0.703564
O O4 0.086852 0.000000 0.773971
O O5 0.409994 0.225371 0.096577
O O6 0.609386 0.249587 0.150264
O O7 0.514246 0.000000 0.155116
O O8 0.540893 0.192747 0.607360
O O9 0.371477 0.235884 0.608882
O O10 0.478783 0.000000 0.660016
O O11 0.767490 0.225882 0.902576
O O12 0.708271 0.000000 0.942884
O O13 0.750000 0.250000 0.000000
O O14 0.500000 0.213900 0.500000
O O15 0.322379 0.282131 0.427041
O O16 0.388834 0.000000 0.441375
O O17 0.750000 0.250000 0.500000
O O18 0.715346 0.000000 0.444779
O O19 0.789240 0.000000 0.844802
#
# Coordination Sequence:
#
# PCOD9202133 Si02
#       7
#     8   8   8   8   8   8   8
#     4  11  23  39  60  86 115 150 193 242 294 348
#     4  10  21  39  61  86 117 156 199 244 292 342
#     4  10  22  40  59  80 115 153 185 233 290 343
#     4   9  20  36  56  85 122 159 197 241 287 339
#     4  10  20  38  59  81 110 146 182 222 278 338
#     4  11  22  37  58  83 111 145 183 226 277 336
#     4  10  21  39  61  86 117 156 198 242 293 344
#
# _framework density 17.964979
#
# number of rings (size 3 to 8) (size 9 to 14) (size 15 to 20)
#    0.000    1.857    1.429    3.429    0.000    7.143 
#    0.000    5.714    0.000    0.000    0.000    0.000 
#    0.000    0.000    0.000    0.000    0.000    0.000 
#
# Total GULP energy -156354.071629 kJ/mol
# GULP energy per Si atom -5584.073987 kJ/mol
# Density = 1.792409 g / cm^3
# Si number density = 17.964979 Si / 1000 Ang^3
#
#
#
# Elastic Constant Matrix: (Units=GPa)
#
#
# Indices 1 2 3 4 5 6 
#
# 1 134.1550 49.9750 65.4467 0.0000 8.1351 0.0000
# 2 49.9750 70.2454 51.6984 0.0000 3.3951 0.0000
# 3 65.4467 51.6984 147.8192 0.0000 6.2585 0.0000
# 4 0.0000 0.0000 0.0000 34.4619 0.0000 -0.7590
# 5 8.1351 3.3951 6.2585 0.0000 11.2301 0.0000
# 6 0.0000 0.0000 0.0000 -0.7590 0.0000 33.1740
#
#
#
# Elastic Compliance Matrix: (Units=1/GPa)
#
#
# Indices 1 2 3 4 5 6 
#
# 1 0.011228 -0.005718 -0.002766 0.000000 -0.004864 0.000000
# 2 -0.005718 0.022131 -0.005224 0.000000 0.000363 0.000000
# 3 -0.002766 -0.005224 0.009898 0.000000 -0.001934 0.000000
# 4 0.000000 0.000000 0.000000 0.029032 0.000000 0.000664
# 5 -0.004864 0.000363 -0.001934 0.000000 0.093537 0.000000
# 6 0.000000 0.000000 0.000000 0.000664 0.000000 0.030159
#
#
# Mechanical properties :
#
#
# Convention : Reuss Voigt Hill
#
# Bulk Modulus (GPa) = 63.11974 76.27330 69.69652
# Shear Modulus (GPa) = 21.86452 28.11318 24.98885
#
# Velocity S-wave (km/s) = 3.49243 3.96016 3.73363
# Velocity P-wave (km/s) = 7.17453 7.96613 7.58067
#
# Compressibility (1/GPa) = 0.01584290
#
# Stress axis : x y z
#
# Youngs Moduli (GPa) = 89.06244 45.18640 101.02686
#
# Poissons Ratio (x) = 0.25836 0.27940
# Poissons Ratio (y) = 0.50922 0.52775
# Poissons Ratio (z) = 0.24631 0.23605
#
# Static dielectric constant tensor:
#      x y z
#    x 1.603340 0.000000 0.002110 
#    y 0.000000 1.610690 0.000000 
#    z 0.002110 0.000000 1.594280 
# 
# From -- ./inp_files/309025.got.cif
#   From: 2010.05.17/outbox.cif.g08.bks.cpg/sg12_155_cif.got.tgz:309025.got - 2010.06.03 13:09:07.
