data_PCOD9202306
_publ_section_title
;
Structure prediction by ZEFSAII (Michael W. Deem and Ramdas Pophale) SiO2 
 PCOD9202306
Probable space group: C 2/M
;
_chemical_formula_sum "Si O2"
_cell_formula_units_Z 36
_cell_length_a 8.998252
_cell_length_b 10.484776
_cell_length_c 23.772936
_cell_angle_alpha 90.000000
_cell_angle_beta 53.197957
_cell_angle_gamma 90.000000
_cell_volume 1795.872035
_symmetry_space_group_name_H-M "C 2/M"
_symmetry_group_IT_number 12
_symmetry_cell_setting 'monoclinic'
loop_
_space_group_symop_operation_xyz
x,y,z
-x,y,-z
-x,-y,-z
x,-y,z
1/2+x,1/2+y,z
1/2-x,1/2+y,-z
1/2-x,1/2-y,-z
1/2+x,1/2-y,z
loop_
_atom_site_type_symbol
_atom_site_label
_atom_site_fract_x
_atom_site_fract_y
_atom_site_fract_z
Si Si1 0.000000 0.794382 0.500000
Si Si2 0.937437 0.743248 0.164867
Si Si3 0.923617 0.642258 0.404433
Si Si4 0.314724 0.000000 0.921173
Si Si5 0.541555 0.844195 0.253932
Si Si6 0.963045 0.000000 0.913545
O O1 0.992554 0.716192 0.443440
O O2 0.800780 0.862312 0.544712
O O3 0.053990 0.624168 0.114676
O O4 0.905250 0.707967 0.237480
O O5 0.039190 0.874425 0.124786
O O6 0.730374 0.775107 0.191705
O O7 0.999711 0.500000 0.391431
O O8 0.984312 0.692821 0.329755
O O9 0.150068 0.000000 0.910947
O O10 0.207351 0.000000 0.004525
O O11 0.555073 0.000000 0.248652
#
# Coordination Sequence:
#
# PCOD9202306 Si02
#       6
#     4   8   8   4   8   4
#     4  10  20  38  60  90 116 154 208 246 292 354
#     4  12  20  44  62  90 124 164 202 254 302 366
#     4  10  21  37  61  87 121 160 196 249 300 358
#     4  11  24  43  65  91 125 160 201 255 313 361
#     4  11  23  40  61  89 128 164 201 250 312 358
#     4  11  24  43  65  91 125 160 201 255 313 361
#
# _framework density 20.045970000000001
#
# number of rings (size 3 to 8) (size 9 to 14) (size 15 to 20)
#    0.000    1.111    4.444    2.667    0.000    0.889 
#    0.000    1.111    9.778    0.000    0.000    0.000 
#    0.000    0.000    0.000    0.000    0.000    0.000 
#
# Total GULP energy -100295.581108 kJ/mol
# GULP energy per Si atom -5571.976728 kJ/mol
# Density = 2.000034 g / cm^3
# Si number density = 20.045970 Si / 1000 Ang^3
#
#
#
# Elastic Constant Matrix: (Units=GPa)
#
#
# Indices 1 2 3 4 5 6 
#
# 1 60.9513 30.7879 4.5524 0.0000 5.4338 0.0000
# 2 30.7879 124.3094 35.8866 0.0000 8.0015 0.0000
# 3 4.5524 35.8866 97.5895 0.0000 15.8062 0.0000
# 4 0.0000 0.0000 0.0000 -11.1142 0.0000 8.4909
# 5 5.4338 8.0015 15.8062 0.0000 33.7979 0.0000
# 6 0.0000 0.0000 0.0000 8.4909 0.0000 12.1542
#
#
#
# Elastic Compliance Matrix: (Units=1/GPa)
#
#
# Indices 1 2 3 4 5 6 
#
# 1 0.019024 -0.004935 0.001335 0.000000 -0.002514 0.000000
# 2 -0.004935 0.010293 -0.003558 0.000000 0.000021 0.000000
# 3 0.001335 -0.003558 0.012325 0.000000 -0.005136 0.000000
# 4 0.000000 0.000000 0.000000 -0.058665 0.000000 0.040983
# 5 -0.002514 0.000021 -0.005136 0.000000 0.032389 0.000000
# 6 0.000000 0.000000 0.000000 0.040983 0.000000 0.053645
#
#
# Mechanical properties :
#
#
# Convention : Reuss Voigt Hill
#
# Bulk Modulus (GPa) = 36.59738 47.25600 41.92669
# Shear Modulus (GPa) = 54.09129 21.07578 37.58354
#
# Velocity S-wave (km/s) = 5.20021 3.24601 4.33467
# Velocity P-wave (km/s) = 7.37242 6.13789 6.78330
#
# Compressibility (1/GPa) = 0.02732436
#
# Stress axis : x y z
#
# Youngs Moduli (GPa) = 52.56561 97.15756 81.13569
#
# Poissons Ratio (x) = 0.47948 -0.10828
# Poissons Ratio (y) = 0.25942 0.28868
# Poissons Ratio (z) = -0.07015 0.34569
#
# Static dielectric constant tensor:
#      x y z
#    x 1.687970 0.000000 0.001010 
#    y 0.000000 1.680030 0.000000 
#    z 0.001010 0.000000 1.729520 
# 
# From -- ./inp_files/355396.got.cif
#   From: 2010.05.17/outbox.cif.g08.bks.cpg/sg12_178_cif.got.tgz:355396.got - 2010.06.03 13:09:07.
