data_PCOD9202499
_publ_section_title
;
Structure prediction by ZEFSAII (Michael W. Deem and Ramdas Pophale) SiO2 
 PCOD9202499
Probable space group: C 2/M
;
_chemical_formula_sum "Si O2"
_cell_formula_units_Z 48
_cell_length_a 16.569309
_cell_length_b 8.297334
_cell_length_c 18.333717
_cell_angle_alpha 90.000000
_cell_angle_beta 127.342869
_cell_angle_gamma 90.000000
_cell_volume 2003.878878
_symmetry_space_group_name_H-M "C 2/M"
_symmetry_group_IT_number 12
_symmetry_cell_setting 'monoclinic'
loop_
_space_group_symop_operation_xyz
x,y,z
-x,y,-z
-x,-y,-z
x,-y,z
1/2+x,1/2+y,z
1/2-x,1/2+y,-z
1/2-x,1/2-y,-z
1/2+x,1/2-y,z
loop_
_atom_site_type_symbol
_atom_site_label
_atom_site_fract_x
_atom_site_fract_y
_atom_site_fract_z
Si Si1 0.880682 0.193595 0.634828
Si Si2 0.849796 0.304887 0.463061
Si Si3 0.166057 0.308056 0.704520
Si Si4 0.084538 0.189390 0.811584
Si Si5 0.888243 0.815560 0.870197
Si Si6 0.107749 0.317803 0.975258
O O1 0.905924 0.244100 0.565767
O O2 0.767307 0.250807 0.590114
O O3 0.968623 0.249642 0.737088
O O4 0.879157 0.000000 0.637656
O O5 0.852609 0.500000 0.465536
O O6 0.880250 0.254914 0.398252
O O7 0.146435 0.500000 0.702822
O O8 0.131902 0.219611 0.758515
O O9 0.288253 0.288721 0.768026
O O10 0.136850 0.271963 0.909138
O O11 0.083340 0.000000 0.826240
O O12 0.984788 0.703505 0.909546
O O13 0.922025 0.000000 0.877394
O O14 0.857540 0.791886 0.938269
O O15 0.137772 0.500000 0.008074
#
# Coordination Sequence:
#
# PCOD9202499 Si02
#       6
#     8   8   8   8   8   8
#     4   9  19  36  57  81 107 140 184 228 272 325
#     4   9  18  35  58  81 107 140 180 227 276 324
#     4  10  22  38  56  81 113 148 185 226 273 328
#     4  11  23  38  56  79 112 151 187 226 275 329
#     4  10  20  38  62  84 111 146 183 225 275 327
#     4  11  22  37  59  86 113 141 183 232 274 325
#
# _framework density 23.953543
#
# number of rings (size 3 to 8) (size 9 to 14) (size 15 to 20)
#    0.000    2.000    0.000    4.500    0.000    7.333 
#    0.000    6.667    0.000    0.000    0.000    0.000 
#    0.000    0.000    0.000    0.000    0.000    0.000 
#
# Total GULP energy -134233.395902 kJ/mol
# GULP energy per Si atom -5593.058163 kJ/mol
# Density = 2.389902 g / cm^3
# Si number density = 23.953543 Si / 1000 Ang^3
#
#
#
# Elastic Constant Matrix: (Units=GPa)
#
#
# Indices 1 2 3 4 5 6 
#
# 1 62.8782 -2.4247 14.1646 0.0000 -21.1619 0.0000
# 2 -2.4247 23.7376 5.1589 0.0000 -0.4929 0.0000
# 3 14.1646 5.1589 133.7842 0.0000 -27.4823 0.0000
# 4 0.0000 0.0000 0.0000 19.6870 0.0000 -4.2536
# 5 -21.1619 -0.4929 -27.4823 0.0000 43.7810 0.0000
# 6 0.0000 0.0000 0.0000 -4.2536 0.0000 19.1643
#
#
#
# Elastic Compliance Matrix: (Units=1/GPa)
#
#
# Indices 1 2 3 4 5 6 
#
# 1 0.019108 0.002192 -0.000236 0.000000 0.009113 0.000000
# 2 0.002192 0.042750 -0.001796 0.000000 0.000414 0.000000
# 3 -0.000236 -0.001796 0.008658 0.000000 0.005301 0.000000
# 4 0.000000 0.000000 0.000000 0.053353 0.000000 0.011842
# 5 0.009113 0.000414 0.005301 0.000000 0.030578 0.000000
# 6 0.000000 0.000000 0.000000 0.011842 0.000000 0.054809
#
#
# Mechanical properties :
#
#
# Convention : Reuss Voigt Hill
#
# Bulk Modulus (GPa) = 14.11670 28.24419 21.18044
# Shear Modulus (GPa) = 21.50106 30.09323 25.79715
#
# Velocity S-wave (km/s) = 2.99927 3.54830 3.28528
# Velocity P-wave (km/s) = 4.23088 5.34828 4.82205
#
# Compressibility (1/GPa) = 0.07083808
#
# Stress axis : x y z
#
# Youngs Moduli (GPa) = 52.33307 23.39183 115.50327
#
# Poissons Ratio (x) = -0.05128 0.02722
# Poissons Ratio (y) = -0.11473 0.20740
# Poissons Ratio (z) = 0.01233 0.04200
#
# Static dielectric constant tensor:
#      x y z
#    x 2.013520 0.000000 0.002960 
#    y 0.000000 1.822080 0.000000 
#    z 0.002960 0.000000 1.894240 
# 
# From -- ./inp_files/274582.got.cif
#   From: 2010.05.17/outbox.cif.g08.bks.cpg/sg12_138_cif.got.tgz:274582.got - 2010.06.03 13:09:07.
