data_PCOD9202864
_publ_section_title
;
Structure prediction by ZEFSAII (Michael W. Deem and Ramdas Pophale) SiO2 
 PCOD9202864
Probable space group: C 2/M
;
_chemical_formula_sum "Si O2"
_cell_formula_units_Z 64
_cell_length_a 18.518715
_cell_length_b 32.840308
_cell_length_c 8.626825
_cell_angle_alpha 90.000000
_cell_angle_beta 39.997216
_cell_angle_gamma 90.000000
_cell_volume 3372.185095
_symmetry_space_group_name_H-M "C 2/M"
_symmetry_group_IT_number 12
_symmetry_cell_setting 'monoclinic'
loop_
_space_group_symop_operation_xyz
x,y,z
-x,y,-z
-x,-y,-z
x,-y,z
1/2+x,1/2+y,z
1/2-x,1/2+y,-z
1/2-x,1/2-y,-z
1/2+x,1/2-y,z
loop_
_atom_site_type_symbol
_atom_site_label
_atom_site_fract_x
_atom_site_fract_y
_atom_site_fract_z
Si Si1 0.792427 0.689241 0.529736
Si Si2 0.124798 0.956038 0.853311
Si Si3 0.167742 0.599923 0.991260
Si Si4 0.962550 0.682720 0.731292
Si Si5 0.619942 0.754561 0.886986
Si Si6 0.971025 0.453865 0.232413
Si Si7 0.375962 0.451103 0.779502
Si Si8 0.720270 0.103257 0.546214
O O1 0.706100 0.717180 0.767851
O O2 0.818009 0.714455 0.332071
O O3 0.738719 0.646009 0.584699
O O4 0.916760 0.677042 0.384076
O O5 0.179985 0.927810 0.635141
O O6 0.182476 0.000000 0.751912
O O7 0.124454 0.943580 0.034067
O O8 0.000000 0.959950 0.000000
O O9 0.283422 0.580149 0.862511
O O10 0.179543 0.608732 0.788052
O O11 0.114750 0.641945 0.145724
O O12 0.075708 0.564086 0.153666
O O13 0.000000 0.695308 0.500000
O O14 0.904625 0.719466 0.919417
O O15 0.500000 0.743424 0.000000
O O16 0.943844 0.500000 0.324537
O O17 0.874850 0.419648 0.398696
O O18 0.000000 0.455550 0.000000
O O19 0.500000 0.444788 0.500000
O O20 0.349644 0.500000 0.798296
#
# Coordination Sequence:
#
# PCOD9202864 Si02
#       8
#     8   8   8   8   8   8   8   8
#     4  10  20  38  64  89 117 157 204 248 304 365
#     4  10  22  39  59  85 117 160 210 257 303 353
#     4  11  21  35  59  88 123 162 204 247 307 365
#     4  11  23  38  62  91 125 163 193 246 314 370
#     4   9  20  40  65  90 117 152 203 250 302 371
#     4   9  18  30  50  84 120 156 199 245 291 350
#     4  10  22  40  60  83 122 169 209 254 308 361
#     4  11  20  34  59  87 119 157 202 258 297 352
#
# _framework density 18.978791999999999
#
# number of rings (size 3 to 8) (size 9 to 14) (size 15 to 20)
#    0.000    1.875    2.500    1.500    1.750    3.500 
#    0.000    0.000    0.000    3.000    0.000    0.000 
#    0.000    0.000    0.000    0.000    0.000    0.000 
#
# Total GULP energy -178200.566312 kJ/mol
# GULP energy per Si atom -5568.767697 kJ/mol
# Density = 1.893559 g / cm^3
# Si number density = 18.978792 Si / 1000 Ang^3
#
#
#
# Elastic Constant Matrix: (Units=GPa)
#
#
# Indices 1 2 3 4 5 6 
#
# 1 46.8750 31.7767 11.2363 0.0000 -12.4003 0.0000
# 2 31.7767 99.1788 38.6051 0.0000 -12.7046 0.0000
# 3 11.2363 38.6051 75.0397 0.0000 -8.5082 0.0000
# 4 0.0000 0.0000 0.0000 26.8378 0.0000 2.0858
# 5 -12.4003 -12.7046 -8.5082 0.0000 32.8986 0.0000
# 6 0.0000 0.0000 0.0000 2.0858 0.0000 28.3137
#
#
#
# Elastic Compliance Matrix: (Units=1/GPa)
#
#
# Indices 1 2 3 4 5 6 
#
# 1 0.029068 -0.008702 0.001015 0.000000 0.007859 0.000000
# 2 -0.008702 0.015567 -0.006589 0.000000 0.001028 0.000000
# 3 0.001015 -0.006589 0.016812 0.000000 0.002186 0.000000
# 4 0.000000 0.000000 0.000000 0.037475 0.000000 -0.002761
# 5 0.007859 0.001028 0.002186 0.000000 0.034321 0.000000
# 6 0.000000 0.000000 0.000000 -0.002761 0.000000 0.035522
#
#
# Mechanical properties :
#
#
# Convention : Reuss Voigt Hill
#
# Bulk Modulus (GPa) = 30.39930 42.70329 36.55130
# Shear Modulus (GPa) = 24.00586 26.90837 25.45711
#
# Velocity S-wave (km/s) = 3.56037 3.76947 3.66641
# Velocity P-wave (km/s) = 5.74055 6.44163 6.10117
#
# Compressibility (1/GPa) = 0.03289549
#
# Stress axis : x y z
#
# Youngs Moduli (GPa) = 34.40223 64.23694 59.48113
#
# Poissons Ratio (x) = 0.55898 -0.06039
# Poissons Ratio (y) = 0.29936 0.39194
# Poissons Ratio (z) = -0.03493 0.42328
#
# Static dielectric constant tensor:
#      x y z
#    x 1.842660 0.000000 -0.072010 
#    y 0.000000 1.661030 0.000000 
#    z -0.072010 0.000000 1.697890 
# 
# From -- ./inp_files/80736.got.cif
#   From: 2010.05.17/outbox.cif.g08.bks.cpg/sg12_41_cif.got.tgz:80736.got - 2010.06.03 13:09:07.
