data_PCOD9202587
_publ_section_title
;
Structure prediction by ZEFSAII (Michael W. Deem and Ramdas Pophale) SiO2 
 PCOD9202587
Probable space group: C 2/M
;
_chemical_formula_sum "Si O2"
_cell_formula_units_Z 64
_cell_length_a 20.621613
_cell_length_b 8.727840
_cell_length_c 23.015932
_cell_angle_alpha 90.000000
_cell_angle_beta 54.944685
_cell_angle_gamma 90.000000
_cell_volume 3391.006393
_symmetry_space_group_name_H-M "C 2/M"
_symmetry_group_IT_number 12
_symmetry_cell_setting 'monoclinic'
loop_
_space_group_symop_operation_xyz
x,y,z
-x,y,-z
-x,-y,-z
x,-y,z
1/2+x,1/2+y,z
1/2-x,1/2+y,-z
1/2-x,1/2-y,-z
1/2+x,1/2-y,z
loop_
_atom_site_type_symbol
_atom_site_label
_atom_site_fract_x
_atom_site_fract_y
_atom_site_fract_z
Si Si1 0.952302 0.684653 0.342397
Si Si2 0.663128 0.683634 0.035726
Si Si3 0.365232 0.815509 0.196204
Si Si4 0.778928 0.182386 0.424484
Si Si5 0.591823 0.315494 0.948641
Si Si6 0.291900 0.684013 0.653982
Si Si7 0.036712 0.685069 0.418794
Si Si8 0.023673 0.684359 0.184735
O O1 0.939804 0.500000 0.348407
O O2 0.869448 0.764304 0.370652
O O3 0.984445 0.728701 0.389465
O O4 0.012121 0.720632 0.258793
O O5 0.665143 0.500000 0.036890
O O6 0.599705 0.742686 0.115316
O O7 0.750000 0.750000 0.000000
O O8 0.633343 0.730801 0.987004
O O9 0.371222 0.755056 0.127977
O O10 0.283593 0.766426 0.268567
O O11 0.443383 0.766092 0.192102
O O12 0.366032 0.000000 0.195777
O O13 0.750000 0.250000 0.500000
O O14 0.725765 0.251747 0.400798
O O15 0.772698 0.000000 0.427391
O O16 0.594914 0.500000 0.942470
O O17 0.500000 0.269296 0.000000
O O18 0.293963 0.500000 0.651584
O O19 0.375496 0.747803 0.632378
O O20 0.041186 0.500000 0.416967
O O21 0.000000 0.733326 0.500000
O O22 0.029414 0.500000 0.176617
#
# Coordination Sequence:
#
# PCOD9202587 Si02
#       8
#     8   8   8   8   8   8   8   8
#     4  10  21  40  63  88 125 163 202 252 309 367
#     4  11  24  41  61  88 123 160 202 253 304 361
#     4  10  21  37  61  91 123 158 198 248 303 359
#     4  12  24  38  61  91 122 157 204 252 302 362
#     4  10  21  38  60  87 118 154 201 251 300 351
#     4  11  23  41  62  89 125 159 200 252 304 359
#     4  10  22  40  62  89 122 163 206 248 302 366
#     4  10  20  38  62  88 123 162 198 246 309 362
#
# _framework density 18.873453000000001
#
# number of rings (size 3 to 8) (size 9 to 14) (size 15 to 20)
#    0.000    1.500    2.500    2.625    0.000    5.500 
#    0.000    3.750    0.000    0.000    0.000    0.000 
#    0.000    0.000    0.000    0.000    0.000    0.000 
#
# Total GULP energy -178836.601688 kJ/mol
# GULP energy per Si atom -5588.643803 kJ/mol
# Density = 1.883050 g / cm^3
# Si number density = 18.873453 Si / 1000 Ang^3
#
#
#
# Elastic Constant Matrix: (Units=GPa)
#
#
# Indices 1 2 3 4 5 6 
#
# 1 83.8057 15.2082 6.3156 0.0000 -1.1112 0.0001
# 2 15.2082 13.5399 12.4736 -0.0001 -0.7915 -0.0003
# 3 6.3156 12.4736 92.0747 0.0000 3.5161 0.0001
# 4 0.0000 -0.0001 0.0000 30.7462 0.0000 -5.3177
# 5 -1.1112 -0.7915 3.5161 0.0000 37.6248 0.0000
# 6 0.0001 -0.0003 0.0001 -5.3177 0.0000 31.2773
#
#
#
# Elastic Compliance Matrix: (Units=1/GPa)
#
#
# Indices 1 2 3 4 5 6 
#
# 1 0.015154 -0.018363 0.001451 0.000000 -0.000074 0.000000
# 2 -0.018363 0.106945 -0.013341 0.000000 0.002954 0.000001
# 3 0.001451 -0.013341 0.012623 0.000000 -0.001417 0.000000
# 4 0.000000 0.000000 0.000000 0.033510 0.000000 0.005697
# 5 -0.000074 0.002954 -0.001417 0.000000 0.026771 0.000000
# 6 0.000000 0.000001 0.000000 0.005697 0.000000 0.032941
#
#
# Mechanical properties :
#
#
# Convention : Reuss Voigt Hill
#
# Bulk Modulus (GPa) = 13.47424 28.60165 21.03795
# Shear Modulus (GPa) = 15.96490 30.29119 23.12804
#
# Velocity S-wave (km/s) = 2.91158 4.01054 3.50441
# Velocity P-wave (km/s) = 4.29625 6.05254 5.24838
#
# Compressibility (1/GPa) = 0.07421570
#
# Stress axis : x y z
#
# Youngs Moduli (GPa) = 65.98801 9.35064 79.22209
#
# Poissons Ratio (x) = 0.17170 -0.11495
# Poissons Ratio (y) = 1.21171 1.05693
# Poissons Ratio (z) = -0.09575 0.12475
#
# Static dielectric constant tensor:
#      x y z
#    x 1.592380 0.000000 -0.009390 
#    y 0.000000 1.641360 0.000000 
#    z -0.009390 0.000000 1.633250 
# 
# From -- ./inp_files/346096.got.cif
#   From: 2010.05.17/outbox.cif.g08.bks.cpg/sg12_174_cif.got.tgz:346096.got - 2010.06.03 13:09:07.
