data_PCOD9202843
_publ_section_title
;
Structure prediction by ZEFSAII (Michael W. Deem and Ramdas Pophale) SiO2 
 PCOD9202843
Probable space group: C 2/M
;
_chemical_formula_sum "Si O2"
_cell_formula_units_Z 48
_cell_length_a 8.320995
_cell_length_b 29.778889
_cell_length_c 17.465705
_cell_angle_alpha 90.000000
_cell_angle_beta 145.351462
_cell_angle_gamma 90.000000
_cell_volume 2460.546372
_symmetry_space_group_name_H-M "C 2/M"
_symmetry_group_IT_number 12
_symmetry_cell_setting 'monoclinic'
loop_
_space_group_symop_operation_xyz
x,y,z
-x,y,-z
-x,-y,-z
x,-y,z
1/2+x,1/2+y,z
1/2-x,1/2+y,-z
1/2-x,1/2-y,-z
1/2+x,1/2-y,z
loop_
_atom_site_type_symbol
_atom_site_label
_atom_site_fract_x
_atom_site_fract_y
_atom_site_fract_z
Si Si1 0.698577 0.640781 0.455499
Si Si2 0.185942 0.159865 0.275518
Si Si3 0.248009 0.102204 0.150787
Si Si4 0.806951 0.549466 0.582310
Si Si5 0.120706 0.316349 0.250202
Si Si6 0.725019 0.263695 0.843962
O O1 0.632803 0.639578 0.339392
O O2 0.781456 0.590903 0.514124
O O3 0.425127 0.662277 0.388070
O O4 0.977606 0.669670 0.585031
O O5 0.142069 0.126871 0.187031
O O6 0.974570 0.201601 0.187869
O O7 0.465716 0.064797 0.265318
O O8 0.412489 0.141138 0.168416
O O9 0.000000 0.084870 0.000000
O O10 0.500000 0.547278 0.500000
O O11 0.876343 0.500000 0.578160
O O12 0.168762 0.289895 0.189480
O O13 0.972355 0.279569 0.246486
O O14 0.000000 0.250113 0.000000
#
# Coordination Sequence:
#
# PCOD9202843 Si02
#       6
#     8   8   8   8   8   8
#     4   9  19  38  57  84 110 147 193 234 289 334
#     4   9  20  36  56  80 119 149 189 238 276 333
#     4  11  21  36  58  87 117 151 188 233 286 338
#     4  10  20  38  64  87 111 145 186 233 283 346
#     4  11  21  34  54  77 112 153 194 238 275 331
#     4  11  21  34  51  78 113 157 197 232 278 332
#
# _framework density 19.507863
#
# number of rings (size 3 to 8) (size 9 to 14) (size 15 to 20)
#    0.000    1.833    1.667    3.000    0.000    1.000 
#    0.000   15.000    0.000    0.000    0.000    2.333 
#    0.000    0.000    0.000    0.000    0.000    0.000 
#
# Total GULP energy -133873.905381 kJ/mol
# GULP energy per Si atom -5578.079391 kJ/mol
# Density = 1.946346 g / cm^3
# Si number density = 19.507863 Si / 1000 Ang^3
#
#
#
# Elastic Constant Matrix: (Units=GPa)
#
#
# Indices 1 2 3 4 5 6 
#
# 1 70.4273 33.9605 45.2335 0.0000 2.3130 0.0000
# 2 33.9605 97.6649 49.7563 0.0000 11.3115 0.0000
# 3 45.2335 49.7563 125.3693 0.0000 -2.7790 0.0000
# 4 0.0000 0.0000 0.0000 35.1512 0.0000 4.8468
# 5 2.3130 11.3115 -2.7790 0.0000 26.9350 0.0000
# 6 0.0000 0.0000 0.0000 4.8468 0.0000 14.0017
#
#
#
# Elastic Compliance Matrix: (Units=1/GPa)
#
#
# Indices 1 2 3 4 5 6 
#
# 1 0.019687 -0.003948 -0.005550 0.000000 -0.000605 0.000000
# 2 -0.003948 0.014646 -0.004527 0.000000 -0.006279 0.000000
# 3 -0.005550 -0.004527 0.011855 0.000000 0.003601 0.000000
# 4 0.000000 0.000000 0.000000 0.029874 0.000000 -0.010341
# 5 -0.000605 -0.006279 0.003601 0.000000 0.040187 0.000000
# 6 0.000000 0.000000 0.000000 -0.010341 0.000000 0.075000
#
#
# Mechanical properties :
#
#
# Convention : Reuss Voigt Hill
#
# Bulk Modulus (GPa) = 55.13303 61.26247 58.19775
# Shear Modulus (GPa) = 22.18821 26.18498 24.18660
#
# Velocity S-wave (km/s) = 3.37619 3.66769 3.52495
# Velocity P-wave (km/s) = 6.59709 7.02909 6.81651
#
# Compressibility (1/GPa) = 0.01813795
#
# Stress axis : x y z
#
# Youngs Moduli (GPa) = 50.79442 68.27992 84.35064
#
# Poissons Ratio (x) = 0.26959 0.46811
# Poissons Ratio (y) = 0.20055 0.38186
# Poissons Ratio (z) = 0.28189 0.30911
#
# Static dielectric constant tensor:
#      x y z
#    x 1.748190 0.000000 -0.000310 
#    y 0.000000 1.689350 0.000000 
#    z -0.000310 0.000000 1.676630 
# 
# From -- ./inp_files/200215.got.cif
#   From: 2010.05.17/outbox.cif.g08.bks.cpg/sg12_101_cif.got.tgz:200215.got - 2010.06.03 13:09:07.
