data_PCOD9202606
_publ_section_title
;
Structure prediction by ZEFSAII (Michael W. Deem and Ramdas Pophale) SiO2 
 PCOD9202606
Probable space group: C 2/M
;
_chemical_formula_sum "Si O2"
_cell_formula_units_Z 56
_cell_length_a 8.617016
_cell_length_b 12.171508
_cell_length_c 29.688465
_cell_angle_alpha 90.000000
_cell_angle_beta 60.643755
_cell_angle_gamma 90.000000
_cell_volume 2713.941586
_symmetry_space_group_name_H-M "C 2/M"
_symmetry_group_IT_number 12
_symmetry_cell_setting 'monoclinic'
loop_
_space_group_symop_operation_xyz
x,y,z
-x,y,-z
-x,-y,-z
x,-y,z
1/2+x,1/2+y,z
1/2-x,1/2+y,-z
1/2-x,1/2-y,-z
1/2+x,1/2-y,z
loop_
_atom_site_type_symbol
_atom_site_label
_atom_site_fract_x
_atom_site_fract_y
_atom_site_fract_z
Si Si1 0.916627 0.780671 0.799325
Si Si2 0.955784 0.184268 0.378065
Si Si3 0.148223 0.129448 0.018153
Si Si4 0.625532 0.315137 0.449851
Si Si5 0.599095 0.623739 0.860026
Si Si6 0.289239 0.000000 0.483070
Si Si7 0.751542 0.630013 0.266506
Si Si8 0.190282 0.500000 0.412318
O O1 0.755864 0.711341 0.844015
O O2 0.835695 0.851172 0.770170
O O3 0.011949 0.851977 0.823979
O O4 0.060934 0.693286 0.760144
O O5 0.825069 0.283723 0.406349
O O6 0.034251 0.153466 0.415893
O O7 0.118947 0.186849 0.321037
O O8 0.807158 0.101433 0.379777
O O9 0.048417 0.133397 0.080282
O O10 0.228538 0.000000 0.003967
O O11 0.250000 0.250000 0.000000
O O12 0.000000 0.131045 0.000000
O O13 0.500000 0.235118 0.500000
O O14 0.674875 0.399918 0.481456
O O15 0.672020 0.500000 0.851107
O O16 0.482981 0.000000 0.432345
O O17 0.301164 0.000000 0.534691
O O18 0.766531 0.500000 0.274242
#
# Coordination Sequence:
#
# PCOD9202606 Si02
#       8
#     8   8   8   8   8   4   8   4
#     4  10  22  39  63  90 117 156 210 255 305 362
#     4  12  24  40  61  83 116 148 186 237 299 358
#     4  10  21  37  59  92 134 175 215 264 317 375
#     4  12  24  40  60  86 113 148 186 233 285 366
#     4  10  20  38  62  89 124 166 210 257 307 363
#     4  11  24  39  60  85 112 147 188 227 282 352
#     4  11  23  42  63  87 119 154 195 254 309 359
#     4  11  23  40  59  84 113 148 185 228 284 359
#
# _framework density 20.634194000000001
#
# number of rings (size 3 to 8) (size 9 to 14) (size 15 to 20)
#    0.000    1.143    2.143    4.500    2.000    0.286 
#    0.000    3.571    1.571    0.000    0.000    0.000 
#    0.000    0.000    0.000    0.000    0.000    0.000 
#
# Total GULP energy -155989.795565 kJ/mol
# GULP energy per Si atom -5571.064127 kJ/mol
# Density = 2.058723 g / cm^3
# Si number density = 20.634194 Si / 1000 Ang^3
#
#
#
# Elastic Constant Matrix: (Units=GPa)
#
#
# Indices 1 2 3 4 5 6 
#
# 1 65.0684 6.9616 -3.7343 0.0000 -7.1410 0.0000
# 2 6.9616 76.1313 20.0579 0.0000 -9.2159 0.0000
# 3 -3.7343 20.0579 77.2830 0.0000 -10.7776 0.0000
# 4 0.0000 0.0000 0.0000 -14.4008 0.0000 32.8242
# 5 -7.1410 -9.2159 -10.7776 0.0000 27.6288 0.0000
# 6 0.0000 0.0000 0.0000 32.8242 0.0000 -20.6060
#
#
#
# Elastic Compliance Matrix: (Units=1/GPa)
#
#
# Indices 1 2 3 4 5 6 
#
# 1 0.016100 -0.001404 0.001753 0.000000 0.004376 0.000000
# 2 -0.001404 0.014542 -0.003401 0.000000 0.003161 0.000000
# 3 0.001753 -0.003401 0.014606 0.000000 0.005016 0.000000
# 4 0.000000 0.000000 0.000000 0.026395 0.000000 0.042045
# 5 0.004376 0.003161 0.005016 0.000000 0.040336 0.000000
# 6 0.000000 0.000000 0.000000 0.042045 0.000000 0.018446
#
#
# Mechanical properties :
#
#
# Convention : Reuss Voigt Hill
#
# Bulk Modulus (GPa) = 25.54752 29.45035 27.49893
# Shear Modulus (GPa) = 33.42714 11.53756 22.48235
#
# Velocity S-wave (km/s) = 4.02927 2.36720 3.30444
# Velocity P-wave (km/s) = 5.83565 4.66638 5.28346
#
# Compressibility (1/GPa) = 0.03914274
#
# Stress axis : x y z
#
# Youngs Moduli (GPa) = 62.11351 68.76448 68.46293
#
# Poissons Ratio (x) = 0.09656 -0.11999
# Poissons Ratio (y) = 0.08722 0.23286
# Poissons Ratio (z) = -0.10886 0.23389
#
# Static dielectric constant tensor:
#      x y z
#    x 1.756990 0.000000 -0.021550 
#    y 0.000000 1.529970 0.000000 
#    z -0.021550 0.000000 1.776970 
# 
# From -- ./inp_files/372105.got.cif
#   From: 2010.05.17/outbox.cif.g08.bks.cpg/sg12_187_cif.got.tgz:372105.got - 2010.06.03 13:09:07.
