data_PCOD9202556
_publ_section_title
;
Structure prediction by ZEFSAII (Michael W. Deem and Ramdas Pophale) SiO2 
 PCOD9202556
Probable space group: C 2/M
;
_chemical_formula_sum "Si O2"
_cell_formula_units_Z 56
_cell_length_a 13.191995
_cell_length_b 17.273048
_cell_length_c 17.284572
_cell_angle_alpha 90.000000
_cell_angle_beta 46.007329
_cell_angle_gamma 90.000000
_cell_volume 2833.516969
_symmetry_space_group_name_H-M "C 2/M"
_symmetry_group_IT_number 12
_symmetry_cell_setting 'monoclinic'
loop_
_space_group_symop_operation_xyz
x,y,z
-x,y,-z
-x,-y,-z
x,-y,z
1/2+x,1/2+y,z
1/2-x,1/2+y,-z
1/2-x,1/2-y,-z
1/2+x,1/2-y,z
loop_
_atom_site_type_symbol
_atom_site_label
_atom_site_fract_x
_atom_site_fract_y
_atom_site_fract_z
Si Si1 0.148622 0.153737 0.663185
Si Si2 0.141458 0.087716 0.134826
Si Si3 0.340754 0.908211 0.432712
Si Si4 0.264249 0.679517 0.053367
Si Si5 0.913833 0.309407 0.618993
Si Si6 0.718216 0.210633 0.826403
Si Si7 0.439282 0.825601 0.241676
O O1 0.212126 0.132546 0.546154
O O2 0.278846 0.147252 0.653967
O O3 0.094204 0.241926 0.701955
O O4 0.019335 0.099970 0.754365
O O5 0.232916 0.143531 0.141715
O O6 0.186650 0.000000 0.119703
O O7 0.157364 0.114926 0.037467
O O8 0.481302 0.867991 0.393624
O O9 0.348480 0.886724 0.338290
O O10 0.338292 0.000000 0.447043
O O11 0.329531 0.716705 0.095726
O O12 0.104357 0.655937 0.158339
O O13 0.250000 0.750000 0.000000
O O14 0.850949 0.242932 0.706717
O O15 0.000000 0.276490 0.500000
O O16 0.605729 0.182705 0.823530
#
# Coordination Sequence:
#
# PCOD9202556 Si02
#       7
#     8   8   8   8   8   8   8
#     4  10  20  38  62  87 117 161 203 239 290 347
#     4  11  23  39  60  88 124 156 191 243 303 356
#     4  11  22  36  58  91 129 156 189 243 301 357
#     4  10  20  40  60  86 111 154 204 239 288 338
#     4   9  19  36  62  89 115 156 203 245 281 344
#     4  10  21  39  62  89 114 150 200 246 289 344
#     4  11  21  39  65  88 112 157 203 248 284 354
#
# _framework density 19.763425000000002
#
# number of rings (size 3 to 8) (size 9 to 14) (size 15 to 20)
#    0.000    1.714    4.286    0.857    0.000    8.857 
#    0.000    0.714    0.000    5.571    0.000    0.000 
#    0.000    0.000    0.000    0.000    0.000    0.000 
#
# Total GULP energy -156307.344403 kJ/mol
# GULP energy per Si atom -5582.405157 kJ/mol
# Density = 1.971844 g / cm^3
# Si number density = 19.763425 Si / 1000 Ang^3
#
#
#
# Elastic Constant Matrix: (Units=GPa)
#
#
# Indices 1 2 3 4 5 6 
#
# 1 74.7530 1.1063 25.5534 0.0000 7.5957 0.0000
# 2 1.1063 72.1286 21.9924 0.0000 9.8791 0.0000
# 3 25.5534 21.9924 114.0848 0.0001 8.3643 -0.0001
# 4 0.0000 0.0000 0.0001 9.7639 -0.0001 3.9242
# 5 7.5957 9.8791 8.3643 -0.0001 29.8805 0.0000
# 6 0.0000 0.0000 -0.0001 3.9242 0.0000 10.4399
#
#
#
# Elastic Compliance Matrix: (Units=1/GPa)
#
#
# Indices 1 2 3 4 5 6 
#
# 1 0.014824 0.001229 -0.003319 0.000000 -0.003245 0.000000
# 2 0.001229 0.015357 -0.002900 0.000000 -0.004578 0.000000
# 3 -0.003319 -0.002900 0.010144 0.000000 -0.001037 0.000000
# 4 0.000000 0.000000 0.000000 0.120644 0.000000 -0.045348
# 5 -0.003245 -0.004578 -0.001037 0.000000 0.036095 0.000000
# 6 0.000000 0.000000 0.000000 -0.045348 0.000000 0.112832
#
#
# Mechanical properties :
#
#
# Convention : Reuss Voigt Hill
#
# Bulk Modulus (GPa) = 32.95549 39.80784 36.38167
# Shear Modulus (GPa) = 15.15194 24.17115 19.66154
#
# Velocity S-wave (km/s) = 2.77188 3.50097 3.15754
# Velocity P-wave (km/s) = 5.19188 6.04386 5.63400
#
# Compressibility (1/GPa) = 0.03034395
#
# Stress axis : x y z
#
# Youngs Moduli (GPa) = 67.45986 65.11894 98.58088
#
# Poissons Ratio (x) = -0.08005 0.32722
# Poissons Ratio (y) = -0.08292 0.28589
# Poissons Ratio (z) = 0.22392 0.18885
#
# Static dielectric constant tensor:
#      x y z
#    x 1.738250 0.000000 0.012610 
#    y 0.000000 1.674680 0.000000 
#    z 0.012610 0.000000 1.742620 
# 
# From -- ./inp_files/271372.got.cif
#   From: 2010.05.17/outbox.cif.g08.bks.cpg/sg12_136_cif.got.tgz:271372.got - 2010.06.03 13:09:07.
