data_PCOD9202182
_publ_section_title
;
Structure prediction by ZEFSAII (Michael W. Deem and Ramdas Pophale) SiO2 
 PCOD9202182
Probable space group: C 2/M
;
_chemical_formula_sum "Si O2"
_cell_formula_units_Z 64
_cell_length_a 11.086988
_cell_length_b 32.473696
_cell_length_c 8.960030
_cell_angle_alpha 90.000000
_cell_angle_beta 88.471883
_cell_angle_gamma 90.000000
_cell_volume 3224.781409
_symmetry_space_group_name_H-M "C 2/M"
_symmetry_group_IT_number 12
_symmetry_cell_setting 'monoclinic'
loop_
_space_group_symop_operation_xyz
x,y,z
-x,y,-z
-x,-y,-z
x,-y,z
1/2+x,1/2+y,z
1/2-x,1/2+y,-z
1/2-x,1/2-y,-z
1/2+x,1/2-y,z
loop_
_atom_site_type_symbol
_atom_site_label
_atom_site_fract_x
_atom_site_fract_y
_atom_site_fract_z
Si Si1 0.689727 0.046711 0.066310
Si Si2 0.702389 0.174546 0.350521
Si Si3 0.478153 0.802404 0.175261
Si Si4 0.948358 0.452829 0.246919
Si Si5 0.346410 0.622968 0.112663
Si Si6 0.337908 0.129142 0.347716
Si Si7 0.593104 0.348596 0.201859
Si Si8 0.940455 0.774465 0.348098
O O1 0.586604 0.055637 0.193754
O O2 0.795950 0.079394 0.064295
O O3 0.731160 0.000000 0.088344
O O4 0.624239 0.048592 0.907853
O O5 0.602706 0.199171 0.262568
O O6 0.754370 0.141145 0.234391
O O7 0.648821 0.152280 0.496159
O O8 0.817287 0.201886 0.390438
O O9 0.412222 0.844465 0.223554
O O10 0.408109 0.762794 0.239438
O O11 0.500000 0.800601 0.000000
O O12 0.940154 0.500000 0.304189
O O13 0.889904 0.416950 0.347423
O O14 0.477698 0.621692 0.183683
O O15 0.355027 0.653249 0.968700
O O16 0.197851 0.133427 0.302850
O O17 0.533600 0.306554 0.266081
O O18 0.000000 0.759863 0.500000
#
# Coordination Sequence:
#
# PCOD9202182 Si02
#       8
#     8   8   8   8   8   8   8   8
#     4   9  17  33  58  90 126 166 209 263 318 371
#     4  11  25  42  65  91 123 169 212 261 319 383
#     4  12  29  41  64  94 124 166 213 273 317 375
#     4   9  19  34  62  96 128 165 211 262 317 379
#     4  10  20  38  59  87 124 160 215 264 303 381
#     4  12  22  41  65  91 128 169 210 258 327 380
#     4  10  22  37  63  88 122 169 210 263 315 372
#     4  11  24  44  65  90 129 165 215 261 319 378
#
# _framework density 19.846305000000001
#
# number of rings (size 3 to 8) (size 9 to 14) (size 15 to 20)
#    0.000    1.500    2.500    3.375    7.000    1.500 
#    0.000    2.500    0.000    3.000    0.000    2.625 
#    0.000    0.000    0.000    0.000    0.000    0.000 
#
# Total GULP energy -178792.526224 kJ/mol
# GULP energy per Si atom -5587.266445 kJ/mol
# Density = 1.980113 g / cm^3
# Si number density = 19.846305 Si / 1000 Ang^3
#
#
#
# Elastic Constant Matrix: (Units=GPa)
#
#
# Indices 1 2 3 4 5 6 
#
# 1 45.3019 24.7085 20.1891 0.0000 1.3483 0.0000
# 2 24.7085 88.3597 33.5313 0.0000 -10.5108 0.0000
# 3 20.1891 33.5313 97.9359 0.0000 -6.6717 0.0000
# 4 0.0000 0.0000 0.0000 7.5699 0.0000 -9.8127
# 5 1.3483 -10.5108 -6.6717 0.0000 21.4826 0.0000
# 6 0.0000 0.0000 0.0000 -9.8127 0.0000 14.7439
#
#
#
# Elastic Compliance Matrix: (Units=1/GPa)
#
#
# Indices 1 2 3 4 5 6 
#
# 1 0.027811 -0.007121 -0.003730 0.000000 -0.006388 0.000000
# 2 -0.007121 0.015399 -0.003331 0.000000 0.006947 0.000000
# 3 -0.003730 -0.003331 0.012285 0.000000 0.002420 0.000000
# 4 0.000000 0.000000 0.000000 0.962376 0.000000 0.640501
# 5 -0.006388 0.006947 0.002420 0.000000 0.051101 0.000000
# 6 0.000000 0.000000 0.000000 0.640501 0.000000 0.494104
#
#
# Mechanical properties :
#
#
# Convention : Reuss Voigt Hill
#
# Bulk Modulus (GPa) = 36.85951 43.16170 40.01060
# Shear Modulus (GPa) = 3.12406 18.97051 11.04728
#
# Velocity S-wave (km/s) = 1.25600 3.09507 2.36189
# Velocity P-wave (km/s) = 4.55150 5.87944 5.25757
#
# Compressibility (1/GPa) = 0.02713004
#
# Stress axis : x y z
#
# Youngs Moduli (GPa) = 35.95746 64.93848 81.39982
#
# Poissons Ratio (x) = 0.46244 0.30363
# Poissons Ratio (y) = 0.25606 0.27115
# Poissons Ratio (z) = 0.13412 0.21632
#
# Static dielectric constant tensor:
#      x y z
#    x 1.726270 0.000000 -0.000850 
#    y 0.000000 1.700900 0.000000 
#    z -0.000850 0.000000 1.702020 
# 
# From -- ./inp_files/54696.got.cif
#   From: 2010.05.17/outbox.cif.g08.bks.cpg/sg12_28_cif.got.tgz:54696.got - 2010.06.03 13:09:07.
