data_PCOD9202956
_publ_section_title
;
Structure prediction by ZEFSAII (Michael W. Deem and Ramdas Pophale) SiO2 
 PCOD9202956
Probable space group: C 2/M
;
_chemical_formula_sum "Si O2"
_cell_formula_units_Z 52
_cell_length_a 9.112798
_cell_length_b 20.977081
_cell_length_c 17.639518
_cell_angle_alpha 90.000000
_cell_angle_beta 45.864838
_cell_angle_gamma 90.000000
_cell_volume 2420.058731
_symmetry_space_group_name_H-M "C 2/M"
_symmetry_group_IT_number 12
_symmetry_cell_setting 'monoclinic'
loop_
_space_group_symop_operation_xyz
x,y,z
-x,y,-z
-x,-y,-z
x,-y,z
1/2+x,1/2+y,z
1/2-x,1/2+y,-z
1/2-x,1/2-y,-z
1/2+x,1/2-y,z
loop_
_atom_site_type_symbol
_atom_site_label
_atom_site_fract_x
_atom_site_fract_y
_atom_site_fract_z
Si Si1 0.963524 0.500000 0.807356
Si Si2 0.494423 0.774977 0.779129
Si Si3 0.761684 0.700764 0.564305
Si Si4 0.743597 0.613265 0.791786
Si Si5 0.191283 0.844173 0.078954
Si Si6 0.235982 0.570567 0.391246
Si Si7 0.112708 0.622284 0.842545
O O1 0.835962 0.555941 0.806920
O O2 0.086033 0.556250 0.810087
O O3 0.630423 0.729626 0.679195
O O4 0.362274 0.822756 0.774614
O O5 0.354832 0.729164 0.881909
O O6 0.645933 0.819339 0.773488
O O7 0.750000 0.750000 0.500000
O O8 0.684645 0.627683 0.583415
O O9 0.000000 0.696792 0.500000
O O10 0.505026 0.626822 0.891404
O O11 0.763136 0.595512 0.695866
O O12 0.227929 0.878698 0.146487
O O13 0.393430 0.858005 0.958501
O O14 0.331836 0.500000 0.362472
O O15 0.000000 0.563253 0.500000
#
# Coordination Sequence:
#
# PCOD9202956 Si02
#       7
#     4   8   8   8   8   8   8
#     4  10  24  44  61  89 129 165 219 262 332 375
#     4  11  22  39  65  94 132 163 218 266 327 374
#     4  11  24  40  66  98 131 170 214 267 322 387
#     4  11  22  39  67  96 124 174 217 269 313 397
#     4  11  23  39  65  92 127 164 223 263 330 388
#     4  10  20  38  64  96 127 163 213 259 316 379
#     4  10  25  42  60  93 128 172 207 278 323 390
#
# _framework density 21.487082999999998
#
# number of rings (size 3 to 8) (size 9 to 14) (size 15 to 20)
#    0.000    1.385    2.308    3.231    2.154    6.769 
#    0.000    0.000    0.000    0.462    0.000    0.000 
#    0.000    0.000    0.000    0.000    0.000    0.000 
#
# Total GULP energy -144771.296957 kJ/mol
# GULP energy per Si atom -5568.126806 kJ/mol
# Density = 2.143818 g / cm^3
# Si number density = 21.487083 Si / 1000 Ang^3
#
#
#
# Elastic Constant Matrix: (Units=GPa)
#
#
# Indices 1 2 3 4 5 6 
#
# 1 73.0311 35.7140 -13.6373 -0.0002 2.0979 -0.0002
# 2 35.7140 196.8192 9.8409 -0.0002 15.2852 -0.0002
# 3 -13.6373 9.8409 44.2228 0.0012 -3.8272 0.0010
# 4 -0.0002 -0.0002 0.0012 -652.4051 -0.0003 -577.5203
# 5 2.0979 15.2852 -3.8272 -0.0003 25.1261 -0.0003
# 6 -0.0002 -0.0002 0.0010 -577.5203 -0.0003 -481.1887
#
#
#
# Elastic Compliance Matrix: (Units=1/GPa)
#
#
# Indices 1 2 3 4 5 6 
#
# 1 0.016424 -0.003403 0.005961 0.000000 0.001607 0.000000
# 2 -0.003403 0.006136 -0.002750 0.000000 -0.003868 0.000000
# 3 0.005961 -0.002750 0.025501 0.000000 0.005059 0.000000
# 4 0.000000 0.000000 0.000000 0.024551 0.000000 -0.029466
# 5 0.001607 -0.003868 0.005059 0.000000 0.042789 0.000000
# 6 0.000000 0.000000 0.000000 -0.029466 0.000000 0.033286
#
#
# Mechanical properties :
#
#
# Convention : Reuss Voigt Hill
#
# Bulk Modulus (GPa) = 20.97414 41.98980 31.48197
# Shear Modulus (GPa) = 30.30994 -202.88318 -86.28662
#
# Velocity S-wave (km/s) = 3.75989 -9.72759 -6.34386
# Velocity P-wave (km/s) = 5.35084 10.32394 6.24308
#
# Compressibility (1/GPa) = 0.04767777
#
# Stress axis : x y z
#
# Youngs Moduli (GPa) = 60.88670 162.96867 39.21447
#
# Poissons Ratio (x) = 0.55459 -0.23376
# Poissons Ratio (y) = 0.20720 0.10782
# Poissons Ratio (z) = -0.36295 0.44810
#
# Static dielectric constant tensor:
#      x y z
#    x 1.783020 0.000000 0.016310 
#    y 0.000000 1.802820 0.000000 
#    z 0.016310 0.000000 1.807870 
# 
# From -- ./inp_files/258435.got.cif
#   From: 2010.05.17/outbox.cif.g08.bks.cpg/sg12_130_cif.got.tgz:258435.got - 2010.06.03 13:09:07.
