data_PCOD9202175
_publ_section_title
;
Structure prediction by ZEFSAII (Michael W. Deem and Ramdas Pophale) SiO2 
 PCOD9202175
Probable space group: C 2/M
;
_chemical_formula_sum "Si O2"
_cell_formula_units_Z 40
_cell_length_a 17.037722
_cell_length_b 12.137952
_cell_length_c 8.506061
_cell_angle_alpha 90.000000
_cell_angle_beta 89.497719
_cell_angle_gamma 90.000000
_cell_volume 1759.011781
_symmetry_space_group_name_H-M "C 2/M"
_symmetry_group_IT_number 12
_symmetry_cell_setting 'monoclinic'
loop_
_space_group_symop_operation_xyz
x,y,z
-x,y,-z
-x,-y,-z
x,-y,z
1/2+x,1/2+y,z
1/2-x,1/2+y,-z
1/2-x,1/2-y,-z
1/2+x,1/2-y,z
loop_
_atom_site_type_symbol
_atom_site_label
_atom_site_fract_x
_atom_site_fract_y
_atom_site_fract_z
Si Si1 0.711059 0.374118 0.399576
Si Si2 0.051934 0.265846 0.362233
Si Si3 0.059953 0.168101 0.871725
Si Si4 0.618325 0.122936 0.064732
Si Si5 0.227028 0.170865 0.755358
O O1 0.700089 0.500000 0.347488
O O2 0.629770 0.303795 0.403984
O O3 0.767031 0.302577 0.283464
O O4 0.742308 0.374883 0.578712
O O5 0.074812 0.354265 0.230808
O O6 0.000000 0.316685 0.500000
O O7 0.992092 0.181582 0.281033
O O8 0.144442 0.125631 0.818163
O O9 0.085504 0.285090 0.948779
O O10 0.000000 0.117966 0.000000
O O11 0.708038 0.143193 0.116154
O O12 0.606687 0.000000 0.006867
#
# Coordination Sequence:
#
# PCOD9202175 Si02
#       5
#     8   8   8   8   8
#     4  10  21  37  63  92 119 156 199 245 300 353
#     4  10  20  38  59  86 122 155 195 249 296 344
#     4  10  21  38  60  82 120 161 192 239 300 348
#     4  10  22  38  60  87 118 161 202 239 296 359
#     4  10  20  39  61  88 124 155 196 250 294 349
#
# _framework density 22.740041000000002
#
# number of rings (size 3 to 8) (size 9 to 14) (size 15 to 20)
#    0.000    2.000    2.000    1.200    0.000    5.200 
#    0.000    0.000    0.000   22.200    0.000    0.000 
#    0.000    0.000    0.000    0.000    0.000    0.000 
#
# Total GULP energy -111586.155959 kJ/mol
# GULP energy per Si atom -5579.307798 kJ/mol
# Density = 2.268828 g / cm^3
# Si number density = 22.740041 Si / 1000 Ang^3
#
#
#
# Elastic Constant Matrix: (Units=GPa)
#
#
# Indices 1 2 3 4 5 6 
#
# 1 144.7948 7.2384 19.0412 0.0000 -5.6676 0.0000
# 2 7.2384 136.8573 8.5558 0.0000 0.4714 0.0000
# 3 19.0412 8.5558 50.8031 0.0000 -5.6028 0.0000
# 4 0.0000 0.0000 0.0000 -8.9785 0.0000 4.0373
# 5 -5.6676 0.4714 -5.6028 0.0000 53.4964 0.0000
# 6 0.0000 0.0000 0.0000 4.0373 0.0000 -10.1817
#
#
#
# Elastic Compliance Matrix: (Units=1/GPa)
#
#
# Indices 1 2 3 4 5 6 
#
# 1 0.007284 -0.000222 -0.002638 0.000000 0.000497 0.000000
# 2 -0.000222 0.007393 -0.001185 0.000000 -0.000213 0.000000
# 3 -0.002638 -0.001185 0.021086 0.000000 0.001939 0.000000
# 4 0.000000 0.000000 0.000000 -0.135545 0.000000 -0.053747
# 5 0.000497 -0.000213 0.001939 0.000000 0.018951 0.000000
# 6 0.000000 0.000000 0.000000 -0.053747 0.000000 -0.119527
#
#
# Mechanical properties :
#
#
# Convention : Reuss Voigt Hill
#
# Bulk Modulus (GPa) = 36.13647 44.68067 40.40857
# Shear Modulus (GPa) = -27.31586 26.70854 -0.30366
#
# Velocity S-wave (km/s) = -3.46963 3.43084 -0.36582
# Velocity P-wave (km/s) = 0.35420 5.94856 4.19880
#
# Compressibility (1/GPa) = 0.02767288
#
# Stress axis : x y z
#
# Youngs Moduli (GPa) = 137.29150 135.25456 47.42483
#
# Poissons Ratio (x) = 0.03003 0.12509
# Poissons Ratio (y) = 0.03049 0.05622
# Poissons Ratio (z) = 0.36214 0.16033
#
# Static dielectric constant tensor:
#      x y z
#    x 1.900040 0.000000 -0.049530 
#    y 0.000000 1.872730 0.000000 
#    z -0.049530 0.000000 1.854850 
# 
# From -- ./inp_files/71242.got.cif
#   From: 2010.05.17/outbox.cif.g08.bks.cpg/sg12_36_cif.got.tgz:71242.got - 2010.06.03 13:09:07.
