data_PCOD9202740
_publ_section_title
;
Structure prediction by ZEFSAII (Michael W. Deem and Ramdas Pophale) SiO2 
 PCOD9202740
Probable space group: C 2/M
;
_chemical_formula_sum "Si O2"
_cell_formula_units_Z 60
_cell_length_a 14.555596
_cell_length_b 9.803348
_cell_length_c 22.935866
_cell_angle_alpha 90.000000
_cell_angle_beta 109.655174
_cell_angle_gamma 90.000000
_cell_volume 3082.107621
_symmetry_space_group_name_H-M "C 2/M"
_symmetry_group_IT_number 12
_symmetry_cell_setting 'monoclinic'
loop_
_space_group_symop_operation_xyz
x,y,z
-x,y,-z
-x,-y,-z
x,-y,z
1/2+x,1/2+y,z
1/2-x,1/2+y,-z
1/2-x,1/2-y,-z
1/2+x,1/2-y,z
loop_
_atom_site_type_symbol
_atom_site_label
_atom_site_fract_x
_atom_site_fract_y
_atom_site_fract_z
Si Si1 0.721504 0.656861 0.716376
Si Si2 0.003045 0.844633 0.722447
Si Si3 0.459900 0.840703 0.926784
Si Si4 0.000000 0.284463 0.500000
Si Si5 0.607601 0.340537 0.412800
Si Si6 0.802819 0.349525 0.398110
Si Si7 0.426366 0.156333 0.164329
Si Si8 0.207633 0.837849 0.164445
O O1 0.757267 0.500000 0.720147
O O2 0.612279 0.651022 0.719529
O O3 0.710543 0.732147 0.652302
O O4 0.781920 0.753267 0.773040
O O5 0.937317 0.781779 0.656847
O O6 0.010625 0.755489 0.781716
O O7 0.972232 0.000000 0.729265
O O8 0.544697 0.824422 0.896543
O O9 0.375012 0.736747 0.890836
O O10 0.426361 0.000000 0.916074
O O11 0.500000 0.817178 0.000000
O O12 0.942507 0.208015 0.539246
O O13 0.911274 0.354033 0.446746
O O14 0.584039 0.500000 0.404140
O O15 0.723487 0.325218 0.431889
O O16 0.780517 0.500000 0.367683
O O17 0.312385 0.176831 0.154316
O O18 0.449383 0.000000 0.185211
O O19 0.190304 0.000000 0.169456
#
# Coordination Sequence:
#
# PCOD9202740 Si02
#       8
#     8   8   8   4   8   8   8   8
#     4  10  20  38  63  90 117 155 203 247 298 362
#     4   9  18  36  59  87 115 149 197 250 300 351
#     4  10  22  40  61  89 127 167 205 246 295 355
#     4  12  22  42  62  84 119 164 201 246 301 366
#     4  10  22  39  61  87 116 154 202 248 299 360
#     4  11  24  40  59  89 123 155 196 250 308 361
#     4   9  20  38  59  87 121 160 200 245 299 354
#     4  10  21  38  61  90 124 159 199 252 302 352
#
# _framework density 19.467196999999999
#
# number of rings (size 3 to 8) (size 9 to 14) (size 15 to 20)
#    0.000    2.000    1.333    1.600    1.867    2.933 
#    0.000    1.333    0.000    0.000    0.000    0.000 
#    0.000    0.000    0.000    0.000    0.000    0.000 
#
# Total GULP energy -167352.603941 kJ/mol
# GULP energy per Si atom -5578.420131 kJ/mol
# Density = 1.942289 g / cm^3
# Si number density = 19.467197 Si / 1000 Ang^3
#
#
#
# Elastic Constant Matrix: (Units=GPa)
#
#
# Indices 1 2 3 4 5 6 
#
# 1 85.0563 53.1666 40.5892 0.0000 -0.6119 0.0000
# 2 53.1666 127.1438 81.5122 0.0000 1.4999 0.0000
# 3 40.5892 81.5122 121.9322 0.0000 -4.7667 0.0000
# 4 0.0000 0.0000 0.0000 26.0167 0.0000 0.0733
# 5 -0.6119 1.4999 -4.7667 0.0000 29.5934 0.0000
# 6 0.0000 0.0000 0.0000 0.0733 0.0000 20.8127
#
#
#
# Elastic Compliance Matrix: (Units=1/GPa)
#
#
# Indices 1 2 3 4 5 6 
#
# 1 0.016077 -0.005786 -0.001469 0.000000 0.000389 0.000000
# 2 -0.005786 0.015989 -0.008855 0.000000 -0.002356 0.000000
# 3 -0.001469 -0.008855 0.014719 0.000000 0.002789 0.000000
# 4 0.000000 0.000000 0.000000 0.038437 0.000000 -0.000135
# 5 0.000389 -0.002356 0.002789 0.000000 0.034368 0.000000
# 6 0.000000 0.000000 0.000000 -0.000135 0.000000 0.048048
#
#
# Mechanical properties :
#
#
# Convention : Reuss Voigt Hill
#
# Bulk Modulus (GPa) = 68.65244 76.07427 72.36336
# Shear Modulus (GPa) = 24.42436 25.87548 25.14992
#
# Velocity S-wave (km/s) = 3.54594 3.64975 3.59822
# Velocity P-wave (km/s) = 7.21853 7.54480 7.38346
#
# Compressibility (1/GPa) = 0.01456612
#
# Stress axis : x y z
#
# Youngs Moduli (GPa) = 62.19985 62.54175 67.93988
#
# Poissons Ratio (x) = 0.36186 0.09979
# Poissons Ratio (y) = 0.35988 0.60161
# Poissons Ratio (z) = 0.09136 0.55381
#
# Static dielectric constant tensor:
#      x y z
#    x 1.696890 0.000000 0.012070 
#    y 0.000000 1.679390 0.000000 
#    z 0.012070 0.000000 1.673570 
# 
# From -- ./inp_files/338944.got.cif
#   From: 2010.05.17/outbox.cif.g08.bks.cpg/sg12_170_cif.got.tgz:338944.got - 2010.06.03 13:09:07.
