data_PCOD9202903
_publ_section_title
;
Structure prediction by ZEFSAII (Michael W. Deem and Ramdas Pophale) SiO2 
 PCOD9202903
Probable space group: C 2/M
;
_chemical_formula_sum "Si O2"
_cell_formula_units_Z 58
_cell_length_a 13.456698
_cell_length_b 14.968462
_cell_length_c 14.461418
_cell_angle_alpha 90.000000
_cell_angle_beta 122.970843
_cell_angle_gamma 90.000000
_cell_volume 2443.776082
_symmetry_space_group_name_H-M "C 2/M"
_symmetry_group_IT_number 12
_symmetry_cell_setting 'monoclinic'
loop_
_space_group_symop_operation_xyz
x,y,z
-x,y,-z
-x,-y,-z
x,-y,z
1/2+x,1/2+y,z
1/2-x,1/2+y,-z
1/2-x,1/2-y,-z
1/2+x,1/2-y,z
loop_
_atom_site_type_symbol
_atom_site_label
_atom_site_fract_x
_atom_site_fract_y
_atom_site_fract_z
Si Si1 0.000000 0.000000 0.500000
Si Si2 0.537528 0.597611 0.876622
Si Si3 0.202839 0.398535 0.902819
Si Si4 0.607096 0.838832 0.664741
Si Si5 0.937302 0.867047 0.327529
Si Si6 0.155634 0.397750 0.496464
Si Si7 0.498577 0.206697 0.893128
Si Si8 0.699057 0.103405 0.319807
O O1 0.028054 0.078055 0.436067
O O2 0.484112 0.500000 0.870760
O O3 0.556483 0.605478 0.775854
O O4 0.473553 0.687838 0.874414
O O5 0.664588 0.602932 0.991744
O O6 0.157101 0.500000 0.896147
O O7 0.187908 0.375612 0.787540
O O8 0.123650 0.324309 0.914045
O O9 0.562222 0.739172 0.663786
O O10 0.671735 0.842794 0.598678
O O11 0.486093 0.895190 0.595530
O O12 0.814992 0.896660 0.315077
O O13 0.192349 0.500000 0.533020
O O14 0.213203 0.362089 0.431501
O O15 0.400447 0.157131 0.783830
O O16 0.500000 0.178562 0.000000
O O17 0.662638 0.000000 0.312577
#
# Coordination Sequence:
#
# PCOD9202903 Si02
#       8
#     2   8   8   8   8   8   8   8
#     4  12  24  44  72 100 126 178 236 266 336 416
#     4  11  24  45  67  95 134 183 230 274 333 411
#     4  11  22  39  69 101 135 179 231 276 334 410
#     4  11  21  37  65  99 128 180 230 268 332 409
#     4  12  24  42  71  95 130 174 225 281 329 405
#     4  10  20  38  64  91 135 171 218 276 337 388
#     4  12  25  39  68  98 134 173 221 280 349 404
#     4  11  23  42  65 100 136 166 214 286 347 387
#
# _framework density 23.733761999999999
#
# number of rings (size 3 to 8) (size 9 to 14) (size 15 to 20)
#    0.000    0.828    4.138    4.138    1.931    3.034 
#    0.000    0.000    0.000    0.000    0.000    0.000 
#    0.000    0.000    0.000    0.000    0.000    0.000 
#
# Total GULP energy -162114.709884 kJ/mol
# GULP energy per Si atom -5590.162410 kJ/mol
# Density = 2.367974 g / cm^3
# Si number density = 23.733762 Si / 1000 Ang^3
#
#
#
# Elastic Constant Matrix: (Units=GPa)
#
#
# Indices 1 2 3 4 5 6 
#
# 1 39.5094 -13.8169 12.1755 0.0000 -11.2122 0.0000
# 2 -13.8169 124.5405 3.4368 0.0000 3.0303 0.0000
# 3 12.1755 3.4368 135.8026 0.0000 -34.4179 0.0000
# 4 0.0000 0.0000 0.0000 19.9806 0.0000 -30.0116
# 5 -11.2122 3.0303 -34.4179 0.0000 34.1029 0.0000
# 6 0.0000 0.0000 0.0000 -30.0116 0.0000 -12.0180
#
#
#
# Elastic Compliance Matrix: (Units=1/GPa)
#
#
# Indices 1 2 3 4 5 6 
#
# 1 0.029005 0.003015 -0.000441 0.000000 0.008823 0.000000
# 2 0.003015 0.008388 -0.000565 0.000000 -0.000324 0.000000
# 3 -0.000441 -0.000565 0.009934 0.000000 0.009932 0.000000
# 4 0.000000 0.000000 0.000000 0.010534 0.000000 -0.026307
# 5 0.008823 -0.000324 0.009932 0.000000 0.042276 0.000000
# 6 0.000000 0.000000 0.000000 -0.026307 0.000000 -0.017514
#
#
# Mechanical properties :
#
#
# Convention : Reuss Voigt Hill
#
# Bulk Modulus (GPa) = 19.47536 33.71592 26.59564
# Shear Modulus (GPa) = 52.23658 28.28358 40.26008
#
# Velocity S-wave (km/s) = 4.69651 3.45585 4.12311
# Velocity P-wave (km/s) = 6.13459 5.49187 5.82210
#
# Compressibility (1/GPa) = 0.05134694
#
# Stress axis : x y z
#
# Youngs Moduli (GPa) = 34.47720 119.22489 100.65954
#
# Poissons Ratio (x) = -0.35950 0.04434
# Poissons Ratio (y) = -0.10396 0.05684
# Poissons Ratio (z) = 0.01519 0.06732
#
# Static dielectric constant tensor:
#      x y z
#    x 1.985220 0.000000 0.063090 
#    y 0.000000 1.899610 0.000000 
#    z 0.063090 0.000000 1.939030 
# 
# From -- ./inp_files/215215.got.cif
#   From: 2010.05.17/outbox.cif.g08.bks.cpg/sg12_108_cif.got.tgz:215215.got - 2010.06.03 13:09:07.
