data_PCOD9202265
_publ_section_title
;
Structure prediction by ZEFSAII (Michael W. Deem and Ramdas Pophale) SiO2 
 PCOD9202265
Probable space group: C 2/M
;
_chemical_formula_sum "Si O2"
_cell_formula_units_Z 36
_cell_length_a 10.036762
_cell_length_b 9.729494
_cell_length_c 19.008358
_cell_angle_alpha 90.000000
_cell_angle_beta 73.522680
_cell_angle_gamma 90.000000
_cell_volume 1779.984961
_symmetry_space_group_name_H-M "C 2/M"
_symmetry_group_IT_number 12
_symmetry_cell_setting 'monoclinic'
loop_
_space_group_symop_operation_xyz
x,y,z
-x,y,-z
-x,-y,-z
x,-y,z
1/2+x,1/2+y,z
1/2-x,1/2+y,-z
1/2-x,1/2-y,-z
1/2+x,1/2-y,z
loop_
_atom_site_type_symbol
_atom_site_label
_atom_site_fract_x
_atom_site_fract_y
_atom_site_fract_z
Si Si1 0.000000 0.748075 0.000000
Si Si2 0.153126 0.279879 0.672725
Si Si3 0.977967 0.000000 0.259275
Si Si4 0.015983 0.000000 0.901524
Si Si5 0.188255 0.500000 0.785557
Si Si6 0.440115 0.157865 0.584364
Si Si7 0.816497 0.500000 0.048970
O O1 0.877431 0.637770 0.004170
O O2 0.946619 0.856516 0.066345
O O3 0.083056 0.134139 0.696668
O O4 0.143166 0.370066 0.745131
O O5 0.313125 0.253441 0.628048
O O6 0.063980 0.342321 0.622532
O O7 0.932393 0.000000 0.184944
O O8 0.144418 0.000000 0.236822
O O9 0.848328 0.000000 0.928795
O O10 0.140199 0.500000 0.874239
O O11 0.500000 0.202027 0.500000
O O12 0.389030 0.000000 0.584894
#
# Coordination Sequence:
#
# PCOD9202265 Si02
#       7
#     4   8   4   4   4   8   4
#     4  10  20  38  60  86 116 154 200 238 292 346
#     4  12  22  42  62  90 122 162 200 252 298 360
#     4  11  23  38  61  89 124 158 201 246 304 354
#     4  10  21  37  59  87 119 156 192 245 292 354
#     4  11  23  38  61  89 124 158 201 246 304 354
#     4  11  24  41  63  91 123 158 201 251 305 357
#     4  10  21  37  59  87 119 156 192 245 292 354
#
# _framework density 20.224891
#
# number of rings (size 3 to 8) (size 9 to 14) (size 15 to 20)
#    0.000    1.111    4.444    2.667    0.000    0.000 
#    0.000    1.111    4.889    0.000    0.000    0.000 
#    0.000    0.000    0.000    0.000    0.000    0.000 
#
# Total GULP energy -100481.991368 kJ/mol
# GULP energy per Si atom -5582.332854 kJ/mol
# Density = 2.017886 g / cm^3
# Si number density = 20.224891 Si / 1000 Ang^3
#
#
#
# Elastic Constant Matrix: (Units=GPa)
#
#
# Indices 1 2 3 4 5 6 
#
# 1 63.4958 7.4671 1.9940 0.0000 1.6992 0.0000
# 2 7.4671 127.6256 17.3500 0.0000 -0.6106 0.0000
# 3 1.9940 17.3500 67.5762 0.0000 11.6812 0.0000
# 4 0.0000 0.0000 0.0000 6.3540 0.0000 26.5548
# 5 1.6992 -0.6106 11.6812 0.0000 29.8849 0.0000
# 6 0.0000 0.0000 0.0000 26.5548 0.0000 -0.8013
#
#
#
# Elastic Compliance Matrix: (Units=1/GPa)
#
#
# Indices 1 2 3 4 5 6 
#
# 1 0.015884 -0.000923 -0.000078 0.000000 -0.000892 0.000000
# 2 -0.000923 0.008203 -0.002270 0.000000 0.001108 0.000000
# 3 -0.000078 -0.002270 0.016506 0.000000 -0.006494 0.000000
# 4 0.000000 0.000000 0.000000 0.001128 0.000000 0.037388
# 5 -0.000892 0.001108 -0.006494 0.000000 0.036073 0.000000
# 6 0.000000 0.000000 0.000000 0.037388 0.000000 -0.008946
#
#
# Mechanical properties :
#
#
# Convention : Reuss Voigt Hill
#
# Bulk Modulus (GPa) = 29.36768 34.70222 32.03495
# Shear Modulus (GPa) = 57.64304 22.54662 40.09483
#
# Velocity S-wave (km/s) = 5.34443 3.34248 4.45730
# Velocity P-wave (km/s) = 7.25506 5.66495 6.50875
#
# Compressibility (1/GPa) = 0.03405104
#
# Stress axis : x y z
#
# Youngs Moduli (GPa) = 62.95669 121.90104 60.58471
#
# Poissons Ratio (x) = 0.11252 0.00470
# Poissons Ratio (y) = 0.05811 0.13755
# Poissons Ratio (z) = 0.00488 0.27677
#
# Static dielectric constant tensor:
#      x y z
#    x 1.713470 0.000000 0.021060 
#    y 0.000000 1.705330 0.000000 
#    z 0.021060 0.000000 1.704960 
# 
# From -- ./inp_files/260929.got.cif
#   From: 2010.05.17/outbox.cif.g08.bks.cpg/sg12_131_cif.got.tgz:260929.got - 2010.06.03 13:09:07.
