data_PCOD9202809
_publ_section_title
;
Structure prediction by ZEFSAII (Michael W. Deem and Ramdas Pophale) SiO2 
 PCOD9202809
Probable space group: C 2/M
;
_chemical_formula_sum "Si O2"
_cell_formula_units_Z 64
_cell_length_a 8.677318
_cell_length_b 29.056922
_cell_length_c 12.995484
_cell_angle_alpha 90.000000
_cell_angle_beta 96.427694
_cell_angle_gamma 90.000000
_cell_volume 3256.034181
_symmetry_space_group_name_H-M "C 2/M"
_symmetry_group_IT_number 12
_symmetry_cell_setting 'monoclinic'
loop_
_space_group_symop_operation_xyz
x,y,z
-x,y,-z
-x,-y,-z
x,-y,z
1/2+x,1/2+y,z
1/2-x,1/2+y,-z
1/2-x,1/2-y,-z
1/2+x,1/2-y,z
loop_
_atom_site_type_symbol
_atom_site_label
_atom_site_fract_x
_atom_site_fract_y
_atom_site_fract_z
Si Si1 0.572298 0.056033 0.782469
Si Si2 0.368288 0.293891 0.905107
Si Si3 0.844969 0.885269 0.423938
Si Si4 0.755423 0.388997 0.799568
Si Si5 0.831912 0.449903 0.437277
Si Si6 0.179160 0.382907 0.973732
Si Si7 0.164344 0.784469 0.566035
Si Si8 0.663498 0.286156 0.798557
O O1 0.407462 0.082692 0.776374
O O2 0.649025 0.067659 0.677943
O O3 0.664498 0.078099 0.885210
O O4 0.555790 0.000000 0.787310
O O5 0.268389 0.338323 0.933901
O O6 0.487561 0.299624 0.818066
O O7 0.250749 0.252240 0.872683
O O8 0.500000 0.283391 0.000000
O O9 0.862285 0.897048 0.304295
O O10 0.751951 0.920777 0.483704
O O11 0.763446 0.835403 0.422259
O O12 0.000000 0.881668 0.500000
O O13 0.764063 0.333170 0.808073
O O14 0.730186 0.400778 0.917693
O O15 0.756292 0.500000 0.423214
O O16 0.000000 0.454566 0.500000
O O17 0.000000 0.372883 0.000000
O O18 0.250000 0.750000 0.500000
O O19 0.154349 0.767678 0.682037
O O20 0.000000 0.789244 0.500000
#
# Coordination Sequence:
#
# PCOD9202809 Si02
#       8
#     8   8   8   8   8   8   8   8
#     4  10  22  40  69  97 126 166 216 271 326 390
#     4  12  25  41  65  91 131 171 215 267 320 374
#     4  10  22  39  63  90 126 168 208 259 325 376
#     4  10  21  40  60  91 131 162 212 265 318 383
#     4  10  20  38  63  94 122 156 209 262 316 380
#     4  10  24  42  65  95 131 164 219 266 327 389
#     4  10  22  42  58  86 126 166 215 261 309 379
#     4  11  25  39  64  94 128 175 219 261 324 384
#
# _framework density 19.655812000000001
#
# number of rings (size 3 to 8) (size 9 to 14) (size 15 to 20)
#    0.000    1.625    2.500    1.125    3.500    7.000 
#    0.000    0.000    0.000    1.125    0.000    0.000 
#    0.000    0.000    0.000    0.000    0.000    0.000 
#
# Total GULP energy -178136.803996 kJ/mol
# GULP energy per Si atom -5566.775125 kJ/mol
# Density = 1.961107 g / cm^3
# Si number density = 19.655812 Si / 1000 Ang^3
#
#
#
# Elastic Constant Matrix: (Units=GPa)
#
#
# Indices 1 2 3 4 5 6 
#
# 1 52.2302 37.3234 27.6106 0.0000 -6.2264 0.0000
# 2 37.3234 66.4087 33.7443 0.0000 -10.1438 0.0000
# 3 27.6106 33.7443 170.6367 0.0000 5.8002 0.0000
# 4 0.0000 0.0000 0.0000 25.6686 0.0000 3.8800
# 5 -6.2264 -10.1438 5.8002 0.0000 34.3886 0.0000
# 6 0.0000 0.0000 0.0000 3.8800 0.0000 15.0299
#
#
#
# Elastic Compliance Matrix: (Units=1/GPa)
#
#
# Indices 1 2 3 4 5 6 
#
# 1 0.032546 -0.017141 -0.001916 0.000000 0.001160 0.000000
# 2 -0.017141 0.026882 -0.002722 0.000000 0.005285 0.000000
# 3 -0.001916 -0.002722 0.006787 0.000000 -0.002295 0.000000
# 4 0.000000 0.000000 0.000000 0.040540 0.000000 -0.010465
# 5 0.001160 0.005285 -0.002295 0.000000 0.031235 0.000000
# 6 0.000000 0.000000 0.000000 -0.010465 0.000000 0.069236
#
#
# Mechanical properties :
#
#
# Convention : Reuss Voigt Hill
#
# Bulk Modulus (GPa) = 44.13667 54.07026 49.10347
# Shear Modulus (GPa) = 19.35459 27.72393 23.53926
#
# Velocity S-wave (km/s) = 3.14136 3.75970 3.46435
# Velocity P-wave (km/s) = 5.97168 6.81288 6.40611
#
# Compressibility (1/GPa) = 0.02265690
#
# Stress axis : x y z
#
# Youngs Moduli (GPa) = 30.72588 37.19896 147.34578
#
# Poissons Ratio (x) = 0.63762 0.28231
# Poissons Ratio (y) = 0.52667 0.40111
# Poissons Ratio (z) = 0.05887 0.10126
#
# Static dielectric constant tensor:
#      x y z
#    x 1.700550 0.000000 -0.003860 
#    y 0.000000 1.779060 0.000000 
#    z -0.003860 0.000000 1.745310 
# 
# From -- ./inp_files/125776.got.cif
#   From: 2010.05.17/outbox.cif.g08.bks.cpg/sg12_63_cif.got.tgz:125776.got - 2010.06.03 13:09:07.
