data_PCOD9202414
_publ_section_title
;
Structure prediction by ZEFSAII (Michael W. Deem and Ramdas Pophale) SiO2 
 PCOD9202414
Probable space group: C 2/M
;
_chemical_formula_sum "Si O2"
_cell_formula_units_Z 58
_cell_length_a 9.538615
_cell_length_b 19.441842
_cell_length_c 19.907642
_cell_angle_alpha 90.000000
_cell_angle_beta 60.519826
_cell_angle_gamma 90.000000
_cell_volume 3213.840480
_symmetry_space_group_name_H-M "C 2/M"
_symmetry_group_IT_number 12
_symmetry_cell_setting 'monoclinic'
loop_
_space_group_symop_operation_xyz
x,y,z
-x,y,-z
-x,-y,-z
x,-y,z
1/2+x,1/2+y,z
1/2-x,1/2+y,-z
1/2-x,1/2-y,-z
1/2+x,1/2-y,z
loop_
_atom_site_type_symbol
_atom_site_label
_atom_site_fract_x
_atom_site_fract_y
_atom_site_fract_z
Si Si1 0.377213 0.885285 0.131718
Si Si2 0.642759 0.812692 0.413100
Si Si3 0.256341 0.921817 0.305538
Si Si4 0.408034 0.581694 0.328191
Si Si5 0.574127 0.206416 0.666405
Si Si6 0.961566 0.814136 0.804559
Si Si7 0.500000 0.000000 0.000000
Si Si8 0.565881 0.759983 0.058617
O O1 0.336983 0.918758 0.212681
O O2 0.225110 0.835881 0.152572
O O3 0.529157 0.834815 0.097834
O O4 0.408806 0.940309 0.066844
O O5 0.500000 0.810336 0.500000
O O6 0.746523 0.882828 0.393129
O O7 0.559412 0.803313 0.359720
O O8 0.775503 0.753201 0.393077
O O9 0.348777 0.865336 0.327504
O O10 0.067033 0.904131 0.336804
O O11 0.265703 0.000000 0.329316
O O12 0.396228 0.500000 0.323146
O O13 0.444913 0.621345 0.249703
O O14 0.498561 0.250194 0.746128
O O15 0.002375 0.793237 0.870549
O O16 0.500000 0.754486 0.000000
O O17 0.750000 0.750000 0.000000
#
# Coordination Sequence:
#
# PCOD9202414 Si02
#       8
#     8   8   8   8   8   8   2   8
#     4  11  20  35  55  82 111 153 196 248 293 354
#     4  11  23  39  63  94 124 153 187 242 297 355
#     4  10  20  38  61  87 114 154 204 249 283 343
#     4   9  21  39  62  87 117 158 200 240 293 356
#     4  11  22  38  65  89 119 155 201 241 292 353
#     4  10  21  36  59  82 112 153 201 247 292 344
#     4  12  20  32  56  84 118 152 196 240 322 352
#     4  12  22  34  52  82 115 147 192 247 300 343
#
# _framework density 18.046942999999999
#
# number of rings (size 3 to 8) (size 9 to 14) (size 15 to 20)
#    0.000    1.379    4.138    2.897    2.897    0.828 
#    0.000    0.000    0.000    2.483    0.000    0.000 
#    0.000    0.000    0.000    0.000    0.000    0.000 
#
# Total GULP energy -161472.329389 kJ/mol
# GULP energy per Si atom -5568.011358 kJ/mol
# Density = 1.800587 g / cm^3
# Si number density = 18.046943 Si / 1000 Ang^3
#
#
#
# Elastic Constant Matrix: (Units=GPa)
#
#
# Indices 1 2 3 4 5 6 
#
# 1 69.5784 35.6194 14.5350 0.0000 -14.0755 0.0000
# 2 35.6194 111.0522 15.0359 0.0000 -12.2089 0.0000
# 3 14.5350 15.0359 66.3022 0.0000 -20.2921 0.0000
# 4 0.0000 0.0000 0.0000 12.3361 0.0000 -6.5610
# 5 -14.0755 -12.2089 -20.2921 0.0000 29.9476 0.0000
# 6 0.0000 0.0000 0.0000 -6.5610 0.0000 21.9542
#
#
#
# Elastic Compliance Matrix: (Units=1/GPa)
#
#
# Indices 1 2 3 4 5 6 
#
# 1 0.018395 -0.005112 -0.001091 0.000000 0.005822 0.000000
# 2 -0.005112 0.010926 -0.000920 0.000000 0.001428 0.000000
# 3 -0.001091 -0.000920 0.019251 0.000000 0.012156 0.000000
# 4 0.000000 0.000000 0.000000 0.096382 0.000000 0.028804
# 5 0.005822 0.001428 0.012156 0.000000 0.044947 0.000000
# 6 0.000000 0.000000 0.000000 0.028804 0.000000 0.054157
#
#
# Mechanical properties :
#
#
# Convention : Reuss Voigt Hill
#
# Bulk Modulus (GPa) = 29.13356 41.92369 35.52862
# Shear Modulus (GPa) = 18.53584 24.96376 21.74980
#
# Velocity S-wave (km/s) = 3.20830 3.72327 3.47534
# Velocity P-wave (km/s) = 5.46832 6.46254 5.98611
#
# Compressibility (1/GPa) = 0.03432468
#
# Stress axis : x y z
#
# Youngs Moduli (GPa) = 54.36186 91.52401 51.94599
#
# Poissons Ratio (x) = 0.46790 0.05669
# Poissons Ratio (y) = 0.27792 0.04779
# Poissons Ratio (z) = 0.05933 0.08420
#
# Static dielectric constant tensor:
#      x y z
#    x 1.614470 0.000000 -0.006980 
#    y 0.000000 1.622550 0.000000 
#    z -0.006980 0.000000 1.632220 
# 
# From -- ./inp_files/257121.got.cif
#   From: 2010.05.17/outbox.cif.g08.bks.cpg/sg12_129_cif.got.tgz:257121.got - 2010.06.03 13:09:07.
