data_PCOD9202160
_publ_section_title
;
Structure prediction by ZEFSAII (Michael W. Deem and Ramdas Pophale) SiO2 
 PCOD9202160
Probable space group: C 2/M
;
_chemical_formula_sum "Si O2"
_cell_formula_units_Z 48
_cell_length_a 23.520119
_cell_length_b 25.413311
_cell_length_c 13.509402
_cell_angle_alpha 90.000000
_cell_angle_beta 17.370095
_cell_angle_gamma 90.000000
_cell_volume 2410.700953
_symmetry_space_group_name_H-M "C 2/M"
_symmetry_group_IT_number 12
_symmetry_cell_setting 'monoclinic'
loop_
_space_group_symop_operation_xyz
x,y,z
-x,y,-z
-x,-y,-z
x,-y,z
1/2+x,1/2+y,z
1/2-x,1/2+y,-z
1/2-x,1/2-y,-z
1/2+x,1/2-y,z
loop_
_atom_site_type_symbol
_atom_site_label
_atom_site_fract_x
_atom_site_fract_y
_atom_site_fract_z
Si Si1 0.099558 0.063464 0.576434
Si Si2 0.292399 0.060720 0.849093
Si Si3 0.791649 0.271431 0.299928
Si Si4 0.321215 0.633325 0.371923
Si Si5 0.495471 0.175597 0.227041
Si Si6 0.298088 0.610197 0.804341
O O1 0.176494 0.087790 0.549846
O O2 0.192793 0.086231 0.321097
O O3 0.108979 0.000000 0.559748
O O4 0.878151 0.082086 0.934616
O O5 0.500000 0.085621 0.500000
O O6 0.310977 0.000000 0.788513
O O7 0.225359 0.065507 0.073745
O O8 0.693901 0.312530 0.538397
O O9 0.655868 0.222316 0.503078
O O10 0.000000 0.258323 0.000000
O O11 0.845112 0.301182 0.111186
O O12 0.130722 0.633109 0.622575
O O13 0.500000 0.631577 0.000000
O O14 0.617545 0.148799 0.109535
O O15 0.500000 0.636033 0.500000
#
# Coordination Sequence:
#
# PCOD9202160 Si02
#       6
#     8   8   8   8   8   8
#     4  10  21  39  60  84 121 157 192 240 291 344
#     4   9  19  37  61  86 112 152 200 239 283 343
#     4  10  20  38  59  85 114 152 198 238 283 353
#     4  11  22  36  59  88 119 152 193 240 293 344
#     4  11  21  38  61  86 113 156 193 244 288 349
#     4  10  21  39  61  85 117 154 199 236 285 348
#
# _framework density 19.911221000000001
#
# number of rings (size 3 to 8) (size 9 to 14) (size 15 to 20)
#    0.000    1.833    1.667    4.000    2.333    2.333 
#    0.000    3.333    0.000    0.000    0.000    0.000 
#    0.000    0.000    0.000    0.000    0.000    0.000 
#
# Total GULP energy -133768.308881 kJ/mol
# GULP energy per Si atom -5573.679537 kJ/mol
# Density = 1.986590 g / cm^3
# Si number density = 19.911221 Si / 1000 Ang^3
#
#
#
# Elastic Constant Matrix: (Units=GPa)
#
#
# Indices 1 2 3 4 5 6 
#
# 1 67.6464 28.5912 31.6955 -0.0127 -9.4951 0.0083
# 2 28.5912 64.9349 28.9190 -0.0290 -14.7878 -0.0038
# 3 31.6955 28.9190 81.3364 -0.0477 -5.0465 0.0157
# 4 -0.0127 -0.0290 -0.0477 20.0761 0.0048 -2.8337
# 5 -9.4951 -14.7878 -5.0465 0.0048 36.3592 -0.0192
# 6 0.0083 -0.0038 0.0157 -2.8337 -0.0192 23.0772
#
#
#
# Elastic Compliance Matrix: (Units=1/GPa)
#
#
# Indices 1 2 3 4 5 6 
#
# 1 0.020222 -0.005912 -0.005648 -0.000010 0.002092 -0.000004
# 2 -0.005912 0.021741 -0.005017 0.000016 0.006602 0.000017
# 3 -0.005648 -0.005017 0.016201 0.000027 -0.001267 -0.000008
# 4 -0.000010 0.000016 0.000027 0.050689 0.000004 0.006224
# 5 0.002092 0.006602 -0.001267 0.000004 0.030559 0.000027
# 6 -0.000004 0.000017 -0.000008 0.006224 0.000027 0.044097
#
#
# Mechanical properties :
#
#
# Convention : Reuss Voigt Hill
#
# Bulk Modulus (GPa) = 39.98416 43.59213 41.78815
# Shear Modulus (GPa) = 22.22241 24.21662 23.21952
#
# Velocity S-wave (km/s) = 3.34439 3.49123 3.41860
# Velocity P-wave (km/s) = 5.91930 6.18000 6.05105
#
# Compressibility (1/GPa) = 0.02500990
#
# Stress axis : x y z
#
# Youngs Moduli (GPa) = 49.45217 45.99687 61.72572
#
# Poissons Ratio (x) = 0.27192 0.34865
# Poissons Ratio (y) = 0.29234 0.30965
# Poissons Ratio (z) = 0.27932 0.23074
#
# Static dielectric constant tensor:
#      x y z
#    x 1.707960 0.000010 -0.000040 
#    y 0.000010 1.719300 0.000070 
#    z -0.000040 0.000070 1.765480 
# 
# From -- ./inp_files/170672.got.cif
#   From: 2010.05.17/outbox.cif.g08.bks.cpg/sg12_86_cif.got.tgz:170672.got - 2010.06.03 13:09:07.
