data_PCOD9202935
_publ_section_title
;
Structure prediction by ZEFSAII (Michael W. Deem and Ramdas Pophale) SiO2 
 PCOD9202935
Probable space group: C 2/M
;
_chemical_formula_sum "Si O2"
_cell_formula_units_Z 48
_cell_length_a 23.519337
_cell_length_b 8.606798
_cell_length_c 12.309716
_cell_angle_alpha 90.000000
_cell_angle_beta 68.596018
_cell_angle_gamma 90.000000
_cell_volume 2319.949899
_symmetry_space_group_name_H-M "C 2/M"
_symmetry_group_IT_number 12
_symmetry_cell_setting 'monoclinic'
loop_
_space_group_symop_operation_xyz
x,y,z
-x,y,-z
-x,-y,-z
x,-y,z
1/2+x,1/2+y,z
1/2-x,1/2+y,-z
1/2-x,1/2-y,-z
1/2+x,1/2-y,z
loop_
_atom_site_type_symbol
_atom_site_label
_atom_site_fract_x
_atom_site_fract_y
_atom_site_fract_z
Si Si1 0.699159 0.816281 0.774535
Si Si2 0.487376 0.311179 0.885914
Si Si3 0.178896 0.317106 0.241792
Si Si4 0.848087 0.813822 0.963858
Si Si5 0.428610 0.686998 0.550681
Si Si6 0.105551 0.187438 0.668971
O O1 0.769943 0.768674 0.722470
O O2 0.661075 0.758955 0.697490
O O3 0.693262 0.000000 0.789646
O O4 0.672670 0.736056 0.901940
O O5 0.488167 0.500000 0.885392
O O6 0.419158 0.266431 0.901921
O O7 0.542082 0.261071 0.769957
O O8 0.500000 0.259081 0.000000
O O9 0.187138 0.500000 0.245257
O O10 0.186728 0.265107 0.111480
O O11 0.112393 0.266054 0.329489
O O12 0.842918 0.000000 0.957892
O O13 0.500000 0.731117 0.500000
O O14 0.426433 0.500000 0.568141
O O15 0.399282 0.725408 0.454324
O O16 0.109149 0.000000 0.675998
#
# Coordination Sequence:
#
# PCOD9202935 Si02
#       6
#     8   8   8   8   8   8
#     4  12  25  41  61  90 127 165 209 256 313 373
#     4   9  16  31  60  93 122 156 198 242 297 362
#     4  12  26  43  63  89 124 165 211 258 312 368
#     4  11  21  39  66  93 126 164 208 257 310 369
#     4  10  22  43  70  96 124 162 208 252 304 371
#     4  10  20  38  64  94 126 163 207 254 303 362
#
# _framework density 20.690100999999999
#
# number of rings (size 3 to 8) (size 9 to 14) (size 15 to 20)
#    0.000    1.333    1.667    5.000    0.000    4.333 
#    0.000    4.167    0.000    0.000    0.000    0.000 
#    0.000    0.000    0.000    0.000    0.000    0.000 
#
# Total GULP energy -134238.057119 kJ/mol
# GULP energy per Si atom -5593.252380 kJ/mol
# Density = 2.064301 g / cm^3
# Si number density = 20.690101 Si / 1000 Ang^3
#
#
#
# Elastic Constant Matrix: (Units=GPa)
#
#
# Indices 1 2 3 4 5 6 
#
# 1 104.3960 9.8085 12.8024 0.0000 9.2209 0.0000
# 2 9.8085 29.7304 10.8380 0.0000 9.2601 0.0000
# 3 12.8024 10.8380 71.6950 0.0000 8.8381 0.0000
# 4 0.0000 0.0000 0.0000 25.6410 0.0000 4.5711
# 5 9.2209 9.2601 8.8381 0.0000 31.7483 0.0000
# 6 0.0000 0.0000 0.0000 4.5711 0.0000 25.8286
#
#
#
# Elastic Compliance Matrix: (Units=1/GPa)
#
#
# Indices 1 2 3 4 5 6 
#
# 1 0.010114 -0.002290 -0.001222 0.000000 -0.001929 0.000000
# 2 -0.002290 0.038915 -0.004304 0.000000 -0.009487 0.000000
# 3 -0.001222 -0.004304 0.015138 0.000000 -0.002604 0.000000
# 4 0.000000 0.000000 0.000000 0.040271 0.000000 -0.007127
# 5 -0.001929 -0.009487 -0.002604 0.000000 0.035550 0.000000
# 6 0.000000 0.000000 0.000000 -0.007127 0.000000 0.039978
#
#
# Mechanical properties :
#
#
# Convention : Reuss Voigt Hill
#
# Bulk Modulus (GPa) = 20.60409 30.30214 25.45311
# Shear Modulus (GPa) = 23.60966 28.13508 25.87237
#
# Velocity S-wave (km/s) = 3.38170 3.69159 3.54004
# Velocity P-wave (km/s) = 5.02273 5.73132 5.38868
#
# Compressibility (1/GPa) = 0.04853405
#
# Stress axis : x y z
#
# Youngs Moduli (GPa) = 98.86909 25.69682 66.05969
#
# Poissons Ratio (x) = 0.05886 0.08073
# Poissons Ratio (y) = 0.22646 0.28434
# Poissons Ratio (z) = 0.12082 0.11060
#
# Static dielectric constant tensor:
#      x y z
#    x 1.745110 0.000000 -0.014000 
#    y 0.000000 1.697870 0.000000 
#    z -0.014000 0.000000 1.731990 
# 
# From -- ./inp_files/172856.got.cif
#   From: 2010.05.17/outbox.cif.g08.bks.cpg/sg12_87_cif.got.tgz:172856.got - 2010.06.03 13:09:07.
