data_PCOD9202523
_publ_section_title
;
Structure prediction by ZEFSAII (Michael W. Deem and Ramdas Pophale) SiO2 
 PCOD9202523
Probable space group: C 2/M
;
_chemical_formula_sum "Si O2"
_cell_formula_units_Z 64
_cell_length_a 32.670937
_cell_length_b 14.712133
_cell_length_c 9.330608
_cell_angle_alpha 90.000000
_cell_angle_beta 44.838253
_cell_angle_gamma 90.000000
_cell_volume 3162.297249
_symmetry_space_group_name_H-M "C 2/M"
_symmetry_group_IT_number 12
_symmetry_cell_setting 'monoclinic'
loop_
_space_group_symop_operation_xyz
x,y,z
-x,y,-z
-x,-y,-z
x,-y,z
1/2+x,1/2+y,z
1/2-x,1/2+y,-z
1/2-x,1/2-y,-z
1/2+x,1/2-y,z
loop_
_atom_site_type_symbol
_atom_site_label
_atom_site_fract_x
_atom_site_fract_y
_atom_site_fract_z
Si Si1 0.478434 0.394338 0.216559
Si Si2 0.653741 0.606091 0.457602
Si Si3 0.707651 0.325999 0.037351
Si Si4 0.364357 0.827213 0.909231
Si Si5 0.298279 0.107803 0.584461
Si Si6 0.760736 0.390398 0.366886
Si Si7 0.593497 0.892917 0.501208
Si Si8 0.984205 0.726708 0.707096
O O1 0.481087 0.500000 0.259223
O O2 0.411823 0.359614 0.385702
O O3 0.515040 0.324475 0.220165
O O4 0.500000 0.392231 0.000000
O O5 0.647172 0.500000 0.509718
O O6 0.683292 0.616387 0.229249
O O7 0.699413 0.645890 0.458397
O O8 0.655005 0.273152 0.092757
O O9 0.750000 0.250000 0.000000
O O10 0.746310 0.377250 0.825469
O O11 0.379416 0.880297 0.725556
O O12 0.421535 0.820513 0.863997
O O13 0.310516 0.868057 0.128616
O O14 0.279561 0.144245 0.476073
O O15 0.357806 0.142645 0.508542
O O16 0.307303 0.000000 0.545827
O O17 0.755779 0.500000 0.387496
O O18 0.534078 0.836590 0.651228
O O19 0.582874 0.000000 0.550943
O O20 0.000000 0.737224 0.500000
#
# Coordination Sequence:
#
# PCOD9202523 Si02
#       8
#     8   8   8   8   8   8   8   8
#     4  10  23  43  66  88 117 160 203 249 308 363
#     4  10  20  38  63  87 115 155 199 244 298 361
#     4  12  21  36  59  87 117 153 190 244 292 356
#     4  11  22  36  56  89 118 156 199 243 300 355
#     4  10  22  38  57  84 117 155 195 241 297 354
#     4  10  21  37  57  86 120 152 193 244 299 362
#     4  10  20  38  62  85 119 163 202 244 293 354
#     4  10  23  39  59  89 120 154 207 253 295 352
#
# _framework density 20.238451999999999
#
# number of rings (size 3 to 8) (size 9 to 14) (size 15 to 20)
#    0.000    1.625    2.500    2.250    0.000    7.500 
#    0.000    2.500    0.000    2.625    0.000    0.000 
#    0.000    0.000    0.000    0.000    0.000    0.000 
#
# Total GULP energy -178751.905012 kJ/mol
# GULP energy per Si atom -5585.997032 kJ/mol
# Density = 2.019239 g / cm^3
# Si number density = 20.238452 Si / 1000 Ang^3
#
#
#
# Elastic Constant Matrix: (Units=GPa)
#
#
# Indices 1 2 3 4 5 6 
#
# 1 93.7180 10.9975 6.5509 0.0000 4.6914 0.0000
# 2 10.9975 45.1396 -18.6175 0.0000 3.8732 0.0000
# 3 6.5509 -18.6175 14.6912 0.0000 -2.1119 0.0000
# 4 0.0000 0.0000 0.0000 22.3370 0.0000 8.0407
# 5 4.6914 3.8732 -2.1119 0.0000 24.0768 0.0000
# 6 0.0000 0.0000 0.0000 8.0407 0.0000 38.8860
#
#
#
# Elastic Compliance Matrix: (Units=1/GPa)
#
#
# Indices 1 2 3 4 5 6 
#
# 1 0.013768 -0.012185 -0.021961 0.000000 -0.002649 0.000000
# 2 -0.012185 0.057325 0.078079 0.000000 0.000001 0.000000
# 3 -0.021961 0.078079 0.177859 0.000000 0.007320 0.000000
# 4 0.000000 0.000000 0.000000 0.048369 0.000000 -0.010002
# 5 -0.002649 0.000001 0.007320 0.000000 0.042692 0.000000
# 6 0.000000 0.000000 0.000000 -0.010002 0.000000 0.027784
#
#
# Mechanical properties :
#
#
# Convention : Reuss Voigt Hill
#
# Bulk Modulus (GPa) = 2.96897 16.82340 9.89618
# Shear Modulus (GPa) = 12.74850 27.36782 20.05816
#
# Velocity S-wave (km/s) = 2.51253 3.68131 3.15158
# Velocity P-wave (km/s) = 3.14440 5.13810 4.25954
#
# Compressibility (1/GPa) = 0.33681747
#
# Stress axis : x y z
#
# Youngs Moduli (GPa) = 72.63321 17.44443 5.62244
#
# Poissons Ratio (x) = 0.21255 0.12347
# Poissons Ratio (y) = 0.88501 -0.43899
# Poissons Ratio (z) = 1.59510 -1.36204
#
# Static dielectric constant tensor:
#      x y z
#    x 1.744350 0.000000 -0.010550 
#    y 0.000000 1.730960 0.000000 
#    z -0.010550 0.000000 1.684650 
# 
# From -- ./inp_files/111939.got.cif
#   From: 2010.05.17/outbox.cif.g08.bks.cpg/sg12_56_cif.got.tgz:111939.got - 2010.06.03 13:09:07.
