data_PCOD9202479
_publ_section_title
;
Structure prediction by ZEFSAII (Michael W. Deem and Ramdas Pophale) SiO2 
 PCOD9202479
Probable space group: C 2/M
;
_chemical_formula_sum "Si O2"
_cell_formula_units_Z 44
_cell_length_a 22.702264
_cell_length_b 14.469921
_cell_length_c 18.286743
_cell_angle_alpha 90.000000
_cell_angle_beta 162.025251
_cell_angle_gamma 90.000000
_cell_volume 1853.807124
_symmetry_space_group_name_H-M "C 2/M"
_symmetry_group_IT_number 12
_symmetry_cell_setting 'monoclinic'
loop_
_space_group_symop_operation_xyz
x,y,z
-x,y,-z
-x,-y,-z
x,-y,z
1/2+x,1/2+y,z
1/2-x,1/2+y,-z
1/2-x,1/2-y,-z
1/2+x,1/2-y,z
loop_
_atom_site_type_symbol
_atom_site_label
_atom_site_fract_x
_atom_site_fract_y
_atom_site_fract_z
Si Si1 0.979879 0.161333 0.790367
Si Si2 0.785251 0.500000 0.570867
Si Si3 0.010635 0.104189 0.423285
Si Si4 0.321428 0.210004 0.443261
Si Si5 0.591852 0.142396 0.869014
Si Si6 0.290378 0.893947 0.270484
O O1 0.820378 0.205372 0.655876
O O2 0.073983 0.248077 0.862037
O O3 0.879004 0.082042 0.624803
O O4 0.143758 0.115825 0.032270
O O5 0.950897 0.580418 0.751639
O O6 0.000000 0.115337 0.500000
O O7 0.125818 0.188807 0.523739
O O8 0.091240 0.000000 0.505644
O O9 0.802792 0.110984 0.139740
O O10 0.500498 0.143550 0.679331
O O11 0.218786 0.160593 0.255484
O O12 0.500000 0.854834 0.500000
O O13 0.313312 0.000000 0.317871
#
# Coordination Sequence:
#
# PCOD9202479 Si02
#       6
#     8   4   8   8   8   8
#     4  11  23  42  66  97 135 171 212 267 326 389
#     4  10  20  38  61  94 128 170 213 250 325 380
#     4  11  24  45  68  91 129 178 222 266 323 385
#     4  11  23  39  66  97 130 165 216 270 322 382
#     4  11  23  43  66  96 130 174 214 271 325 384
#     4  11  24  41  66  98 132 170 212 262 324 392
#
# _framework density 23.734940000000002
#
# number of rings (size 3 to 8) (size 9 to 14) (size 15 to 20)
#    0.000    1.091    1.818    6.000    5.091    0.727 
#    6.545    1.818    0.000    3.273    0.000    0.000 
#    0.000    0.000    0.000    0.000    0.000    0.000 
#
# Total GULP energy -122506.374124 kJ/mol
# GULP energy per Si atom -5568.471551 kJ/mol
# Density = 2.368092 g / cm^3
# Si number density = 23.734940 Si / 1000 Ang^3
#
#
#
# Elastic Constant Matrix: (Units=GPa)
#
#
# Indices 1 2 3 4 5 6 
#
# 1 48.4165 12.2150 17.4377 -0.0011 -4.5396 -0.0051
# 2 12.2150 146.7206 14.3428 -0.0026 4.2399 -0.0106
# 3 17.4377 14.3428 89.3002 0.0047 10.9974 0.0111
# 4 -0.0011 -0.0026 0.0047 28.3646 -0.0008 -19.3317
# 5 -4.5396 4.2399 10.9974 -0.0008 19.7135 0.0042
# 6 -0.0051 -0.0106 0.0111 -19.3317 0.0042 -16.8303
#
#
#
# Elastic Compliance Matrix: (Units=1/GPa)
#
#
# Indices 1 2 3 4 5 6 
#
# 1 0.023902 -0.001711 -0.005493 -0.000002 0.008937 -0.000005
# 2 -0.001711 0.007063 -0.000606 -0.000001 -0.001575 -0.000003
# 3 -0.005493 -0.000606 0.013431 0.000002 -0.008627 0.000007
# 4 -0.000002 -0.000001 0.000002 0.019775 0.000005 -0.022714
# 5 0.008937 -0.001575 -0.008627 0.000005 0.057936 0.000002
# 6 -0.000005 -0.000003 0.000007 -0.022714 0.000002 -0.033327
#
#
# Mechanical properties :
#
#
# Convention : Reuss Voigt Hill
#
# Bulk Modulus (GPa) = 34.75300 41.38092 38.06696
# Shear Modulus (GPa) = 43.86272 22.27901 33.07086
#
# Velocity S-wave (km/s) = 4.30353 3.06708 3.73680
# Velocity P-wave (km/s) = 6.27437 5.47860 5.88994
#
# Compressibility (1/GPa) = 0.02877449
#
# Stress axis : x y z
#
# Youngs Moduli (GPa) = 41.83726 141.58450 74.45672
#
# Poissons Ratio (x) = 0.24228 0.40900
# Poissons Ratio (y) = 0.07159 0.04514
# Poissons Ratio (z) = 0.22982 0.08584
#
# Static dielectric constant tensor:
#      x y z
#    x 2.046440 0.000000 -0.005110 
#    y 0.000000 1.842380 -0.000010 
#    z -0.005110 -0.000010 1.951390 
# 
# From -- ./inp_files/290194.got.cif
#   From: 2010.05.17/outbox.cif.g08.bks.cpg/sg12_146_cif.got.tgz:290194.got - 2010.06.03 13:09:07.
