data_PCOD9202507
_publ_section_title
;
Structure prediction by ZEFSAII (Michael W. Deem and Ramdas Pophale) SiO2 
 PCOD9202507
Probable space group: C 2/M
;
_chemical_formula_sum "Si O2"
_cell_formula_units_Z 58
_cell_length_a 16.101732
_cell_length_b 12.619502
_cell_length_c 14.228044
_cell_angle_alpha 90.000000
_cell_angle_beta 77.801563
_cell_angle_gamma 90.000000
_cell_volume 2825.803565
_symmetry_space_group_name_H-M "C 2/M"
_symmetry_group_IT_number 12
_symmetry_cell_setting 'monoclinic'
loop_
_space_group_symop_operation_xyz
x,y,z
-x,y,-z
-x,-y,-z
x,-y,z
1/2+x,1/2+y,z
1/2-x,1/2+y,-z
1/2-x,1/2-y,-z
1/2+x,1/2-y,z
loop_
_atom_site_type_symbol
_atom_site_label
_atom_site_fract_x
_atom_site_fract_y
_atom_site_fract_z
Si Si1 0.813506 0.694437 0.373052
Si Si2 0.598117 0.765660 0.271046
Si Si3 0.623129 0.691741 0.469815
Si Si4 0.172559 0.875010 0.100314
Si Si5 0.448255 0.121100 0.197888
Si Si6 0.146622 0.736157 0.934671
Si Si7 0.000000 0.000000 0.500000
Si Si8 0.227809 0.122636 0.756132
O O1 0.719617 0.655319 0.421431
O O2 0.866229 0.717655 0.454272
O O3 0.863566 0.627708 0.283350
O O4 0.798260 0.808795 0.327813
O O5 0.584536 0.738113 0.382681
O O6 0.635820 0.662058 0.209348
O O7 0.516994 0.808928 0.236264
O O8 0.673376 0.852131 0.248550
O O9 0.567995 0.593088 0.513989
O O10 0.271990 0.841482 0.070708
O O11 0.161933 0.000000 0.086862
O O12 0.127497 0.798103 0.034999
O O13 0.424711 0.170943 0.102961
O O14 0.475992 0.000000 0.182289
O O15 0.177379 0.827301 0.855372
O O16 0.211536 0.000000 0.748896
#
# Coordination Sequence:
#
# PCOD9202507 Si02
#       8
#     8   8   8   8   8   8   2   8
#     4   9  21  40  59  84 122 156 204 247 297 361
#     4  10  22  38  55  85 124 153 201 248 301 353
#     4  10  22  40  57  87 124 154 195 258 292 367
#     4  10  20  38  62  84 117 160 197 247 306 360
#     4  11  22  39  62  85 116 157 197 246 300 367
#     4   9  20  36  58  91 116 146 204 250 290 363
#     4  12  24  32  64  88 118 156 204 242 332 346
#     4   9  17  34  59  84 114 156 196 249 296 358
#
# _framework density 20.525134999999999
#
# number of rings (size 3 to 8) (size 9 to 14) (size 15 to 20)
#    0.000    2.207    0.000    2.897    2.897    0.552 
#    0.000    6.897    0.000    0.000    0.000    0.000 
#    0.000    0.000    0.000    0.000    0.000    0.000 
#
# Total GULP energy -161684.172762 kJ/mol
# GULP energy per Si atom -5575.316302 kJ/mol
# Density = 2.047842 g / cm^3
# Si number density = 20.525135 Si / 1000 Ang^3
#
#
#
# Elastic Constant Matrix: (Units=GPa)
#
#
# Indices 1 2 3 4 5 6 
#
# 1 60.1131 24.0286 14.8432 0.0000 21.1245 0.0000
# 2 24.0286 92.3736 9.0199 0.0000 9.0860 0.0000
# 3 14.8432 9.0199 86.0279 0.0000 24.9659 0.0000
# 4 0.0000 0.0000 0.0000 1.8148 0.0000 -0.7668
# 5 21.1245 9.0860 24.9659 0.0000 33.3735 0.0000
# 6 0.0000 0.0000 0.0000 -0.7668 0.0000 6.8858
#
#
#
# Elastic Compliance Matrix: (Units=1/GPa)
#
#
# Indices 1 2 3 4 5 6 
#
# 1 0.023258 -0.004741 0.000488 0.000000 -0.013796 0.000000
# 2 -0.004741 0.012099 -0.000467 0.000000 0.000056 0.000000
# 3 0.000488 -0.000467 0.014870 0.000000 -0.011305 0.000000
# 4 0.000000 0.000000 0.000000 0.578242 0.000000 0.064389
# 5 -0.013796 0.000056 -0.011305 0.000000 0.047138 0.000000
# 6 0.000000 0.000000 0.000000 0.064389 0.000000 0.152396
#
#
# Mechanical properties :
#
#
# Convention : Reuss Voigt Hill
#
# Bulk Modulus (GPa) = 24.51750 37.14422 30.83086
# Shear Modulus (GPa) = 5.87518 21.12300 13.49909
#
# Velocity S-wave (km/s) = 1.69371 3.21148 2.56732
# Velocity P-wave (km/s) = 3.97441 5.64692 4.88281
#
# Compressibility (1/GPa) = 0.04078719
#
# Stress axis : x y z
#
# Youngs Moduli (GPa) = 42.99632 82.65267 67.25026
#
# Poissons Ratio (x) = 0.39182 -0.03280
# Poissons Ratio (y) = 0.20383 0.03140
# Poissons Ratio (z) = -0.02097 0.03859
#
# Static dielectric constant tensor:
#      x y z
#    x 1.766720 0.000000 -0.007860 
#    y 0.000000 1.642990 0.000000 
#    z -0.007860 0.000000 1.762580 
# 
# From -- ./inp_files/223258.got.cif
#   From: 2010.05.17/outbox.cif.g08.bks.cpg/sg12_112_cif.got.tgz:223258.got - 2010.06.03 13:09:07.
