data_PCOD9202443
_publ_section_title
;
Structure prediction by ZEFSAII (Michael W. Deem and Ramdas Pophale) SiO2 
 PCOD9202443
Probable space group: C 2/M
;
_chemical_formula_sum "Si O2"
_cell_formula_units_Z 48
_cell_length_a 24.279925
_cell_length_b 16.411028
_cell_length_c 10.542511
_cell_angle_alpha 90.000000
_cell_angle_beta 145.432558
_cell_angle_gamma 90.000000
_cell_volume 2383.406301
_symmetry_space_group_name_H-M "C 2/M"
_symmetry_group_IT_number 12
_symmetry_cell_setting 'monoclinic'
loop_
_space_group_symop_operation_xyz
x,y,z
-x,y,-z
-x,-y,-z
x,-y,z
1/2+x,1/2+y,z
1/2-x,1/2+y,-z
1/2-x,1/2-y,-z
1/2+x,1/2-y,z
loop_
_atom_site_type_symbol
_atom_site_label
_atom_site_fract_x
_atom_site_fract_y
_atom_site_fract_z
Si Si1 0.575022 0.244054 0.841506
Si Si2 0.639086 0.806433 0.567819
Si Si3 0.610311 0.091583 0.257676
Si Si4 0.680912 0.904827 0.903094
Si Si5 0.392219 0.409835 0.236785
Si Si6 0.792358 0.712833 0.709368
O O1 0.462150 0.237323 0.595367
O O2 0.623381 0.160236 0.880407
O O3 0.613343 0.327825 0.855415
O O4 0.604256 0.246937 0.045074
O O5 0.622160 0.856415 0.406889
O O6 0.666073 0.866934 0.733506
O O7 0.719657 0.739777 0.682646
O O8 0.682414 0.121558 0.283486
O O9 0.632534 0.000000 0.333598
O O10 0.500000 0.097215 0.000000
O O11 0.648106 0.000000 0.849533
O O12 0.797250 0.904885 0.146463
O O13 0.500000 0.409718 0.500000
O O14 0.381600 0.500000 0.152825
O O15 0.750000 0.750000 0.500000
#
# Coordination Sequence:
#
# PCOD9202443 Si02
#       6
#     8   8   8   8   8   8
#     4  12  23  39  64  90 127 161 206 255 309 366
#     4  11  22  39  63  88 122 164 201 255 308 372
#     4  10  20  38  61  88 121 157 201 253 310 364
#     4  11  24  39  61  95 128 160 203 252 311 377
#     4  10  22  40  60  86 121 165 207 245 296 361
#     4  10  23  40  60  88 118 160 209 247 302 364
#
# _framework density 20.139244000000001
#
# number of rings (size 3 to 8) (size 9 to 14) (size 15 to 20)
#    0.000    1.333    3.333    2.500    2.333    2.667 
#    0.000    0.833    0.000    0.000    0.000    4.667 
#    0.000    0.000    0.000    0.000    0.000    0.000 
#
# Total GULP energy -133725.442176 kJ/mol
# GULP energy per Si atom -5571.893424 kJ/mol
# Density = 2.009341 g / cm^3
# Si number density = 20.139244 Si / 1000 Ang^3
#
#
#
# Elastic Constant Matrix: (Units=GPa)
#
#
# Indices 1 2 3 4 5 6 
#
# 1 44.2135 47.3211 10.3015 0.0000 3.0967 0.0000
# 2 47.3211 138.9003 10.7655 0.0000 8.7152 0.0000
# 3 10.3015 10.7655 70.3450 0.0000 5.8568 0.0000
# 4 0.0000 0.0000 0.0000 25.2655 0.0000 8.4034
# 5 3.0967 8.7152 5.8568 0.0000 37.1852 0.0000
# 6 0.0000 0.0000 0.0000 8.4034 0.0000 25.0312
#
#
#
# Elastic Compliance Matrix: (Units=1/GPa)
#
#
# Indices 1 2 3 4 5 6 
#
# 1 0.036423 -0.012160 -0.003504 0.000000 0.000369 0.000000
# 2 -0.012160 0.011435 0.000172 0.000000 -0.001694 0.000000
# 3 -0.003504 0.000172 0.014877 0.000000 -0.002092 0.000000
# 4 0.000000 0.000000 0.000000 0.044555 0.000000 -0.014958
# 5 0.000369 -0.001694 -0.002092 0.000000 0.027588 0.000000
# 6 0.000000 0.000000 0.000000 -0.014958 0.000000 0.044972
#
#
# Mechanical properties :
#
#
# Convention : Reuss Voigt Hill
#
# Bulk Modulus (GPa) = 31.49538 43.35946 37.42742
# Shear Modulus (GPa) = 22.58179 29.83442 26.20810
#
# Velocity S-wave (km/s) = 3.35219 3.85308 3.61133
# Velocity P-wave (km/s) = 5.53675 6.43207 6.00113
#
# Compressibility (1/GPa) = 0.03175069
#
# Stress axis : x y z
#
# Youngs Moduli (GPa) = 27.45514 87.44900 67.21983
#
# Poissons Ratio (x) = 1.06341 0.23551
# Poissons Ratio (y) = 0.33386 -0.01155
# Poissons Ratio (z) = 0.09619 -0.01503
#
# Static dielectric constant tensor:
#      x y z
#    x 1.830860 0.000000 0.007130 
#    y 0.000000 1.702090 0.000000 
#    z 0.007130 0.000000 1.750520 
# 
# From -- ./inp_files/183894.got.cif
#   From: 2010.05.17/outbox.cif.g08.bks.cpg/sg12_92_cif.got.tgz:183894.got - 2010.06.03 13:09:07.
