data_PCOD9202315
_publ_section_title
;
Structure prediction by ZEFSAII (Michael W. Deem and Ramdas Pophale) SiO2 
 PCOD9202315
Probable space group: C 2/M
;
_chemical_formula_sum "Si O2"
_cell_formula_units_Z 50
_cell_length_a 29.680756
_cell_length_b 15.510005
_cell_length_c 16.971315
_cell_angle_alpha 90.000000
_cell_angle_beta 17.495668
_cell_angle_gamma 90.000000
_cell_volume 2348.767553
_symmetry_space_group_name_H-M "C 2/M"
_symmetry_group_IT_number 12
_symmetry_cell_setting 'monoclinic'
loop_
_space_group_symop_operation_xyz
x,y,z
-x,y,-z
-x,-y,-z
x,-y,z
1/2+x,1/2+y,z
1/2-x,1/2+y,-z
1/2-x,1/2-y,-z
1/2+x,1/2-y,z
loop_
_atom_site_type_symbol
_atom_site_label
_atom_site_fract_x
_atom_site_fract_y
_atom_site_fract_z
Si Si1 0.033072 0.722093 0.567850
Si Si2 0.708153 0.906632 0.076052
Si Si3 0.944055 0.776393 0.298091
Si Si4 0.639077 0.154407 0.872414
Si Si5 0.500000 0.000000 0.000000
Si Si6 0.812276 0.902389 0.075220
Si Si7 0.153806 0.096708 0.327897
O O1 0.995987 0.731004 0.721937
O O2 0.184138 0.665421 0.312536
O O3 0.055763 0.817526 0.498001
O O4 0.906013 0.671786 0.733600
O O5 0.807996 0.902216 0.987392
O O6 0.627351 0.000000 0.215298
O O7 0.786063 0.905109 0.861459
O O8 0.768783 0.794514 0.606682
O O9 0.006254 0.718342 0.123304
O O10 0.031080 0.867611 0.153000
O O11 0.575814 0.075910 0.928609
O O12 0.722201 0.116021 0.811538
O O13 0.780722 0.000000 0.154128
O O14 0.090947 0.000000 0.447370
#
# Coordination Sequence:
#
# PCOD9202315 Si02
#       7
#     8   8   8   8   2   8   8
#     4  11  20  36  61  92 132 193 231 291 332 391
#     4  10  21  36  57  90 139 189 245 287 327 391
#     4  11  23  44  70 100 143 183 223 281 342 423
#     4  11  24  47  73 106 133 174 221 277 359 419
#     4  12  28  48  88 110 128 170 218 294 348 446
#     4  11  23  37  59  99 139 192 241 285 334 389
#     4  10  20  38  60  91 133 181 231 290 335 403
#
# _framework density 21.287759999999999
#
# number of rings (size 3 to 8) (size 9 to 14) (size 15 to 20)
#    0.000    1.280    5.600    0.960    1.120    6.400 
#    1.440    0.800    0.000   14.400    0.000    0.000 
#    0.000    0.000    0.000    0.000    0.000    0.000 
#
# Total GULP energy -139492.562701 kJ/mol
# GULP energy per Si atom -5579.702508 kJ/mol
# Density = 2.123931 g / cm^3
# Si number density = 21.287760 Si / 1000 Ang^3
#
#
#
# Elastic Constant Matrix: (Units=GPa)
#
#
# Indices 1 2 3 4 5 6 
#
# 1 53.7716 46.6315 30.5287 -0.0005 -20.8281 0.0010
# 2 46.6315 204.4247 78.0871 -0.0007 9.0412 0.0012
# 3 30.5287 78.0871 83.7990 -0.0010 23.1582 0.0009
# 4 -0.0005 -0.0007 -0.0010 33.3521 0.0009 -5.7405
# 5 -20.8281 9.0412 23.1582 0.0009 10.0730 -0.0009
# 6 0.0010 0.0012 0.0009 -5.7405 -0.0009 -16.3285
#
#
#
# Elastic Compliance Matrix: (Units=1/GPa)
#
#
# Indices 1 2 3 4 5 6 
#
# 1 -0.003764 -0.003462 0.016151 0.000002 -0.041808 0.000002
# 2 -0.003462 0.008071 -0.006251 0.000000 -0.000030 0.000000
# 3 0.016151 -0.006251 0.003003 -0.000001 0.032102 -0.000001
# 4 0.000002 0.000000 -0.000001 0.028272 0.000002 -0.009940
# 5 -0.041808 -0.000030 0.032102 0.000002 -0.060948 0.000002
# 6 0.000002 0.000000 -0.000001 -0.009940 0.000002 -0.057748
#
#
# Mechanical properties :
#
#
# Convention : Reuss Voigt Hill
#
# Bulk Modulus (GPa) = 49.54108 72.49888 61.01998
# Shear Modulus (GPa) = -56.01446 17.86918 -19.07264
#
# Velocity S-wave (km/s) = -5.13518 2.90040 -2.99648
# Velocity P-wave (km/s) = 3.44057 6.73402 4.09325
#
# Compressibility (1/GPa) = 0.02018527
#
# Stress axis : x y z
#
# Youngs Moduli (GPa) = -265.65417 123.90781 333.02416
#
# Poissons Ratio (x) = 0.42892 -5.37857
# Poissons Ratio (y) = -0.91959 2.08173
# Poissons Ratio (z) = 4.29050 0.77454
#
# Static dielectric constant tensor:
#      x y z
#    x 1.729060 0.000000 0.015790 
#    y 0.000000 1.767660 0.000000 
#    z 0.015790 0.000000 1.854110 
# 
# From -- ./inp_files/296763.got.cif
#   From: 2010.05.17/outbox.cif.g08.bks.cpg/sg12_149_cif.got.tgz:296763.got - 2010.06.03 13:09:07.
