data_PCOD9202696
_publ_section_title
;
Structure prediction by ZEFSAII (Michael W. Deem and Ramdas Pophale) SiO2 
 PCOD9202696
Probable space group: C 2/M
;
_chemical_formula_sum "Si O2"
_cell_formula_units_Z 64
_cell_length_a 24.191242
_cell_length_b 7.985106
_cell_length_c 15.304473
_cell_angle_alpha 90.000000
_cell_angle_beta 87.180905
_cell_angle_gamma 90.000000
_cell_volume 2952.781631
_symmetry_space_group_name_H-M "C 2/M"
_symmetry_group_IT_number 12
_symmetry_cell_setting 'monoclinic'
loop_
_space_group_symop_operation_xyz
x,y,z
-x,y,-z
-x,-y,-z
x,-y,z
1/2+x,1/2+y,z
1/2-x,1/2+y,-z
1/2-x,1/2-y,-z
1/2+x,1/2-y,z
loop_
_atom_site_type_symbol
_atom_site_label
_atom_site_fract_x
_atom_site_fract_y
_atom_site_fract_z
Si Si1 0.562927 0.798175 0.004073
Si Si2 0.384952 0.297913 0.815470
Si Si3 0.144072 0.299422 0.846720
Si Si4 0.769400 0.811900 0.592211
Si Si5 0.760856 0.206294 0.784261
Si Si6 0.908267 0.798937 0.333437
Si Si7 0.964973 0.797461 0.651984
Si Si8 0.619274 0.807334 0.473984
O O1 0.603217 0.732493 0.924481
O O2 0.560738 0.000000 0.996100
O O3 0.500000 0.734856 0.000000
O O4 0.588171 0.755705 0.095808
O O5 0.384406 0.500000 0.812150
O O6 0.321439 0.239814 0.811141
O O7 0.423614 0.240679 0.732244
O O8 0.145959 0.500000 0.856569
O O9 0.207697 0.239634 0.843899
O O10 0.119607 0.261693 0.753148
O O11 0.750000 0.750000 0.500000
O O12 0.752538 0.730767 0.685043
O O13 0.835886 0.802592 0.581070
O O14 0.749077 0.000000 0.599361
O O15 0.761710 0.000000 0.782630
O O16 0.879818 0.733237 0.423789
O O17 0.972507 0.744258 0.333069
O O18 0.906446 0.000000 0.335767
O O19 0.940072 0.730859 0.563440
O O20 0.964658 0.000000 0.648178
O O21 0.634041 0.000000 0.458947
#
# Coordination Sequence:
#
# PCOD9202696 Si02
#       8
#     8   8   8   8   8   8   8   8
#     4  10  22  39  59  88 125 158 190 238 301 361
#     4  10  20  38  63  87 114 152 199 248 301 358
#     4  10  21  39  61  85 118 157 197 241 297 360
#     4  11  21  37  59  84 119 159 206 256 305 356
#     4   9  19  37  60  83 113 154 197 245 298 348
#     4  11  23  38  59  86 117 154 199 251 305 356
#     4  10  21  39  60  84 116 155 197 250 307 356
#     4  12  24  37  56  85 119 158 201 242 299 366
#
# _framework density 21.674479000000002
#
# number of rings (size 3 to 8) (size 9 to 14) (size 15 to 20)
#    0.000    1.625    1.250    3.750    0.000    5.250 
#    0.000    1.250    0.000    0.000    0.000    0.000 
#    0.000    0.000    0.000    0.000    0.000    0.000 
#
# Total GULP energy -178876.074514 kJ/mol
# GULP energy per Si atom -5589.877329 kJ/mol
# Density = 2.162515 g / cm^3
# Si number density = 21.674479 Si / 1000 Ang^3
#
#
#
# Elastic Constant Matrix: (Units=GPa)
#
#
# Indices 1 2 3 4 5 6 
#
# 1 106.4883 7.6383 34.9106 0.0000 -6.9305 0.0000
# 2 7.6383 14.4268 -1.4483 0.0000 -8.7865 0.0000
# 3 34.9106 -1.4483 115.0255 0.0000 -7.2319 0.0000
# 4 0.0000 0.0000 0.0000 26.6872 0.0000 10.6463
# 5 -6.9305 -8.7865 -7.2319 0.0000 36.3127 0.0000
# 6 0.0000 0.0000 0.0000 10.6463 0.0000 10.2251
#
#
#
# Elastic Compliance Matrix: (Units=1/GPa)
#
#
# Indices 1 2 3 4 5 6 
#
# 1 0.010945 -0.006190 -0.003405 0.000000 -0.000087 0.000000
# 2 -0.006190 0.085396 0.004232 0.000000 0.020324 0.000000
# 3 -0.003405 0.004232 0.009928 0.000000 0.002351 0.000000
# 4 0.000000 0.000000 0.000000 0.064093 0.000000 -0.066732
# 5 -0.000087 0.020324 0.002351 0.000000 0.032908 0.000000
# 6 0.000000 0.000000 0.000000 -0.066732 0.000000 0.167279
#
#
# Mechanical properties :
#
#
# Convention : Reuss Voigt Hill
#
# Bulk Modulus (GPa) = 10.46654 35.34908 22.90781
# Shear Modulus (GPa) = 12.10289 27.63433 19.86861
#
# Velocity S-wave (km/s) = 2.36560 3.57455 3.03096
# Velocity P-wave (km/s) = 3.50726 5.77763 4.77922
#
# Compressibility (1/GPa) = 0.09554257
#
# Stress axis : x y z
#
# Youngs Moduli (GPa) = 91.36220 11.71017 100.72129
#
# Poissons Ratio (x) = 0.07249 0.34299
# Poissons Ratio (y) = 0.56553 -0.42623
# Poissons Ratio (z) = 0.31112 -0.04955
#
# Static dielectric constant tensor:
#      x y z
#    x 1.818850 0.000000 -0.015390 
#    y 0.000000 1.788680 0.000000 
#    z -0.015390 0.000000 1.752670 
# 
# From -- ./inp_files/238617.got.cif
#   From: 2010.05.17/outbox.cif.g08.bks.cpg/sg12_120_cif.got.tgz:238617.got - 2010.06.03 13:09:07.
