data_PCOD9202787
_publ_section_title
;
Structure prediction by ZEFSAII (Michael W. Deem and Ramdas Pophale) SiO2 
 PCOD9202787
Probable space group: C 2/M
;
_chemical_formula_sum "Si O2"
_cell_formula_units_Z 48
_cell_length_a 13.924108
_cell_length_b 16.933612
_cell_length_c 12.652148
_cell_angle_alpha 90.000000
_cell_angle_beta 130.939952
_cell_angle_gamma 90.000000
_cell_volume 2253.493744
_symmetry_space_group_name_H-M "C 2/M"
_symmetry_group_IT_number 12
_symmetry_cell_setting 'monoclinic'
loop_
_space_group_symop_operation_xyz
x,y,z
-x,y,-z
-x,-y,-z
x,-y,z
1/2+x,1/2+y,z
1/2-x,1/2+y,-z
1/2-x,1/2-y,-z
1/2+x,1/2-y,z
loop_
_atom_site_type_symbol
_atom_site_label
_atom_site_fract_x
_atom_site_fract_y
_atom_site_fract_z
Si Si1 0.555381 0.232780 0.431628
Si Si2 0.138554 0.283273 0.131202
Si Si3 0.814688 0.342952 0.154609
Si Si4 0.296208 0.405428 0.136598
Si Si5 0.426015 0.338011 0.724835
Si Si6 0.304007 0.916855 0.369871
O O1 0.500000 0.266870 0.500000
O O2 0.444918 0.204415 0.271130
O O3 0.626261 0.301132 0.421576
O O4 0.628000 0.155846 0.524102
O O5 0.200426 0.219318 0.094573
O O6 0.238086 0.355642 0.193734
O O7 0.108526 0.230205 0.213243
O O8 0.000000 0.313387 0.000000
O O9 0.811442 0.403723 0.249832
O O10 0.796137 0.383517 0.029078
O O11 0.302316 0.500000 0.156895
O O12 0.432565 0.369619 0.198161
O O13 0.342176 0.410447 0.703528
O O14 0.360294 0.000000 0.442528
#
# Coordination Sequence:
#
# PCOD9202787 Si02
#       6
#     8   8   8   8   8   8
#     4  10  21  39  66  87 116 166 221 254 302 381
#     4  11  21  38  64  91 126 171 215 247 306 391
#     4  10  20  38  63  92 122 167 205 257 314 383
#     4  12  24  39  65 100 134 163 206 266 323 368
#     4  11  22  41  65  89 127 171 212 254 314 388
#     4  10  22  37  59  93 124 156 208 270 315 356
#
# _framework density 21.300259
#
# number of rings (size 3 to 8) (size 9 to 14) (size 15 to 20)
#    0.000    1.333    3.333    3.000    0.000    4.000 
#    0.000    3.333    0.000    1.000    0.000    0.000 
#    0.000    0.000    0.000    0.000    0.000    0.000 
#
# Total GULP energy -133798.137492 kJ/mol
# GULP energy per Si atom -5574.922396 kJ/mol
# Density = 2.125178 g / cm^3
# Si number density = 21.300259 Si / 1000 Ang^3
#
#
#
# Elastic Constant Matrix: (Units=GPa)
#
#
# Indices 1 2 3 4 5 6 
#
# 1 110.3810 51.8147 15.7758 0.0000 7.6587 0.0000
# 2 51.8147 131.3469 17.2133 0.0000 -16.6037 0.0000
# 3 15.7758 17.2133 50.8760 0.0000 7.3716 0.0000
# 4 0.0000 0.0000 0.0000 15.5523 0.0000 -2.1340
# 5 7.6587 -16.6037 7.3716 0.0000 29.6864 0.0000
# 6 0.0000 0.0000 0.0000 -2.1340 0.0000 -1.6408
#
#
#
# Elastic Compliance Matrix: (Units=1/GPa)
#
#
# Indices 1 2 3 4 5 6 
#
# 1 0.012157 -0.005397 -0.001091 0.000000 -0.005884 0.000000
# 2 -0.005397 0.011262 -0.003373 0.000000 0.008529 0.000000
# 3 -0.001091 -0.003373 0.022165 0.000000 -0.007109 0.000000
# 4 0.000000 0.000000 0.000000 0.054562 0.000000 -0.070964
# 5 -0.005884 0.008529 -0.007109 0.000000 0.041739 0.000000
# 6 0.000000 0.000000 0.000000 -0.070964 0.000000 -0.517175
#
#
# Mechanical properties :
#
#
# Convention : Reuss Voigt Hill
#
# Bulk Modulus (GPa) = 38.66505 51.35683 45.01094
# Shear Modulus (GPa) = -14.41141 22.57293 4.08076
#
# Velocity S-wave (km/s) = -2.60394 3.25891 1.38564
# Velocity P-wave (km/s) = 3.02508 6.19063 4.87211
#
# Compressibility (1/GPa) = 0.02586315
#
# Stress axis : x y z
#
# Youngs Moduli (GPa) = 82.25744 88.79050 45.11563
#
# Poissons Ratio (x) = 0.47916 0.04924
# Poissons Ratio (y) = 0.44390 0.15217
# Poissons Ratio (z) = 0.08977 0.29949
#
# Static dielectric constant tensor:
#      x y z
#    x 1.826970 0.000000 0.040610 
#    y 0.000000 1.805280 0.000000 
#    z 0.040610 0.000000 1.808840 
# 
# From -- ./inp_files/143181.got.cif
#   From: 2010.05.17/outbox.cif.g08.bks.cpg/sg12_72_cif.got.tgz:143181.got - 2010.06.03 13:09:07.
