data_PCOD9202259
_publ_section_title
;
Structure prediction by ZEFSAII (Michael W. Deem and Ramdas Pophale) SiO2 
 PCOD9202259
Probable space group: C 2/M
;
_chemical_formula_sum "Si O2"
_cell_formula_units_Z 56
_cell_length_a 19.313011
_cell_length_b 30.160446
_cell_length_c 8.243397
_cell_angle_alpha 90.000000
_cell_angle_beta 142.878765
_cell_angle_gamma 90.000000
_cell_volume 2897.835913
_symmetry_space_group_name_H-M "C 2/M"
_symmetry_group_IT_number 12
_symmetry_cell_setting 'monoclinic'
loop_
_space_group_symop_operation_xyz
x,y,z
-x,y,-z
-x,-y,-z
x,-y,z
1/2+x,1/2+y,z
1/2-x,1/2+y,-z
1/2-x,1/2-y,-z
1/2+x,1/2-y,z
loop_
_atom_site_type_symbol
_atom_site_label
_atom_site_fract_x
_atom_site_fract_y
_atom_site_fract_z
Si Si1 0.390755 0.736120 0.902466
Si Si2 0.880382 0.450070 0.178023
Si Si3 0.763329 0.684248 0.760292
Si Si4 0.277399 0.885209 0.239258
Si Si5 0.475647 0.125415 0.147308
Si Si6 0.132853 0.134961 0.258252
Si Si7 0.619942 0.308894 0.790003
O O1 0.299253 0.774909 0.714999
O O2 0.365789 0.685805 0.803084
O O3 0.500000 0.749686 0.000000
O O4 0.409020 0.728086 0.129785
O O5 0.842275 0.500000 0.068794
O O6 0.795360 0.423945 0.141046
O O7 0.914074 0.420417 0.085654
O O8 0.000000 0.452830 0.500000
O O9 0.689976 0.644566 0.539642
O O10 0.690238 0.706326 0.765399
O O11 0.884986 0.662570 0.032684
O O12 0.404515 0.870399 0.533068
O O13 0.210173 0.894346 0.282553
O O14 0.202107 0.846825 0.016192
O O15 0.500000 0.127991 0.000000
O O16 0.000000 0.120951 0.000000
O O17 0.500000 0.327694 0.500000
#
# Coordination Sequence:
#
# PCOD9202259 Si02
#       7
#     8   8   8   8   8   8   8
#     4  10  22  38  54  80 112 153 202 247 290 334
#     4   9  19  37  61  88 120 150 182 232 293 354
#     4  12  21  37  59  83 116 154 193 254 289 336
#     4  10  20  38  60  85 117 148 193 235 288 352
#     4  11  21  36  59  92 116 147 191 236 300 346
#     4  10  21  37  57  81 113 158 203 236 282 343
#     4  11  23  40  57  81 113 160 202 239 286 347
#
# _framework density 19.324766
#
# number of rings (size 3 to 8) (size 9 to 14) (size 15 to 20)
#    0.000    1.571    2.857    3.857    0.000    0.286 
#    7.714    0.000    0.000    0.857    0.000    0.000 
#    0.000    0.000    0.000    0.000    0.000    0.000 
#
# Total GULP energy -155988.217544 kJ/mol
# GULP energy per Si atom -5571.007769 kJ/mol
# Density = 1.928078 g / cm^3
# Si number density = 19.324766 Si / 1000 Ang^3
#
#
#
# Elastic Constant Matrix: (Units=GPa)
#
#
# Indices 1 2 3 4 5 6 
#
# 1 143.9052 32.0549 36.6861 0.0000 22.0429 0.0000
# 2 32.0549 54.7628 23.6173 0.0000 15.3533 0.0000
# 3 36.6861 23.6173 97.6826 0.0000 18.8810 0.0000
# 4 0.0000 0.0000 0.0000 16.3288 0.0000 -0.8367
# 5 22.0429 15.3533 18.8810 0.0000 17.4455 0.0000
# 6 0.0000 0.0000 0.0000 -0.8367 0.0000 20.7451
#
#
#
# Elastic Compliance Matrix: (Units=1/GPa)
#
#
# Indices 1 2 3 4 5 6 
#
# 1 0.009036 -0.002557 -0.001269 0.000000 -0.007793 0.000000
# 2 -0.002557 0.025344 -0.001872 0.000000 -0.017048 0.000000
# 3 -0.001269 -0.001872 0.013326 0.000000 -0.011171 0.000000
# 4 0.000000 0.000000 0.000000 0.061368 0.000000 0.002475
# 5 -0.007793 -0.017048 -0.011171 0.000000 0.094262 0.000000
# 6 0.000000 0.000000 0.000000 0.002475 0.000000 0.048304
#
#
# Mechanical properties :
#
#
# Convention : Reuss Voigt Hill
#
# Bulk Modulus (GPa) = 27.54080 53.45191 40.49635
# Shear Modulus (GPa) = 18.17263 24.50338 21.33800
#
# Velocity S-wave (km/s) = 3.06989 3.56473 3.32652
# Velocity P-wave (km/s) = 5.18152 6.68303 5.97959
#
# Compressibility (1/GPa) = 0.03630976
#
# Stress axis : x y z
#
# Youngs Moduli (GPa) = 110.67048 39.45688 75.04279
#
# Poissons Ratio (x) = 0.10088 0.09523
# Poissons Ratio (y) = 0.28296 0.14049
# Poissons Ratio (z) = 0.14044 0.07387
#
# Static dielectric constant tensor:
#      x y z
#    x 1.755640 0.000000 -0.064530 
#    y 0.000000 1.668690 0.000000 
#    z -0.064530 0.000000 1.755080 
# 
# From -- ./inp_files/91621.got.cif
#   From: 2010.05.17/outbox.cif.g08.bks.cpg/sg12_46_cif.got.tgz:91621.got - 2010.06.03 13:09:07.
