data_PCOD9202978
_publ_section_title
;
Structure prediction by ZEFSAII (Michael W. Deem and Ramdas Pophale) SiO2 
 PCOD9202978
Probable space group: C 2/M
;
_chemical_formula_sum "Si O2"
_cell_formula_units_Z 42
_cell_length_a 19.865029
_cell_length_b 10.749760
_cell_length_c 12.140692
_cell_angle_alpha 90.000000
_cell_angle_beta 113.073224
_cell_angle_gamma 90.000000
_cell_volume 2385.181772
_symmetry_space_group_name_H-M "C 2/M"
_symmetry_group_IT_number 12
_symmetry_cell_setting 'monoclinic'
loop_
_space_group_symop_operation_xyz
x,y,z
-x,y,-z
-x,-y,-z
x,-y,z
1/2+x,1/2+y,z
1/2-x,1/2+y,-z
1/2-x,1/2-y,-z
1/2+x,1/2-y,z
loop_
_atom_site_type_symbol
_atom_site_label
_atom_site_fract_x
_atom_site_fract_y
_atom_site_fract_z
Si Si1 0.668476 0.852358 0.125991
Si Si2 0.422620 0.295401 0.107852
Si Si3 0.500000 0.500000 0.000000
Si Si4 0.433183 0.851868 0.735557
Si Si5 0.086706 0.355120 0.529671
Si Si6 0.160102 0.858070 0.724088
O O1 0.623068 0.812106 0.205312
O O2 0.754335 0.832720 0.199517
O O3 0.656880 0.000000 0.104237
O O4 0.635714 0.782398 0.000414
O O5 0.488704 0.210117 0.194364
O O6 0.382593 0.352624 0.187709
O O7 0.459613 0.393109 0.049924
O O8 0.404510 0.826623 0.594342
O O9 0.442252 0.000000 0.749265
O O10 0.109261 0.500000 0.565350
O O11 0.127749 0.250723 0.626643
O O12 0.000000 0.348815 0.500000
O O13 0.153005 0.000000 0.674431
#
# Coordination Sequence:
#
# PCOD9202978 Si02
#       6
#     8   8   2   8   8   8
#     4  10  22  39  60  87 118 152 193 241 293 351
#     4  12  21  39  59  87 118 157 192 240 294 344
#     4  12  24  36  58  86 128 152 196 242 284 354
#     4  10  20  38  65  85 112 150 202 244 282 344
#     4  10  21  39  61  88 115 152 200 245 287 345
#     4  11  24  40  58  88 123 154 193 241 297 351
#
# _framework density 17.608720000000002
#
# number of rings (size 3 to 8) (size 9 to 14) (size 15 to 20)
#    0.000    1.333    4.762    1.143    0.000    3.429 
#    3.429    0.000    0.000    0.000    0.000    0.000 
#    0.000    0.000    0.000    0.000    0.000    0.000 
#
# Total GULP energy -116938.753818 kJ/mol
# GULP energy per Si atom -5568.512087 kJ/mol
# Density = 1.756864 g / cm^3
# Si number density = 17.608720 Si / 1000 Ang^3
#
#
#
# Elastic Constant Matrix: (Units=GPa)
#
#
# Indices 1 2 3 4 5 6 
#
# 1 80.0238 39.9499 35.9433 0.0000 6.2090 0.0000
# 2 39.9499 104.8254 86.4812 0.0000 17.3309 0.0000
# 3 35.9433 86.4812 96.9196 0.0000 10.5112 0.0000
# 4 0.0000 0.0000 0.0000 17.6346 0.0000 -8.9422
# 5 6.2090 17.3309 10.5112 0.0000 18.5865 0.0000
# 6 0.0000 0.0000 0.0000 -8.9422 0.0000 21.9393
#
#
#
# Elastic Compliance Matrix: (Units=1/GPa)
#
#
# Indices 1 2 3 4 5 6 
#
# 1 0.015516 -0.004406 -0.001818 0.000000 -0.000047 0.000000
# 2 -0.004406 0.042858 -0.034553 0.000000 -0.018950 0.000000
# 3 -0.001818 -0.034553 0.040764 0.000000 0.009773 0.000000
# 4 0.000000 0.000000 0.000000 0.071480 0.000000 0.029135
# 5 -0.000047 -0.018950 0.009773 0.000000 0.065961 0.000000
# 6 0.000000 0.000000 0.000000 0.029135 0.000000 0.057455
#
#
# Mechanical properties :
#
#
# Convention : Reuss Voigt Hill
#
# Bulk Modulus (GPa) = 56.86866 67.39085 62.12976
# Shear Modulus (GPa) = 13.10786 19.59172 16.34979
#
# Velocity S-wave (km/s) = 2.73132 3.33921 3.05044
# Velocity P-wave (km/s) = 6.50482 7.29530 6.91137
#
# Compressibility (1/GPa) = 0.01758438
#
# Stress axis : x y z
#
# Youngs Moduli (GPa) = 64.45010 23.33264 24.53146
#
# Poissons Ratio (x) = 0.10280 0.04459
# Poissons Ratio (y) = 0.28395 0.84764
# Poissons Ratio (z) = 0.11716 0.80622
#
# Static dielectric constant tensor:
#      x y z
#    x 1.581670 0.000000 -0.021420 
#    y 0.000000 1.589040 0.000000 
#    z -0.021420 0.000000 1.585840 
# 
# From -- ./inp_files/163008.got.cif
#   From: 2010.05.17/outbox.cif.g08.bks.cpg/sg12_82_cif.got.tgz:163008.got - 2010.06.03 13:09:07.
