data_PCOD9202966
_publ_section_title
;
Structure prediction by ZEFSAII (Michael W. Deem and Ramdas Pophale) SiO2 
 PCOD9202966
Probable space group: C 2/M
;
_chemical_formula_sum "Si O2"
_cell_formula_units_Z 56
_cell_length_a 17.987750
_cell_length_b 13.414959
_cell_length_c 12.060015
_cell_angle_alpha 90.000000
_cell_angle_beta 71.674887
_cell_angle_gamma 90.000000
_cell_volume 2762.561295
_symmetry_space_group_name_H-M "C 2/M"
_symmetry_group_IT_number 12
_symmetry_cell_setting 'monoclinic'
loop_
_space_group_symop_operation_xyz
x,y,z
-x,y,-z
-x,-y,-z
x,-y,z
1/2+x,1/2+y,z
1/2-x,1/2+y,-z
1/2-x,1/2-y,-z
1/2+x,1/2-y,z
loop_
_atom_site_type_symbol
_atom_site_label
_atom_site_fract_x
_atom_site_fract_y
_atom_site_fract_z
Si Si1 0.720278 0.120916 0.919751
Si Si2 0.733546 0.381659 0.626748
Si Si3 0.316704 0.880894 0.812609
Si Si4 0.562684 0.885448 0.871840
Si Si5 0.982109 0.725483 0.710530
Si Si6 0.372739 0.618324 0.705202
Si Si7 0.368125 0.744576 0.481483
O O1 0.644841 0.150777 0.883185
O O2 0.799853 0.146454 0.818574
O O3 0.718199 0.000000 0.923490
O O4 0.710090 0.152520 0.052361
O O5 0.725712 0.500000 0.613427
O O6 0.752945 0.362275 0.746719
O O7 0.661787 0.320642 0.608777
O O8 0.808720 0.335944 0.527376
O O9 0.400798 0.835457 0.739943
O O10 0.327746 0.000000 0.812307
O O11 0.526689 0.814806 0.796525
O O12 0.572177 0.000000 0.825383
O O13 0.500000 0.889573 0.000000
O O14 0.951198 0.838844 0.724556
O O15 0.045457 0.717035 0.584006
O O16 0.374079 0.500000 0.689799
O O17 0.364822 0.673585 0.590792
#
# Coordination Sequence:
#
# PCOD9202966 Si02
#       7
#     8   8   8   8   8   8   8
#     4   9  20  40  67  94 124 163 211 262 317 382
#     4  10  23  42  65  91 125 166 207 264 324 372
#     4  10  20  40  66  98 129 156 200 266 333 381
#     4  10  20  38  64  98 134 165 203 259 326 384
#     4  12  24  38  61  95 130 164 208 262 314 374
#     4  11  25  45  66  90 123 174 225 264 307 371
#     4  11  25  43  61  94 128 167 222 256 308 387
#
# _framework density 20.271042999999999
#
# number of rings (size 3 to 8) (size 9 to 14) (size 15 to 20)
#    0.000    1.571    2.857    1.286    4.000    3.429 
#    2.571    1.429    0.000    0.429    0.000    0.000 
#    0.000    0.000    0.000    0.000    0.000    0.000 
#
# Total GULP energy -156416.351415 kJ/mol
# GULP energy per Si atom -5586.298265 kJ/mol
# Density = 2.022490 g / cm^3
# Si number density = 20.271043 Si / 1000 Ang^3
#
#
#
# Elastic Constant Matrix: (Units=GPa)
#
#
# Indices 1 2 3 4 5 6 
#
# 1 95.5856 13.3497 64.4319 0.0000 14.9520 0.0000
# 2 13.3497 59.5296 23.6007 0.0000 14.2033 0.0000
# 3 64.4319 23.6007 85.9361 0.0000 11.3724 0.0000
# 4 0.0000 0.0000 0.0000 7.3585 0.0000 -7.4986
# 5 14.9520 14.2033 11.3724 0.0000 41.0156 0.0000
# 6 0.0000 0.0000 0.0000 -7.4986 0.0000 27.6738
#
#
#
# Elastic Compliance Matrix: (Units=1/GPa)
#
#
# Indices 1 2 3 4 5 6 
#
# 1 0.021990 0.002707 -0.016657 0.000000 -0.004335 0.000000
# 2 0.002707 0.020357 -0.006806 0.000000 -0.006149 0.000000
# 3 -0.016657 -0.006806 0.025827 0.000000 0.001268 0.000000
# 4 0.000000 0.000000 0.000000 0.187735 0.000000 0.050869
# 5 -0.004335 -0.006149 0.001268 0.000000 0.027739 0.000000
# 6 0.000000 0.000000 0.000000 0.050869 0.000000 0.049919
#
#
# Mechanical properties :
#
#
# Convention : Reuss Voigt Hill
#
# Bulk Modulus (GPa) = 37.50869 49.31288 43.41078
# Shear Modulus (GPa) = 13.02197 24.52083 18.77140
#
# Velocity S-wave (km/s) = 2.53730 3.48177 3.04636
# Velocity P-wave (km/s) = 5.20841 6.36736 5.81682
#
# Compressibility (1/GPa) = 0.02666049
#
# Stress axis : x y z
#
# Youngs Moduli (GPa) = 45.47524 49.12352 38.71949
#
# Poissons Ratio (x) = -0.13297 0.64495
# Poissons Ratio (y) = -0.12309 0.26354
# Poissons Ratio (z) = 0.75748 0.33435
#
# Static dielectric constant tensor:
#      x y z
#    x 1.709460 0.000000 0.017910 
#    y 0.000000 1.737830 0.000000 
#    z 0.017910 0.000000 1.723760 
# 
# From -- ./inp_files/155982.got.cif
#   From: 2010.05.17/outbox.cif.g08.bks.cpg/sg12_78_cif.got.tgz:155982.got - 2010.06.03 13:09:07.
