data_PCOD9202827
_publ_section_title
;
Structure prediction by ZEFSAII (Michael W. Deem and Ramdas Pophale) SiO2 
 PCOD9202827
Probable space group: C 2/M
;
_chemical_formula_sum "Si O2"
_cell_formula_units_Z 64
_cell_length_a 14.351149
_cell_length_b 19.504200
_cell_length_c 18.053454
_cell_angle_alpha 90.000000
_cell_angle_beta 38.838501
_cell_angle_gamma 90.000000
_cell_volume 3169.062964
_symmetry_space_group_name_H-M "C 2/M"
_symmetry_group_IT_number 12
_symmetry_cell_setting 'monoclinic'
loop_
_space_group_symop_operation_xyz
x,y,z
-x,y,-z
-x,-y,-z
x,-y,z
1/2+x,1/2+y,z
1/2-x,1/2+y,-z
1/2-x,1/2-y,-z
1/2+x,1/2-y,z
loop_
_atom_site_type_symbol
_atom_site_label
_atom_site_fract_x
_atom_site_fract_y
_atom_site_fract_z
Si Si1 0.322464 0.303564 0.236368
Si Si2 0.435578 0.198433 0.713409
Si Si3 0.471548 0.423399 0.930627
Si Si4 0.952895 0.337513 0.192463
Si Si5 0.846377 0.919649 0.630248
Si Si6 0.051005 0.862330 0.282456
Si Si7 0.726151 0.920265 0.975860
Si Si8 0.731094 0.817568 0.459308
O O1 0.216848 0.319203 0.232657
O O2 0.437302 0.365309 0.166993
O O3 0.408512 0.231691 0.177132
O O4 0.238913 0.299047 0.367470
O O5 0.469058 0.182283 0.778214
O O6 0.435583 0.281502 0.707780
O O7 0.566846 0.161453 0.585580
O O8 0.519841 0.500000 0.877578
O O9 0.300523 0.417929 0.011626
O O10 0.500000 0.416774 0.000000
O O11 0.799958 0.378289 0.301974
O O12 0.068394 0.383275 0.075332
O O13 0.878902 0.907547 0.696182
O O14 0.000000 0.892955 0.500000
O O15 0.829104 0.000000 0.623391
O O16 0.154113 0.882024 0.149573
O O17 0.871363 0.868190 0.385833
O O18 0.712575 0.000000 0.962830
O O19 0.750000 0.750000 0.500000
#
# Coordination Sequence:
#
# PCOD9202827 Si02
#       8
#     8   8   8   8   8   8   8   8
#     4  12  22  39  66  98 130 169 216 276 336 405
#     4  11  23  38  65 100 129 167 216 279 341 393
#     4  10  22  42  65  89 126 177 223 270 330 403
#     4  12  24  41  64  97 133 172 221 285 329 398
#     4  11  25  43  66  96 133 179 224 272 338 410
#     4  11  21  40  65  93 128 172 220 270 328 405
#     4  11  24  42  63  88 131 180 223 275 335 398
#     4  10  20  38  63  99 131 167 211 269 335 396
#
# _framework density 20.195245
#
# number of rings (size 3 to 8) (size 9 to 14) (size 15 to 20)
#    0.000    1.000    5.000    2.625    1.750    3.500 
#    0.000    1.875    0.000    3.750    0.000    0.000 
#    0.000    0.000    0.000    0.000    0.000    0.000 
#
# Total GULP energy -178541.537788 kJ/mol
# GULP energy per Si atom -5579.423056 kJ/mol
# Density = 2.014928 g / cm^3
# Si number density = 20.195245 Si / 1000 Ang^3
#
#
#
# Elastic Constant Matrix: (Units=GPa)
#
#
# Indices 1 2 3 4 5 6 
#
# 1 96.2619 8.4068 20.4050 0.0001 -17.2622 -0.0001
# 2 8.4068 71.3814 41.6875 0.0001 -24.8456 0.0000
# 3 20.4050 41.6875 79.0854 0.0003 -23.4346 -0.0004
# 4 0.0001 0.0001 0.0003 40.5713 -0.0001 -8.8147
# 5 -17.2622 -24.8456 -23.4346 -0.0001 29.6531 0.0002
# 6 -0.0001 0.0000 -0.0004 -8.8147 0.0002 22.2423
#
#
#
# Elastic Compliance Matrix: (Units=1/GPa)
#
#
# Indices 1 2 3 4 5 6 
#
# 1 0.011940 0.002391 -0.002204 0.000000 0.007213 0.000000
# 2 0.002391 0.023989 -0.009002 0.000000 0.014378 0.000000
# 3 -0.002204 -0.009002 0.020035 0.000000 0.007008 0.000000
# 4 0.000000 0.000000 0.000000 0.026970 0.000000 0.010688
# 5 0.007213 0.014378 0.007008 0.000000 0.055507 0.000000
# 6 0.000000 0.000000 0.000000 0.010688 0.000000 0.049195
#
#
# Mechanical properties :
#
#
# Convention : Reuss Voigt Hill
#
# Bulk Modulus (GPa) = 26.08537 43.08079 34.58308
# Shear Modulus (GPa) = 22.93114 30.24197 26.58656
#
# Velocity S-wave (km/s) = 3.37333 3.87393 3.63226
# Velocity P-wave (km/s) = 5.30256 6.43337 5.89514
#
# Compressibility (1/GPa) = 0.03833566
#
# Stress axis : x y z
#
# Youngs Moduli (GPa) = 83.75152 41.68537 49.91314
#
# Poissons Ratio (x) = -0.09969 0.11001
# Poissons Ratio (y) = -0.20029 0.44930
# Poissons Ratio (z) = 0.18459 0.37524
#
# Static dielectric constant tensor:
#      x y z
#    x 1.864560 0.000000 -0.013900 
#    y 0.000000 1.711220 0.000000 
#    z -0.013900 0.000000 1.765160 
# 
# From -- ./inp_files/271708.got.cif
#   From: 2010.05.17/outbox.cif.g08.bks.cpg/sg12_136_cif.got.tgz:271708.got - 2010.06.03 13:09:07.
