data_PCOD9202795
_publ_section_title
;
Structure prediction by ZEFSAII (Michael W. Deem and Ramdas Pophale) SiO2 
 PCOD9202795
Probable space group: C 2/M
;
_chemical_formula_sum "Si O2"
_cell_formula_units_Z 44
_cell_length_a 17.672683
_cell_length_b 7.818474
_cell_length_c 16.554921
_cell_angle_alpha 90.000000
_cell_angle_beta 104.602152
_cell_angle_gamma 90.000000
_cell_volume 2213.564615
_symmetry_space_group_name_H-M "C 2/M"
_symmetry_group_IT_number 12
_symmetry_cell_setting 'monoclinic'
loop_
_space_group_symop_operation_xyz
x,y,z
-x,y,-z
-x,-y,-z
x,-y,z
1/2+x,1/2+y,z
1/2-x,1/2+y,-z
1/2-x,1/2-y,-z
1/2+x,1/2-y,z
loop_
_atom_site_type_symbol
_atom_site_label
_atom_site_fract_x
_atom_site_fract_y
_atom_site_fract_z
Si Si1 0.628112 0.000000 0.408420
Si Si2 0.469288 0.000000 0.276902
Si Si3 0.292960 0.794065 0.819956
Si Si4 0.713521 0.684930 0.362482
Si Si5 0.367812 0.000000 0.410682
Si Si6 0.118208 0.802194 0.832859
Si Si7 0.910064 0.707317 0.993205
O O1 0.559859 0.000000 0.323949
O O2 0.681648 0.835553 0.407929
O O3 0.596026 0.000000 0.490746
O O4 0.423621 0.000000 0.349701
O O5 0.442950 0.832485 0.220401
O O6 0.308540 0.716648 0.736555
O O7 0.204601 0.753896 0.824080
O O8 0.298203 0.000000 0.814013
O O9 0.354182 0.738954 0.904723
O O10 0.682222 0.500000 0.381051
O O11 0.807316 0.659833 0.389126
O O12 0.116651 0.783974 0.929040
O O13 0.102549 0.000000 0.806472
O O14 0.905388 0.500000 0.998523
O O15 0.000000 0.752460 0.000000
#
# Coordination Sequence:
#
# PCOD9202795 Si02
#       7
#     4   4   8   8   4   8   8
#     4  12  25  42  69  99 134 158 212 278 331 375
#     4  12  25  44  68  94 133 172 208 274 321 386
#     4  10  20  38  63  92 127 172 218 260 312 379
#     4  10  22  39  69  95 126 169 214 258 320 387
#     4  10  23  48  68  96 126 175 212 257 330 401
#     4  11  23  41  63  92 125 173 218 257 315 380
#     4  10  22  37  61  90 129 169 212 265 317 371
#
# _framework density 19.877441999999999
#
# number of rings (size 3 to 8) (size 9 to 14) (size 15 to 20)
#    0.545    0.909    3.636    1.364    2.545    1.818 
#    0.000    0.000    0.000    2.182    0.000    0.000 
#    0.000    0.000    0.000    0.000    0.000    0.000 
#
# Total GULP energy -122901.474947 kJ/mol
# GULP energy per Si atom -5586.430679 kJ/mol
# Density = 1.983220 g / cm^3
# Si number density = 19.877442 Si / 1000 Ang^3
#
#
#
# Elastic Constant Matrix: (Units=GPa)
#
#
# Indices 1 2 3 4 5 6 
#
# 1 31.6566 13.6014 -6.1061 0.0000 8.7965 0.0000
# 2 13.6014 75.0393 13.6378 0.0000 1.3345 0.0000
# 3 -6.1061 13.6378 84.7571 0.0000 0.5104 0.0000
# 4 0.0000 0.0000 0.0000 0.0671 0.0000 -0.1388
# 5 8.7965 1.3345 0.5104 0.0000 38.6557 0.0000
# 6 0.0000 0.0000 0.0000 -0.1388 0.0000 8.5052
#
#
#
# Elastic Compliance Matrix: (Units=1/GPa)
#
#
# Indices 1 2 3 4 5 6 
#
# 1 0.037893 -0.007442 0.003978 0.000000 -0.008418 0.000000
# 2 -0.007442 0.015197 -0.002989 0.000000 0.001208 0.000000
# 3 0.003978 -0.002989 0.012572 0.000000 -0.000968 0.000000
# 4 0.000000 0.000000 0.000000 15.412440 0.000000 0.251581
# 5 -0.008418 0.001208 -0.000968 0.000000 0.027756 0.000000
# 6 0.000000 0.000000 0.000000 0.251581 0.000000 0.121682
#
#
# Mechanical properties :
#
#
# Convention : Reuss Voigt Hill
#
# Bulk Modulus (GPa) = 18.95486 25.96880 22.46183
# Shear Modulus (GPa) = 0.31932 20.80027 10.55980
#
# Velocity S-wave (km/s) = 0.40124 3.23836 2.30738
# Velocity P-wave (km/s) = 3.12590 5.20341 4.29224
#
# Compressibility (1/GPa) = 0.05275691
#
# Stress axis : x y z
#
# Youngs Moduli (GPa) = 26.39022 65.80302 79.54364
#
# Poissons Ratio (x) = 0.48968 -0.31642
# Poissons Ratio (y) = 0.19639 0.23773
# Poissons Ratio (z) = -0.10498 0.19666
#
# Static dielectric constant tensor:
#      x y z
#    x 1.678500 0.000000 0.014290 
#    y 0.000000 1.699390 0.000000 
#    z 0.014290 0.000000 1.677260 
# 
# From -- ./inp_files/221093.got.cif
#   From: 2010.05.17/outbox.cif.g08.bks.cpg/sg12_111_cif.got.tgz:221093.got - 2010.06.03 13:09:07.
