data_PCOD9202204
_publ_section_title
;
Structure prediction by ZEFSAII (Michael W. Deem and Ramdas Pophale) SiO2 
 PCOD9202204
Probable space group: C 2/M
;
_chemical_formula_sum "Si O2"
_cell_formula_units_Z 44
_cell_length_a 16.435536
_cell_length_b 24.760448
_cell_length_c 5.024101
_cell_angle_alpha 90.000000
_cell_angle_beta 73.297190
_cell_angle_gamma 90.000000
_cell_volume 1958.300674
_symmetry_space_group_name_H-M "C 2/M"
_symmetry_group_IT_number 12
_symmetry_cell_setting 'monoclinic'
loop_
_space_group_symop_operation_xyz
x,y,z
-x,y,-z
-x,-y,-z
x,-y,z
1/2+x,1/2+y,z
1/2-x,1/2+y,-z
1/2-x,1/2-y,-z
1/2+x,1/2-y,z
loop_
_atom_site_type_symbol
_atom_site_label
_atom_site_fract_x
_atom_site_fract_y
_atom_site_fract_z
Si Si1 0.083502 0.105173 0.260377
Si Si2 0.680006 0.437398 0.662595
Si Si3 0.724950 0.798406 0.742669
Si Si4 0.104376 0.772324 0.115673
Si Si5 0.321348 0.135316 0.698132
Si Si6 0.500000 0.183698 0.500000
O O1 0.153961 0.096877 0.425357
O O2 0.070395 0.166897 0.169999
O O3 0.000000 0.086946 0.500000
O O4 0.114648 0.074410 0.967245
O O5 0.677026 0.500000 0.592966
O O6 0.772715 0.420265 0.687497
O O7 0.814238 0.776124 0.763562
O O8 0.728005 0.825141 0.455151
O O9 0.651203 0.752968 0.817458
O O10 0.694677 0.842914 0.989837
O O11 0.035927 0.727255 0.255482
O O12 0.419241 0.144880 0.527709
#
# Coordination Sequence:
#
# PCOD9202204 Si02
#       6
#     8   8   8   8   8   4
#     4  12  25  44  66 100 134 162 214 269 328 395
#     4  12  26  46  70  90 124 176 227 275 324 369
#     4  10  22  37  64  86 135 170 214 249 317 387
#     4  10  20  38  59  97 127 173 199 254 315 395
#     4  11  22  44  60  97 128 175 214 269 307 387
#     4  10  24  36  65  96 139 166 210 252 328 384
#
# _framework density 22.468458999999999
#
# number of rings (size 3 to 8) (size 9 to 14) (size 15 to 20)
#    0.000    1.091    4.545    1.091    0.000   14.545 
#    3.273    0.455    0.000    0.000    0.000    8.909 
#    0.000    0.000    0.000    0.000    0.000    0.000 
#
# Total GULP energy -122813.562930 kJ/mol
# GULP energy per Si atom -5582.434679 kJ/mol
# Density = 2.241732 g / cm^3
# Si number density = 22.468459 Si / 1000 Ang^3
#
#
#
# Elastic Constant Matrix: (Units=GPa)
#
#
# Indices 1 2 3 4 5 6 
#
# 1 104.0564 19.5245 -0.7116 0.0000 -19.5739 0.0000
# 2 19.5245 73.8286 13.9181 0.0000 -7.0450 0.0000
# 3 -0.7116 13.9181 60.2962 0.0000 -1.2046 0.0000
# 4 0.0000 0.0000 0.0000 18.0149 0.0000 -4.6617
# 5 -19.5739 -7.0450 -1.2046 0.0000 28.3078 0.0000
# 6 0.0000 0.0000 0.0000 -4.6617 0.0000 16.9236
#
#
#
# Elastic Compliance Matrix: (Units=1/GPa)
#
#
# Indices 1 2 3 4 5 6 
#
# 1 0.011465 -0.002493 0.000857 0.000000 0.007344 0.000000
# 2 -0.002493 0.015035 -0.003463 0.000000 0.001871 0.000000
# 3 0.000857 -0.003463 0.017404 0.000000 0.000472 0.000000
# 4 0.000000 0.000000 0.000000 0.059770 0.000000 0.016464
# 5 0.007344 0.001871 0.000472 0.000000 0.040890 0.000000
# 6 0.000000 0.000000 0.000000 0.016464 0.000000 0.063624
#
#
# Mechanical properties :
#
#
# Convention : Reuss Voigt Hill
#
# Bulk Modulus (GPa) = 29.66647 33.73812 31.70229
# Shear Modulus (GPa) = 21.77505 26.34593 24.06049
#
# Velocity S-wave (km/s) = 3.11648 3.42800 3.27594
# Velocity P-wave (km/s) = 5.11685 5.54226 5.33380
#
# Compressibility (1/GPa) = 0.03370809
#
# Stress axis : x y z
#
# Youngs Moduli (GPa) = 87.22001 66.50944 57.45930
#
# Poissons Ratio (x) = 0.16580 -0.04927
# Poissons Ratio (y) = 0.21743 0.19896
# Poissons Ratio (z) = -0.07479 0.23030
#
# Static dielectric constant tensor:
#      x y z
#    x 1.926070 0.000000 -0.008820 
#    y 0.000000 1.848460 0.000000 
#    z -0.008820 0.000000 1.838660 
# 
# From -- ./inp_files/16555.got.cif
#   From: 2010.05.17/outbox.cif.g08.bks.cpg/sg12_9_cif.got.tgz:16555.got - 2010.06.03 13:09:07.
