data_PCOD9202271
_publ_section_title
;
Structure prediction by ZEFSAII (Michael W. Deem and Ramdas Pophale) SiO2 
 PCOD9202271
Probable space group: C 2/M
;
_chemical_formula_sum "Si O2"
_cell_formula_units_Z 56
_cell_length_a 22.858418
_cell_length_b 22.697575
_cell_length_c 5.378115
_cell_angle_alpha 90.000000
_cell_angle_beta 106.405164
_cell_angle_gamma 90.000000
_cell_volume 2676.732446
_symmetry_space_group_name_H-M "C 2/M"
_symmetry_group_IT_number 12
_symmetry_cell_setting 'monoclinic'
loop_
_space_group_symop_operation_xyz
x,y,z
-x,y,-z
-x,-y,-z
x,-y,z
1/2+x,1/2+y,z
1/2-x,1/2+y,-z
1/2-x,1/2-y,-z
1/2+x,1/2-y,z
loop_
_atom_site_type_symbol
_atom_site_label
_atom_site_fract_x
_atom_site_fract_y
_atom_site_fract_z
Si Si1 0.540529 0.000000 0.302390
Si Si2 0.819286 0.288994 0.311981
Si Si3 0.619409 0.109599 0.264734
Si Si4 0.081537 0.709557 0.948807
Si Si5 0.706366 0.366950 0.177910
Si Si6 0.500000 0.710859 0.500000
Si Si7 0.390729 0.307257 0.653922
Si Si8 0.750602 0.430255 0.734217
O O1 0.500000 0.000000 0.500000
O O2 0.584340 0.942922 0.354004
O O3 0.500000 0.000000 0.000000
O O4 0.853651 0.340526 0.514147
O O5 0.850105 0.290327 0.079425
O O6 0.749823 0.309132 0.224652
O O7 0.835653 0.224092 0.435639
O O8 0.677290 0.084607 0.182938
O O9 0.572811 0.143302 0.025173
O O10 0.039923 0.742774 0.705430
O O11 0.078184 0.751467 0.179463
O O12 0.638266 0.347552 0.169091
O O13 0.726966 0.406112 0.439912
O O14 0.718095 0.399330 0.930885
O O15 0.552822 0.670399 0.440506
O O16 0.741974 0.500000 0.739534
#
# Coordination Sequence:
#
# PCOD9202271 Si02
#       8
#     4   8   8   8   8   4   8   8
#     4  12  30  42  58  86 116 170 234 277 301 341
#     4   9  20  36  59  89 121 162 200 256 325 369
#     4  10  22  43  59  83 121 168 214 270 312 358
#     4  10  20  38  60  86 119 167 208 250 315 369
#     4  11  23  38  65  98 122 162 206 257 325 374
#     4  10  22  38  58  87 129 172 206 244 310 376
#     4  10  22  37  58  89 129 162 204 256 303 396
#     4  11  23  42  68  92 125 164 206 264 323 373
#
# _framework density 20.921029000000001
#
# number of rings (size 3 to 8) (size 9 to 14) (size 15 to 20)
#    0.000    1.714    2.143    1.286    6.000    4.000 
#    5.143    0.000    0.000    0.000    0.000    3.000 
#    0.000    0.000    0.000    0.000    0.000    0.000 
#
# Total GULP energy -156246.785440 kJ/mol
# GULP energy per Si atom -5580.242337 kJ/mol
# Density = 2.087341 g / cm^3
# Si number density = 20.921029 Si / 1000 Ang^3
#
#
#
# Elastic Constant Matrix: (Units=GPa)
#
#
# Indices 1 2 3 4 5 6 
#
# 1 120.5947 36.8794 21.5231 0.0000 -41.3243 0.0000
# 2 36.8794 59.9544 16.0107 0.0000 -19.5729 0.0000
# 3 21.5231 16.0107 68.1552 0.0000 -25.7983 0.0000
# 4 0.0000 0.0000 0.0000 26.2920 0.0000 -12.3062
# 5 -41.3243 -19.5729 -25.7983 0.0000 40.8759 0.0000
# 6 0.0000 0.0000 0.0000 -12.3062 0.0000 10.0112
#
#
#
# Elastic Compliance Matrix: (Units=1/GPa)
#
#
# Indices 1 2 3 4 5 6 
#
# 1 0.013814 -0.004780 0.001551 0.000000 0.012655 0.000000
# 2 -0.004780 0.021525 -0.001938 0.000000 0.004252 0.000000
# 3 0.001551 -0.001938 0.019551 0.000000 0.012979 0.000000
# 4 0.000000 0.000000 0.000000 0.089567 0.000000 0.110098
# 5 0.012655 0.004252 0.012979 0.000000 0.047486 0.000000
# 6 0.000000 0.000000 0.000000 0.110098 0.000000 0.235224
#
#
# Mechanical properties :
#
#
# Convention : Reuss Voigt Hill
#
# Bulk Modulus (GPa) = 22.44349 44.17006 33.30678
# Shear Modulus (GPa) = 11.05333 27.05523 19.05428
#
# Velocity S-wave (km/s) = 2.30105 3.60002 3.02117
# Velocity P-wave (km/s) = 4.22028 6.19990 5.30328
#
# Compressibility (1/GPa) = 0.04455634
#
# Stress axis : x y z
#
# Youngs Moduli (GPa) = 72.39135 46.45750 51.14876
#
# Poissons Ratio (x) = 0.22206 -0.07933
# Poissons Ratio (y) = 0.34602 0.09911
# Poissons Ratio (z) = -0.11227 0.09002
#
# Static dielectric constant tensor:
#      x y z
#    x 1.811520 0.000000 0.008630 
#    y 0.000000 1.729850 0.000000 
#    z 0.008630 0.000000 1.844640 
# 
# From -- ./inp_files/25944.got.cif
#   From: 2010.05.17/outbox.cif.g08.bks.cpg/sg12_13_cif.got.tgz:25944.got - 2010.06.03 13:09:07.
