data_PCOD9202849
_publ_section_title
;
Structure prediction by ZEFSAII (Michael W. Deem and Ramdas Pophale) SiO2 
 PCOD9202849
Probable space group: C 2/M
;
_chemical_formula_sum "Si O2"
_cell_formula_units_Z 64
_cell_length_a 17.202625
_cell_length_b 15.678402
_cell_length_c 17.401862
_cell_angle_alpha 90.000000
_cell_angle_beta 140.802131
_cell_angle_gamma 90.000000
_cell_volume 2966.262943
_symmetry_space_group_name_H-M "C 2/M"
_symmetry_group_IT_number 12
_symmetry_cell_setting 'monoclinic'
loop_
_space_group_symop_operation_xyz
x,y,z
-x,y,-z
-x,-y,-z
x,-y,z
1/2+x,1/2+y,z
1/2-x,1/2+y,-z
1/2-x,1/2-y,-z
1/2+x,1/2-y,z
loop_
_atom_site_type_symbol
_atom_site_label
_atom_site_fract_x
_atom_site_fract_y
_atom_site_fract_z
Si Si1 0.420737 0.406998 0.555978
Si Si2 0.601569 0.094840 0.905708
Si Si3 0.974447 0.274323 0.563882
Si Si4 0.854301 0.093989 0.804966
Si Si5 0.701981 0.836103 0.824194
Si Si6 0.719391 0.905787 0.536853
Si Si7 0.051917 0.775905 0.910655
Si Si8 0.621689 0.593711 0.834193
O O1 0.403787 0.500000 0.505155
O O2 0.418853 0.319625 0.508092
O O3 0.318948 0.399338 0.545428
O O4 0.551729 0.407155 0.700199
O O5 0.641567 0.112002 0.848096
O O6 0.524515 0.177116 0.873301
O O7 0.547581 0.000000 0.872520
O O8 0.731106 0.097419 0.051441
O O9 0.879221 0.331215 0.538557
O O10 0.000000 0.314063 0.500000
O O11 0.100717 0.276503 0.707589
O O12 0.758419 0.105832 0.800405
O O13 0.787610 0.098491 0.671290
O O14 0.950282 0.171377 0.878753
O O15 0.912238 0.000000 0.856084
O O16 0.816241 0.784953 0.947498
O O17 0.660910 0.000000 0.486068
O O18 0.069734 0.829416 0.845523
O O19 0.590715 0.500000 0.846478
#
# Coordination Sequence:
#
# PCOD9202849 Si02
#       8
#     8   8   8   8   8   8   8   8
#     4  10  20  38  64  88 113 152 202 244 283 337
#     4  10  21  36  57  88 121 155 193 236 288 349
#     4  12  24  40  60  84 121 160 193 239 293 345
#     4  11  22  38  61  89 120 153 190 239 299 353
#     4  11  23  38  58  89 122 154 189 238 300 353
#     4  10  22  40  61  85 113 155 199 238 290 351
#     4  11  20  35  60  89 120 150 192 241 286 350
#     4   9  16  31  57  87 116 145 184 238 293 342
#
# _framework density 21.575969000000001
#
# number of rings (size 3 to 8) (size 9 to 14) (size 15 to 20)
#    0.000    1.500    2.500    4.500    0.000    3.500 
#    0.000    0.000    0.000    2.250    0.000    0.000 
#    0.000    0.000    0.000    0.000    0.000    0.000 
#
# Total GULP energy -178742.255352 kJ/mol
# GULP energy per Si atom -5585.695480 kJ/mol
# Density = 2.152686 g / cm^3
# Si number density = 21.575969 Si / 1000 Ang^3
#
#
#
# Elastic Constant Matrix: (Units=GPa)
#
#
# Indices 1 2 3 4 5 6 
#
# 1 58.1344 39.6733 6.7344 0.0000 1.6946 0.0000
# 2 39.6733 181.3672 3.8171 0.0000 19.7671 0.0000
# 3 6.7344 3.8171 26.2550 0.0000 9.8106 0.0000
# 4 0.0000 0.0000 0.0000 14.3450 0.0000 6.5657
# 5 1.6946 19.7671 9.8106 0.0000 14.5252 0.0000
# 6 0.0000 0.0000 0.0000 6.5657 0.0000 9.6605
#
#
#
# Elastic Compliance Matrix: (Units=1/GPa)
#
#
# Indices 1 2 3 4 5 6 
#
# 1 0.021919 -0.005864 -0.009090 0.000000 0.011562 0.000000
# 2 -0.005864 0.008243 0.005673 0.000000 -0.014365 0.000000
# 3 -0.009090 0.005673 0.056290 0.000000 -0.044680 0.000000
# 4 0.000000 0.000000 0.000000 0.101187 0.000000 -0.068771
# 5 0.011562 -0.014365 -0.044680 0.000000 0.117224 0.000000
# 6 0.000000 0.000000 0.000000 -0.068771 0.000000 0.150255
#
#
# Mechanical properties :
#
#
# Convention : Reuss Voigt Hill
#
# Bulk Modulus (GPa) = 14.72941 40.68957 27.70949
# Shear Modulus (GPa) = 10.07437 22.07490 16.07464
#
# Velocity S-wave (km/s) = 2.16319 3.20210 2.73248
# Velocity P-wave (km/s) = 3.61674 5.70710 4.77764
#
# Compressibility (1/GPa) = 0.06789138
#
# Stress axis : x y z
#
# Youngs Moduli (GPa) = 45.62252 121.32216 17.76505
#
# Poissons Ratio (x) = 0.71137 0.16149
# Poissons Ratio (y) = 0.26751 -0.10079
# Poissons Ratio (z) = 0.41471 -0.68830
#
# Static dielectric constant tensor:
#      x y z
#    x 1.759770 0.000000 -0.002790 
#    y 0.000000 1.843350 0.000000 
#    z -0.002790 0.000000 1.789160 
# 
# From -- ./inp_files/278178.got.cif
#   From: 2010.05.17/outbox.cif.g08.bks.cpg/sg12_140_cif.got.tgz:278178.got - 2010.06.03 13:09:07.
