data_PCOD9202622
_publ_section_title
;
Structure prediction by ZEFSAII (Michael W. Deem and Ramdas Pophale) SiO2 
 PCOD9202622
Probable space group: C 2/M
;
_chemical_formula_sum "Si O2"
_cell_formula_units_Z 56
_cell_length_a 14.777086
_cell_length_b 8.436956
_cell_length_c 24.741175
_cell_angle_alpha 90.000000
_cell_angle_beta 116.389273
_cell_angle_gamma 90.000000
_cell_volume 2763.144106
_symmetry_space_group_name_H-M "C 2/M"
_symmetry_group_IT_number 12
_symmetry_cell_setting 'monoclinic'
loop_
_space_group_symop_operation_xyz
x,y,z
-x,y,-z
-x,-y,-z
x,-y,z
1/2+x,1/2+y,z
1/2-x,1/2+y,-z
1/2-x,1/2-y,-z
1/2+x,1/2-y,z
loop_
_atom_site_type_symbol
_atom_site_label
_atom_site_fract_x
_atom_site_fract_y
_atom_site_fract_z
Si Si1 0.699127 0.190371 0.119865
Si Si2 0.317816 0.315148 0.567040
Si Si3 0.866705 0.187462 0.781285
Si Si4 0.989213 0.314364 0.433716
Si Si5 0.726287 0.315347 0.650051
Si Si6 0.918674 0.690756 0.140739
Si Si7 0.640015 0.809156 0.989699
O O1 0.667006 0.269811 0.166895
O O2 0.815246 0.234769 0.136161
O O3 0.689990 0.000000 0.122942
O O4 0.631652 0.242466 0.049782
O O5 0.295641 0.500000 0.569486
O O6 0.250000 0.250000 0.500000
O O7 0.432415 0.287336 0.579727
O O8 0.291720 0.221548 0.614243
O O9 0.789938 0.266932 0.719134
O O10 0.980346 0.251725 0.803535
O O11 0.865449 0.000000 0.773029
O O12 0.015411 0.500000 0.435547
O O13 0.000000 0.272125 0.500000
O O14 0.876243 0.283389 0.384095
O O15 0.700242 0.500000 0.645011
O O16 0.910455 0.500000 0.141537
O O17 0.928504 0.737216 0.079471
O O18 0.638475 0.000000 0.991062
O O19 0.750000 0.750000 0.000000
#
# Coordination Sequence:
#
# PCOD9202622 Si02
#       7
#     8   8   8   8   8   8   8
#     4  10  20  38  62  90 123 162 207 257 314 372
#     4  12  24  41  67  99 131 165 203 248 302 361
#     4  12  26  43  61  87 123 166 212 258 308 370
#     4  11  23  41  68  99 131 164 201 248 303 361
#     4  12  26  45  67  93 126 164 209 259 310 368
#     4  10  20  38  62  90 123 162 207 258 314 370
#     4   8  16  31  56  87 120 156 200 255 311 367
#
# _framework density 20.266769
#
# number of rings (size 3 to 8) (size 9 to 14) (size 15 to 20)
#    0.000    1.286    1.429    5.143    0.000    3.429 
#    0.000    8.571    0.000    0.000    0.000    0.000 
#    0.000    0.000    0.000    0.000    0.000    0.000 
#
# Total GULP energy -156531.082760 kJ/mol
# GULP energy per Si atom -5590.395813 kJ/mol
# Density = 2.022064 g / cm^3
# Si number density = 20.266769 Si / 1000 Ang^3
#
#
#
# Elastic Constant Matrix: (Units=GPa)
#
#
# Indices 1 2 3 4 5 6 
#
# 1 53.5135 -12.7026 10.4344 0.0000 5.1335 0.0000
# 2 -12.7026 45.1495 -5.6629 0.0000 -4.3745 0.0000
# 3 10.4344 -5.6629 89.2226 0.0000 7.6783 0.0000
# 4 0.0000 0.0000 0.0000 24.0621 0.0000 -1.2436
# 5 5.1335 -4.3745 7.6783 0.0000 32.7490 0.0000
# 6 0.0000 0.0000 0.0000 -1.2436 0.0000 32.5078
#
#
#
# Elastic Compliance Matrix: (Units=1/GPa)
#
#
# Indices 1 2 3 4 5 6 
#
# 1 0.020519 0.005337 -0.001883 0.000000 -0.002062 0.000000
# 2 0.005337 0.023952 0.000707 0.000000 0.002197 0.000000
# 3 -0.001883 0.000707 0.011675 0.000000 -0.002348 0.000000
# 4 0.000000 0.000000 0.000000 0.041641 0.000000 0.001593
# 5 -0.002062 0.002197 -0.002348 0.000000 0.031702 0.000000
# 6 0.000000 0.000000 0.000000 0.001593 0.000000 0.030823
#
#
# Mechanical properties :
#
#
# Convention : Reuss Voigt Hill
#
# Bulk Modulus (GPa) = 15.51200 19.11373 17.31287
# Shear Modulus (GPa) = 28.82174 30.91822 29.86998
#
# Velocity S-wave (km/s) = 3.77519 3.91008 3.84323
# Velocity P-wave (km/s) = 5.16462 5.46228 5.31553
#
# Compressibility (1/GPa) = 0.06446620
#
# Stress axis : x y z
#
# Youngs Moduli (GPa) = 48.73592 41.75077 85.65236
#
# Poissons Ratio (x) = -0.22282 0.16132
# Poissons Ratio (y) = -0.26010 -0.06055
# Poissons Ratio (z) = 0.09179 -0.02952
#
# Static dielectric constant tensor:
#      x y z
#    x 1.707520 0.000000 0.003570 
#    y 0.000000 1.696420 0.000000 
#    z 0.003570 0.000000 1.711010 
# 
# From -- ./inp_files/339054.got.cif
#   From: 2010.05.17/outbox.cif.g08.bks.cpg/sg12_170_cif.got.tgz:339054.got - 2010.06.03 13:09:07.
