data_PCOD9202099
_publ_section_title
;
Structure prediction by ZEFSAII (Michael W. Deem and Ramdas Pophale) SiO2 
 PCOD9202099
Probable space group: C 2/M
;
_chemical_formula_sum "Si O2"
_cell_formula_units_Z 40
_cell_length_a 19.355581
_cell_length_b 8.253208
_cell_length_c 15.930653
_cell_angle_alpha 90.000000
_cell_angle_beta 126.166789
_cell_angle_gamma 90.000000
_cell_volume 2054.465660
_symmetry_space_group_name_H-M "C 2/M"
_symmetry_group_IT_number 12
_symmetry_cell_setting 'monoclinic'
loop_
_space_group_symop_operation_xyz
x,y,z
-x,y,-z
-x,-y,-z
x,-y,z
1/2+x,1/2+y,z
1/2-x,1/2+y,-z
1/2-x,1/2-y,-z
1/2+x,1/2-y,z
loop_
_atom_site_type_symbol
_atom_site_label
_atom_site_fract_x
_atom_site_fract_y
_atom_site_fract_z
Si Si1 0.588848 0.186318 0.106753
Si Si2 0.479984 0.322452 0.786856
Si Si3 0.029796 0.000000 0.383625
Si Si4 0.162755 0.685122 0.898983
Si Si5 0.857837 0.000000 0.371419
Si Si6 0.272260 0.182354 0.240858
O O1 0.572773 0.198791 0.195328
O O2 0.672940 0.287955 0.146710
O O3 0.603485 0.000000 0.092319
O O4 0.500000 0.240237 0.000000
O O5 0.461155 0.500000 0.810724
O O6 0.461743 0.348279 0.674831
O O7 0.580082 0.285111 0.865759
O O8 0.099113 0.000000 0.506328
O O9 0.936817 0.000000 0.361119
O O10 0.149474 0.500000 0.915988
O O11 0.174385 0.689247 0.807128
O O12 0.250000 0.750000 0.000000
O O13 0.803589 0.835986 0.317527
O O14 0.282200 0.000000 0.283942
#
# Coordination Sequence:
#
# PCOD9202099 Si02
#       6
#     8   8   4   8   4   8
#     4  11  23  38  60  89 129 173 204 246 310 371
#     4  10  20  38  58  86 121 153 204 252 299 369
#     4   9  22  40  71  88 116 163 200 263 329 351
#     4  11  22  34  56  88 123 159 202 246 303 365
#     4  11  20  46  69  90 124 157 206 269 311 367
#     4  11  23  39  62  92 123 164 207 254 304 370
#
# _framework density 19.469781999999999
#
# number of rings (size 3 to 8) (size 9 to 14) (size 15 to 20)
#    0.600    0.800    3.000    3.000    1.400    4.800 
#    0.000    5.000    0.000    0.000    0.000    0.000 
#    0.000    0.000    0.000    0.000    0.000    0.000 
#
# Total GULP energy -111563.653074 kJ/mol
# GULP energy per Si atom -5578.182654 kJ/mol
# Density = 1.942547 g / cm^3
# Si number density = 19.469782 Si / 1000 Ang^3
#
#
#
# Elastic Constant Matrix: (Units=GPa)
#
#
# Indices 1 2 3 4 5 6 
#
# 1 64.8158 4.2358 3.2923 0.0000 -2.1600 0.0000
# 2 4.2358 106.0080 45.3120 0.0000 5.1723 0.0000
# 3 3.2923 45.3120 78.1184 0.0000 -2.6612 0.0000
# 4 0.0000 0.0000 0.0000 19.3639 0.0000 2.3373
# 5 -2.1600 5.1723 -2.6612 0.0000 27.2608 0.0000
# 6 0.0000 0.0000 0.0000 2.3373 0.0000 29.5012
#
#
#
# Elastic Compliance Matrix: (Units=1/GPa)
#
#
# Indices 1 2 3 4 5 6 
#
# 1 0.015523 -0.000563 -0.000283 0.000000 0.001309 0.000000
# 2 -0.000563 0.012830 -0.007528 0.000000 -0.003214 0.000000
# 3 -0.000283 -0.007528 0.017285 0.000000 0.003093 0.000000
# 4 0.000000 0.000000 0.000000 0.052141 0.000000 -0.004131
# 5 0.001309 -0.003214 0.003093 0.000000 0.037698 0.000000
# 6 0.000000 0.000000 0.000000 -0.004131 0.000000 0.034224
#
#
# Mechanical properties :
#
#
# Convention : Reuss Voigt Hill
#
# Bulk Modulus (GPa) = 34.61370 39.40247 37.00809
# Shear Modulus (GPa) = 25.49982 28.29867 26.89925
#
# Velocity S-wave (km/s) = 3.62292 3.81657 3.72101
# Velocity P-wave (km/s) = 5.94285 6.30106 6.12457
#
# Compressibility (1/GPa) = 0.02889029
#
# Stress axis : x y z
#
# Youngs Moduli (GPa) = 64.41998 77.94075 57.85413
#
# Poissons Ratio (x) = 0.04390 0.01637
# Poissons Ratio (y) = 0.03628 0.43552
# Poissons Ratio (z) = 0.01823 0.58673
#
# Static dielectric constant tensor:
#      x y z
#    x 1.604460 0.000000 -0.049260 
#    y 0.000000 1.712350 0.000000 
#    z -0.049260 0.000000 1.655570 
# 
# From -- ./inp_files/243391.got.cif
#   From: 2010.05.17/outbox.cif.g08.bks.cpg/sg12_122_cif.got.tgz:243391.got - 2010.06.03 13:09:07.
