data_PCOD9202678
_publ_section_title
;
Structure prediction by ZEFSAII (Michael W. Deem and Ramdas Pophale) SiO2 
 PCOD9202678
Probable space group: C 2/M
;
_chemical_formula_sum "Si O2"
_cell_formula_units_Z 48
_cell_length_a 10.058756
_cell_length_b 18.410189
_cell_length_c 31.678699
_cell_angle_alpha 90.000000
_cell_angle_beta 152.536478
_cell_angle_gamma 90.000000
_cell_volume 2705.477309
_symmetry_space_group_name_H-M "C 2/M"
_symmetry_group_IT_number 12
_symmetry_cell_setting 'monoclinic'
loop_
_space_group_symop_operation_xyz
x,y,z
-x,y,-z
-x,-y,-z
x,-y,z
1/2+x,1/2+y,z
1/2-x,1/2+y,-z
1/2-x,1/2-y,-z
1/2+x,1/2-y,z
loop_
_atom_site_type_symbol
_atom_site_label
_atom_site_fract_x
_atom_site_fract_y
_atom_site_fract_z
Si Si1 0.363038 0.914363 0.917705
Si Si2 0.168558 0.916999 0.420897
Si Si3 0.180584 0.185378 0.740337
Si Si4 0.340695 0.674744 0.730984
Si Si5 0.232135 0.413106 0.455382
Si Si6 0.165686 0.415633 0.915352
O O1 0.591205 0.907139 0.943842
O O2 0.075425 0.873979 0.821750
O O3 0.298439 0.000000 0.904608
O O4 0.500000 0.887222 0.000000
O O5 0.500000 0.918013 0.500000
O O6 0.170388 0.892578 0.469951
O O7 0.996760 0.865390 0.341499
O O8 0.057836 0.000000 0.387394
O O9 0.260055 0.258073 0.737945
O O10 0.462501 0.140179 0.833615
O O11 0.992259 0.198075 0.729615
O O12 0.054040 0.629281 0.638933
O O13 0.500000 0.399488 0.500000
O O14 0.171201 0.500000 0.438639
O O15 0.095804 0.500000 0.884649
O O16 0.500000 0.403476 0.000000
#
# Coordination Sequence:
#
# PCOD9202678 Si02
#       6
#     8   8   8   8   8   8
#     4   9  19  38  63  86 109 145 190 234 283 336
#     4  10  20  38  63  85 109 147 195 237 277 335
#     4  11  24  38  57  85 117 155 190 229 285 340
#     4  11  24  39  57  83 119 155 188 232 283 341
#     4  10  22  40  61  86 114 147 190 240 286 329
#     4   9  19  38  62  86 112 143 187 239 282 330
#
# _framework density 17.741786999999999
#
# number of rings (size 3 to 8) (size 9 to 14) (size 15 to 20)
#    0.000    2.000    1.667    1.000    2.333    4.667 
#    0.000    3.333    0.000    0.000    0.000    0.000 
#    0.000    0.000    0.000    0.000    0.000    0.000 
#
# Total GULP energy -133980.097657 kJ/mol
# GULP energy per Si atom -5582.504069 kJ/mol
# Density = 1.770141 g / cm^3
# Si number density = 17.741787 Si / 1000 Ang^3
#
#
#
# Elastic Constant Matrix: (Units=GPa)
#
#
# Indices 1 2 3 4 5 6 
#
# 1 129.8657 66.9084 80.8151 -0.0002 -14.3818 -0.0001
# 2 66.9084 78.3008 65.6145 0.0023 -5.1410 0.0000
# 3 80.8151 65.6145 110.1686 0.0029 -9.0815 -0.0002
# 4 -0.0002 0.0023 0.0029 -10.1374 0.0006 -6.4144
# 5 -14.3818 -5.1410 -9.0815 0.0006 31.7552 -0.0005
# 6 -0.0001 0.0000 -0.0002 -6.4144 -0.0005 30.4051
#
#
#
# Elastic Compliance Matrix: (Units=1/GPa)
#
#
# Indices 1 2 3 4 5 6 
#
# 1 0.016776 -0.008060 -0.007156 -0.000004 0.004247 -0.000001
# 2 -0.008060 0.029370 -0.011766 0.000003 -0.002260 0.000001
# 3 -0.007156 -0.011766 0.021414 0.000003 0.000979 0.000001
# 4 -0.000004 0.000003 0.000003 -0.087028 0.000001 -0.018360
# 5 0.004247 -0.002260 0.000979 0.000001 0.033328 0.000001
# 6 -0.000001 0.000001 0.000001 -0.018360 0.000001 0.029016
#
#
# Mechanical properties :
#
#
# Convention : Reuss Voigt Hill
#
# Bulk Modulus (GPa) = 73.54679 82.77902 78.16291
# Shear Modulus (GPa) = 49.32276 17.40439 33.36357
#
# Velocity S-wave (km/s) = 5.27832 3.13546 4.34119
# Velocity P-wave (km/s) = 8.87083 7.73738 8.32342
#
# Compressibility (1/GPa) = 0.01359679
#
# Stress axis : x y z
#
# Youngs Moduli (GPa) = 59.60780 34.04850 46.69738
#
# Poissons Ratio (x) = 0.27444 0.33416
# Poissons Ratio (y) = 0.48045 0.54944
# Poissons Ratio (z) = 0.42655 0.40061
#
# Static dielectric constant tensor:
#      x y z
#    x 1.614900 0.000000 -0.008900 
#    y 0.000000 1.603080 0.000000 
#    z -0.008900 0.000000 1.565600 
# 
# From -- ./inp_files/195906.got.cif
#   From: 2010.05.17/outbox.cif.g08.bks.cpg/sg12_98_cif.got.tgz:195906.got - 2010.06.03 13:09:07.
