data_PCOD9202598
_publ_section_title
;
Structure prediction by ZEFSAII (Michael W. Deem and Ramdas Pophale) SiO2 
 PCOD9202598
Probable space group: C 2/M
;
_chemical_formula_sum "Si O2"
_cell_formula_units_Z 48
_cell_length_a 18.515111
_cell_length_b 16.757147
_cell_length_c 9.155444
_cell_angle_alpha 90.000000
_cell_angle_beta 125.769828
_cell_angle_gamma 90.000000
_cell_volume 2304.759906
_symmetry_space_group_name_H-M "C 2/M"
_symmetry_group_IT_number 12
_symmetry_cell_setting 'monoclinic'
loop_
_space_group_symop_operation_xyz
x,y,z
-x,y,-z
-x,-y,-z
x,-y,z
1/2+x,1/2+y,z
1/2-x,1/2+y,-z
1/2-x,1/2-y,-z
1/2+x,1/2-y,z
loop_
_atom_site_type_symbol
_atom_site_label
_atom_site_fract_x
_atom_site_fract_y
_atom_site_fract_z
Si Si1 0.897805 0.870209 0.858471
Si Si2 0.781404 0.412975 0.851621
Si Si3 0.759130 0.671771 0.114425
Si Si4 0.586895 0.182491 0.179707
Si Si5 0.896023 0.088326 0.534770
Si Si6 0.919167 0.726376 0.505827
O O1 0.827464 0.868426 0.909473
O O2 0.909207 0.776350 0.846264
O O3 0.862440 0.906790 0.664082
O O4 0.000000 0.901475 0.000000
O O5 0.819274 0.500000 0.868332
O O6 0.828082 0.352913 0.797247
O O7 0.679117 0.413463 0.678859
O O8 0.793207 0.390681 0.034127
O O9 0.827623 0.703658 0.316916
O O10 0.750000 0.750000 0.000000
O O11 0.581151 0.177541 0.345176
O O12 0.500000 0.147987 0.000000
O O13 0.935231 0.178138 0.558065
O O14 0.942574 0.000000 0.580228
O O15 0.000000 0.701229 0.500000
#
# Coordination Sequence:
#
# PCOD9202598 Si02
#       6
#     8   8   8   8   8   8
#     4  10  22  38  64  88 121 162 209 251 298 362
#     4  11  23  39  61  89 123 162 203 256 313 364
#     4  12  22  39  64  92 123 161 207 256 299 362
#     4  10  20  38  62  89 118 159 208 255 304 369
#     4  10  22  38  57  85 124 164 206 249 305 361
#     4  11  23  38  65  94 123 164 208 256 303 364
#
# _framework density 20.826463
#
# number of rings (size 3 to 8) (size 9 to 14) (size 15 to 20)
#    0.000    1.333    3.333    2.000    4.667    4.333 
#    0.000    2.500    0.000    2.000    0.000    0.000 
#    0.000    0.000    0.000    0.000    0.000    0.000 
#
# Total GULP energy -133623.737911 kJ/mol
# GULP energy per Si atom -5567.655746 kJ/mol
# Density = 2.077906 g / cm^3
# Si number density = 20.826463 Si / 1000 Ang^3
#
#
#
# Elastic Constant Matrix: (Units=GPa)
#
#
# Indices 1 2 3 4 5 6 
#
# 1 119.9255 16.0708 43.0283 0.0000 -30.2090 0.0000
# 2 16.0708 55.4808 23.7637 0.0000 -6.2387 0.0000
# 3 43.0283 23.7637 115.2355 0.0000 -27.6520 0.0000
# 4 0.0000 0.0000 0.0000 45.0958 0.0000 -5.3637
# 5 -30.2090 -6.2387 -27.6520 0.0000 32.2543 0.0000
# 6 0.0000 0.0000 0.0000 -5.3637 0.0000 4.5932
#
#
#
# Elastic Compliance Matrix: (Units=1/GPa)
#
#
# Indices 1 2 3 4 5 6 
#
# 1 0.011426 -0.001532 -0.001830 0.000000 0.008836 0.000000
# 2 -0.001532 0.019980 -0.003733 0.000000 -0.000771 0.000000
# 3 -0.001830 -0.003733 0.012019 0.000000 0.007868 0.000000
# 4 0.000000 0.000000 0.000000 0.025752 0.000000 0.030071
# 5 0.008836 -0.000771 0.007868 0.000000 0.045876 0.000000
# 6 0.000000 0.000000 0.000000 0.030071 0.000000 0.252827
#
#
# Mechanical properties :
#
#
# Convention : Reuss Voigt Hill
#
# Bulk Modulus (GPa) = 34.20605 50.70749 42.45677
# Shear Modulus (GPa) = 12.76107 30.24061 21.50084
#
# Velocity S-wave (km/s) = 2.47803 3.81468 3.21655
# Velocity P-wave (km/s) = 4.96462 6.61838 5.85023
#
# Compressibility (1/GPa) = 0.02923459
#
# Stress axis : x y z
#
# Youngs Moduli (GPa) = 87.51682 50.04904 83.20096
#
# Poissons Ratio (x) = 0.07669 0.15227
# Poissons Ratio (y) = 0.13410 0.31061
# Poissons Ratio (z) = 0.16017 0.18684
#
# Static dielectric constant tensor:
#      x y z
#    x 2.105470 0.000000 -0.018620 
#    y 0.000000 1.791300 0.000000 
#    z -0.018620 0.000000 1.787940 
# 
# From -- ./inp_files/75122.got.cif
#   From: 2010.05.17/outbox.cif.g08.bks.cpg/sg12_38_cif.got.tgz:75122.got - 2010.06.03 13:09:07.
