data_PCOD9202509
_publ_section_title
;
Structure prediction by ZEFSAII (Michael W. Deem and Ramdas Pophale) SiO2 
 PCOD9202509
Probable space group: C 2/M
;
_chemical_formula_sum "Si O2"
_cell_formula_units_Z 56
_cell_length_a 8.715674
_cell_length_b 12.486180
_cell_length_c 32.168859
_cell_angle_alpha 90.000000
_cell_angle_beta 122.651012
_cell_angle_gamma 90.000000
_cell_volume 2947.569620
_symmetry_space_group_name_H-M "C 2/M"
_symmetry_group_IT_number 12
_symmetry_cell_setting 'monoclinic'
loop_
_space_group_symop_operation_xyz
x,y,z
-x,y,-z
-x,-y,-z
x,-y,z
1/2+x,1/2+y,z
1/2-x,1/2+y,-z
1/2-x,1/2-y,-z
1/2+x,1/2-y,z
loop_
_atom_site_type_symbol
_atom_site_label
_atom_site_fract_x
_atom_site_fract_y
_atom_site_fract_z
Si Si1 0.896901 0.622811 0.058045
Si Si2 0.686299 0.500000 0.247695
Si Si3 0.614586 0.182645 0.775635
Si Si4 0.389199 0.122473 0.824401
Si Si5 0.460749 0.714482 0.616105
Si Si6 0.000000 0.780716 0.000000
Si Si7 0.152976 0.180475 0.312787
Si Si8 0.873995 0.877399 0.441211
O O1 0.922767 0.500000 0.048269
O O2 0.682883 0.649823 0.029380
O O3 0.990216 0.635141 0.116519
O O4 0.983300 0.704510 0.037759
O O5 0.755000 0.593819 0.224899
O O6 0.638123 0.592530 0.275402
O O7 0.513341 0.142210 0.802116
O O8 0.731364 0.289351 0.801709
O O9 0.461025 0.216434 0.719692
O O10 0.317310 0.000000 0.813404
O O11 0.637956 0.786354 0.650966
O O12 0.421041 0.649985 0.652577
O O13 0.290514 0.792830 0.582934
O O14 0.507920 0.644344 0.582896
O O15 0.000000 0.862854 0.500000
O O16 0.805923 0.000000 0.430888
#
# Coordination Sequence:
#
# PCOD9202509 Si02
#       8
#     8   4   8   8   8   4   8   8
#     4  10  21  38  60  88 114 153 195 240 296 347
#     4  12  24  38  64  82 125 155 195 249 287 343
#     4  12  23  42  58  88 121 158 197 241 294 341
#     4  11  24  39  61  86 120 158 200 242 288 353
#     4  10  22  40  61  87 119 150 193 243 282 348
#     4  10  20  38  62  84 120 148 188 252 292 354
#     4  11  23  40  58  89 116 156 197 237 292 341
#     4  10  22  40  62  87 116 153 190 237 295 345
#
# _framework density 18.998704
#
# number of rings (size 3 to 8) (size 9 to 14) (size 15 to 20)
#    0.000    1.286    3.571    1.714    3.000    0.000 
#    0.000    0.000    1.571    4.286    0.000    0.000 
#    0.000    0.000    0.000    0.000    0.000    0.000 
#
# Total GULP energy -155906.795286 kJ/mol
# GULP energy per Si atom -5568.099832 kJ/mol
# Density = 1.895546 g / cm^3
# Si number density = 18.998704 Si / 1000 Ang^3
#
#
#
# Elastic Constant Matrix: (Units=GPa)
#
#
# Indices 1 2 3 4 5 6 
#
# 1 36.8266 -0.1174 17.6807 0.0000 -3.4536 0.0000
# 2 -0.1174 85.8834 25.7725 0.0000 7.5785 0.0000
# 3 17.6807 25.7725 81.9489 0.0000 -9.3911 0.0000
# 4 0.0000 0.0000 0.0000 20.0802 0.0000 -9.8474
# 5 -3.4536 7.5785 -9.3911 0.0000 25.3989 0.0000
# 6 0.0000 0.0000 0.0000 -9.8474 0.0000 13.4213
#
#
#
# Elastic Compliance Matrix: (Units=1/GPa)
#
#
# Indices 1 2 3 4 5 6 
#
# 1 0.030695 0.002121 -0.007188 0.000000 0.000883 0.000000
# 2 0.002121 0.013805 -0.005470 0.000000 -0.005853 0.000000
# 3 -0.007188 -0.005470 0.016237 0.000000 0.006658 0.000000
# 4 0.000000 0.000000 0.000000 0.077791 0.000000 0.057076
# 5 0.000883 -0.005853 0.006658 0.000000 0.043700 0.000000
# 6 0.000000 0.000000 0.000000 0.057076 0.000000 0.116386
#
#
# Mechanical properties :
#
#
# Convention : Reuss Voigt Hill
#
# Bulk Modulus (GPa) = 25.21289 32.37008 28.79148
# Shear Modulus (GPa) = 15.01914 22.53496 18.77705
#
# Velocity S-wave (km/s) = 2.81470 3.44776 3.14719
# Velocity P-wave (km/s) = 4.88498 5.73798 5.32858
#
# Compressibility (1/GPa) = 0.03966226
#
# Stress axis : x y z
#
# Youngs Moduli (GPa) = 32.57852 72.44014 61.58808
#
# Poissons Ratio (x) = -0.15366 0.44273
# Poissons Ratio (y) = -0.06911 0.33688
# Poissons Ratio (z) = 0.23419 0.39624
#
# Static dielectric constant tensor:
#      x y z
#    x 1.657260 0.000000 0.003260 
#    y 0.000000 1.638130 0.000000 
#    z 0.003260 0.000000 1.644330 
# 
# From -- ./inp_files/372229.got.cif
#   From: 2010.05.17/outbox.cif.g08.bks.cpg/sg12_187_cif.got.tgz:372229.got - 2010.06.03 13:09:07.
