data_PCOD9202714
_publ_section_title
;
Structure prediction by ZEFSAII (Michael W. Deem and Ramdas Pophale) SiO2 
 PCOD9202714
Probable space group: C 2/M
;
_chemical_formula_sum "Si O2"
_cell_formula_units_Z 56
_cell_length_a 13.594269
_cell_length_b 31.139873
_cell_length_c 9.405547
_cell_angle_alpha 90.000000
_cell_angle_beta 132.537977
_cell_angle_gamma 90.000000
_cell_volume 2933.753950
_symmetry_space_group_name_H-M "C 2/M"
_symmetry_group_IT_number 12
_symmetry_cell_setting 'monoclinic'
loop_
_space_group_symop_operation_xyz
x,y,z
-x,y,-z
-x,-y,-z
x,-y,z
1/2+x,1/2+y,z
1/2-x,1/2+y,-z
1/2-x,1/2-y,-z
1/2+x,1/2-y,z
loop_
_atom_site_type_symbol
_atom_site_label
_atom_site_fract_x
_atom_site_fract_y
_atom_site_fract_z
Si Si1 0.084678 0.950178 0.225290
Si Si2 0.739388 0.842621 0.926757
Si Si3 0.354327 0.089652 0.385720
Si Si4 0.487618 0.629583 0.659469
Si Si5 0.361230 0.803601 0.892552
Si Si6 0.199274 0.337199 0.445684
Si Si7 0.342091 0.229874 0.372644
O O1 0.238141 0.940485 0.332584
O O2 0.036439 0.918372 0.302399
O O3 0.066663 0.000000 0.243822
O O4 0.000000 0.940369 0.000000
O O5 0.694860 0.886237 0.805356
O O6 0.728097 0.805830 0.796523
O O7 0.882646 0.850397 0.138574
O O8 0.646982 0.824596 0.961963
O O9 0.500000 0.070427 0.500000
O O10 0.365754 0.128041 0.513061
O O11 0.500000 0.630838 0.500000
O O12 0.356885 0.654554 0.586689
O O13 0.355889 0.839915 0.766727
O O14 0.235131 0.773306 0.738869
O O15 0.500000 0.779248 0.000000
O O16 0.172572 0.290457 0.485560
O O17 0.500000 0.233893 0.500000
#
# Coordination Sequence:
#
# PCOD9202714 Si02
#       7
#     8   8   8   8   8   8   8
#     4  10  21  39  64  97 126 151 191 235 287 356
#     4  11  22  38  59  83 115 154 203 248 290 351
#     4  10  20  38  63  88 118 157 194 239 290 344
#     4  11  22  39  64  92 115 162 194 243 291 355
#     4  12  24  37  56  83 114 158 199 252 307 348
#     4  10  22  37  58  80 116 149 206 244 290 346
#     4  11  25  40  57  79 116 155 199 256 309 345
#
# _framework density 19.088173000000001
#
# number of rings (size 3 to 8) (size 9 to 14) (size 15 to 20)
#    0.000    1.286    2.857    4.286    4.000    0.571 
#    0.000    0.000    0.000    0.000    0.000    1.000 
#    0.000    0.000    0.000    0.000    0.000    0.000 
#
# Total GULP energy -156339.325015 kJ/mol
# GULP energy per Si atom -5583.547322 kJ/mol
# Density = 1.904473 g / cm^3
# Si number density = 19.088173 Si / 1000 Ang^3
#
#
#
# Elastic Constant Matrix: (Units=GPa)
#
#
# Indices 1 2 3 4 5 6 
#
# 1 97.5996 20.5310 19.5682 0.0000 12.3370 0.0000
# 2 20.5310 39.6350 7.4437 0.0000 4.5136 0.0000
# 3 19.5682 7.4437 73.5697 0.0000 0.8642 0.0000
# 4 0.0000 0.0000 0.0000 19.7782 0.0000 -0.6349
# 5 12.3370 4.5136 0.8642 0.0000 42.8309 0.0000
# 6 0.0000 0.0000 0.0000 -0.6349 0.0000 14.1778
#
#
#
# Elastic Compliance Matrix: (Units=1/GPa)
#
#
# Indices 1 2 3 4 5 6 
#
# 1 0.012318 -0.005546 -0.002681 0.000000 -0.002910 0.000000
# 2 -0.005546 0.028522 -0.001395 0.000000 -0.001380 0.000000
# 3 -0.002681 -0.001395 0.014439 0.000000 0.000628 0.000000
# 4 0.000000 0.000000 0.000000 0.050634 0.000000 0.002268
# 5 -0.002910 -0.001380 0.000628 0.000000 0.024318 0.000000
# 6 0.000000 0.000000 0.000000 0.002268 0.000000 0.070634
#
#
# Mechanical properties :
#
#
# Convention : Reuss Voigt Hill
#
# Bulk Modulus (GPa) = 27.74963 33.98778 30.86871
# Shear Modulus (GPa) = 21.54052 26.24148 23.89100
#
# Velocity S-wave (km/s) = 3.36292 3.71179 3.54165
# Velocity P-wave (km/s) = 5.44501 6.01782 5.73857
#
# Compressibility (1/GPa) = 0.03603652
#
# Stress axis : x y z
#
# Youngs Moduli (GPa) = 81.18287 35.06059 69.25507
#
# Poissons Ratio (x) = 0.19444 0.18567
# Poissons Ratio (y) = 0.45023 0.09658
# Poissons Ratio (z) = 0.21765 0.04889
#
# Static dielectric constant tensor:
#      x y z
#    x 1.693630 0.000000 0.025670 
#    y 0.000000 1.651380 0.000000 
#    z 0.025670 0.000000 1.674670 
# 
# From -- ./inp_files/54834.got.cif
#   From: 2010.05.17/outbox.cif.g08.bks.cpg/sg12_28_cif.got.tgz:54834.got - 2010.06.03 13:09:07.
