data_PCOD9202405
_publ_section_title
;
Structure prediction by ZEFSAII (Michael W. Deem and Ramdas Pophale) SiO2 
 PCOD9202405
Probable space group: C 2/M
;
_chemical_formula_sum "Si O2"
_cell_formula_units_Z 48
_cell_length_a 13.274079
_cell_length_b 27.107650
_cell_length_c 9.508524
_cell_angle_alpha 90.000000
_cell_angle_beta 47.903064
_cell_angle_gamma 90.000000
_cell_volume 2538.751093
_symmetry_space_group_name_H-M "C 2/M"
_symmetry_group_IT_number 12
_symmetry_cell_setting 'monoclinic'
loop_
_space_group_symop_operation_xyz
x,y,z
-x,y,-z
-x,-y,-z
x,-y,z
1/2+x,1/2+y,z
1/2-x,1/2+y,-z
1/2-x,1/2-y,-z
1/2+x,1/2-y,z
loop_
_atom_site_type_symbol
_atom_site_label
_atom_site_fract_x
_atom_site_fract_y
_atom_site_fract_z
Si Si1 0.025244 0.123695 0.638997
Si Si2 0.510390 0.908963 0.330429
Si Si3 0.905563 0.297487 0.461609
Si Si4 0.736703 0.558210 0.068404
Si Si5 0.277384 0.055405 0.354843
Si Si6 0.911627 0.214569 0.222924
O O1 0.907057 0.085664 0.791628
O O2 0.000000 0.138610 0.500000
O O3 0.167683 0.094896 0.508734
O O4 0.031308 0.169965 0.735798
O O5 0.500000 0.927145 0.500000
O O6 0.458307 0.852519 0.379602
O O7 0.413443 0.938499 0.315803
O O8 0.662629 0.915411 0.133424
O O9 0.917295 0.263563 0.313154
O O10 0.747769 0.296691 0.655392
O O11 0.000000 0.278274 0.500000
O O12 0.723700 0.500000 0.048977
O O13 0.797642 0.562657 0.169258
O O14 0.221806 0.000000 0.424197
O O15 0.000000 0.219527 0.000000
#
# Coordination Sequence:
#
# PCOD9202405 Si02
#       6
#     8   8   8   8   8   8
#     4  10  21  39  62  90 121 160 200 252 304 353
#     4  11  23  39  59  88 123 162 196 251 304 356
#     4  10  24  45  62  91 126 158 200 248 300 364
#     4  10  22  38  61  90 121 161 209 250 295 356
#     4  10  20  38  61  86 120 159 205 251 298 355
#     4  11  24  42  67  93 121 158 201 248 304 361
#
# _framework density 18.906934
#
# number of rings (size 3 to 8) (size 9 to 14) (size 15 to 20)
#    0.000    1.667    1.667    2.000    4.667    6.667 
#    3.000    0.000    0.000    3.000    0.000    0.000 
#    0.000    0.000    0.000    0.000    0.000    0.000 
#
# Total GULP energy -134078.749757 kJ/mol
# GULP energy per Si atom -5586.614573 kJ/mol
# Density = 1.886390 g / cm^3
# Si number density = 18.906934 Si / 1000 Ang^3
#
#
#
# Elastic Constant Matrix: (Units=GPa)
#
#
# Indices 1 2 3 4 5 6 
#
# 1 69.9638 17.2727 36.9938 0.0000 -10.7110 0.0000
# 2 17.2727 58.9204 44.3202 0.0000 0.6902 0.0000
# 3 36.9938 44.3202 153.6276 0.0000 -9.1201 0.0000
# 4 0.0000 0.0000 0.0000 23.1387 0.0000 -3.2816
# 5 -10.7110 0.6902 -9.1201 0.0000 15.9563 0.0000
# 6 0.0000 0.0000 0.0000 -3.2816 0.0000 19.9126
#
#
#
# Elastic Compliance Matrix: (Units=1/GPa)
#
#
# Indices 1 2 3 4 5 6 
#
# 1 0.018253 -0.003390 -0.002775 0.000000 0.010813 0.000000
# 2 -0.003390 0.022647 -0.006118 0.000000 -0.006752 0.000000
# 3 -0.002775 -0.006118 0.009158 0.000000 0.003636 0.000000
# 4 0.000000 0.000000 0.000000 0.044252 0.000000 0.007293
# 5 0.010813 -0.006752 0.003636 0.000000 0.072300 0.000000
# 6 0.000000 0.000000 0.000000 0.007293 0.000000 0.051421
#
#
# Mechanical properties :
#
#
# Convention : Reuss Voigt Hill
#
# Bulk Modulus (GPa) = 39.22857 53.29837 46.26347
# Shear Modulus (GPa) = 19.91277 24.06318 21.98798
#
# Velocity S-wave (km/s) = 3.24882 3.57139 3.41392
# Velocity P-wave (km/s) = 5.90478 6.72737 6.32945
#
# Compressibility (1/GPa) = 0.02549162
#
# Stress axis : x y z
#
# Youngs Moduli (GPa) = 54.78580 44.15624 109.18889
#
# Poissons Ratio (x) = 0.14968 0.30305
# Poissons Ratio (y) = 0.18571 0.66802
# Poissons Ratio (z) = 0.15206 0.27015
#
# Static dielectric constant tensor:
#      x y z
#    x 1.646530 0.000000 0.006250 
#    y 0.000000 1.649370 0.000000 
#    z 0.006250 0.000000 1.621380 
# 
# From -- ./inp_files/67314.got.cif
#   From: 2010.05.17/outbox.cif.g08.bks.cpg/sg12_34_cif.got.tgz:67314.got - 2010.06.03 13:09:07.
