data_PCOD9202778
_publ_section_title
;
Structure prediction by ZEFSAII (Michael W. Deem and Ramdas Pophale) SiO2 
 PCOD9202778
Probable space group: C 2/M
;
_chemical_formula_sum "Si O2"
_cell_formula_units_Z 64
_cell_length_a 16.830925
_cell_length_b 33.571303
_cell_length_c 8.650950
_cell_angle_alpha 90.000000
_cell_angle_beta 141.000921
_cell_angle_gamma 90.000000
_cell_volume 3076.119249
_symmetry_space_group_name_H-M "C 2/M"
_symmetry_group_IT_number 12
_symmetry_cell_setting 'monoclinic'
loop_
_space_group_symop_operation_xyz
x,y,z
-x,y,-z
-x,-y,-z
x,-y,z
1/2+x,1/2+y,z
1/2-x,1/2+y,-z
1/2-x,1/2-y,-z
1/2+x,1/2-y,z
loop_
_atom_site_type_symbol
_atom_site_label
_atom_site_fract_x
_atom_site_fract_y
_atom_site_fract_z
Si Si1 0.180229 0.043248 0.246091
Si Si2 0.690879 0.105061 0.035690
Si Si3 0.038841 0.197245 0.225217
Si Si4 0.274541 0.314581 0.995878
Si Si5 0.480279 0.044458 0.653979
Si Si6 0.923862 0.937760 0.242924
Si Si7 0.364800 0.387059 0.583136
Si Si8 0.862199 0.248857 0.368436
O O1 0.330800 0.047042 0.453901
O O2 0.142039 0.080076 0.294107
O O3 0.154796 0.000000 0.281788
O O4 0.110827 0.043797 0.975327
O O5 0.789578 0.074448 0.108354
O O6 0.744760 0.112772 0.288260
O O7 0.710997 0.144992 0.962476
O O8 0.558357 0.081894 0.837485
O O9 0.115850 0.156593 0.321182
O O10 0.116272 0.230770 0.431675
O O11 0.000000 0.212450 0.000000
O O12 0.917161 0.184202 0.144972
O O13 0.197770 0.291950 0.745946
O O14 0.281636 0.283821 0.150776
O O15 0.500000 0.045322 0.500000
O O16 0.522427 0.000000 0.773781
O O17 0.000000 0.957827 0.500000
O O18 0.014919 0.900438 0.338752
O O19 0.000000 0.250634 0.500000
#
# Coordination Sequence:
#
# PCOD9202778 Si02
#       8
#     8   8   8   8   8   8   8   8
#     4  11  24  43  62  88 133 173 211 271 332 386
#     4  11  21  38  67  93 121 165 221 271 311 377
#     4  11  21  36  64  92 130 170 204 258 325 390
#     4  10  20  38  63  91 125 162 209 261 316 379
#     4  10  22  41  64  89 122 169 221 268 323 384
#     4  10  21  36  62  94 121 160 215 264 316 381
#     4  11  23  38  60  96 128 164 215 258 330 389
#     4   9  20  38  61  93 125 162 209 252 313 383
#
# _framework density 20.805434999999999
#
# number of rings (size 3 to 8) (size 9 to 14) (size 15 to 20)
#    0.000    1.625    3.750    1.125    0.000    3.250 
#    0.000    3.750    0.000    0.000    0.000    0.000 
#    0.000    0.000    0.000    0.000    0.000    0.000 
#
# Total GULP energy -178535.217621 kJ/mol
# GULP energy per Si atom -5579.225551 kJ/mol
# Density = 2.075808 g / cm^3
# Si number density = 20.805435 Si / 1000 Ang^3
#
#
#
# Elastic Constant Matrix: (Units=GPa)
#
#
# Indices 1 2 3 4 5 6 
#
# 1 46.9825 21.4840 28.7645 0.0000 -6.9681 0.0000
# 2 21.4840 119.1018 77.6963 0.0000 -9.7636 0.0000
# 3 28.7645 77.6963 129.4394 0.0000 -14.9787 0.0000
# 4 0.0000 0.0000 0.0000 22.6299 0.0000 3.4322
# 5 -6.9681 -9.7636 -14.9787 0.0000 42.7604 0.0000
# 6 0.0000 0.0000 0.0000 3.4322 0.0000 18.0961
#
#
#
# Elastic Compliance Matrix: (Units=1/GPa)
#
#
# Indices 1 2 3 4 5 6 
#
# 1 0.024981 -0.001431 -0.004439 0.000000 0.002189 0.000000
# 2 -0.001431 0.013885 -0.008001 0.000000 0.000135 0.000000
# 3 -0.004439 -0.008001 0.013778 0.000000 0.002276 0.000000
# 4 0.000000 0.000000 0.000000 0.045498 0.000000 -0.008629
# 5 0.002189 0.000135 0.002276 0.000000 0.024571 0.000000
# 6 0.000000 0.000000 0.000000 -0.008629 0.000000 0.056897
#
#
# Mechanical properties :
#
#
# Convention : Reuss Voigt Hill
#
# Bulk Modulus (GPa) = 40.15690 61.26816 50.71253
# Shear Modulus (GPa) = 23.18545 27.86922 25.52733
#
# Velocity S-wave (km/s) = 3.34188 3.66391 3.50659
# Velocity P-wave (km/s) = 5.85097 6.88557 6.38925
#
# Compressibility (1/GPa) = 0.02490232
#
# Stress axis : x y z
#
# Youngs Moduli (GPa) = 40.02981 72.02223 72.57947
#
# Poissons Ratio (x) = 0.10305 0.32220
# Poissons Ratio (y) = 0.05727 0.58069
# Poissons Ratio (z) = 0.17770 0.57623
#
# Static dielectric constant tensor:
#      x y z
#    x 1.758360 0.000000 -0.005910 
#    y 0.000000 1.739330 0.000000 
#    z -0.005910 0.000000 1.776380 
# 
# From -- ./inp_files/80777.got.cif
#   From: 2010.05.17/outbox.cif.g08.bks.cpg/sg12_41_cif.got.tgz:80777.got - 2010.06.03 13:09:07.
