data_PCOD9202737
_publ_section_title
;
Structure prediction by ZEFSAII (Michael W. Deem and Ramdas Pophale) SiO2 
 PCOD9202737
Probable space group: C 2/M
;
_chemical_formula_sum "Si O2"
_cell_formula_units_Z 40
_cell_length_a 9.314549
_cell_length_b 22.594610
_cell_length_c 8.599112
_cell_angle_alpha 90.000000
_cell_angle_beta 89.923547
_cell_angle_gamma 90.000000
_cell_volume 1809.755479
_symmetry_space_group_name_H-M "C 2/M"
_symmetry_group_IT_number 12
_symmetry_cell_setting 'monoclinic'
loop_
_space_group_symop_operation_xyz
x,y,z
-x,y,-z
-x,-y,-z
x,-y,z
1/2+x,1/2+y,z
1/2-x,1/2+y,-z
1/2-x,1/2-y,-z
1/2+x,1/2-y,z
loop_
_atom_site_type_symbol
_atom_site_label
_atom_site_fract_x
_atom_site_fract_y
_atom_site_fract_z
Si Si1 0.000000 0.141658 0.500000
Si Si2 0.159111 0.223704 0.269520
Si Si3 0.994940 0.565499 0.685771
Si Si4 0.040189 0.684561 0.819306
Si Si5 0.500000 0.650356 0.000000
Si Si6 0.159548 0.931024 0.768549
O O1 0.116294 0.184637 0.417783
O O2 0.077546 0.100134 0.625569
O O3 0.325035 0.224728 0.226595
O O4 0.093560 0.289141 0.276354
O O5 0.078739 0.191161 0.126120
O O6 0.050271 0.500000 0.725673
O O7 0.829819 0.569926 0.739640
O O8 0.000000 0.571798 0.500000
O O9 0.077691 0.618529 0.766907
O O10 0.000000 0.685092 0.000000
O O11 0.614897 0.608025 0.916300
O O12 0.116738 0.000000 0.783956
#
# Coordination Sequence:
#
# PCOD9202737 Si02
#       6
#     4   8   8   8   4   8
#     4  10  23  38  60  92 129 158 208 254 310 366
#     4  11  25  40  62  93 126 163 203 256 311 366
#     4  10  23  42  64  89 123 163 207 254 308 365
#     4  12  25  41  65  93 126 165 206 257 307 368
#     4  10  21  40  60  90 127 158 206 250 312 366
#     4  10  20  38  63  89 122 166 207 253 303 365
#
# _framework density 22.102433999999999
#
# number of rings (size 3 to 8) (size 9 to 14) (size 15 to 20)
#    0.000    1.400    1.000    3.600    7.000    1.200 
#    0.000    5.000    0.000    0.000    0.000    0.000 
#    0.000    0.000    0.000    0.000    0.000    0.000 
#
# Total GULP energy -111983.955746 kJ/mol
# GULP energy per Si atom -5599.197787 kJ/mol
# Density = 2.205213 g / cm^3
# Si number density = 22.102434 Si / 1000 Ang^3
#
#
#
# Elastic Constant Matrix: (Units=GPa)
#
#
# Indices 1 2 3 4 5 6 
#
# 1 63.6583 0.9615 7.3772 0.0000 -20.5462 0.0000
# 2 0.9615 111.8781 22.5584 0.0000 -4.6730 0.0000
# 3 7.3772 22.5584 49.4856 0.0000 -23.5660 0.0000
# 4 0.0000 0.0000 0.0000 16.1004 0.0000 3.0153
# 5 -20.5462 -4.6730 -23.5660 0.0000 29.5098 0.0000
# 6 0.0000 0.0000 0.0000 3.0153 0.0000 31.5307
#
#
#
# Elastic Compliance Matrix: (Units=1/GPa)
#
#
# Indices 1 2 3 4 5 6 
#
# 1 0.021465 -0.000701 0.006751 0.000000 0.020226 0.000000
# 2 -0.000701 0.010065 -0.006386 0.000000 -0.003994 0.000000
# 3 0.006751 -0.006386 0.038518 0.000000 0.034449 0.000000
# 4 0.000000 0.000000 0.000000 0.063243 0.000000 -0.006048
# 5 0.020226 -0.003994 0.034449 0.000000 0.074847 0.000000
# 6 0.000000 0.000000 0.000000 -0.006048 0.000000 0.032294
#
#
# Mechanical properties :
#
#
# Convention : Reuss Voigt Hill
#
# Bulk Modulus (GPa) = 14.41390 31.86846 23.14118
# Shear Modulus (GPa) = 18.92306 28.36982 23.64644
#
# Velocity S-wave (km/s) = 2.92918 3.58657 3.27441
# Velocity P-wave (km/s) = 4.23978 5.62149 4.97880
#
# Compressibility (1/GPa) = 0.06937750
#
# Stress axis : x y z
#
# Youngs Moduli (GPa) = 46.58742 99.35350 25.96207
#
# Poissons Ratio (x) = 0.06965 -0.17528
# Poissons Ratio (y) = 0.03266 0.16578
# Poissons Ratio (z) = -0.31453 0.63443
#
# Static dielectric constant tensor:
#      x y z
#    x 1.788690 0.000000 0.006870 
#    y 0.000000 1.822700 0.000000 
#    z 0.006870 0.000000 1.786480 
# 
# From -- ./inp_files/39370.got.cif
#   From: 2010.05.17/outbox.cif.g08.bks.cpg/sg12_20_cif.got.tgz:39370.got - 2010.06.03 13:09:07.
