data_PCOD9202951
_publ_section_title
;
Structure prediction by ZEFSAII (Michael W. Deem and Ramdas Pophale) SiO2 
 PCOD9202951
Probable space group: C 2/M
;
_chemical_formula_sum "Si O2"
_cell_formula_units_Z 64
_cell_length_a 10.838180
_cell_length_b 19.504949
_cell_length_c 25.843093
_cell_angle_alpha 90.000000
_cell_angle_beta 149.762160
_cell_angle_gamma 90.000000
_cell_volume 2751.207278
_symmetry_space_group_name_H-M "C 2/M"
_symmetry_group_IT_number 12
_symmetry_cell_setting 'monoclinic'
loop_
_space_group_symop_operation_xyz
x,y,z
-x,y,-z
-x,-y,-z
x,-y,z
1/2+x,1/2+y,z
1/2-x,1/2+y,-z
1/2-x,1/2-y,-z
1/2+x,1/2-y,z
loop_
_atom_site_type_symbol
_atom_site_label
_atom_site_fract_x
_atom_site_fract_y
_atom_site_fract_z
Si Si1 0.144708 0.572601 0.998648
Si Si2 0.916824 0.303005 0.631453
Si Si3 0.108975 0.076147 0.482341
Si Si4 0.862794 0.156995 0.310289
Si Si5 0.738794 0.421203 0.378916
Si Si6 0.011979 0.719100 0.941275
Si Si7 0.508893 0.763430 0.235599
Si Si8 0.363846 0.620267 0.771675
O O1 0.122052 0.500000 0.962310
O O2 0.423399 0.586532 0.117608
O O3 0.025129 0.639347 0.930557
O O4 0.000000 0.567109 0.000000
O O5 0.010760 0.233274 0.638670
O O6 0.818660 0.278847 0.651929
O O7 0.133095 0.357712 0.721625
O O8 0.760669 0.352666 0.538400
O O9 0.000000 0.072515 0.500000
O O10 0.908890 0.096008 0.367716
O O11 0.218008 0.000000 0.510960
O O12 0.581950 0.179964 0.219518
O O13 0.012809 0.125685 0.316231
O O14 0.701526 0.500000 0.381215
O O15 0.731169 0.418683 0.313848
O O16 0.000000 0.399342 0.500000
O O17 0.760771 0.757019 0.837023
O O18 0.250000 0.750000 0.000000
O O19 0.000000 0.722695 0.000000
O O20 0.537249 0.691265 0.216939
#
# Coordination Sequence:
#
# PCOD9202951 Si02
#       8
#     8   8   8   8   8   8   8   8
#     4  10  20  38  64  95 128 168 218 270 334 406
#     4  11  23  39  64  90 124 167 218 269 324 390
#     4  11  23  41  60  84 121 166 212 262 316 379
#     4  11  23  39  65  90 129 168 220 270 329 389
#     4  11  24  41  63  94 136 178 221 273 331 396
#     4  11  23  41  69  98 135 172 221 282 347 408
#     4  11  22  40  61  94 127 164 218 268 331 399
#     4  11  21  38  61  93 127 166 213 272 325 390
#
# _framework density 23.262516000000002
#
# number of rings (size 3 to 8) (size 9 to 14) (size 15 to 20)
#    0.000    1.125    5.000    2.625    1.750    3.500 
#    0.000    0.000    0.000    1.125    0.000    0.000 
#    0.000    0.000    0.000    0.000    0.000    0.000 
#
# Total GULP energy -178269.559826 kJ/mol
# GULP energy per Si atom -5570.923745 kJ/mol
# Density = 2.320957 g / cm^3
# Si number density = 23.262516 Si / 1000 Ang^3
#
#
#
# Elastic Constant Matrix: (Units=GPa)
#
#
# Indices 1 2 3 4 5 6 
#
# 1 79.4269 39.7913 7.8559 0.0002 1.5999 0.0001
# 2 39.7913 136.9362 30.4179 0.0003 7.7101 0.0001
# 3 7.8559 30.4179 64.9829 0.0018 6.6555 -0.0026
# 4 0.0002 0.0003 0.0018 57.2081 -0.0001 13.3221
# 5 1.5999 7.7101 6.6555 -0.0001 34.6361 0.0000
# 6 0.0001 0.0001 -0.0026 13.3221 0.0000 12.2459
#
#
#
# Elastic Compliance Matrix: (Units=1/GPa)
#
#
# Indices 1 2 3 4 5 6 
#
# 1 0.014741 -0.004348 0.000228 0.000000 0.000243 0.000000
# 2 -0.004348 0.009474 -0.003788 0.000000 -0.001180 -0.000001
# 3 0.000228 -0.003788 0.017391 -0.000002 -0.002509 0.000006
# 4 0.000000 0.000000 -0.000002 0.023411 0.000000 -0.025468
# 5 0.000243 -0.001180 -0.002509 0.000000 0.029605 -0.000001
# 6 0.000000 -0.000001 0.000006 -0.025468 -0.000001 0.109367
#
#
# Mechanical properties :
#
#
# Convention : Reuss Voigt Hill
#
# Bulk Modulus (GPa) = 38.77387 48.60848 43.69118
# Shear Modulus (GPa) = 21.89126 34.37008 28.13067
#
# Velocity S-wave (km/s) = 3.07099 3.84798 3.48123
# Velocity P-wave (km/s) = 5.41099 6.37837 5.91449
#
# Compressibility (1/GPa) = 0.02579056
#
# Stress axis : x y z
#
# Youngs Moduli (GPa) = 67.83847 105.55193 57.50008
#
# Poissons Ratio (x) = 0.45892 -0.01312
# Poissons Ratio (y) = 0.29495 0.21782
# Poissons Ratio (z) = -0.01548 0.39985
#
# Static dielectric constant tensor:
#      x y z
#    x 1.959500 0.000000 -0.004810 
#    y 0.000000 1.885750 0.000000 
#    z -0.004810 0.000000 2.187100 
# 
# From -- ./inp_files/374515.got.cif
#   From: 2010.05.17/outbox.cif.g08.bks.cpg/sg12_188_cif.got.tgz:374515.got - 2010.06.03 13:09:07.
