data_PCOD9202637
_publ_section_title
;
Structure prediction by ZEFSAII (Michael W. Deem and Ramdas Pophale) SiO2 
 PCOD9202637
Probable space group: C 2/M
;
_chemical_formula_sum "Si O2"
_cell_formula_units_Z 60
_cell_length_a 11.705888
_cell_length_b 29.176147
_cell_length_c 11.881005
_cell_angle_alpha 90.000000
_cell_angle_beta 126.009786
_cell_angle_gamma 90.000000
_cell_volume 3282.382769
_symmetry_space_group_name_H-M "C 2/M"
_symmetry_group_IT_number 12
_symmetry_cell_setting 'monoclinic'
loop_
_space_group_symop_operation_xyz
x,y,z
-x,y,-z
-x,-y,-z
x,-y,z
1/2+x,1/2+y,z
1/2-x,1/2+y,-z
1/2-x,1/2-y,-z
1/2+x,1/2-y,z
loop_
_atom_site_type_symbol
_atom_site_label
_atom_site_fract_x
_atom_site_fract_y
_atom_site_fract_z
Si Si1 0.682542 0.275724 0.353779
Si Si2 0.886096 0.340700 0.342700
Si Si3 0.347806 0.413326 0.867873
Si Si4 0.407068 0.179870 0.739923
Si Si5 0.761699 0.447869 0.958632
Si Si6 0.052754 0.051407 0.309194
Si Si7 0.887695 0.854365 0.534797
Si Si8 0.500000 0.118718 0.000000
O O1 0.750000 0.250000 0.500000
O O2 0.808108 0.297898 0.355200
O O3 0.608068 0.234182 0.246389
O O4 0.590048 0.317544 0.350849
O O5 0.763311 0.375845 0.238711
O O6 0.000000 0.359004 0.500000
O O7 0.971023 0.326727 0.281518
O O8 0.279686 0.438711 0.935289
O O9 0.383515 0.444045 0.779829
O O10 0.500000 0.394651 0.000000
O O11 0.264813 0.158887 0.602854
O O12 0.438751 0.150953 0.867968
O O13 0.811756 0.500000 0.975621
O O14 0.878004 0.412833 0.982438
O O15 0.615939 0.443000 0.804394
O O16 0.107180 0.094078 0.414035
O O17 0.081868 0.000000 0.369890
O O18 0.000000 0.848912 0.500000
#
# Coordination Sequence:
#
# PCOD9202637 Si02
#       8
#     8   8   8   8   8   8   8   4
#     4  10  22  37  61  91 117 159 209 247 309 370
#     4  12  20  41  68  91 125 160 209 263 311 367
#     4  10  20  38  63  93 124 162 208 257 311 370
#     4  11  25  40  63  91 122 168 203 255 312 368
#     4  10  21  38  63  87 120 169 209 244 303 381
#     4  10  20  38  62  92 122 155 205 262 311 363
#     4  11  22  38  62  90 122 159 206 258 308 372
#     4  12  23  44  58  88 130 162 205 252 308 372
#
# _framework density 18.279404
#
# number of rings (size 3 to 8) (size 9 to 14) (size 15 to 20)
#    0.000    1.333    5.333    1.400    3.733    1.867 
#    1.200    2.000    0.000    1.600    0.000    0.000 
#    0.000    0.000    0.000    0.000    0.000    0.000 
#
# Total GULP energy -167414.388001 kJ/mol
# GULP energy per Si atom -5580.479600 kJ/mol
# Density = 1.823780 g / cm^3
# Si number density = 18.279404 Si / 1000 Ang^3
#
#
#
# Elastic Constant Matrix: (Units=GPa)
#
#
# Indices 1 2 3 4 5 6 
#
# 1 121.2813 58.2987 29.0108 0.0000 -1.3493 0.0000
# 2 58.2987 159.4963 65.3804 0.0000 8.3220 0.0000
# 3 29.0108 65.3804 74.4447 0.0000 3.3930 0.0000
# 4 0.0000 0.0000 0.0000 19.4688 0.0000 3.2504
# 5 -1.3493 8.3220 3.3930 0.0000 19.6701 0.0000
# 6 0.0000 0.0000 0.0000 3.2504 0.0000 20.9268
#
#
#
# Elastic Compliance Matrix: (Units=1/GPa)
#
#
# Indices 1 2 3 4 5 6 
#
# 1 0.010160 -0.003388 -0.001090 0.000000 0.002318 0.000000
# 2 -0.003388 0.011069 -0.008242 0.000000 -0.003494 0.000000
# 3 -0.001090 -0.008242 0.021106 0.000000 -0.000229 0.000000
# 4 0.000000 0.000000 0.000000 0.052732 0.000000 -0.008190
# 5 0.002318 -0.003494 -0.000229 0.000000 0.052515 0.000000
# 6 0.000000 0.000000 0.000000 -0.008190 0.000000 0.049058
#
#
# Mechanical properties :
#
#
# Convention : Reuss Voigt Hill
#
# Bulk Modulus (GPa) = 59.18325 73.40025 66.29175
# Shear Modulus (GPa) = 21.95776 25.51531 23.73653
#
# Velocity S-wave (km/s) = 3.46964 3.74016 3.60744
# Velocity P-wave (km/s) = 6.96408 7.67421 7.32776
#
# Compressibility (1/GPa) = 0.01689667
#
# Stress axis : x y z
#
# Youngs Moduli (GPa) = 98.42178 90.34402 47.38029
#
# Poissons Ratio (x) = 0.30610 0.05162
# Poissons Ratio (y) = 0.33347 0.39048
# Poissons Ratio (z) = 0.10723 0.74457
#
# Static dielectric constant tensor:
#      x y z
#    x 1.620270 0.000000 -0.007570 
#    y 0.000000 1.633730 0.000000 
#    z -0.007570 0.000000 1.632860 
# 
# From -- ./inp_files/137624.got.cif
#   From: 2010.05.17/outbox.cif.g08.bks.cpg/sg12_69_cif.got.tgz:137624.got - 2010.06.03 13:09:07.
