data_PCOD9202582
_publ_section_title
;
Structure prediction by ZEFSAII (Michael W. Deem and Ramdas Pophale) SiO2 
 PCOD9202582
Probable space group: C 2/M
;
_chemical_formula_sum "Si O2"
_cell_formula_units_Z 64
_cell_length_a 32.946174
_cell_length_b 21.971008
_cell_length_c 17.130757
_cell_angle_alpha 90.000000
_cell_angle_beta 163.161846
_cell_angle_gamma 90.000000
_cell_volume 3591.979760
_symmetry_space_group_name_H-M "C 2/M"
_symmetry_group_IT_number 12
_symmetry_cell_setting 'monoclinic'
loop_
_space_group_symop_operation_xyz
x,y,z
-x,y,-z
-x,-y,-z
x,-y,z
1/2+x,1/2+y,z
1/2-x,1/2+y,-z
1/2-x,1/2-y,-z
1/2+x,1/2-y,z
loop_
_atom_site_type_symbol
_atom_site_label
_atom_site_fract_x
_atom_site_fract_y
_atom_site_fract_z
Si Si1 0.598490 0.678631 0.369390
Si Si2 0.697048 0.571669 0.958148
Si Si3 0.413951 0.569937 0.529680
Si Si4 0.611985 0.856789 0.574232
Si Si5 0.658732 0.691734 0.311710
Si Si6 0.211078 0.379504 0.040095
Si Si7 0.720944 0.298405 0.257970
Si Si8 0.853366 0.764612 0.261997
O O1 0.590884 0.621228 0.412807
O O2 0.648548 0.656700 0.375046
O O3 0.701721 0.732978 0.588301
O O4 0.440708 0.705841 0.068567
O O5 0.707406 0.500000 0.963919
O O6 0.805757 0.593637 0.223714
O O7 0.543344 0.584739 0.709676
O O8 0.732555 0.603744 0.942215
O O9 0.432185 0.500000 0.590510
O O10 0.275175 0.576183 0.222023
O O11 0.694872 0.838012 0.649403
O O12 0.609763 0.796419 0.623883
O O13 0.455144 0.877054 0.267692
O O14 0.750000 0.750000 0.500000
O O15 0.717171 0.668957 0.336377
O O16 0.500000 0.710657 0.000000
O O17 0.274344 0.312347 0.171397
O O18 0.000000 0.789976 0.500000
O O19 0.750000 0.750000 0.000000
#
# Coordination Sequence:
#
# PCOD9202582 Si02
#       8
#     8   8   8   8   8   8   8   8
#     4  10  20  38  62  88 122 151 184 236 291 351
#     4  11  23  42  61  77 106 152 201 247 284 329
#     4  11  24  41  61  85 113 153 201 243 282 339
#     4  12  24  37  54  85 115 150 190 238 295 344
#     4   8  16  33  56  87 119 146 180 222 283 347
#     4  12  25  38  57  80 113 152 198 238 289 338
#     4  10  21  34  60  92 121 148 186 234 292 350
#     4  12  22  37  54  80 116 148 188 237 294 354
#
# _framework density 17.817473
#
# number of rings (size 3 to 8) (size 9 to 14) (size 15 to 20)
#    0.000    1.250    3.750    2.625    3.500    2.500 
#    0.000    0.000    0.000    4.125    0.000    0.875 
#    0.000    0.000    0.000    0.000    0.000    0.000 
#
# Total GULP energy -178583.849029 kJ/mol
# GULP energy per Si atom -5580.745282 kJ/mol
# Density = 1.777692 g / cm^3
# Si number density = 17.817473 Si / 1000 Ang^3
#
#
#
# Elastic Constant Matrix: (Units=GPa)
#
#
# Indices 1 2 3 4 5 6 
#
# 1 122.4589 33.1855 44.8459 0.0000 -2.1894 0.0000
# 2 33.1855 48.7433 30.2144 0.0000 2.9306 0.0000
# 3 44.8459 30.2144 112.1580 0.0000 -1.3685 0.0000
# 4 0.0000 0.0000 0.0000 19.7521 0.0000 3.1097
# 5 -2.1894 2.9306 -1.3685 0.0000 19.4991 0.0000
# 6 0.0000 0.0000 0.0000 3.1097 0.0000 15.9941
#
#
#
# Elastic Compliance Matrix: (Units=1/GPa)
#
#
# Indices 1 2 3 4 5 6 
#
# 1 0.010756 -0.005743 -0.002731 0.000000 0.001879 0.000000
# 2 -0.005743 0.028039 -0.005321 0.000000 -0.005232 0.000000
# 3 -0.002731 -0.005321 0.011457 0.000000 0.001297 0.000000
# 4 0.000000 0.000000 0.000000 0.052226 0.000000 -0.010154
# 5 0.001879 -0.005232 0.001297 0.000000 0.052373 0.000000
# 6 0.000000 0.000000 0.000000 -0.010154 0.000000 0.064497
#
#
# Mechanical properties :
#
#
# Convention : Reuss Voigt Hill
#
# Bulk Modulus (GPa) = 44.12625 55.53907 49.83266
# Shear Modulus (GPa) = 19.64703 22.72334 21.18519
#
# Velocity S-wave (km/s) = 3.32427 3.57507 3.45195
# Velocity P-wave (km/s) = 6.28918 6.94840 6.62699
#
# Compressibility (1/GPa) = 0.02266225
#
# Stress axis : x y z
#
# Youngs Moduli (GPa) = 92.97162 35.66519 87.28284
#
# Poissons Ratio (x) = 0.20483 0.23834
# Poissons Ratio (y) = 0.53396 0.46441
# Poissons Ratio (z) = 0.25387 0.18977
#
# Static dielectric constant tensor:
#      x y z
#    x 1.642580 0.000000 -0.007970 
#    y 0.000000 1.600590 0.000000 
#    z -0.007970 0.000000 1.620880 
# 
# From -- ./inp_files/251946.got.cif
#   From: 2010.05.17/outbox.cif.g08.bks.cpg/sg12_126_cif.got.tgz:251946.got - 2010.06.03 13:09:07.
