data_PCOD9202977
_publ_section_title
;
Structure prediction by ZEFSAII (Michael W. Deem and Ramdas Pophale) SiO2 
 PCOD9202977
Probable space group: C 2/M
;
_chemical_formula_sum "Si O2"
_cell_formula_units_Z 60
_cell_length_a 24.990477
_cell_length_b 15.178770
_cell_length_c 14.391556
_cell_angle_alpha 90.000000
_cell_angle_beta 31.329218
_cell_angle_gamma 90.000000
_cell_volume 2838.470922
_symmetry_space_group_name_H-M "C 2/M"
_symmetry_group_IT_number 12
_symmetry_cell_setting 'monoclinic'
loop_
_space_group_symop_operation_xyz
x,y,z
-x,y,-z
-x,-y,-z
x,-y,z
1/2+x,1/2+y,z
1/2-x,1/2+y,-z
1/2-x,1/2-y,-z
1/2+x,1/2-y,z
loop_
_atom_site_type_symbol
_atom_site_label
_atom_site_fract_x
_atom_site_fract_y
_atom_site_fract_z
Si Si1 0.253370 0.854547 0.171856
Si Si2 0.110319 0.500000 0.938399
Si Si3 0.413934 0.904246 0.223653
Si Si4 0.792423 0.095342 0.349297
Si Si5 0.953722 0.792677 0.211501
Si Si6 0.673250 0.602528 0.101634
Si Si7 0.064507 0.101907 0.579843
Si Si8 0.312431 0.659494 0.127286
O O1 0.232838 0.845392 0.092570
O O2 0.149920 0.890466 0.374268
O O3 0.276319 0.759506 0.179580
O O4 0.343061 0.922093 0.061672
O O5 0.893400 0.422784 0.146527
O O6 0.307507 0.905031 0.437210
O O7 0.461833 0.811767 0.182084
O O8 0.476871 0.000000 0.157030
O O9 0.869894 0.171362 0.264138
O O10 0.762372 0.108645 0.287106
O O11 0.844050 0.000000 0.284131
O O12 0.914555 0.827234 0.369875
O O13 0.064389 0.838475 0.038344
O O14 0.688145 0.500000 0.101259
O O15 0.550370 0.619757 0.286620
O O16 0.706034 0.620426 0.947224
O O17 0.066655 0.000000 0.612644
#
# Coordination Sequence:
#
# PCOD9202977 Si02
#       8
#     8   4   8   8   8   8   8   8
#     4  12  20  38  63  87 117 159 194 238 299 352
#     4  10  20  38  65  82 115 156 192 240 302 336
#     4   9  20  39  59  83 116 154 194 239 292 341
#     4  11  23  40  64  83 116 159 195 239 294 351
#     4  11  21  38  61  88 118 154 194 240 294 347
#     4  10  21  37  59  88 121 154 191 242 295 347
#     4  10  21  35  58  92 125 151 193 242 291 350
#     4  11  23  37  59  89 119 149 200 244 285 346
#
# _framework density 21.138142999999999
#
# number of rings (size 3 to 8) (size 9 to 14) (size 15 to 20)
#    0.400    1.067    2.667    3.200    0.000    3.200 
#    0.000    0.000    1.467    4.800    0.000    0.000 
#    0.000    0.000    0.000    0.000    0.000    0.000 
#
# Total GULP energy -167382.178461 kJ/mol
# GULP energy per Si atom -5579.405949 kJ/mol
# Density = 2.109003 g / cm^3
# Si number density = 21.138143 Si / 1000 Ang^3
#
#
#
# Elastic Constant Matrix: (Units=GPa)
#
#
# Indices 1 2 3 4 5 6 
#
# 1 119.7651 29.5313 50.0800 0.0000 16.4084 0.0000
# 2 29.5313 88.1724 26.4197 0.0000 1.2343 0.0000
# 3 50.0800 26.4197 72.2516 0.0000 15.6074 0.0000
# 4 0.0000 0.0000 0.0000 48.7134 0.0000 26.1949
# 5 16.4084 1.2343 15.6074 0.0000 20.1514 0.0000
# 6 0.0000 0.0000 0.0000 26.1949 0.0000 57.8631
#
#
#
# Elastic Compliance Matrix: (Units=1/GPa)
#
#
# Indices 1 2 3 4 5 6 
#
# 1 0.012330 -0.002027 -0.006801 0.000000 -0.004648 0.000000
# 2 -0.002027 0.013266 -0.004356 0.000000 0.004211 0.000000
# 3 -0.006801 -0.004356 0.022690 0.000000 -0.011769 0.000000
# 4 0.000000 0.000000 0.000000 0.027133 0.000000 -0.012283
# 5 -0.004648 0.004211 -0.011769 0.000000 0.062266 0.000000
# 6 0.000000 0.000000 0.000000 -0.012283 0.000000 0.022843
#
#
# Mechanical properties :
#
#
# Convention : Reuss Voigt Hill
#
# Bulk Modulus (GPa) = 45.62380 54.69457 50.15918
# Shear Modulus (GPa) = 25.74622 36.95611 31.35117
#
# Velocity S-wave (km/s) = 3.49377 4.18582 3.85535
# Velocity P-wave (km/s) = 6.15676 7.02086 6.60296
#
# Compressibility (1/GPa) = 0.02191838
#
# Stress axis : x y z
#
# Youngs Moduli (GPa) = 81.10147 75.37791 44.07274
#
# Poissons Ratio (x) = 0.15277 0.29975
# Poissons Ratio (y) = 0.16437 0.19198
# Poissons Ratio (z) = 0.55160 0.32835
#
# Static dielectric constant tensor:
#      x y z
#    x 1.754880 0.000000 -0.004920 
#    y 0.000000 1.764260 0.000000 
#    z -0.004920 0.000000 1.796930 
# 
# From -- ./inp_files/246686.got.cif
#   From: 2010.05.17/outbox.cif.g08.bks.cpg/sg12_124_cif.got.tgz:246686.got - 2010.06.03 13:09:07.
