data_PCOD9202904
_publ_section_title
;
Structure prediction by ZEFSAII (Michael W. Deem and Ramdas Pophale) SiO2 
 PCOD9202904
Probable space group: C 2/M
;
_chemical_formula_sum "Si O2"
_cell_formula_units_Z 52
_cell_length_a 8.647621
_cell_length_b 18.552588
_cell_length_c 17.780489
_cell_angle_alpha 90.000000
_cell_angle_beta 74.676350
_cell_angle_gamma 90.000000
_cell_volume 2751.210709
_symmetry_space_group_name_H-M "C 2/M"
_symmetry_group_IT_number 12
_symmetry_cell_setting 'monoclinic'
loop_
_space_group_symop_operation_xyz
x,y,z
-x,y,-z
-x,-y,-z
x,-y,z
1/2+x,1/2+y,z
1/2-x,1/2+y,-z
1/2-x,1/2-y,-z
1/2+x,1/2-y,z
loop_
_atom_site_type_symbol
_atom_site_label
_atom_site_fract_x
_atom_site_fract_y
_atom_site_fract_z
Si Si1 0.639325 0.838181 0.825818
Si Si2 0.500000 0.622151 0.000000
Si Si3 0.131670 0.237163 0.086084
Si Si4 0.128925 0.673305 0.649354
Si Si5 0.738259 0.000000 0.029366
Si Si6 0.111907 0.500000 0.874973
Si Si7 0.686790 0.584402 0.488631
Si Si8 0.355823 0.804183 0.575263
O O1 0.773346 0.793658 0.854641
O O2 0.472435 0.807594 0.881809
O O3 0.637719 0.824730 0.737411
O O4 0.663624 0.923503 0.834461
O O5 0.516987 0.673712 0.069824
O O6 0.347499 0.570174 0.026498
O O7 0.250000 0.250000 0.000000
O O8 0.215586 0.605487 0.599030
O O9 0.230677 0.740977 0.605247
O O10 0.949090 0.676521 0.639777
O O11 0.581140 0.000000 0.100167
O O12 0.676229 0.000000 0.951872
O O13 0.500000 0.602250 0.500000
O O14 0.700130 0.500000 0.502695
O O15 0.764926 0.630486 0.545855
O O16 0.500000 0.782425 0.500000
#
# Coordination Sequence:
#
# PCOD9202904 Si02
#       8
#     8   4   8   8   4   4   8   8
#     4  12  26  40  63  92 130 165 203 261 328 368
#     4  11  20  38  64  89 114 152 212 265 310 354
#     4  12  23  40  64  91 119 161 221 263 302 375
#     4  11  22  38  61  89 128 157 200 250 311 368
#     4  10  22  38  66  88 116 156 209 267 308 376
#     4  11  24  40  60  90 122 162 202 258 320 376
#     4  10  21  38  65  91 121 161 206 250 296 362
#     4  10  20  38  64  92 118 160 207 246 292 363
#
# _framework density 18.900770000000001
#
# number of rings (size 3 to 8) (size 9 to 14) (size 15 to 20)
#    0.000    1.077    3.077    5.077    3.231    2.769 
#    0.000    0.000    0.000    0.000    0.000    0.000 
#    0.000    0.000    0.000    0.000    0.000    0.000 
#
# Total GULP energy -145244.620650 kJ/mol
# GULP energy per Si atom -5586.331563 kJ/mol
# Density = 1.885775 g / cm^3
# Si number density = 18.900770 Si / 1000 Ang^3
#
#
#
# Elastic Constant Matrix: (Units=GPa)
#
#
# Indices 1 2 3 4 5 6 
#
# 1 98.8363 39.4265 31.2135 0.0000 25.8016 0.0000
# 2 39.4265 111.1967 27.9161 0.0000 9.9244 0.0000
# 3 31.2135 27.9161 95.2153 0.0000 34.9528 0.0000
# 4 0.0000 0.0000 0.0000 3.5088 0.0000 9.0503
# 5 25.8016 9.9244 34.9528 0.0000 29.0158 0.0000
# 6 0.0000 0.0000 0.0000 9.0503 0.0000 27.9719
#
#
#
# Elastic Compliance Matrix: (Units=1/GPa)
#
#
# Indices 1 2 3 4 5 6 
#
# 1 0.014964 -0.004440 0.001297 0.000000 -0.013351 0.000000
# 2 -0.004440 0.011026 -0.003302 0.000000 0.004155 0.000000
# 3 0.001297 -0.003302 0.019818 0.000000 -0.023897 0.000000
# 4 0.000000 0.000000 0.000000 1.722544 0.000000 -0.557330
# 5 -0.013351 0.004155 -0.023897 0.000000 0.073701 0.000000
# 6 0.000000 0.000000 0.000000 -0.557330 0.000000 0.216075
#
#
# Mechanical properties :
#
#
# Convention : Reuss Voigt Hill
#
# Bulk Modulus (GPa) = 30.37928 55.81782 43.09855
# Shear Modulus (GPa) = 2.40155 25.87878 14.14016
#
# Velocity S-wave (km/s) = 1.12844 3.70427 2.73816
# Velocity P-wave (km/s) = 4.21969 6.92038 5.73138
#
# Compressibility (1/GPa) = 0.03291717
#
# Stress axis : x y z
#
# Youngs Moduli (GPa) = 66.82497 90.69853 50.45961
#
# Poissons Ratio (x) = 0.40270 -0.06544
# Poissons Ratio (y) = 0.29670 0.16664
# Poissons Ratio (z) = -0.08667 0.29952
#
# Static dielectric constant tensor:
#      x y z
#    x 1.685720 0.000000 0.004620 
#    y 0.000000 1.660120 0.000000 
#    z 0.004620 0.000000 1.634510 
# 
# From -- ./inp_files/256637.got.cif
#   From: 2010.05.17/outbox.cif.g08.bks.cpg/sg12_129_cif.got.tgz:256637.got - 2010.06.03 13:09:07.
