data_PCOD9202808
_publ_section_title
;
Structure prediction by ZEFSAII (Michael W. Deem and Ramdas Pophale) SiO2 
 PCOD9202808
Probable space group: C 2/M
;
_chemical_formula_sum "Si O2"
_cell_formula_units_Z 64
_cell_length_a 9.650435
_cell_length_b 28.259098
_cell_length_c 11.961427
_cell_angle_alpha 90.000000
_cell_angle_beta 89.934525
_cell_angle_gamma 90.000000
_cell_volume 3262.029588
_symmetry_space_group_name_H-M "C 2/M"
_symmetry_group_IT_number 12
_symmetry_cell_setting 'monoclinic'
loop_
_space_group_symop_operation_xyz
x,y,z
-x,y,-z
-x,-y,-z
x,-y,z
1/2+x,1/2+y,z
1/2-x,1/2+y,-z
1/2-x,1/2-y,-z
1/2+x,1/2-y,z
loop_
_atom_site_type_symbol
_atom_site_label
_atom_site_fract_x
_atom_site_fract_y
_atom_site_fract_z
Si Si1 0.720970 0.217851 0.303699
Si Si2 0.968141 0.789407 0.619768
Si Si3 0.261889 0.610778 0.268991
Si Si4 0.873594 0.767331 0.924280
Si Si5 0.574208 0.361987 0.200019
Si Si6 0.161909 0.556513 0.486365
Si Si7 0.049380 0.444606 0.122955
Si Si8 0.266346 0.945417 0.258817
O O1 0.886382 0.224488 0.320284
O O2 0.631454 0.244594 0.396735
O O3 0.700148 0.162224 0.296680
O O4 0.656900 0.241586 0.192787
O O5 0.000000 0.810527 0.500000
O O6 0.893970 0.829793 0.691404
O O7 0.416578 0.620716 0.222013
O O8 0.242280 0.581215 0.383886
O O9 0.173791 0.585201 0.173539
O O10 0.898149 0.823172 0.897162
O O11 0.750000 0.750000 0.000000
O O12 0.000000 0.751068 0.000000
O O13 0.670806 0.407509 0.197189
O O14 0.159369 0.500000 0.463901
O O15 0.230277 0.563791 0.608038
O O16 0.000000 0.571625 0.500000
O O17 0.088874 0.500000 0.114746
O O18 0.920846 0.441249 0.208789
O O19 0.000000 0.429158 0.000000
O O20 0.222022 0.000000 0.241121
#
# Coordination Sequence:
#
# PCOD9202808 Si02
#       8
#     8   8   8   8   8   8   8   8
#     4  10  23  38  56  93 114 153 215 252 314 384
#     4  10  21  40  59  80 125 161 193 256 313 370
#     4  11  22  38  62  93 131 161 218 265 321 387
#     4  11  23  45  69  88 127 172 215 275 327 384
#     4  10  25  40  61  96 126 164 216 254 325 389
#     4  10  20  38  63  93 132 175 215 266 321 380
#     4  10  22  41  63  88 122 166 215 271 326 377
#     4  10  22  40  63  96 133 168 217 267 315 386
#
# _framework density 19.619688
#
# number of rings (size 3 to 8) (size 9 to 14) (size 15 to 20)
#    0.000    1.750    1.250    3.000    3.500    7.000 
#    0.000    1.250    0.000    2.625    0.000    0.000 
#    0.000    0.000    0.000    0.000    0.000    0.000 
#
# Total GULP energy -178431.363462 kJ/mol
# GULP energy per Si atom -5575.980108 kJ/mol
# Density = 1.957503 g / cm^3
# Si number density = 19.619688 Si / 1000 Ang^3
#
#
#
# Elastic Constant Matrix: (Units=GPa)
#
#
# Indices 1 2 3 4 5 6 
#
# 1 74.2851 40.6816 15.7683 0.0000 -3.2162 0.0000
# 2 40.6816 86.5143 24.8019 0.0000 -1.5210 0.0000
# 3 15.7683 24.8019 77.1018 0.0000 -3.3911 0.0000
# 4 0.0000 0.0000 0.0000 30.4036 0.0000 1.2366
# 5 -3.2162 -1.5210 -3.3911 0.0000 24.0230 0.0000
# 6 0.0000 0.0000 0.0000 1.2366 0.0000 34.8329
#
#
#
# Elastic Compliance Matrix: (Units=1/GPa)
#
#
# Indices 1 2 3 4 5 6 
#
# 1 0.018286 -0.008281 -0.000997 0.000000 0.001783 0.000000
# 2 -0.008281 0.016485 -0.003635 0.000000 -0.000578 0.000000
# 3 -0.000997 -0.003635 0.014416 0.000000 0.001671 0.000000
# 4 0.000000 0.000000 0.000000 0.032938 0.000000 -0.001169
# 5 0.001783 -0.000578 0.001671 0.000000 0.042065 0.000000
# 6 0.000000 0.000000 0.000000 -0.001169 0.000000 0.028750
#
#
# Mechanical properties :
#
#
# Convention : Reuss Voigt Hill
#
# Bulk Modulus (GPa) = 42.80713 44.48943 43.64828
# Shear Modulus (GPa) = 26.80202 28.29520 27.54861
#
# Velocity S-wave (km/s) = 3.70006 3.80173 3.75124
# Velocity P-wave (km/s) = 6.33401 6.48043 6.40764
#
# Compressibility (1/GPa) = 0.02336060
#
# Stress axis : x y z
#
# Youngs Moduli (GPa) = 54.68764 60.66259 69.36498
#
# Poissons Ratio (x) = 0.50236 0.06918
# Poissons Ratio (y) = 0.45288 0.25211
# Poissons Ratio (z) = 0.05454 0.22048
#
# Static dielectric constant tensor:
#      x y z
#    x 1.585930 0.000000 0.115700 
#    y 0.000000 1.640600 0.000000 
#    z 0.115700 0.000000 1.538370 
# 
# From -- ./inp_files/125734.got.cif
#   From: 2010.05.17/outbox.cif.g08.bks.cpg/sg12_63_cif.got.tgz:125734.got - 2010.06.03 13:09:07.
