data_PCOD9202136
_publ_section_title
;
Structure prediction by ZEFSAII (Michael W. Deem and Ramdas Pophale) SiO2 
 PCOD9202136
Probable space group: C 2/M
;
_chemical_formula_sum "Si O2"
_cell_formula_units_Z 36
_cell_length_a 16.377671
_cell_length_b 18.876766
_cell_length_c 16.009244
_cell_angle_alpha 90.000000
_cell_angle_beta 25.322732
_cell_angle_gamma 90.000000
_cell_volume 2116.930433
_symmetry_space_group_name_H-M "C 2/M"
_symmetry_group_IT_number 12
_symmetry_cell_setting 'monoclinic'
loop_
_space_group_symop_operation_xyz
x,y,z
-x,y,-z
-x,-y,-z
x,-y,z
1/2+x,1/2+y,z
1/2-x,1/2+y,-z
1/2-x,1/2-y,-z
1/2+x,1/2-y,z
loop_
_atom_site_type_symbol
_atom_site_label
_atom_site_fract_x
_atom_site_fract_y
_atom_site_fract_z
Si Si1 0.527884 0.915913 0.794919
Si Si2 0.359587 0.751806 0.702072
Si Si3 0.212848 0.173023 0.991329
Si Si4 0.867109 0.820502 0.416160
Si Si5 0.000000 0.344672 0.000000
O O1 0.354882 0.882748 0.901526
O O2 0.720106 0.879391 0.582676
O O3 0.534700 0.000000 0.782997
O O4 0.498832 0.890820 0.917207
O O5 0.500000 0.778234 0.500000
O O6 0.266701 0.812463 0.845884
O O7 0.489211 0.701952 0.642346
O O8 0.186988 0.704900 0.826153
O O9 0.250000 0.250000 0.000000
O O10 0.996520 0.156644 0.217648
O O11 0.750000 0.750000 0.500000
#
# Coordination Sequence:
#
# PCOD9202136 Si02
#       5
#     8   8   8   8   4
#     4  12  24  37  58  88 126 159 190 240 296 353
#     4  11  21  33  62  89 114 153 200 245 283 336
#     4  10  20  38  59  81 115 161 203 238 277 348
#     4  11  19  38  60  83 114 155 207 238 279 343
#     4  12  21  38  52  90 129 156 188 226 297 360
#
# _framework density 17.005755000000001
#
# number of rings (size 3 to 8) (size 9 to 14) (size 15 to 20)
#    0.000    0.889   11.111    0.333    0.000    0.889 
#    0.000    1.111    0.000    0.667    0.000    2.333 
#    0.000    0.000    0.000    0.000    0.000    0.000 
#
# Total GULP energy -100450.816842 kJ/mol
# GULP energy per Si atom -5580.600936 kJ/mol
# Density = 1.696705 g / cm^3
# Si number density = 17.005755 Si / 1000 Ang^3
#
#
#
# Elastic Constant Matrix: (Units=GPa)
#
#
# Indices 1 2 3 4 5 6 
#
# 1 48.3283 40.3621 34.7930 0.0023 6.0311 -0.0010
# 2 40.3621 89.9634 48.2227 0.0036 10.4853 0.0001
# 3 34.7930 48.2227 165.0250 0.0067 25.6306 -0.0002
# 4 0.0023 0.0036 0.0067 14.3430 -0.0026 -4.1733
# 5 6.0311 10.4853 25.6306 -0.0026 43.1125 -0.0010
# 6 -0.0010 0.0001 -0.0002 -4.1733 -0.0010 17.7869
#
#
#
# Elastic Compliance Matrix: (Units=1/GPa)
#
#
# Indices 1 2 3 4 5 6 
#
# 1 0.034521 -0.013758 -0.003336 0.000000 0.000500 0.000002
# 2 -0.013758 0.018703 -0.002377 -0.000002 -0.001211 -0.000001
# 3 -0.003336 -0.002377 0.008037 -0.000004 -0.003734 -0.000001
# 4 0.000000 -0.000002 -0.000004 0.074829 0.000008 0.017557
# 5 0.000500 -0.001211 -0.003734 0.000008 0.025639 0.000003
# 6 0.000002 -0.000001 -0.000001 0.017557 0.000003 0.060341
#
#
# Mechanical properties :
#
#
# Convention : Reuss Voigt Hill
#
# Bulk Modulus (GPa) = 44.80064 61.11914 52.95989
# Shear Modulus (GPa) = 18.62531 27.04440 22.83486
#
# Velocity S-wave (km/s) = 3.31303 3.99219 3.66836
# Velocity P-wave (km/s) = 6.40597 7.56759 7.01088
#
# Compressibility (1/GPa) = 0.02232111
#
# Stress axis : x y z
#
# Youngs Moduli (GPa) = 28.96766 53.46626 124.42029
#
# Poissons Ratio (x) = 0.73561 0.41501
# Poissons Ratio (y) = 0.39855 0.29569
# Poissons Ratio (z) = 0.09662 0.12706
#
# Static dielectric constant tensor:
#      x y z
#    x 1.596670 0.000000 0.017940 
#    y 0.000000 1.526960 0.000010 
#    z 0.017940 0.000010 1.621490 
# 
# From -- ./inp_files/216177.got.cif
#   From: 2010.05.17/outbox.cif.g08.bks.cpg/sg12_109_cif.got.tgz:216177.got - 2010.06.03 13:09:07.
