data_PCOD9202839
_publ_section_title
;
Structure prediction by ZEFSAII (Michael W. Deem and Ramdas Pophale) SiO2 
 PCOD9202839
Probable space group: C 2/M
;
_chemical_formula_sum "Si O2"
_cell_formula_units_Z 50
_cell_length_a 19.537263
_cell_length_b 10.391822
_cell_length_c 16.602731
_cell_angle_alpha 90.000000
_cell_angle_beta 55.779838
_cell_angle_gamma 90.000000
_cell_volume 2787.268937
_symmetry_space_group_name_H-M "C 2/M"
_symmetry_group_IT_number 12
_symmetry_cell_setting 'monoclinic'
loop_
_space_group_symop_operation_xyz
x,y,z
-x,y,-z
-x,-y,-z
x,-y,z
1/2+x,1/2+y,z
1/2-x,1/2+y,-z
1/2-x,1/2-y,-z
1/2+x,1/2-y,z
loop_
_atom_site_type_symbol
_atom_site_label
_atom_site_fract_x
_atom_site_fract_y
_atom_site_fract_z
Si Si1 0.393211 0.147752 0.261759
Si Si2 0.603140 0.347194 0.292400
Si Si3 0.000000 0.500000 0.500000
Si Si4 0.494364 0.648971 0.907753
Si Si5 0.801113 0.154605 0.611840
Si Si6 0.676894 0.346970 0.070989
Si Si7 0.068919 0.288293 0.580793
O O1 0.448110 0.249101 0.176158
O O2 0.296164 0.181299 0.318976
O O3 0.416122 0.154842 0.340783
O O4 0.405201 0.000000 0.225561
O O5 0.609211 0.500000 0.290128
O O6 0.653678 0.298824 0.336318
O O7 0.642940 0.307072 0.181500
O O8 0.507729 0.309444 0.360509
O O9 0.038492 0.389775 0.535190
O O10 0.518138 0.500000 0.873210
O O11 0.400351 0.664965 0.938874
O O12 0.500000 0.666332 0.000000
O O13 0.848579 0.220595 0.506865
O O14 0.810720 0.000000 0.598828
O O15 0.700751 0.500000 0.056906
O O16 0.750000 0.250000 0.000000
#
# Coordination Sequence:
#
# PCOD9202839 Si02
#       7
#     8   8   2   8   8   8   8
#     4  11  24  40  61  91 125 158 201 249 300 357
#     4  10  20  38  64  85 114 154 204 247 296 358
#     4  12  24  36  58  84 130 156 200 254 292 352
#     4  10  23  44  65  88 121 160 204 248 303 367
#     4  10  22  38  59  89 119 157 201 247 292 357
#     4  10  22  40  62  91 119 151 199 252 301 360
#     4  12  21  40  59  87 122 162 199 245 301 354
#
# _framework density 17.938704999999999
#
# number of rings (size 3 to 8) (size 9 to 14) (size 15 to 20)
#    0.000    1.440    4.000    0.960    2.240    2.880 
#    2.880    0.000    0.000    0.000    0.000    0.000 
#    0.000    0.000    0.000    0.000    0.000    0.000 
#
# Total GULP energy -139254.791821 kJ/mol
# GULP energy per Si atom -5570.191673 kJ/mol
# Density = 1.789788 g / cm^3
# Si number density = 17.938705 Si / 1000 Ang^3
#
#
#
# Elastic Constant Matrix: (Units=GPa)
#
#
# Indices 1 2 3 4 5 6 
#
# 1 87.9173 44.4658 50.1851 0.0000 -4.0667 0.0000
# 2 44.4658 84.4918 81.1908 0.0000 -11.6287 0.0000
# 3 50.1851 81.1908 109.9367 0.0000 -11.4371 0.0000
# 4 0.0000 0.0000 0.0000 31.9893 0.0000 -14.4926
# 5 -4.0667 -11.6287 -11.4371 0.0000 28.0875 0.0000
# 6 0.0000 0.0000 0.0000 -14.4926 0.0000 34.6387
#
#
#
# Elastic Compliance Matrix: (Units=1/GPa)
#
#
# Indices 1 2 3 4 5 6 
#
# 1 0.015973 -0.004986 -0.003742 0.000000 -0.001275 0.000000
# 2 -0.004986 0.042957 -0.028898 0.000000 0.005296 0.000000
# 3 -0.003742 -0.028898 0.032210 0.000000 0.000610 0.000000
# 4 0.000000 0.000000 0.000000 0.038572 0.000000 0.016138
# 5 -0.001275 0.005296 0.000610 0.000000 0.037859 0.000000
# 6 0.000000 0.000000 0.000000 0.016138 0.000000 0.035622
#
#
# Mechanical properties :
#
#
# Convention : Reuss Voigt Hill
#
# Bulk Modulus (GPa) = 62.94009 70.44771 66.69390
# Shear Modulus (GPa) = 17.62175 26.04338 21.83257
#
# Velocity S-wave (km/s) = 3.13762 3.81438 3.49243
# Velocity P-wave (km/s) = 6.94900 7.66524 7.31589
#
# Compressibility (1/GPa) = 0.01588813
#
# Stress axis : x y z
#
# Youngs Moduli (GPa) = 62.60537 23.27895 31.04662
#
# Poissons Ratio (x) = 0.11607 0.11618
# Poissons Ratio (y) = 0.31214 0.89718
# Poissons Ratio (z) = 0.23427 0.67271
#
# Static dielectric constant tensor:
#      x y z
#    x 1.609560 0.000000 0.022250 
#    y 0.000000 1.601360 0.000000 
#    z 0.022250 0.000000 1.594110 
# 
# From -- ./inp_files/240036.got.cif
#   From: 2010.05.17/outbox.cif.g08.bks.cpg/sg12_121_cif.got.tgz:240036.got - 2010.06.03 13:09:07.
