data_PCOD9202906
_publ_section_title
;
Structure prediction by ZEFSAII (Michael W. Deem and Ramdas Pophale) SiO2 
 PCOD9202906
Probable space group: C 2/M
;
_chemical_formula_sum "Si O2"
_cell_formula_units_Z 40
_cell_length_a 19.707402
_cell_length_b 11.686161
_cell_length_c 8.676143
_cell_angle_alpha 90.000000
_cell_angle_beta 100.425696
_cell_angle_gamma 90.000000
_cell_volume 1965.160712
_symmetry_space_group_name_H-M "C 2/M"
_symmetry_group_IT_number 12
_symmetry_cell_setting 'monoclinic'
loop_
_space_group_symop_operation_xyz
x,y,z
-x,y,-z
-x,-y,-z
x,-y,z
1/2+x,1/2+y,z
1/2-x,1/2+y,-z
1/2-x,1/2-y,-z
1/2+x,1/2-y,z
loop_
_atom_site_type_symbol
_atom_site_label
_atom_site_fract_x
_atom_site_fract_y
_atom_site_fract_z
Si Si1 0.837537 0.863711 0.864261
Si Si2 0.114737 0.500000 0.596838
Si Si3 0.290560 0.224207 0.360228
Si Si4 0.016582 0.500000 0.259517
Si Si5 0.897203 0.133953 0.232350
Si Si6 0.471757 0.255118 0.821788
O O1 0.767085 0.800625 0.793050
O O2 0.897854 0.814509 0.778447
O O3 0.830060 0.000000 0.838976
O O4 0.861867 0.843936 0.050307
O O5 0.162358 0.611344 0.610270
O O6 0.063846 0.500000 0.723552
O O7 0.063925 0.500000 0.430531
O O8 0.250000 0.250000 0.500000
O O9 0.341929 0.325369 0.333909
O O10 0.033442 0.618342 0.182126
O O11 0.968773 0.204254 0.270406
O O12 0.912758 0.000000 0.248556
O O13 0.500000 0.293428 0.000000
#
# Coordination Sequence:
#
# PCOD9202906 Si02
#       6
#     8   4   8   4   8   8
#     4  10  21  40  64  89 123 157 198 248 305 358
#     4  11  24  40  62  82 120 166 197 244 306 354
#     4  12  24  41  62  87 124 161 203 250 299 360
#     4  11  21  40  60  88 121 157 204 242 297 364
#     4  10  22  40  63  91 120 157 202 250 300 360
#     4  10  20  38  64  92 119 155 199 250 301 355
#
# _framework density 20.354569000000001
#
# number of rings (size 3 to 8) (size 9 to 14) (size 15 to 20)
#    0.000    1.400    3.000    2.700    1.400    2.400 
#    1.800    0.000    0.000    3.600    0.000    0.000 
#    0.000    0.000    0.000    0.000    0.000    0.000 
#
# Total GULP energy -111748.956786 kJ/mol
# GULP energy per Si atom -5587.447839 kJ/mol
# Density = 2.030824 g / cm^3
# Si number density = 20.354569 Si / 1000 Ang^3
#
#
#
# Elastic Constant Matrix: (Units=GPa)
#
#
# Indices 1 2 3 4 5 6 
#
# 1 98.0946 11.0762 4.9092 0.0000 -6.8414 0.0000
# 2 11.0762 52.8719 -4.8358 0.0000 1.0637 0.0000
# 3 4.9092 -4.8358 20.5585 0.0000 -7.4255 0.0000
# 4 0.0000 0.0000 0.0000 7.9129 0.0000 -4.3985
# 5 -6.8414 1.0637 -7.4255 0.0000 31.6088 0.0000
# 6 0.0000 0.0000 0.0000 -4.3985 0.0000 57.9637
#
#
#
# Elastic Compliance Matrix: (Units=1/GPa)
#
#
# Indices 1 2 3 4 5 6 
#
# 1 0.010730 -0.002513 -0.002496 0.000000 0.001821 0.000000
# 2 -0.002513 0.019924 0.005297 0.000000 0.000030 0.000000
# 3 -0.002496 0.005297 0.054881 0.000000 0.012174 0.000000
# 4 0.000000 0.000000 0.000000 0.131941 0.000000 0.010012
# 5 0.001821 0.000030 0.012174 0.000000 0.034890 0.000000
# 6 0.000000 0.000000 0.000000 0.010012 0.000000 0.018012
#
#
# Mechanical properties :
#
#
# Convention : Reuss Voigt Hill
#
# Bulk Modulus (GPa) = 11.61267 21.53601 16.57434
# Shear Modulus (GPa) = 16.75025 30.18879 23.46952
#
# Velocity S-wave (km/s) = 2.87178 3.85534 3.39932
# Velocity P-wave (km/s) = 4.08824 5.51558 4.85465
#
# Compressibility (1/GPa) = 0.08611287
#
# Stress axis : x y z
#
# Youngs Moduli (GPa) = 93.19809 50.19090 18.22130
#
# Poissons Ratio (x) = 0.12611 0.04547
# Poissons Ratio (y) = 0.23418 -0.09653
# Poissons Ratio (z) = 0.23259 -0.26588
#
# Static dielectric constant tensor:
#      x y z
#    x 1.719340 0.000000 -0.009870 
#    y 0.000000 1.675070 0.000000 
#    z -0.009870 0.000000 1.740900 
# 
# From -- ./inp_files/71267.got.cif
#   From: 2010.05.17/outbox.cif.g08.bks.cpg/sg12_36_cif.got.tgz:71267.got - 2010.06.03 13:09:07.
