data_PCOD9202682
_publ_section_title
;
Structure prediction by ZEFSAII (Michael W. Deem and Ramdas Pophale) SiO2 
 PCOD9202682
Probable space group: C 2/M
;
_chemical_formula_sum "Si O2"
_cell_formula_units_Z 48
_cell_length_a 15.729390
_cell_length_b 18.528156
_cell_length_c 15.376359
_cell_angle_alpha 90.000000
_cell_angle_beta 143.827832
_cell_angle_gamma 90.000000
_cell_volume 2644.885091
_symmetry_space_group_name_H-M "C 2/M"
_symmetry_group_IT_number 12
_symmetry_cell_setting 'monoclinic'
loop_
_space_group_symop_operation_xyz
x,y,z
-x,y,-z
-x,-y,-z
x,-y,z
1/2+x,1/2+y,z
1/2-x,1/2+y,-z
1/2-x,1/2-y,-z
1/2+x,1/2-y,z
loop_
_atom_site_type_symbol
_atom_site_label
_atom_site_fract_x
_atom_site_fract_y
_atom_site_fract_z
Si Si1 0.156793 0.678494 0.402609
Si Si2 0.175275 0.417384 0.060641
Si Si3 0.687780 0.822857 0.908574
Si Si4 0.172679 0.584581 0.248487
Si Si5 0.166163 0.916750 0.119398
Si Si6 0.367410 0.083002 0.447999
O O1 0.250000 0.750000 0.500000
O O2 0.209540 0.635729 0.359691
O O3 0.166012 0.627055 0.493954
O O4 0.984059 0.688831 0.246427
O O5 0.220429 0.500000 0.097899
O O6 0.222354 0.388245 0.194128
O O7 0.225643 0.378572 0.016568
O O8 0.001238 0.415773 0.906595
O O9 0.758083 0.858348 0.880670
O O10 0.750000 0.750000 0.000000
O O11 0.214275 0.500000 0.296398
O O12 0.238557 0.916479 0.273634
O O13 0.182006 0.000000 0.098422
O O14 0.000000 0.900811 0.000000
O O15 0.500000 0.112248 0.500000
O O16 0.404282 0.000000 0.502723
#
# Coordination Sequence:
#
# PCOD9202682 Si02
#       6
#     8   8   8   8   8   8
#     4  11  23  36  55  85 121 156 189 233 289 352
#     4   8  15  31  56  80 104 138 188 237 274 323
#     4  11  23  37  54  85 119 155 191 232 294 352
#     4   8  15  31  55  82 105 138 187 235 276 324
#     4  10  22  40  63  88 114 150 199 252 298 344
#     4  10  20  38  63  86 110 150 202 248 291 343
#
# _framework density 18.148236000000001
#
# number of rings (size 3 to 8) (size 9 to 14) (size 15 to 20)
#    0.000    2.333    1.667    2.000    2.333    2.667 
#    3.000    0.000    0.000    0.000    0.000    2.333 
#    0.000    0.000    0.000    0.000    0.000    0.000 
#
# Total GULP energy -133631.612508 kJ/mol
# GULP energy per Si atom -5567.983854 kJ/mol
# Density = 1.810693 g / cm^3
# Si number density = 18.148236 Si / 1000 Ang^3
#
#
#
# Elastic Constant Matrix: (Units=GPa)
#
#
# Indices 1 2 3 4 5 6 
#
# 1 76.1343 51.3171 54.4962 0.0000 -30.9893 0.0000
# 2 51.3171 83.2958 47.4017 0.0000 -24.7965 0.0000
# 3 54.4962 47.4017 83.9240 0.0000 -15.3619 -0.0001
# 4 0.0000 0.0000 0.0000 25.6568 0.0000 7.6316
# 5 -30.9893 -24.7965 -15.3619 0.0000 37.5251 0.0000
# 6 0.0000 0.0000 -0.0001 7.6316 0.0000 -1.7323
#
#
#
# Elastic Compliance Matrix: (Units=1/GPa)
#
#
# Indices 1 2 3 4 5 6 
#
# 1 0.038976 -0.008567 -0.016880 0.000000 0.019616 0.000000
# 2 -0.008567 0.022276 -0.006075 0.000000 0.005158 0.000000
# 3 -0.016880 -0.006075 0.024886 0.000000 -0.007766 0.000000
# 4 0.000000 0.000000 0.000000 0.016870 0.000000 0.074320
# 5 0.019616 0.005158 -0.007766 0.000000 0.043078 0.000000
# 6 0.000000 0.000000 0.000000 0.074320 0.000000 -0.249858
#
#
# Mechanical properties :
#
#
# Convention : Reuss Voigt Hill
#
# Bulk Modulus (GPa) = 43.29911 61.08713 52.19312
# Shear Modulus (GPa) = -151.36623 18.29920 -66.53351
#
# Velocity S-wave (km/s) = -9.14257 3.17885 -6.06141
# Velocity P-wave (km/s) = 9.35619 6.87071 4.49064
#
# Compressibility (1/GPa) = 0.02309516
#
# Stress axis : x y z
#
# Youngs Moduli (GPa) = 25.65694 44.89171 40.18345
#
# Poissons Ratio (x) = 0.38458 0.67828
# Poissons Ratio (y) = 0.21980 0.24410
# Poissons Ratio (z) = 0.43308 0.27270
#
# Static dielectric constant tensor:
#      x y z
#    x 1.602540 0.000000 -0.120540 
#    y 0.000000 1.625630 0.000000 
#    z -0.120540 0.000000 1.333340 
# 
# From -- ./inp_files/216501.got.cif
#   From: 2010.05.17/outbox.cif.g08.bks.cpg/sg12_109_cif.got.tgz:216501.got - 2010.06.03 13:09:07.
