data_PCOD9202801
_publ_section_title
;
Structure prediction by ZEFSAII (Michael W. Deem and Ramdas Pophale) SiO2 
 PCOD9202801
Probable space group: C 2/M
;
_chemical_formula_sum "Si O2"
_cell_formula_units_Z 48
_cell_length_a 13.254931
_cell_length_b 27.160875
_cell_length_c 18.688244
_cell_angle_alpha 90.000000
_cell_angle_beta 160.043205
_cell_angle_gamma 90.000000
_cell_volume 2296.363234
_symmetry_space_group_name_H-M "C 2/M"
_symmetry_group_IT_number 12
_symmetry_cell_setting 'monoclinic'
loop_
_space_group_symop_operation_xyz
x,y,z
-x,y,-z
-x,-y,-z
x,-y,z
1/2+x,1/2+y,z
1/2-x,1/2+y,-z
1/2-x,1/2-y,-z
1/2+x,1/2-y,z
loop_
_atom_site_type_symbol
_atom_site_label
_atom_site_fract_x
_atom_site_fract_y
_atom_site_fract_z
Si Si1 0.238489 0.052345 0.094672
Si Si2 0.321946 0.444864 0.680355
Si Si3 0.415595 0.344961 0.666057
Si Si4 0.891309 0.258154 0.711377
Si Si5 0.834911 0.657469 0.196601
Si Si6 0.240333 0.214960 0.771631
O O1 0.048355 0.052212 0.896464
O O2 0.404435 0.000000 0.210714
O O3 0.403523 0.104122 0.207805
O O4 0.000000 0.052791 0.000000
O O5 0.299841 0.500000 0.632772
O O6 0.436610 0.399958 0.709181
O O7 0.000000 0.433515 0.500000
O O8 0.480027 0.299237 0.762949
O O9 0.621188 0.334087 0.733669
O O10 0.069994 0.339924 0.416668
O O11 0.582827 0.261281 0.460719
O O12 0.861963 0.278717 0.772252
O O13 0.101871 0.296838 0.812326
O O14 0.500000 0.657579 0.000000
O O15 0.500000 0.231689 0.000000
#
# Coordination Sequence:
#
# PCOD9202801 Si02
#       6
#     8   8   8   8   8   8
#     4   9  18  34  55  85 120 156 199 247 309 375
#     4  10  21  37  59  90 124 158 200 259 319 370
#     4  11  24  41  60  92 123 164 212 255 308 379
#     4  10  24  43  59  91 131 163 213 262 300 377
#     4  10  20  38  63  93 125 163 206 258 319 373
#     4  10  23  44  62  85 124 173 213 250 306 363
#
# _framework density 20.902616999999999
#
# number of rings (size 3 to 8) (size 9 to 14) (size 15 to 20)
#    0.000    2.000    0.000    4.000    4.667    5.333 
#    9.000    0.000    0.000    1.500    0.000    4.667 
#    0.000    0.000    0.000    0.000    0.000    0.000 
#
# Total GULP energy -133654.046716 kJ/mol
# GULP energy per Si atom -5568.918613 kJ/mol
# Density = 2.085504 g / cm^3
# Si number density = 20.902617 Si / 1000 Ang^3
#
#
#
# Elastic Constant Matrix: (Units=GPa)
#
#
# Indices 1 2 3 4 5 6 
#
# 1 104.7738 72.9083 33.7289 0.0059 -13.3836 0.0003
# 2 72.9083 213.4009 32.9312 -0.0021 -0.8831 -0.0005
# 3 33.7289 32.9312 107.2791 0.0286 -12.4584 -0.0155
# 4 0.0059 -0.0021 0.0286 20.5436 0.0085 -3.8866
# 5 -13.3836 -0.8831 -12.4584 0.0085 26.6115 0.0045
# 6 0.0003 -0.0005 -0.0155 -3.8866 0.0045 36.7797
#
#
#
# Elastic Compliance Matrix: (Units=1/GPa)
#
#
# Indices 1 2 3 4 5 6 
#
# 1 0.014157 -0.004441 -0.002409 -0.000004 0.005844 -0.000002
# 2 -0.004441 0.006320 -0.000824 0.000004 -0.002409 0.000001
# 3 -0.002409 -0.000824 0.010774 -0.000016 0.003805 0.000002
# 4 -0.000004 0.000004 -0.000016 0.049670 -0.000026 0.005249
# 5 0.005844 -0.002409 0.003805 -0.000026 0.042218 -0.000006
# 6 -0.000002 0.000001 0.000002 0.005249 -0.000006 0.027744
#
#
# Mechanical properties :
#
#
# Convention : Reuss Voigt Hill
#
# Bulk Modulus (GPa) = 62.87863 78.28782 70.58322
# Shear Modulus (GPa) = 29.14935 35.84599 32.49767
#
# Velocity S-wave (km/s) = 3.73839 4.14563 3.94727
# Velocity P-wave (km/s) = 6.98435 7.77496 7.39023
#
# Compressibility (1/GPa) = 0.01590366
#
# Stress axis : x y z
#
# Youngs Moduli (GPa) = 70.63885 158.22020 92.81937
#
# Poissons Ratio (x) = 0.70260 0.22360
# Poissons Ratio (y) = 0.31368 0.07646
# Poissons Ratio (z) = 0.17017 0.13034
#
# Static dielectric constant tensor:
#      x y z
#    x 1.886080 0.000060 0.165110 
#    y 0.000060 1.831960 0.000090 
#    z 0.165110 0.000090 2.055130 
# 
# From -- ./inp_files/312617.got.cif
#   From: 2010.05.17/outbox.cif.g08.bks.cpg/sg12_157_cif.got.tgz:312617.got - 2010.06.03 13:09:07.
