data_PCOD9202412
_publ_section_title
;
Structure prediction by ZEFSAII (Michael W. Deem and Ramdas Pophale) SiO2 
 PCOD9202412
Probable space group: C 2/M
;
_chemical_formula_sum "Si O2"
_cell_formula_units_Z 50
_cell_length_a 33.756583
_cell_length_b 7.817123
_cell_length_c 31.675140
_cell_angle_alpha 90.000000
_cell_angle_beta 162.825136
_cell_angle_gamma 90.000000
_cell_volume 2468.147677
_symmetry_space_group_name_H-M "C 2/M"
_symmetry_group_IT_number 12
_symmetry_cell_setting 'monoclinic'
loop_
_space_group_symop_operation_xyz
x,y,z
-x,y,-z
-x,-y,-z
x,-y,z
1/2+x,1/2+y,z
1/2-x,1/2+y,-z
1/2-x,1/2-y,-z
1/2+x,1/2-y,z
loop_
_atom_site_type_symbol
_atom_site_label
_atom_site_fract_x
_atom_site_fract_y
_atom_site_fract_z
Si Si1 0.026933 0.795240 0.382249
Si Si2 0.455735 0.800368 0.828701
Si Si3 0.766589 0.792973 0.333383
Si Si4 0.190379 0.807214 0.166113
Si Si5 0.257854 0.695995 0.556331
Si Si6 0.744055 0.707956 0.856489
Si Si7 0.500000 0.000000 0.000000
O O1 0.107661 0.764992 0.508153
O O2 0.115640 0.719408 0.435080
O O3 0.875589 0.734282 0.234802
O O4 0.027908 0.000000 0.376716
O O5 0.361369 0.727845 0.769831
O O6 0.369004 0.790145 0.697785
O O7 0.469711 0.000000 0.853107
O O8 0.606113 0.731708 0.978825
O O9 0.770391 0.711261 0.291492
O O10 0.748333 0.000000 0.308217
O O11 0.277098 0.771849 0.212718
O O12 0.134733 0.000000 0.106737
O O13 0.083117 0.653129 0.059456
O O14 0.297164 0.500000 0.598289
O O15 0.250000 0.750000 0.500000
O O16 0.739521 0.500000 0.852152
#
# Coordination Sequence:
#
# PCOD9202412 Si02
#       7
#     8   8   8   8   8   8   2
#     4   9  20  38  63  89 118 162 197 236 306 366
#     4   9  19  35  60  86 116 153 193 242 299 356
#     4   9  17  34  56  81 121 159 206 253 294 351
#     4  12  24  35  57  85 117 165 215 261 302 359
#     4  11  22  39  64  89 117 147 192 246 293 360
#     4  10  20  38  61  86 125 163 197 245 305 366
#     4  12  22  40  52  76 120 152 210 254 320 334
#
# _framework density 20.258108
#
# number of rings (size 3 to 8) (size 9 to 14) (size 15 to 20)
#    0.000    1.920    1.600    3.600    2.240    4.480 
#    0.000    4.000    0.000    0.000    0.000    0.000 
#    0.000    0.000    0.000    0.000    0.000    0.000 
#
# Total GULP energy -139319.327353 kJ/mol
# GULP energy per Si atom -5572.773094 kJ/mol
# Density = 2.021200 g / cm^3
# Si number density = 20.258108 Si / 1000 Ang^3
#
#
#
# Elastic Constant Matrix: (Units=GPa)
#
#
# Indices 1 2 3 4 5 6 
#
# 1 242.0884 144.3775 125.0257 0.0010 -60.0842 0.0013
# 2 144.3775 244.6383 101.0301 0.0046 -61.1433 0.0032
# 3 125.0257 101.0301 138.0931 0.0063 -21.6805 0.0029
# 4 0.0010 0.0046 0.0063 7.3338 0.0018 1.4729
# 5 -60.0842 -61.1433 -21.6805 0.0018 54.4104 -0.0001
# 6 0.0013 0.0032 0.0029 1.4729 -0.0001 19.6887
#
#
#
# Elastic Compliance Matrix: (Units=1/GPa)
#
#
# Indices 1 2 3 4 5 6 
#
# 1 0.010571 -0.001376 -0.007440 0.000004 0.007163 0.000000
# 2 -0.001376 0.007841 -0.003569 -0.000003 0.005869 0.000000
# 3 -0.007440 -0.003569 0.015647 -0.000009 -0.005991 -0.000001
# 4 0.000004 -0.000003 -0.000009 0.138436 -0.000007 -0.010356
# 5 0.007163 0.005869 -0.005991 -0.000007 0.030497 0.000000
# 6 0.000000 0.000000 -0.000001 -0.010356 0.000000 0.051565
#
#
# Mechanical properties :
#
#
# Convention : Reuss Voigt Hill
#
# Bulk Modulus (GPa) = 107.64067 151.74291 129.69179
# Shear Modulus (GPa) = 17.70393 33.24566 25.47479
#
# Velocity S-wave (km/s) = 2.95942 4.05545 3.54999
# Velocity P-wave (km/s) = 8.05776 9.84867 8.99788
#
# Compressibility (1/GPa) = 0.00929017
#
# Stress axis : x y z
#
# Youngs Moduli (GPa) = 94.59467 127.54163 63.90801
#
# Poissons Ratio (x) = 0.17553 0.47545
# Poissons Ratio (y) = 0.13019 0.22807
# Poissons Ratio (z) = 0.70375 0.45516
#
# Static dielectric constant tensor:
#      x y z
#    x 1.674680 0.000000 0.004690 
#    y 0.000000 1.743840 0.000000 
#    z 0.004690 0.000000 1.788670 
# 
# From -- ./inp_files/384825.got.cif
#   From: 2010.05.17/outbox.cif.g08.bks.cpg/sg12_193_cif.got.tgz:384825.got - 2010.06.03 13:09:07.
