data_PCOD9202713
_publ_section_title
;
Structure prediction by ZEFSAII (Michael W. Deem and Ramdas Pophale) SiO2 
 PCOD9202713
Probable space group: C 2/M
;
_chemical_formula_sum "Si O2"
_cell_formula_units_Z 64
_cell_length_a 25.513237
_cell_length_b 13.832249
_cell_length_c 20.437802
_cell_angle_alpha 90.000000
_cell_angle_beta 26.883293
_cell_angle_gamma 90.000000
_cell_volume 3261.360141
_symmetry_space_group_name_H-M "C 2/M"
_symmetry_group_IT_number 12
_symmetry_cell_setting 'monoclinic'
loop_
_space_group_symop_operation_xyz
x,y,z
-x,y,-z
-x,-y,-z
x,-y,z
1/2+x,1/2+y,z
1/2-x,1/2+y,-z
1/2-x,1/2-y,-z
1/2+x,1/2-y,z
loop_
_atom_site_type_symbol
_atom_site_label
_atom_site_fract_x
_atom_site_fract_y
_atom_site_fract_z
Si Si1 0.202307 0.829235 0.104976
Si Si2 0.070243 0.603611 0.084622
Si Si3 0.375701 0.614273 0.671616
Si Si4 0.855826 0.888556 0.333710
Si Si5 0.460212 0.748901 0.117076
Si Si6 0.746741 0.610915 0.326762
Si Si7 0.045808 0.819012 0.643020
Si Si8 0.917793 0.392512 0.378999
O O1 0.154840 0.817149 0.233210
O O2 0.081449 0.865653 0.208537
O O3 0.250000 0.750000 0.000000
O O4 0.316961 0.889432 0.994899
O O5 0.071455 0.500000 0.048690
O O6 0.055703 0.690561 0.050894
O O7 0.963199 0.607957 0.253920
O O8 0.500000 0.634353 0.500000
O O9 0.377598 0.500000 0.690831
O O10 0.282662 0.622384 0.717038
O O11 0.927397 0.844982 0.194434
O O12 0.887232 0.828684 0.363221
O O13 0.720304 0.882042 0.467781
O O14 0.882902 0.000000 0.316955
O O15 0.346732 0.817481 0.238825
O O16 0.500000 0.727516 0.000000
O O17 0.780587 0.500000 0.301678
O O18 0.627710 0.632708 0.498110
O O19 0.030712 0.704161 0.645951
O O20 0.947706 0.500000 0.372374
#
# Coordination Sequence:
#
# PCOD9202713 Si02
#       8
#     8   8   8   8   8   8   8   8
#     4  12  23  37  59  88 126 169 206 248 306 372
#     4  11  23  39  59  89 127 160 196 252 316 373
#     4  10  21  38  57  86 125 160 199 252 315 375
#     4  11  23  39  61  89 121 157 205 264 309 360
#     4  12  24  40  61  85 121 165 208 251 312 376
#     4  11  23  38  64  96 122 157 204 255 316 382
#     4  12  21  39  63  92 123 158 209 257 310 377
#     4  10  20  38  63  88 117 156 198 250 312 368
#
# _framework density 19.623714
#
# number of rings (size 3 to 8) (size 9 to 14) (size 15 to 20)
#    0.000    0.875    5.000    3.000    0.000    4.750 
#    0.000    0.000    0.000    0.000    0.000    4.375 
#    0.000    0.000    0.000    0.000    0.000    0.000 
#
# Total GULP energy -178540.030379 kJ/mol
# GULP energy per Si atom -5579.375949 kJ/mol
# Density = 1.957905 g / cm^3
# Si number density = 19.623714 Si / 1000 Ang^3
#
#
#
# Elastic Constant Matrix: (Units=GPa)
#
#
# Indices 1 2 3 4 5 6 
#
# 1 46.9199 18.4760 13.6707 0.0000 1.9433 0.0000
# 2 18.4760 79.4930 20.0842 0.0000 4.8897 0.0000
# 3 13.6707 20.0842 106.6794 0.0000 12.0399 0.0000
# 4 0.0000 0.0000 0.0000 7.5295 0.0000 5.1272
# 5 1.9433 4.8897 12.0399 0.0000 34.7995 0.0000
# 6 0.0000 0.0000 0.0000 5.1272 0.0000 18.8324
#
#
#
# Elastic Compliance Matrix: (Units=1/GPa)
#
#
# Indices 1 2 3 4 5 6 
#
# 1 0.023908 -0.005025 -0.002130 0.000000 0.000108 0.000000
# 2 -0.005025 0.014300 -0.001928 0.000000 -0.001062 0.000000
# 3 -0.002130 -0.001928 0.010371 0.000000 -0.003198 0.000000
# 4 0.000000 0.000000 0.000000 0.163037 0.000000 -0.044387
# 5 0.000108 -0.001062 -0.003198 0.000000 0.029986 0.000000
# 6 0.000000 0.000000 0.000000 -0.044387 0.000000 0.065185
#
#
# Mechanical properties :
#
#
# Convention : Reuss Voigt Hill
#
# Bulk Modulus (GPa) = 32.88201 37.50602 35.19402
# Shear Modulus (GPa) = 14.92135 24.28972 19.60553
#
# Velocity S-wave (km/s) = 2.76048 3.52202 3.16424
# Velocity P-wave (km/s) = 5.19162 5.97441 5.59672
#
# Compressibility (1/GPa) = 0.03041176
#
# Stress axis : x y z
#
# Youngs Moduli (GPa) = 41.82732 69.92888 96.42433
#
# Poissons Ratio (x) = 0.35141 0.20537
# Poissons Ratio (y) = 0.21019 0.18595
# Poissons Ratio (z) = 0.08908 0.13486
#
# Static dielectric constant tensor:
#      x y z
#    x 1.702090 0.000000 -0.033060 
#    y 0.000000 1.699920 0.000000 
#    z -0.033060 0.000000 1.711430 
# 
# From -- ./inp_files/290076.got.cif
#   From: 2010.05.17/outbox.cif.g08.bks.cpg/sg12_146_cif.got.tgz:290076.got - 2010.06.03 13:09:07.
