data_PCOD9202567
_publ_section_title
;
Structure prediction by ZEFSAII (Michael W. Deem and Ramdas Pophale) SiO2 
 PCOD9202567
Probable space group: C 2/M
;
_chemical_formula_sum "Si O2"
_cell_formula_units_Z 48
_cell_length_a 31.625628
_cell_length_b 7.441919
_cell_length_c 20.659150
_cell_angle_alpha 90.000000
_cell_angle_beta 30.742773
_cell_angle_gamma 90.000000
_cell_volume 2485.503484
_symmetry_space_group_name_H-M "C 2/M"
_symmetry_group_IT_number 12
_symmetry_cell_setting 'monoclinic'
loop_
_space_group_symop_operation_xyz
x,y,z
-x,y,-z
-x,-y,-z
x,-y,z
1/2+x,1/2+y,z
1/2-x,1/2+y,-z
1/2-x,1/2-y,-z
1/2+x,1/2-y,z
loop_
_atom_site_type_symbol
_atom_site_label
_atom_site_fract_x
_atom_site_fract_y
_atom_site_fract_z
Si Si1 0.300969 0.214276 0.867716
Si Si2 0.711636 0.716836 0.853141
Si Si3 0.101019 0.500000 0.805487
Si Si4 0.014932 0.719727 0.405300
Si Si5 0.734029 0.288115 0.595821
Si Si6 0.580234 0.000000 0.986921
Si Si7 0.345301 0.217332 0.566334
O O1 0.250576 0.272647 0.870578
O O2 0.395704 0.281285 0.738412
O O3 0.307335 0.000000 0.853547
O O4 0.250000 0.250000 0.000000
O O5 0.700094 0.500000 0.866992
O O6 0.628217 0.826112 0.950272
O O7 0.777893 0.765073 0.709932
O O8 0.154566 0.674827 0.719755
O O9 0.087224 0.500000 0.900207
O O10 0.017506 0.500000 0.873613
O O11 0.015107 0.500000 0.404248
O O12 0.936229 0.780932 0.466921
O O13 0.000000 0.770846 0.500000
O O14 0.721598 0.500000 0.622209
O O15 0.750000 0.250000 0.500000
O O16 0.808857 0.229269 0.544813
O O17 0.349482 0.000000 0.561269
#
# Coordination Sequence:
#
# PCOD9202567 Si02
#       7
#     8   8   4   8   8   4   8
#     4  10  21  36  57  84 122 164 198 245 308 365
#     4  10  20  38  62  87 120 163 206 252 306 364
#     4  11  24  42  62  95 120 155 209 255 323 375
#     4   9  15  30  58  88 113 148 203 247 288 358
#     4  11  22  40  64  90 126 162 200 257 316 370
#     4  11  24  40  66  90 121 157 208 263 303 387
#     4   9  17  32  59  90 115 150 203 252 301 355
#
# _framework density 19.311983000000001
#
# number of rings (size 3 to 8) (size 9 to 14) (size 15 to 20)
#    0.000    2.000    4.167    0.000    1.167    0.667 
#    3.000    1.667    3.667    1.500    0.000    0.000 
#    0.000    0.000    0.000    0.000    0.000    0.000 
#
# Total GULP energy -133972.294574 kJ/mol
# GULP energy per Si atom -5582.178941 kJ/mol
# Density = 1.926803 g / cm^3
# Si number density = 19.311983 Si / 1000 Ang^3
#
#
#
# Elastic Constant Matrix: (Units=GPa)
#
#
# Indices 1 2 3 4 5 6 
#
# 1 203.7887 36.1776 96.3627 0.0016 -20.8189 -0.0005
# 2 36.1776 85.3759 23.3138 0.0115 -17.1575 -0.0140
# 3 96.3627 23.3138 108.0308 0.0175 -17.8057 -0.0131
# 4 0.0016 0.0115 0.0175 21.9291 -0.0051 1.2868
# 5 -20.8189 -17.1575 -17.8057 -0.0051 46.0271 0.0041
# 6 -0.0005 -0.0140 -0.0131 1.2868 0.0041 18.6650
#
#
#
# Elastic Compliance Matrix: (Units=1/GPa)
#
#
# Indices 1 2 3 4 5 6 
#
# 1 0.008715 -0.001584 -0.007348 0.000007 0.000509 -0.000007
# 2 -0.001584 0.013406 -0.000827 -0.000006 0.003961 0.000009
# 3 -0.007348 -0.000827 0.016439 -0.000012 0.002728 0.000011
# 4 0.000007 -0.000006 -0.000012 0.045787 0.000001 -0.003157
# 5 0.000509 0.003961 0.002728 0.000001 0.024488 -0.000001
# 6 -0.000007 0.000009 0.000011 -0.003157 -0.000001 0.053794
#
#
# Mechanical properties :
#
#
# Convention : Reuss Voigt Hill
#
# Bulk Modulus (GPa) = 52.51726 78.76707 65.64217
# Shear Modulus (GPa) = 26.52611 33.41365 29.96988
#
# Velocity S-wave (km/s) = 3.71017 4.16408 3.94366
# Velocity P-wave (km/s) = 6.75330 7.99966 7.40276
#
# Compressibility (1/GPa) = 0.01904136
#
# Stress axis : x y z
#
# Youngs Moduli (GPa) = 114.74954 74.59319 60.83175
#
# Poissons Ratio (x) = 0.11816 0.44697
# Poissons Ratio (y) = 0.18177 0.05033
# Poissons Ratio (z) = 0.84314 0.06171
#
# Static dielectric constant tensor:
#      x y z
#    x 1.674800 0.000000 -0.001620 
#    y 0.000000 1.709510 0.000000 
#    z -0.001620 0.000000 1.682030 
# 
# From -- ./inp_files/295385.got.cif
#   From: 2010.05.17/outbox.cif.g08.bks.cpg/sg12_148_cif.got.tgz:295385.got - 2010.06.03 13:09:07.
