data_PCOD9202220
_publ_section_title
;
Structure prediction by ZEFSAII (Michael W. Deem and Ramdas Pophale) SiO2 
 PCOD9202220
Probable space group: C 2/M
;
_chemical_formula_sum "Si O2"
_cell_formula_units_Z 64
_cell_length_a 14.624925
_cell_length_b 8.582601
_cell_length_c 22.727893
_cell_angle_alpha 90.000000
_cell_angle_beta 77.864889
_cell_angle_gamma 90.000000
_cell_volume 2789.055741
_symmetry_space_group_name_H-M "C 2/M"
_symmetry_group_IT_number 12
_symmetry_cell_setting 'monoclinic'
loop_
_space_group_symop_operation_xyz
x,y,z
-x,y,-z
-x,-y,-z
x,-y,z
1/2+x,1/2+y,z
1/2-x,1/2+y,-z
1/2-x,1/2-y,-z
1/2+x,1/2-y,z
loop_
_atom_site_type_symbol
_atom_site_label
_atom_site_fract_x
_atom_site_fract_y
_atom_site_fract_z
Si Si1 0.730466 0.675708 0.091215
Si Si2 0.698749 0.685379 0.449955
Si Si3 0.041017 0.316025 0.401950
Si Si4 0.480942 0.186678 0.223838
Si Si5 0.406936 0.821133 0.978013
Si Si6 0.685468 0.680927 0.808487
Si Si7 0.140325 0.817065 0.273656
Si Si8 0.869104 0.311052 0.356015
O O1 0.722013 0.500000 0.116963
O O2 0.635410 0.724212 0.070678
O O3 0.763984 0.794620 0.136202
O O4 0.817997 0.673940 0.034066
O O5 0.698739 0.500000 0.452643
O O6 0.750000 0.750000 0.500000
O O7 0.596020 0.743205 0.448513
O O8 0.765376 0.737461 0.386446
O O9 0.037649 0.500000 0.411123
O O10 0.097308 0.277041 0.334132
O O11 0.937295 0.259041 0.399871
O O12 0.417625 0.243231 0.178509
O O13 0.578358 0.269144 0.225106
O O14 0.417062 0.236507 0.288923
O O15 0.492844 0.000000 0.221532
O O16 0.426777 0.000000 0.956405
O O17 0.500000 0.764535 0.000000
O O18 0.679478 0.500000 0.794202
O O19 0.753857 0.771367 0.754528
O O20 0.132607 0.000000 0.287105
O O21 0.870142 0.500000 0.354704
#
# Coordination Sequence:
#
# PCOD9202220 Si02
#       8
#     8   8   8   8   8   8   8   8
#     4  10  21  37  57  84 116 149 190 239 288 338
#     4  11  22  37  55  80 110 144 184 230 283 339
#     4  10  20  38  60  82 107 143 187 231 280 339
#     4  10  20  38  61  86 114 149 192 237 287 344
#     4   9  19  38  62  84 110 148 191 234 285 344
#     4  12  24  38  57  84 120 159 196 239 286 335
#     4  11  22  38  59  86 117 151 190 233 285 347
#     4   8  18  36  58  78 105 144 182 220 273 337
#
# _framework density 22.946833999999999
#
# number of rings (size 3 to 8) (size 9 to 14) (size 15 to 20)
#    0.000    1.875    0.000    5.250    0.000    3.250 
#    0.000   13.125    0.000    0.000    0.000    0.000 
#    0.000    0.000    0.000    0.000    0.000    0.000 
#
# Total GULP energy -178874.536150 kJ/mol
# GULP energy per Si atom -5589.829255 kJ/mol
# Density = 2.289461 g / cm^3
# Si number density = 22.946834 Si / 1000 Ang^3
#
#
#
# Elastic Constant Matrix: (Units=GPa)
#
#
# Indices 1 2 3 4 5 6 
#
# 1 145.9438 21.7674 8.1049 0.0000 37.9215 0.0000
# 2 21.7674 62.9824 -5.3734 0.0000 9.5709 0.0000
# 3 8.1049 -5.3734 34.7226 0.0000 18.4374 0.0000
# 4 0.0000 0.0000 0.0000 26.8639 0.0000 9.6349
# 5 37.9215 9.5709 18.4374 0.0000 38.9755 0.0000
# 6 0.0000 0.0000 0.0000 9.6349 0.0000 30.0119
#
#
#
# Elastic Compliance Matrix: (Units=1/GPa)
#
#
# Indices 1 2 3 4 5 6 
#
# 1 0.009616 -0.001473 0.003076 0.000000 -0.010449 0.000000
# 2 -0.001473 0.017812 0.006226 0.000000 -0.005886 0.000000
# 3 0.003076 0.006226 0.041994 0.000000 -0.024387 0.000000
# 4 0.000000 0.000000 0.000000 0.042069 0.000000 -0.013506
# 5 -0.010449 -0.005886 -0.024387 0.000000 0.048805 0.000000
# 6 0.000000 0.000000 0.000000 -0.013506 0.000000 0.037656
#
#
# Mechanical properties :
#
#
# Convention : Reuss Voigt Hill
#
# Bulk Modulus (GPa) = 11.75369 32.51629 22.13499
# Shear Modulus (GPa) = 23.73547 33.78027 28.75787
#
# Velocity S-wave (km/s) = 3.21965 3.84097 3.54395
# Velocity P-wave (km/s) = 4.35371 5.81995 5.13939
#
# Compressibility (1/GPa) = 0.08507964
#
# Stress axis : x y z
#
# Youngs Moduli (GPa) = 103.99413 56.14155 23.81266
#
# Poissons Ratio (x) = 0.08270 -0.07325
# Poissons Ratio (y) = 0.15319 -0.14825
# Poissons Ratio (z) = -0.31988 -0.34952
#
# Static dielectric constant tensor:
#      x y z
#    x 1.862840 0.000000 0.009770 
#    y 0.000000 1.789490 0.000000 
#    z 0.009770 0.000000 1.945110 
# 
# From -- ./inp_files/338918.got.cif
#   From: 2010.05.17/outbox.cif.g08.bks.cpg/sg12_170_cif.got.tgz:338918.got - 2010.06.03 13:09:07.
