data_PCOD9202301
_publ_section_title
;
Structure prediction by ZEFSAII (Michael W. Deem and Ramdas Pophale) SiO2 
 PCOD9202301
Probable space group: C 2/M
;
_chemical_formula_sum "Si O2"
_cell_formula_units_Z 48
_cell_length_a 17.268667
_cell_length_b 11.544767
_cell_length_c 12.489102
_cell_angle_alpha 90.000000
_cell_angle_beta 59.632651
_cell_angle_gamma 90.000000
_cell_volume 2148.257285
_symmetry_space_group_name_H-M "C 2/M"
_symmetry_group_IT_number 12
_symmetry_cell_setting 'monoclinic'
loop_
_space_group_symop_operation_xyz
x,y,z
-x,y,-z
-x,-y,-z
x,-y,z
1/2+x,1/2+y,z
1/2-x,1/2+y,-z
1/2-x,1/2-y,-z
1/2+x,1/2-y,z
loop_
_atom_site_type_symbol
_atom_site_label
_atom_site_fract_x
_atom_site_fract_y
_atom_site_fract_z
Si Si1 0.553103 0.659016 0.357470
Si Si2 0.994511 0.165665 0.168658
Si Si3 0.237262 0.626281 0.797999
Si Si4 0.155747 0.872640 0.897127
Si Si5 0.292999 0.128233 0.433982
Si Si6 0.999064 0.372326 0.705518
O O1 0.500000 0.626094 0.500000
O O2 0.499463 0.624413 0.287608
O O3 0.654964 0.621866 0.279652
O O4 0.554050 0.798114 0.343991
O O5 0.904959 0.135076 0.168273
O O6 0.004395 0.303551 0.179826
O O7 0.080966 0.126258 0.042838
O O8 0.205999 0.500000 0.865117
O O9 0.208219 0.750239 0.868541
O O10 0.207697 0.629663 0.694580
O O11 0.201988 0.000000 0.866150
O O12 0.250000 0.250000 0.500000
O O13 0.396187 0.129469 0.399059
O O14 0.254550 0.000000 0.492672
O O15 0.965191 0.500000 0.739400
#
# Coordination Sequence:
#
# PCOD9202301 Si02
#       6
#     8   8   8   8   8   8
#     4  10  22  41  64  91 131 170 213 259 322 383
#     4   9  21  41  65  94 124 163 219 262 315 375
#     4  11  24  40  61  96 131 166 209 267 325 382
#     4  11  23  43  70  95 124 169 218 273 312 372
#     4  10  20  38  60  89 126 165 216 265 316 378
#     4   9  19  38  62  88 124 168 213 261 316 373
#
# _framework density 22.343692000000001
#
# number of rings (size 3 to 8) (size 9 to 14) (size 15 to 20)
#    1.000    1.000    1.667    2.000    0.000    4.667 
#    0.000    2.500    0.000    0.000    0.000    0.000 
#    0.000    0.000    0.000    0.000    0.000    0.000 
#
# Total GULP energy -133690.964410 kJ/mol
# GULP energy per Si atom -5570.456850 kJ/mol
# Density = 2.229284 g / cm^3
# Si number density = 22.343692 Si / 1000 Ang^3
#
#
#
# Elastic Constant Matrix: (Units=GPa)
#
#
# Indices 1 2 3 4 5 6 
#
# 1 44.8442 15.5452 14.1625 0.0000 -1.4528 0.0000
# 2 15.5452 261.8223 30.8302 0.0000 -18.3280 0.0000
# 3 14.1625 30.8302 62.8990 0.0000 12.7203 0.0000
# 4 0.0000 0.0000 0.0000 0.2347 0.0000 -28.9743
# 5 -1.4528 -18.3280 12.7203 0.0000 23.9682 0.0000
# 6 0.0000 0.0000 0.0000 -28.9743 0.0000 3.4128
#
#
#
# Elastic Compliance Matrix: (Units=1/GPa)
#
#
# Indices 1 2 3 4 5 6 
#
# 1 0.024556 -0.000410 -0.006235 0.000000 0.004484 0.000000
# 2 -0.000410 0.004583 -0.003202 0.000000 0.005179 0.000000
# 3 -0.006235 -0.003202 0.021781 0.000000 -0.014386 0.000000
# 4 0.000000 0.000000 0.000000 -0.004069 0.000000 -0.034546
# 5 0.004484 0.005179 -0.014386 0.000000 0.053589 0.000000
# 6 0.000000 0.000000 0.000000 -0.034546 0.000000 -0.000280
#
#
# Mechanical properties :
#
#
# Convention : Reuss Voigt Hill
#
# Bulk Modulus (GPa) = 32.02337 54.51568 43.26953
# Shear Modulus (GPa) = 38.38424 26.12498 32.25461
#
# Velocity S-wave (km/s) = 4.14925 3.42311 3.80355
# Velocity P-wave (km/s) = 6.10888 6.33050 6.22068
#
# Compressibility (1/GPa) = 0.03122719
#
# Stress axis : x y z
#
# Youngs Moduli (GPa) = 40.72344 218.18561 45.91176
#
# Poissons Ratio (x) = 0.08943 0.28626
# Poissons Ratio (y) = 0.01669 0.14699
# Poissons Ratio (z) = 0.25391 0.69854
#
# Static dielectric constant tensor:
#      x y z
#    x 1.809050 0.000000 0.005030 
#    y 0.000000 2.225230 0.000000 
#    z 0.005030 0.000000 1.808100 
# 
# From -- ./inp_files/164678.got.cif
#   From: 2010.05.17/outbox.cif.g08.bks.cpg/sg12_83_cif.got.tgz:164678.got - 2010.06.03 13:09:07.
