data_PCOD9202186
_publ_section_title
;
Structure prediction by ZEFSAII (Michael W. Deem and Ramdas Pophale) SiO2 
 PCOD9202186
Probable space group: C 2/M
;
_chemical_formula_sum "Si O2"
_cell_formula_units_Z 52
_cell_length_a 18.753134
_cell_length_b 13.999820
_cell_length_c 9.678992
_cell_angle_alpha 90.000000
_cell_angle_beta 92.383887
_cell_angle_gamma 90.000000
_cell_volume 2538.928228
_symmetry_space_group_name_H-M "C 2/M"
_symmetry_group_IT_number 12
_symmetry_cell_setting 'monoclinic'
loop_
_space_group_symop_operation_xyz
x,y,z
-x,y,-z
-x,-y,-z
x,-y,z
1/2+x,1/2+y,z
1/2-x,1/2+y,-z
1/2-x,1/2-y,-z
1/2+x,1/2-y,z
loop_
_atom_site_type_symbol
_atom_site_label
_atom_site_fract_x
_atom_site_fract_y
_atom_site_fract_z
Si Si1 0.772839 0.888450 0.480586
Si Si2 0.666121 0.202699 0.911149
Si Si3 0.896374 0.815282 0.679550
Si Si4 0.585643 0.391661 0.022032
Si Si5 0.370021 0.114063 0.371624
Si Si6 0.208779 0.320672 0.197590
Si Si7 0.000000 0.267960 0.500000
O O1 0.844730 0.846865 0.551058
O O2 0.704812 0.853342 0.564381
O O3 0.755248 0.872283 0.317903
O O4 0.777278 0.000000 0.504565
O O5 0.627425 0.145871 0.787379
O O6 0.741668 0.233687 0.850910
O O7 0.625416 0.301724 0.951242
O O8 0.682417 0.139280 0.048452
O O9 0.896881 0.882871 0.813058
O O10 0.861713 0.717813 0.733847
O O11 0.974087 0.797024 0.624671
O O12 0.605069 0.500000 0.975821
O O13 0.500000 0.380523 0.000000
O O14 0.434200 0.166170 0.453064
O O15 0.374643 0.000000 0.385423
#
# Coordination Sequence:
#
# PCOD9202186 Si02
#       7
#     8   8   8   8   8   8   4
#     4  11  22  38  62  91 127 163 208 270 320 371
#     4  10  21  38  64  89 121 170 209 259 317 381
#     4  11  21  39  63  91 123 167 216 260 321 378
#     4  10  22  40  61  89 130 170 208 259 321 386
#     4  11  23  40  63  94 128 167 215 262 317 379
#     4  10  20  38  59  89 122 157 211 256 315 375
#     4  12  23  38  67  90 124 178 215 258 317 388
#
# _framework density 20.481083000000002
#
# number of rings (size 3 to 8) (size 9 to 14) (size 15 to 20)
#    0.000    1.385    3.077    3.000    0.000    1.231 
#    0.000    3.077    0.000    4.154    0.000    0.000 
#    0.000    0.000    0.000    0.000    0.000    0.000 
#
# Total GULP energy -145028.058781 kJ/mol
# GULP energy per Si atom -5578.002261 kJ/mol
# Density = 2.043447 g / cm^3
# Si number density = 20.481083 Si / 1000 Ang^3
#
#
#
# Elastic Constant Matrix: (Units=GPa)
#
#
# Indices 1 2 3 4 5 6 
#
# 1 73.2048 17.8342 15.9733 0.0000 -4.5382 0.0000
# 2 17.8342 45.1174 21.1286 0.0000 1.6131 0.0000
# 3 15.9733 21.1286 112.1688 0.0000 7.7530 0.0000
# 4 0.0000 0.0000 0.0000 20.4419 0.0000 -5.2963
# 5 -4.5382 1.6131 7.7530 0.0000 38.3621 0.0000
# 6 0.0000 0.0000 0.0000 -5.2963 0.0000 18.8846
#
#
#
# Elastic Compliance Matrix: (Units=1/GPa)
#
#
# Indices 1 2 3 4 5 6 
#
# 1 0.015449 -0.005576 -0.001310 0.000000 0.002327 0.000000
# 2 -0.005576 0.026322 -0.004099 0.000000 -0.000938 0.000000
# 3 -0.001310 -0.004099 0.010013 0.000000 -0.002006 0.000000
# 4 0.000000 0.000000 0.000000 0.052752 0.000000 0.014795
# 5 0.002327 -0.000938 -0.002006 0.000000 0.026788 0.000000
# 6 0.000000 0.000000 0.000000 0.014795 0.000000 0.057102
#
#
# Mechanical properties :
#
#
# Convention : Reuss Voigt Hill
#
# Bulk Modulus (GPa) = 33.54403 37.81813 35.68108
# Shear Modulus (GPa) = 22.69276 27.24138 24.96707
#
# Velocity S-wave (km/s) = 3.33225 3.65098 3.49525
# Velocity P-wave (km/s) = 5.58738 6.02311 5.80933
#
# Compressibility (1/GPa) = 0.02981157
#
# Stress axis : x y z
#
# Youngs Moduli (GPa) = 64.72921 37.99136 99.87460
#
# Poissons Ratio (x) = 0.21185 0.13088
# Poissons Ratio (y) = 0.36094 0.40940
# Poissons Ratio (z) = 0.08483 0.15573
#
# Static dielectric constant tensor:
#      x y z
#    x 1.726090 0.000000 0.016300 
#    y 0.000000 1.722360 0.000000 
#    z 0.016300 0.000000 1.786170 
# 
# From -- ./inp_files/85862.got.cif
#   From: 2010.05.17/outbox.cif.g08.bks.cpg/sg12_43_cif.got.tgz:85862.got - 2010.06.03 13:09:07.
