data_PCOD9202758
_publ_section_title
;
Structure prediction by ZEFSAII (Michael W. Deem and Ramdas Pophale) SiO2 
 PCOD9202758
Probable space group: C 2/M
;
_chemical_formula_sum "Si O2"
_cell_formula_units_Z 58
_cell_length_a 28.097493
_cell_length_b 7.659166
_cell_length_c 25.298750
_cell_angle_alpha 90.000000
_cell_angle_beta 149.662288
_cell_angle_gamma 90.000000
_cell_volume 2749.931493
_symmetry_space_group_name_H-M "C 2/M"
_symmetry_group_IT_number 12
_symmetry_cell_setting 'monoclinic'
loop_
_space_group_symop_operation_xyz
x,y,z
-x,y,-z
-x,-y,-z
x,-y,z
1/2+x,1/2+y,z
1/2-x,1/2+y,-z
1/2-x,1/2-y,-z
1/2+x,1/2-y,z
loop_
_atom_site_type_symbol
_atom_site_label
_atom_site_fract_x
_atom_site_fract_y
_atom_site_fract_z
Si Si1 0.814968 0.306478 0.610644
Si Si2 0.547035 0.710870 0.726672
Si Si3 0.926114 0.793140 0.014744
Si Si4 0.791609 0.212538 0.200534
Si Si5 0.500000 0.000000 0.000000
Si Si6 0.108313 0.789147 0.595060
Si Si7 0.348320 0.196322 0.480759
Si Si8 0.519880 0.303151 0.817164
O O1 0.852028 0.500000 0.636996
O O2 0.750000 0.250000 0.500000
O O3 0.742314 0.305045 0.589155
O O4 0.906644 0.191383 0.705116
O O5 0.550043 0.500000 0.731610
O O6 0.632881 0.768956 0.771576
O O7 0.446205 0.753400 0.603148
O O8 0.552172 0.776803 0.792030
O O9 0.812675 0.784795 0.905119
O O10 0.966279 0.656616 0.010237
O O11 0.955068 0.000000 0.035265
O O12 0.955584 0.729698 0.101961
O O13 0.832340 0.261765 0.296963
O O14 0.787206 0.000000 0.194534
O O15 0.139948 0.710368 0.570366
O O16 0.000000 0.741295 0.500000
O O17 0.112866 0.000000 0.594379
O O18 0.326264 0.000000 0.476007
O O19 0.558916 0.500000 0.855628
#
# Coordination Sequence:
#
# PCOD9202758 Si02
#       8
#     8   8   8   8   2   8   8   8
#     4  12  24  39  63  92 131 175 222 278 337 403
#     4  10  20  39  68  96 136 179 219 272 338 403
#     4  11  26  48  76 105 137 178 229 287 344 402
#     4  10  21  41  69 100 135 178 226 280 339 411
#     4  12  26  52  80  98 138 180 234 286 344 412
#     4  10  20  38  63  90 127 175 224 271 329 397
#     4  12  24  37  57  92 131 176 222 271 335 400
#     4  10  23  43  68 100 135 175 225 283 339 407
#
# _framework density 21.091435000000001
#
# number of rings (size 3 to 8) (size 9 to 14) (size 15 to 20)
#    0.000    1.241    3.448    2.690    0.966    3.034 
#    0.000    0.000    0.000    0.000    0.000    0.000 
#    0.000    0.000    0.000    0.000    0.000    0.000 
#
# Total GULP energy -161698.466783 kJ/mol
# GULP energy per Si atom -5575.809199 kJ/mol
# Density = 2.104343 g / cm^3
# Si number density = 21.091435 Si / 1000 Ang^3
#
#
#
# Elastic Constant Matrix: (Units=GPa)
#
#
# Indices 1 2 3 4 5 6 
#
# 1 168.3923 29.4866 52.1317 0.0000 -29.1788 0.0000
# 2 29.4866 89.6034 8.2807 0.0000 -8.2440 -0.0001
# 3 52.1317 8.2807 109.8788 0.0000 -25.1815 0.0000
# 4 0.0000 0.0000 0.0000 10.9611 0.0000 13.7115
# 5 -29.1788 -8.2440 -25.1815 0.0000 19.7614 0.0000
# 6 0.0000 -0.0001 0.0000 13.7115 0.0000 12.9939
#
#
#
# Elastic Compliance Matrix: (Units=1/GPa)
#
#
# Indices 1 2 3 4 5 6 
#
# 1 0.008419 -0.001735 -0.001668 0.000000 0.009582 0.000000
# 2 -0.001735 0.011972 0.000676 0.000000 0.003294 0.000000
# 3 -0.001668 0.000676 0.013195 0.000000 0.014633 0.000000
# 4 0.000000 0.000000 0.000000 -0.285086 0.000000 0.300831
# 5 0.009582 0.003294 0.014633 0.000000 0.084774 0.000000
# 6 0.000000 0.000000 0.000000 0.300831 0.000000 -0.240486
#
#
# Mechanical properties :
#
#
# Convention : Reuss Voigt Hill
#
# Bulk Modulus (GPa) = 35.54626 60.85251 48.19938
# Shear Modulus (GPa) = -12.74268 27.27498 7.26615
#
# Velocity S-wave (km/s) = -2.46064 3.59998 1.85810
# Velocity P-wave (km/s) = 2.96934 6.79663 5.24458
#
# Compressibility (1/GPa) = 0.02813235
#
# Stress axis : x y z
#
# Youngs Moduli (GPa) = 118.77938 83.52976 75.78739
#
# Poissons Ratio (x) = 0.14490 0.12638
# Poissons Ratio (y) = 0.20605 -0.05121
# Poissons Ratio (z) = 0.19807 -0.05644
#
# Static dielectric constant tensor:
#      x y z
#    x 1.619240 0.000000 0.041630 
#    y 0.000000 1.744440 0.000000 
#    z 0.041630 0.000000 1.698580 
# 
# From -- ./inp_files/351476.got.cif
#   From: 2010.05.17/outbox.cif.g08.bks.cpg/sg12_176_cif.got.tgz:351476.got - 2010.06.03 13:09:07.
