data_PCOD9202962
_publ_section_title
;
Structure prediction by ZEFSAII (Michael W. Deem and Ramdas Pophale) SiO2 
 PCOD9202962
Probable space group: C 2/M
;
_chemical_formula_sum "Si O2"
_cell_formula_units_Z 40
_cell_length_a 30.968108
_cell_length_b 14.567742
_cell_length_c 12.662670
_cell_angle_alpha 90.000000
_cell_angle_beta 163.104678
_cell_angle_gamma 90.000000
_cell_volume 1660.212911
_symmetry_space_group_name_H-M "C 2/M"
_symmetry_group_IT_number 12
_symmetry_cell_setting 'monoclinic'
loop_
_space_group_symop_operation_xyz
x,y,z
-x,y,-z
-x,-y,-z
x,-y,z
1/2+x,1/2+y,z
1/2-x,1/2+y,-z
1/2-x,1/2-y,-z
1/2+x,1/2-y,z
loop_
_atom_site_type_symbol
_atom_site_label
_atom_site_fract_x
_atom_site_fract_y
_atom_site_fract_z
Si Si1 0.005446 0.843006 0.401268
Si Si2 0.714510 0.607170 0.539922
Si Si3 0.932788 0.393790 0.671834
Si Si4 0.266249 0.723553 0.204263
Si Si5 0.313128 0.606996 0.747395
O O1 0.000000 0.894900 0.500000
O O2 0.173098 0.828789 0.755579
O O3 0.903977 0.753345 0.188516
O O4 0.922207 0.879009 0.101377
O O5 0.672244 0.500000 0.461664
O O6 0.696951 0.665574 0.604443
O O7 0.644216 0.647474 0.266745
O O8 0.890599 0.609930 0.923240
O O9 0.890204 0.500000 0.549015
O O10 0.860715 0.317839 0.428172
O O11 0.849606 0.370270 0.587402
O O12 0.308526 0.500000 0.712229
#
# Coordination Sequence:
#
# PCOD9202962 Si02
#       5
#     8   8   8   8   8
#     4  11  24  41  61  87 125 171 216 258 310 372
#     4  10  20  38  64  97 132 164 203 260 324 383
#     4   9  18  36  62  91 129 169 205 251 314 386
#     4  11  22  41  65  95 125 165 213 264 317 376
#     4   9  20  38  62  92 126 166 211 259 315 380
#
# _framework density 24.093295999999999
#
# number of rings (size 3 to 8) (size 9 to 14) (size 15 to 20)
#    0.000    2.000    2.000    1.200    0.000    7.600 
#    7.200    2.000    0.000    4.800    0.000    0.000 
#    0.000    0.000    0.000    0.000    0.000    0.000 
#
# Total GULP energy -111621.192259 kJ/mol
# GULP energy per Si atom -5581.059613 kJ/mol
# Density = 2.403846 g / cm^3
# Si number density = 24.093296 Si / 1000 Ang^3
#
#
#
# Elastic Constant Matrix: (Units=GPa)
#
#
# Indices 1 2 3 4 5 6 
#
# 1 162.3950 35.1136 32.1623 0.0000 -2.5963 0.0000
# 2 35.1136 72.6699 9.2296 0.0000 -11.0135 0.0000
# 3 32.1623 9.2296 75.6908 0.0001 -9.7263 -0.0003
# 4 0.0000 0.0000 0.0001 -1.6144 0.0000 23.2945
# 5 -2.5963 -11.0135 -9.7263 0.0000 49.5967 0.0000
# 6 0.0000 0.0000 -0.0003 23.2945 0.0000 -157.9176
#
#
#
# Elastic Compliance Matrix: (Units=1/GPa)
#
#
# Indices 1 2 3 4 5 6 
#
# 1 0.007440 -0.003370 -0.002869 0.000000 -0.000922 0.000000
# 2 -0.003370 0.015905 -0.000078 0.000000 0.003340 0.000000
# 3 -0.002869 -0.000078 0.014791 -0.000001 0.002733 0.000000
# 4 0.000000 0.000000 -0.000001 0.548906 0.000000 0.080970
# 5 -0.000922 0.003340 0.002733 0.000000 0.021392 0.000000
# 6 0.000000 0.000000 0.000000 0.080970 0.000000 0.005611
#
#
# Mechanical properties :
#
#
# Convention : Reuss Voigt Hill
#
# Bulk Modulus (GPa) = 39.21207 51.52964 45.37086
# Shear Modulus (GPa) = 7.87176 -6.37039 0.75068
#
# Velocity S-wave (km/s) = 1.80950 -1.62782 0.55879
# Velocity P-wave (km/s) = 4.54710 4.23095 4.39187
#
# Compressibility (1/GPa) = 0.02550235
#
# Stress axis : x y z
#
# Youngs Moduli (GPa) = 134.40880 62.87138 67.60674
#
# Poissons Ratio (x) = 0.21189 0.19395
# Poissons Ratio (y) = 0.45299 0.00529
# Poissons Ratio (z) = 0.38560 0.00492
#
# Static dielectric constant tensor:
#      x y z
#    x 1.953160 0.000000 -0.035520 
#    y 0.000000 1.908040 0.000000 
#    z -0.035520 0.000000 2.024010 
# 
# From -- ./inp_files/189971.got.cif
#   From: 2010.05.17/outbox.cif.g08.bks.cpg/sg12_95_cif.got.tgz:189971.got - 2010.06.03 13:09:07.
