data_PCOD9202516
_publ_section_title
;
Structure prediction by ZEFSAII (Michael W. Deem and Ramdas Pophale) SiO2 
 PCOD9202516
Probable space group: C 2/M
;
_chemical_formula_sum "Si O2"
_cell_formula_units_Z 64
_cell_length_a 14.764635
_cell_length_b 8.543900
_cell_length_c 26.526786
_cell_angle_alpha 90.000000
_cell_angle_beta 78.984402
_cell_angle_gamma 90.000000
_cell_volume 3284.634753
_symmetry_space_group_name_H-M "C 2/M"
_symmetry_group_IT_number 12
_symmetry_cell_setting 'monoclinic'
loop_
_space_group_symop_operation_xyz
x,y,z
-x,y,-z
-x,-y,-z
x,-y,z
1/2+x,1/2+y,z
1/2-x,1/2+y,-z
1/2-x,1/2-y,-z
1/2+x,1/2-y,z
loop_
_atom_site_type_symbol
_atom_site_label
_atom_site_fract_x
_atom_site_fract_y
_atom_site_fract_z
Si Si1 0.917486 0.311408 0.214785
Si Si2 0.909317 0.187089 0.860932
Si Si3 0.815999 0.690361 0.325822
Si Si4 0.654619 0.685756 0.488198
Si Si5 0.430400 0.815182 0.407440
Si Si6 0.969620 0.312194 0.059970
Si Si7 0.379519 0.689272 0.623544
Si Si8 0.702889 0.687168 0.864929
O O1 0.923339 0.500000 0.213265
O O2 0.879218 0.258116 0.272996
O O3 0.843206 0.257695 0.180773
O O4 0.016813 0.242779 0.189030
O O5 0.806627 0.252940 0.863204
O O6 0.955803 0.247933 0.907893
O O7 0.905791 0.000000 0.861971
O O8 0.819211 0.500000 0.326088
O O9 0.853441 0.741340 0.376264
O O10 0.708927 0.733698 0.334058
O O11 0.659753 0.500000 0.485955
O O12 0.750000 0.750000 0.500000
O O13 0.579061 0.735150 0.537347
O O14 0.638625 0.737840 0.432706
O O15 0.526952 0.773288 0.371747
O O16 0.420090 0.000000 0.415945
O O17 0.964513 0.500000 0.066327
O O18 0.869872 0.241119 0.084467
O O19 0.000000 0.275308 0.000000
O O20 0.390490 0.500000 0.623761
O O21 0.702996 0.500000 0.861720
#
# Coordination Sequence:
#
# PCOD9202516 Si02
#       8
#     8   8   8   8   8   8   8   8
#     4  10  20  38  62  85 113 148 190 240 294 344
#     4  11  22  38  60  86 118 156 199 241 287 341
#     4   9  20  39  59  80 113 149 179 227 288 339
#     4  11  21  36  59  81 109 145 182 224 275 334
#     4  11  22  38  57  83 113 143 183 226 273 335
#     4  10  21  38  60  89 124 158 195 240 289 340
#     4  10  21  39  57  79 111 146 181 222 277 336
#     4  11  22  38  60  86 118 155 198 242 288 340
#
# _framework density 19.484662
#
# number of rings (size 3 to 8) (size 9 to 14) (size 15 to 20)
#    0.000    1.625    1.250    5.625    0.000    5.000 
#    0.000    6.250    0.000    0.000    0.000    0.000 
#    0.000    0.000    0.000    0.000    0.000    0.000 
#
# Total GULP energy -178737.291110 kJ/mol
# GULP energy per Si atom -5585.540347 kJ/mol
# Density = 1.944031 g / cm^3
# Si number density = 19.484662 Si / 1000 Ang^3
#
#
#
# Elastic Constant Matrix: (Units=GPa)
#
#
# Indices 1 2 3 4 5 6 
#
# 1 114.2507 16.2193 20.7664 0.0000 -24.4604 0.0000
# 2 16.2193 60.5916 15.2068 0.0000 -4.9654 0.0000
# 3 20.7664 15.2068 91.5137 0.0000 -19.9600 0.0000
# 4 0.0000 0.0000 0.0000 22.2507 0.0000 -6.4264
# 5 -24.4604 -4.9654 -19.9600 0.0000 17.5499 0.0000
# 6 0.0000 0.0000 0.0000 -6.4264 0.0000 33.9223
#
#
#
# Elastic Compliance Matrix: (Units=1/GPa)
#
#
# Indices 1 2 3 4 5 6 
#
# 1 0.012885 -0.002289 0.001639 0.000000 0.019175 0.000000
# 2 -0.002289 0.017690 -0.002692 0.000000 -0.001247 0.000000
# 3 0.001639 -0.002692 0.015074 0.000000 0.018666 0.000000
# 4 0.000000 0.000000 0.000000 0.047544 0.000000 0.009007
# 5 0.019175 -0.001247 0.018666 0.000000 0.104582 0.000000
# 6 0.000000 0.000000 0.000000 0.009007 0.000000 0.031185
#
#
# Mechanical properties :
#
#
# Convention : Reuss Voigt Hill
#
# Bulk Modulus (GPa) = 25.66458 41.19345 33.42901
# Shear Modulus (GPa) = 20.10989 29.02214 24.56601
#
# Velocity S-wave (km/s) = 3.21610 3.86357 3.55461
# Velocity P-wave (km/s) = 5.19532 6.41017 5.83445
#
# Compressibility (1/GPa) = 0.03896421
#
# Stress axis : x y z
#
# Youngs Moduli (GPa) = 77.60984 56.52878 66.33868
#
# Poissons Ratio (x) = 0.12939 -0.10871
# Poissons Ratio (y) = 0.17765 0.17859
# Poissons Ratio (z) = -0.12718 0.15218
#
# Static dielectric constant tensor:
#      x y z
#    x 1.694970 0.000000 -0.015150 
#    y 0.000000 1.657620 0.000000 
#    z -0.015150 0.000000 1.708350 
# 
# From -- ./inp_files/359685.got.cif
#   From: 2010.05.17/outbox.cif.g08.bks.cpg/sg12_180_cif.got.tgz:359685.got - 2010.06.03 13:09:07.
