data_PCOD9202647
_publ_section_title
;
Structure prediction by ZEFSAII (Michael W. Deem and Ramdas Pophale) SiO2 
 PCOD9202647
Probable space group: C 2/M
;
_chemical_formula_sum "Si O2"
_cell_formula_units_Z 58
_cell_length_a 20.968725
_cell_length_b 7.793529
_cell_length_c 18.081331
_cell_angle_alpha 90.000000
_cell_angle_beta 76.582512
_cell_angle_gamma 90.000000
_cell_volume 2874.205185
_symmetry_space_group_name_H-M "C 2/M"
_symmetry_group_IT_number 12
_symmetry_cell_setting 'monoclinic'
loop_
_space_group_symop_operation_xyz
x,y,z
-x,y,-z
-x,-y,-z
x,-y,z
1/2+x,1/2+y,z
1/2-x,1/2+y,-z
1/2-x,1/2-y,-z
1/2+x,1/2-y,z
loop_
_atom_site_type_symbol
_atom_site_label
_atom_site_fract_x
_atom_site_fract_y
_atom_site_fract_z
Si Si1 0.321967 0.203313 0.951508
Si Si2 0.847545 0.291595 0.201587
Si Si3 0.332057 0.701497 0.624174
Si Si4 0.572345 0.210415 0.959153
Si Si5 0.000000 0.000000 0.500000
Si Si6 0.917607 0.311095 0.467912
Si Si7 0.684465 0.699818 0.627655
Si Si8 0.200598 0.204951 0.206448
O O1 0.376135 0.272555 0.993276
O O2 0.330084 0.254087 0.864021
O O3 0.326845 0.000000 0.953311
O O4 0.250000 0.250000 0.000000
O O5 0.847839 0.500000 0.206784
O O6 0.850096 0.219582 0.283256
O O7 0.776583 0.237980 0.187810
O O8 0.902696 0.238116 0.128680
O O9 0.352009 0.500000 0.615642
O O10 0.379484 0.798763 0.556333
O O11 0.256573 0.717167 0.617542
O O12 0.332675 0.766391 0.708647
O O13 0.573057 0.000000 0.959121
O O14 0.500000 0.266347 0.000000
O O15 0.967572 0.153019 0.456120
O O16 0.946987 0.500000 0.449687
O O17 0.861293 0.282703 0.421667
O O18 0.694140 0.500000 0.607182
O O19 0.202214 0.000000 0.213432
#
# Coordination Sequence:
#
# PCOD9202647 Si02
#       8
#     8   8   8   8   2   8   8   8
#     4  11  20  32  54  81 111 148 200 249 302 371
#     4   9  17  33  55  82 115 153 197 242 308 377
#     4  10  20  38  62  93 131 160 198 260 325 374
#     4   9  18  34  55  78 110 152 199 253 306 362
#     4  12  26  48  64  90 128 172 224 250 298 370
#     4  12  24  43  68  94 125 169 216 257 308 373
#     4  11  21  36  60  95 129 156 204 262 320 377
#     4   9  18  33  55  85 119 154 189 244 312 366
#
# _framework density 20.179492
#
# number of rings (size 3 to 8) (size 9 to 14) (size 15 to 20)
#    0.000    1.793    2.759    3.517    0.000    2.759 
#    0.000    1.379    0.000    6.207    0.000    0.000 
#    0.000    0.000    0.000    0.000    0.000    0.000 
#
# Total GULP energy -161700.166422 kJ/mol
# GULP energy per Si atom -5575.867808 kJ/mol
# Density = 2.013356 g / cm^3
# Si number density = 20.179492 Si / 1000 Ang^3
#
#
#
# Elastic Constant Matrix: (Units=GPa)
#
#
# Indices 1 2 3 4 5 6 
#
# 1 58.9239 2.7317 28.2940 0.0000 9.1278 0.0000
# 2 2.7317 81.0192 11.0075 0.0000 4.1618 0.0000
# 3 28.2940 11.0075 90.8052 0.0000 3.5270 0.0000
# 4 0.0000 0.0000 0.0000 26.2162 0.0000 5.6355
# 5 9.1278 4.1618 3.5270 0.0000 22.7368 0.0000
# 6 0.0000 0.0000 0.0000 5.6355 0.0000 20.5393
#
#
#
# Elastic Compliance Matrix: (Units=1/GPa)
#
#
# Indices 1 2 3 4 5 6 
#
# 1 0.021185 0.000543 -0.006371 0.000000 -0.007616 0.000000
# 2 0.000543 0.012661 -0.001615 0.000000 -0.002285 0.000000
# 3 -0.006371 -0.001615 0.013162 0.000000 0.000812 0.000000
# 4 0.000000 0.000000 0.000000 0.040535 0.000000 -0.011122
# 5 -0.007616 -0.002285 0.000812 0.000000 0.047331 0.000000
# 6 0.000000 0.000000 0.000000 -0.011122 0.000000 0.051739
#
#
# Mechanical properties :
#
#
# Convention : Reuss Voigt Hill
#
# Bulk Modulus (GPa) = 31.13230 34.97941 33.05585
# Shear Modulus (GPa) = 23.56185 26.47945 25.02065
#
# Velocity S-wave (km/s) = 3.42074 3.62635 3.52505
# Velocity P-wave (km/s) = 5.57343 5.90810 5.74321
#
# Compressibility (1/GPa) = 0.03212098
#
# Stress axis : x y z
#
# Youngs Moduli (GPa) = 47.20363 78.98106 75.97649
#
# Poissons Ratio (x) = -0.04285 0.48404
# Poissons Ratio (y) = -0.02561 0.12271
# Poissons Ratio (z) = 0.30073 0.12756
#
# Static dielectric constant tensor:
#      x y z
#    x 1.715800 0.000000 -0.005880 
#    y 0.000000 1.728860 0.000000 
#    z -0.005880 0.000000 1.710900 
# 
# From -- ./inp_files/281076.got.cif
#   From: 2010.05.17/outbox.cif.g08.bks.cpg/sg12_141_cif.got.tgz:281076.got - 2010.06.03 13:09:07.
