data_PCOD9202811
_publ_section_title
;
Structure prediction by ZEFSAII (Michael W. Deem and Ramdas Pophale) SiO2 
 PCOD9202811
Probable space group: C 2/M
;
_chemical_formula_sum "Si O2"
_cell_formula_units_Z 40
_cell_length_a 14.704081
_cell_length_b 25.890992
_cell_length_c 11.881547
_cell_angle_alpha 90.000000
_cell_angle_beta 151.749271
_cell_angle_gamma 90.000000
_cell_volume 2141.038128
_symmetry_space_group_name_H-M "C 2/M"
_symmetry_group_IT_number 12
_symmetry_cell_setting 'monoclinic'
loop_
_space_group_symop_operation_xyz
x,y,z
-x,y,-z
-x,-y,-z
x,-y,z
1/2+x,1/2+y,z
1/2-x,1/2+y,-z
1/2-x,1/2-y,-z
1/2+x,1/2-y,z
loop_
_atom_site_type_symbol
_atom_site_label
_atom_site_fract_x
_atom_site_fract_y
_atom_site_fract_z
Si Si1 0.164933 0.631532 0.929993
Si Si2 0.242389 0.151520 0.542060
Si Si3 0.522665 0.440896 0.659366
Si Si4 0.580172 0.318706 0.973484
Si Si5 0.273696 0.710866 0.245255
O O1 0.243675 0.671368 0.110190
O O2 0.264848 0.577698 0.072511
O O3 0.253169 0.649923 0.908165
O O4 0.937077 0.635701 0.691643
O O5 0.286899 0.183450 0.704237
O O6 0.124199 0.100237 0.447425
O O7 0.099392 0.184389 0.307714
O O8 0.500000 0.436724 0.500000
O O9 0.486049 0.500000 0.651981
O O10 0.500000 0.343947 0.000000
O O11 0.663051 0.263113 0.096654
O O12 0.500000 0.721989 0.500000
#
# Coordination Sequence:
#
# PCOD9202811 Si02
#       5
#     8   8   8   8   8
#     4  11  22  40  60  86 121 161 198 244 297 356
#     4  11  23  41  60  87 125 161 197 248 300 351
#     4  10  20  38  63  94 125 151 190 246 306 364
#     4  11  26  39  56  86 120 165 209 248 284 349
#     4  12  22  38  59  85 124 162 201 242 297 352
#
# _framework density 18.682524999999998
#
# number of rings (size 3 to 8) (size 9 to 14) (size 15 to 20)
#    0.000    1.000    6.000    2.400    2.800    2.400 
#    0.000    2.000    0.000    9.600    0.000   11.200 
#    0.000    0.000    0.000    0.000    0.000    0.000 
#
# Total GULP energy -111777.847089 kJ/mol
# GULP energy per Si atom -5588.892354 kJ/mol
# Density = 1.864000 g / cm^3
# Si number density = 18.682525 Si / 1000 Ang^3
#
#
#
# Elastic Constant Matrix: (Units=GPa)
#
#
# Indices 1 2 3 4 5 6 
#
# 1 127.7165 26.2358 33.3409 -0.0001 13.6109 0.0000
# 2 26.2358 86.9405 36.3394 -0.0001 13.0502 0.0000
# 3 33.3409 36.3394 82.6179 -0.0001 32.3009 0.0001
# 4 -0.0001 -0.0001 -0.0001 35.9587 0.0000 -1.6381
# 5 13.6109 13.0502 32.3009 0.0000 28.7982 0.0000
# 6 0.0000 0.0000 0.0001 -1.6381 0.0000 11.5614
#
#
#
# Elastic Compliance Matrix: (Units=1/GPa)
#
#
# Indices 1 2 3 4 5 6 
#
# 1 0.008902 -0.001458 -0.002786 0.000000 -0.000421 0.000000
# 2 -0.001458 0.014349 -0.006144 0.000000 0.001079 0.000000
# 3 -0.002786 -0.006144 0.025517 0.000000 -0.024520 0.000000
# 4 0.000000 0.000000 0.000000 0.027990 0.000000 0.003966
# 5 -0.000421 0.001079 -0.024520 0.000000 0.061936 0.000000
# 6 0.000000 0.000000 0.000000 0.003966 0.000000 0.087057
#
#
# Mechanical properties :
#
#
# Convention : Reuss Voigt Hill
#
# Bulk Modulus (GPa) = 35.72770 54.34524 45.03647
# Shear Modulus (GPa) = 19.54205 28.68760 24.11483
#
# Velocity S-wave (km/s) = 3.23771 3.92284 3.59663
# Velocity P-wave (km/s) = 5.75692 7.04771 6.43476
#
# Compressibility (1/GPa) = 0.02798949
#
# Stress axis : x y z
#
# Youngs Moduli (GPa) = 112.33862 69.69350 39.18921
#
# Poissons Ratio (x) = 0.10165 0.10918
# Poissons Ratio (y) = 0.16384 0.24080
# Poissons Ratio (z) = 0.31299 0.42823
#
# Static dielectric constant tensor:
#      x y z
#    x 1.676990 0.000000 0.016890 
#    y 0.000000 1.627060 0.000000 
#    z 0.016890 0.000000 1.669310 
# 
# From -- ./inp_files/148981.got.cif
#   From: 2010.05.17/outbox.cif.g08.bks.cpg/sg12_75_cif.got.tgz:148981.got - 2010.06.03 13:09:07.
