data_PCOD9202415
_publ_section_title
;
Structure prediction by ZEFSAII (Michael W. Deem and Ramdas Pophale) SiO2 
 PCOD9202415
Probable space group: C 2/M
;
_chemical_formula_sum "Si O2"
_cell_formula_units_Z 58
_cell_length_a 33.122852
_cell_length_b 10.536071
_cell_length_c 9.434791
_cell_angle_alpha 90.000000
_cell_angle_beta 74.570024
_cell_angle_gamma 90.000000
_cell_volume 3173.920616
_symmetry_space_group_name_H-M "C 2/M"
_symmetry_group_IT_number 12
_symmetry_cell_setting 'monoclinic'
loop_
_space_group_symop_operation_xyz
x,y,z
-x,y,-z
-x,-y,-z
x,-y,z
1/2+x,1/2+y,z
1/2-x,1/2+y,-z
1/2-x,1/2-y,-z
1/2+x,1/2-y,z
loop_
_atom_site_type_symbol
_atom_site_label
_atom_site_fract_x
_atom_site_fract_y
_atom_site_fract_z
Si Si1 0.175748 0.352130 0.088386
Si Si2 0.200253 0.145551 0.291963
Si Si3 0.346558 0.643240 0.380434
Si Si4 0.205186 0.355346 0.737646
Si Si5 0.499285 0.153039 0.663917
Si Si6 0.082084 0.348219 0.084460
Si Si7 0.937254 0.788262 0.190406
Si Si8 0.000000 0.000000 0.000000
O O1 0.178985 0.500000 0.132570
O O2 0.195419 0.251943 0.177450
O O3 0.126858 0.318598 0.111362
O O4 0.196436 0.344421 0.913911
O O5 0.164462 0.159320 0.443860
O O6 0.245095 0.160353 0.327172
O O7 0.199197 0.000000 0.236610
O O8 0.332857 0.500000 0.353403
O O9 0.321301 0.750371 0.318976
O O10 0.395475 0.656504 0.300490
O O11 0.193374 0.500000 0.706643
O O12 0.500000 0.195558 0.500000
O O13 0.456473 0.194587 0.781541
O O14 0.537879 0.204386 0.718700
O O15 0.500248 0.000000 0.664094
O O16 0.079953 0.500000 0.073730
O O17 0.077532 0.290716 0.933099
O O18 0.969704 0.890741 0.100445
#
# Coordination Sequence:
#
# PCOD9202415 Si02
#       8
#     8   8   8   8   8   8   8   2
#     4  10  21  37  60  91 119 154 201 250 291 353
#     4  10  23  41  58  86 125 161 195 244 303 359
#     4  11  24  39  60  89 122 155 201 248 294 358
#     4  10  21  40  64  88 119 156 203 249 296 354
#     4  10  22  38  61  91 118 147 187 242 301 356
#     4  10  20  38  61  87 116 150 198 245 293 347
#     4  12  22  40  62  83 119 158 198 242 292 348
#     4  12  24  40  60  84 116 160 206 242 280 352
#
# _framework density 18.273928000000002
#
# number of rings (size 3 to 8) (size 9 to 14) (size 15 to 20)
#    0.000    1.517    3.448    1.241    1.931    3.310 
#    1.241    0.345    0.000    0.000    0.000    0.000 
#    0.000    0.000    0.000    0.000    0.000    0.000 
#
# Total GULP energy -161619.671788 kJ/mol
# GULP energy per Si atom -5573.092131 kJ/mol
# Density = 1.823234 g / cm^3
# Si number density = 18.273928 Si / 1000 Ang^3
#
#
#
# Elastic Constant Matrix: (Units=GPa)
#
#
# Indices 1 2 3 4 5 6 
#
# 1 51.1921 20.5059 5.3863 0.0000 -9.7318 0.0000
# 2 20.5059 56.3901 14.6861 0.0000 10.6532 0.0000
# 3 5.3863 14.6861 34.1920 0.0000 -6.7025 0.0000
# 4 0.0000 0.0000 0.0000 22.0253 0.0000 -4.6190
# 5 -9.7318 10.6532 -6.7025 0.0000 26.8545 0.0000
# 6 0.0000 0.0000 0.0000 -4.6190 0.0000 27.4691
#
#
#
# Elastic Compliance Matrix: (Units=1/GPa)
#
#
# Indices 1 2 3 4 5 6 
#
# 1 0.028333 -0.015047 0.005449 0.000000 0.017597 0.000000
# 2 -0.015047 0.031294 -0.015323 0.000000 -0.021691 0.000000
# 3 0.005449 -0.015323 0.038429 0.000000 0.017644 0.000000
# 4 0.000000 0.000000 0.000000 0.047062 0.000000 0.007914
# 5 0.017597 -0.021691 0.017644 0.000000 0.056623 0.000000
# 6 0.000000 0.000000 0.000000 0.007914 0.000000 0.037735
#
#
# Mechanical properties :
#
#
# Convention : Reuss Voigt Hill
#
# Bulk Modulus (GPa) = 20.74090 24.77012 22.75551
# Shear Modulus (GPa) = 16.37254 22.01619 19.19436
#
# Velocity S-wave (km/s) = 2.99649 3.47477 3.24446
# Velocity P-wave (km/s) = 4.83183 5.44821 5.14925
#
# Compressibility (1/GPa) = 0.04821392
#
# Stress axis : x y z
#
# Youngs Moduli (GPa) = 35.29405 31.95509 26.02233
#
# Poissons Ratio (x) = 0.48082 -0.14179
# Poissons Ratio (y) = 0.53106 0.39874
# Poissons Ratio (z) = -0.19231 0.48965
#
# Static dielectric constant tensor:
#      x y z
#    x 1.622960 0.000000 -0.029370 
#    y 0.000000 1.618650 0.000000 
#    z -0.029370 0.000000 1.613330 
# 
# From -- ./inp_files/109950.got.cif
#   From: 2010.05.17/outbox.cif.g08.bks.cpg/sg12_55_cif.got.tgz:109950.got - 2010.06.03 13:09:07.
