data_PCOD9202852
_publ_section_title
;
Structure prediction by ZEFSAII (Michael W. Deem and Ramdas Pophale) SiO2 
 PCOD9202852
Probable space group: C 2/M
;
_chemical_formula_sum "Si O2"
_cell_formula_units_Z 64
_cell_length_a 8.084040
_cell_length_b 29.886967
_cell_length_c 12.750642
_cell_angle_alpha 90.000000
_cell_angle_beta 90.587028
_cell_angle_gamma 90.000000
_cell_volume 3080.488241
_symmetry_space_group_name_H-M "C 2/M"
_symmetry_group_IT_number 12
_symmetry_cell_setting 'monoclinic'
loop_
_space_group_symop_operation_xyz
x,y,z
-x,y,-z
-x,-y,-z
x,-y,z
1/2+x,1/2+y,z
1/2-x,1/2+y,-z
1/2-x,1/2-y,-z
1/2+x,1/2-y,z
loop_
_atom_site_type_symbol
_atom_site_label
_atom_site_fract_x
_atom_site_fract_y
_atom_site_fract_z
Si Si1 0.818044 0.203779 0.544883
Si Si2 0.076830 0.712464 0.117975
Si Si3 0.276119 0.893183 0.107045
Si Si4 0.768517 0.199538 0.791855
Si Si5 0.797275 0.893492 0.509877
Si Si6 0.217740 0.948867 0.691409
Si Si7 0.674431 0.882772 0.124864
Si Si8 0.179695 0.950315 0.293464
O O1 0.750000 0.250000 0.500000
O O2 0.819685 0.202565 0.671253
O O3 0.734784 0.157481 0.505319
O O4 0.000000 0.201462 0.500000
O O5 0.155153 0.760410 0.139434
O O6 0.200643 0.670756 0.136016
O O7 0.928341 0.706267 0.199180
O O8 0.000000 0.708894 0.000000
O O9 0.195354 0.848640 0.156677
O O10 0.474989 0.887319 0.115843
O O11 0.223189 0.934416 0.177652
O O12 0.242362 0.897029 0.983868
O O13 0.734735 0.925815 0.417999
O O14 0.755212 0.914734 0.621879
O O15 0.000000 0.892894 0.500000
O O16 0.270241 0.914820 0.782345
O O17 0.018196 0.951111 0.694354
O O18 0.279453 0.000000 0.702768
O O19 0.243307 0.000000 0.315851
#
# Coordination Sequence:
#
# PCOD9202852 Si02
#       8
#     8   8   8   8   8   8   8   8
#     4  11  23  39  58  89 122 157 196 236 296 356
#     4  11  22  39  61  90 119 159 205 243 298 354
#     4  10  21  41  58  86 118 162 196 240 301 360
#     4  11  22  39  60  86 124 156 200 248 290 357
#     4   9  19  38  61  86 119 153 192 242 300 355
#     4  10  22  39  62  91 116 151 202 253 300 352
#     4  10  22  40  60  81 125 159 197 240 295 363
#     4  10  20  38  64  88 114 150 197 253 304 354
#
# _framework density 20.775926999999999
#
# number of rings (size 3 to 8) (size 9 to 14) (size 15 to 20)
#    0.000    1.750    3.750    1.500    1.750    4.000 
#    0.000    3.125    0.000    1.500    0.000    0.000 
#    0.000    0.000    0.000    0.000    0.000    0.000 
#
# Total GULP energy -178707.579303 kJ/mol
# GULP energy per Si atom -5584.611853 kJ/mol
# Density = 2.072864 g / cm^3
# Si number density = 20.775927 Si / 1000 Ang^3
#
#
#
# Elastic Constant Matrix: (Units=GPa)
#
#
# Indices 1 2 3 4 5 6 
#
# 1 10.4995 13.8271 17.8086 0.0000 -11.1167 0.0000
# 2 13.8271 158.1057 62.0885 0.0000 7.0338 0.0000
# 3 17.8086 62.0885 136.7624 0.0000 -8.0095 0.0000
# 4 0.0000 0.0000 0.0000 28.3746 0.0000 -0.8965
# 5 -11.1167 7.0338 -8.0095 0.0000 24.7210 0.0000
# 6 0.0000 0.0000 0.0000 -0.8965 0.0000 24.6787
#
#
#
# Elastic Compliance Matrix: (Units=1/GPa)
#
#
# Indices 1 2 3 4 5 6 
#
# 1 0.315512 -0.025635 -0.021111 0.000000 0.142336 0.000000
# 2 -0.025635 0.010069 -0.002116 0.000000 -0.015078 0.000000
# 3 -0.021111 -0.002116 0.010704 0.000000 -0.005423 0.000000
# 4 0.000000 0.000000 0.000000 0.035283 0.000000 0.001282
# 5 0.142336 -0.015078 -0.005423 0.000000 0.106991 0.000000
# 6 0.000000 0.000000 0.000000 0.001282 0.000000 0.040567
#
#
# Mechanical properties :
#
#
# Convention : Reuss Voigt Hill
#
# Bulk Modulus (GPa) = 4.19180 54.75733 29.47457
# Shear Modulus (GPa) = 7.18009 29.66440 18.42225
#
# Velocity S-wave (km/s) = 1.86104 3.78276 2.98100
# Velocity P-wave (km/s) = 2.57681 6.74480 5.10550
#
# Compressibility (1/GPa) = 0.23856094
#
# Stress axis : x y z
#
# Youngs Moduli (GPa) = 3.16945 99.31935 93.42395
#
# Poissons Ratio (x) = 2.54606 1.97224
# Poissons Ratio (y) = 0.08125 0.19768
# Poissons Ratio (z) = 0.06691 0.21016
#
# Static dielectric constant tensor:
#      x y z
#    x 1.758250 0.000000 0.003510 
#    y 0.000000 1.765660 0.000000 
#    z 0.003510 0.000000 1.714730 
# 
# From -- ./inp_files/125740.got.cif
#   From: 2010.05.17/outbox.cif.g08.bks.cpg/sg12_63_cif.got.tgz:125740.got - 2010.06.03 13:09:07.
