data_PCOD9202844
_publ_section_title
;
Structure prediction by ZEFSAII (Michael W. Deem and Ramdas Pophale) SiO2 
 PCOD9202844
Probable space group: C 2/M
;
_chemical_formula_sum "Si O2"
_cell_formula_units_Z 56
_cell_length_a 25.898040
_cell_length_b 9.637468
_cell_length_c 19.371203
_cell_angle_alpha 90.000000
_cell_angle_beta 35.090035
_cell_angle_gamma 90.000000
_cell_volume 2779.398106
_symmetry_space_group_name_H-M "C 2/M"
_symmetry_group_IT_number 12
_symmetry_cell_setting 'monoclinic'
loop_
_space_group_symop_operation_xyz
x,y,z
-x,y,-z
-x,-y,-z
x,-y,z
1/2+x,1/2+y,z
1/2-x,1/2+y,-z
1/2-x,1/2-y,-z
1/2+x,1/2-y,z
loop_
_atom_site_type_symbol
_atom_site_label
_atom_site_fract_x
_atom_site_fract_y
_atom_site_fract_z
Si Si1 0.780486 0.839282 0.280594
Si Si2 0.009538 0.661526 0.190910
Si Si3 0.913522 0.338126 0.044515
Si Si4 0.112438 0.845151 0.456937
Si Si5 0.834392 0.163051 0.378585
Si Si6 0.326135 0.158749 0.882783
Si Si7 0.905321 0.154651 0.688906
O O1 0.835300 0.754843 0.162839
O O2 0.684000 0.769086 0.398906
O O3 0.830773 0.830804 0.299038
O O4 0.771458 0.000000 0.271181
O O5 0.978572 0.500000 0.218870
O O6 0.085440 0.667719 0.166188
O O7 0.926634 0.761466 0.298402
O O8 0.055094 0.698240 0.067256
O O9 0.884690 0.500000 0.075538
O O10 0.000000 0.326401 0.000000
O O11 0.105879 0.844462 0.380902
O O12 0.010191 0.824161 0.592176
O O13 0.141903 0.000000 0.446410
O O14 0.750000 0.250000 0.500000
O O15 0.830388 0.000000 0.402891
O O16 0.348576 0.225782 0.785109
O O17 0.298742 0.000000 0.907288
O O18 0.250000 0.250000 0.000000
O O19 0.878993 0.000000 0.742462
#
# Coordination Sequence:
#
# PCOD9202844 Si02
#       7
#     8   8   8   8   8   8   8
#     4  11  24  38  58  92 126 154 193 248 302 354
#     4  10  23  43  64  89 121 160 207 254 301 359
#     4  10  20  38  64  87 113 155 199 240 292 355
#     4   9  20  39  64  89 118 157 198 246 299 359
#     4  11  25  42  62  90 127 165 203 249 301 362
#     4  11  25  42  62  89 124 162 203 256 308 361
#     4   9  20  41  64  88 117 154 205 252 297 359
#
# _framework density 20.148246
#
# number of rings (size 3 to 8) (size 9 to 14) (size 15 to 20)
#    0.000    1.857    1.429    2.143    4.000    4.857 
#    0.000    1.429    0.000    0.000    0.000    0.000 
#    0.000    0.000    0.000    0.000    0.000    0.000 
#
# Total GULP energy -156489.739192 kJ/mol
# GULP energy per Si atom -5588.919257 kJ/mol
# Density = 2.010239 g / cm^3
# Si number density = 20.148246 Si / 1000 Ang^3
#
#
#
# Elastic Constant Matrix: (Units=GPa)
#
#
# Indices 1 2 3 4 5 6 
#
# 1 23.4857 12.8824 -7.7198 0.0005 -2.3252 -0.0002
# 2 12.8824 148.1477 70.3064 0.0017 -15.2208 -0.0009
# 3 -7.7198 70.3064 70.9709 0.0014 3.7363 -0.0007
# 4 0.0005 0.0017 0.0014 33.4151 -0.0004 -6.4842
# 5 -2.3252 -15.2208 3.7363 -0.0004 29.9795 0.0001
# 6 -0.0002 -0.0009 -0.0007 -6.4842 0.0001 26.7057
#
#
#
# Elastic Compliance Matrix: (Units=1/GPa)
#
#
# Indices 1 2 3 4 5 6 
#
# 1 0.059127 -0.017176 0.023820 -0.000001 -0.007103 0.000000
# 2 -0.017176 0.020032 -0.022324 0.000000 0.011620 0.000000
# 3 0.023820 -0.022324 0.039556 -0.000001 -0.014417 0.000000
# 4 -0.000001 0.000000 -0.000001 0.031406 0.000001 0.007626
# 5 -0.007103 0.011620 -0.014417 0.000001 0.040502 0.000000
# 6 0.000000 0.000000 0.000000 0.007626 0.000000 0.039297
#
#
# Mechanical properties :
#
#
# Convention : Reuss Voigt Hill
#
# Bulk Modulus (GPa) = 11.44760 43.72693 27.58726
# Shear Modulus (GPa) = 17.21782 29.16240 23.19011
#
# Velocity S-wave (km/s) = 2.92645 3.80859 3.39628
# Velocity P-wave (km/s) = 4.13677 6.41016 5.39458
#
# Compressibility (1/GPa) = 0.08735459
#
# Stress axis : x y z
#
# Youngs Moduli (GPa) = 16.91284 49.92035 25.28088
#
# Poissons Ratio (x) = 0.85741 -0.60219
# Poissons Ratio (y) = 0.29049 0.56438
# Poissons Ratio (z) = -0.40287 1.11444
#
# Static dielectric constant tensor:
#      x y z
#    x 1.716220 0.000000 0.005940 
#    y 0.000000 1.689420 0.000000 
#    z 0.005940 0.000000 1.704040 
# 
# From -- ./inp_files/329452.got.cif
#   From: 2010.05.17/outbox.cif.g08.bks.cpg/sg12_165_cif.got.tgz:329452.got - 2010.06.03 13:09:07.
