data_PCOD9202755
_publ_section_title
;
Structure prediction by ZEFSAII (Michael W. Deem and Ramdas Pophale) SiO2 
 PCOD9202755
Probable space group: C 2/M
;
_chemical_formula_sum "Si O2"
_cell_formula_units_Z 56
_cell_length_a 20.386159
_cell_length_b 8.463024
_cell_length_c 19.803517
_cell_angle_alpha 90.000000
_cell_angle_beta 57.283765
_cell_angle_gamma 90.000000
_cell_volume 2874.643298
_symmetry_space_group_name_H-M "C 2/M"
_symmetry_group_IT_number 12
_symmetry_cell_setting 'monoclinic'
loop_
_space_group_symop_operation_xyz
x,y,z
-x,y,-z
-x,-y,-z
x,-y,z
1/2+x,1/2+y,z
1/2-x,1/2+y,-z
1/2-x,1/2-y,-z
1/2+x,1/2-y,z
loop_
_atom_site_type_symbol
_atom_site_label
_atom_site_fract_x
_atom_site_fract_y
_atom_site_fract_z
Si Si1 0.869768 0.809607 0.742427
Si Si2 0.086399 0.192622 0.433947
Si Si3 0.641592 0.187265 0.751025
Si Si4 0.973221 0.187174 0.810366
Si Si5 0.166247 0.685882 0.021496
Si Si6 0.300926 0.315208 0.138185
Si Si7 0.763564 0.809215 0.567800
O O1 0.889733 0.762775 0.655112
O O2 0.939413 0.773611 0.755136
O O3 0.790587 0.727355 0.809664
O O4 0.857008 0.000000 0.751407
O O5 0.153104 0.243831 0.448792
O O6 0.000000 0.248367 0.500000
O O7 0.085212 0.000000 0.435961
O O8 0.552287 0.222721 0.783272
O O9 0.665262 0.269408 0.807764
O O10 0.697195 0.240904 0.658375
O O11 0.654273 0.000000 0.752771
O O12 0.903772 0.229558 0.900346
O O13 0.988702 0.000000 0.804514
O O14 0.162639 0.500000 0.037042
O O15 0.250000 0.750000 0.000000
O O16 0.161326 0.719810 0.944475
O O17 0.311654 0.500000 0.119353
O O18 0.750000 0.750000 0.500000
O O19 0.763160 0.000000 0.566805
#
# Coordination Sequence:
#
# PCOD9202755 Si02
#       7
#     8   8   8   8   8   8   8
#     4  10  20  38  63  90 125 165 208 258 313 371
#     4   9  18  35  61  91 120 159 207 253 304 368
#     4  11  24  44  64  88 128 172 212 260 319 378
#     4  11  24  40  64  97 128 164 212 263 314 376
#     4  12  24  41  65  95 129 166 209 258 316 373
#     4  12  24  40  66  94 124 165 212 260 313 377
#     4  10  22  39  62  89 124 165 207 257 315 378
#
# _framework density 19.480678999999999
#
# number of rings (size 3 to 8) (size 9 to 14) (size 15 to 20)
#    0.000    1.286    2.857    3.429    2.000    2.286 
#    0.000    2.857    0.000    0.857    0.000    0.000 
#    0.000    0.000    0.000    0.000    0.000    0.000 
#
# Total GULP energy -156560.345307 kJ/mol
# GULP energy per Si atom -5591.440904 kJ/mol
# Density = 1.943634 g / cm^3
# Si number density = 19.480679 Si / 1000 Ang^3
#
#
#
# Elastic Constant Matrix: (Units=GPa)
#
#
# Indices 1 2 3 4 5 6 
#
# 1 104.1472 -0.4922 41.3548 0.0000 1.0723 0.0000
# 2 -0.4922 20.2120 -11.0927 0.0001 4.7079 -0.0004
# 3 41.3548 -11.0927 102.3709 0.0000 11.1360 0.0000
# 4 0.0000 0.0001 0.0000 25.3698 0.0000 4.1538
# 5 1.0723 4.7079 11.1360 0.0000 37.6439 0.0000
# 6 0.0000 -0.0004 0.0000 4.1538 0.0000 31.1409
#
#
#
# Elastic Compliance Matrix: (Units=1/GPa)
#
#
# Indices 1 2 3 4 5 6 
#
# 1 0.011631 -0.002929 -0.005187 0.000000 0.001569 0.000000
# 2 -0.002929 0.056140 0.008288 0.000000 -0.009389 0.000001
# 3 -0.005187 0.008288 0.013286 0.000000 -0.004819 0.000000
# 4 0.000000 0.000000 0.000000 0.040297 0.000000 -0.005375
# 5 0.001569 -0.009389 -0.004819 0.000000 0.029120 0.000000
# 6 0.000000 0.000001 0.000000 -0.005375 0.000000 0.032829
#
#
# Mechanical properties :
#
#
# Convention : Reuss Voigt Hill
#
# Bulk Modulus (GPa) = 12.28485 31.80775 22.04630
# Shear Modulus (GPa) = 23.79902 31.96160 27.88031
#
# Velocity S-wave (km/s) = 3.49904 4.05493 3.78720
# Velocity P-wave (km/s) = 4.75859 6.18761 5.51954
#
# Compressibility (1/GPa) = 0.08140111
#
# Stress axis : x y z
#
# Youngs Moduli (GPa) = 85.97434 17.81272 75.26730
#
# Poissons Ratio (x) = 0.05217 0.39040
# Poissons Ratio (y) = 0.25181 -0.62380
# Poissons Ratio (z) = 0.44593 -0.14763
#
# Static dielectric constant tensor:
#      x y z
#    x 1.658090 0.000000 0.007710 
#    y 0.000000 1.663400 0.000000 
#    z 0.007710 0.000000 1.661710 
# 
# From -- ./inp_files/281030.got.cif
#   From: 2010.05.17/outbox.cif.g08.bks.cpg/sg12_141_cif.got.tgz:281030.got - 2010.06.03 13:09:07.
