data_PCOD9202651
_publ_section_title
;
Structure prediction by ZEFSAII (Michael W. Deem and Ramdas Pophale) SiO2 
 PCOD9202651
Probable space group: C 2/M
;
_chemical_formula_sum "Si O2"
_cell_formula_units_Z 40
_cell_length_a 20.592747
_cell_length_b 17.008411
_cell_length_c 5.993364
_cell_angle_alpha 90.000000
_cell_angle_beta 56.637896
_cell_angle_gamma 90.000000
_cell_volume 1753.255817
_symmetry_space_group_name_H-M "C 2/M"
_symmetry_group_IT_number 12
_symmetry_cell_setting 'monoclinic'
loop_
_space_group_symop_operation_xyz
x,y,z
-x,y,-z
-x,-y,-z
x,-y,z
1/2+x,1/2+y,z
1/2-x,1/2+y,-z
1/2-x,1/2-y,-z
1/2+x,1/2-y,z
loop_
_atom_site_type_symbol
_atom_site_label
_atom_site_fract_x
_atom_site_fract_y
_atom_site_fract_z
Si Si1 0.191457 0.679236 0.247540
Si Si2 0.051969 0.704030 0.205960
Si Si3 0.793786 0.848329 0.669965
Si Si4 0.975001 0.875471 0.294009
Si Si5 0.639143 0.089407 0.732923
O O1 0.134705 0.716428 0.169576
O O2 0.207318 0.754256 0.371782
O O3 0.147625 0.611381 0.459610
O O4 0.265616 0.645458 0.980400
O O5 0.010641 0.786216 0.226406
O O6 0.000000 0.666783 0.500000
O O7 0.076747 0.647683 0.959957
O O8 0.725948 0.892217 0.663825
O O9 0.881293 0.875904 0.468586
O O10 0.000000 0.904963 0.500000
O O11 0.000000 0.908103 0.000000
O O12 0.618798 0.000000 0.814542
#
# Coordination Sequence:
#
# PCOD9202651 Si02
#       5
#     8   8   8   8   8
#     4  10  20  38  62  94 122 165 228 275 330 378
#     4  10  21  38  62  92 131 167 216 276 332 390
#     4  10  21  38  66  92 124 167 225 280 331 382
#     4  11  22  37  67 104 134 162 213 286 347 384
#     4  11  25  40  61  93 134 182 217 264 332 411
#
# _framework density 22.814696999999999
#
# number of rings (size 3 to 8) (size 9 to 14) (size 15 to 20)
#    0.000    1.600    4.000    1.800    2.800    3.600 
#    0.000    1.000    0.000    1.200    0.000    0.000 
#    0.000    0.000    0.000    0.000    0.000    0.000 
#
# Total GULP energy -111525.268895 kJ/mol
# GULP energy per Si atom -5576.263445 kJ/mol
# Density = 2.276277 g / cm^3
# Si number density = 22.814697 Si / 1000 Ang^3
#
#
#
# Elastic Constant Matrix: (Units=GPa)
#
#
# Indices 1 2 3 4 5 6 
#
# 1 116.8139 11.2938 44.1818 0.0000 -5.5585 0.0000
# 2 11.2938 73.1452 11.2405 0.0000 -0.8746 0.0000
# 3 44.1818 11.2405 154.8940 0.0000 -17.0838 0.0000
# 4 0.0000 0.0000 0.0000 -9.8573 0.0000 -8.4489
# 5 -5.5585 -0.8746 -17.0838 0.0000 38.4130 0.0000
# 6 0.0000 0.0000 0.0000 -8.4489 0.0000 1.9856
#
#
#
# Elastic Compliance Matrix: (Units=1/GPa)
#
#
# Indices 1 2 3 4 5 6 
#
# 1 0.009681 -0.001083 -0.002662 0.000000 0.000193 0.000000
# 2 -0.001083 0.013948 -0.000721 0.000000 -0.000160 0.000000
# 3 -0.002662 -0.000721 0.007596 0.000000 0.002977 0.000000
# 4 0.000000 0.000000 0.000000 -0.021830 0.000000 -0.092890
# 5 0.000193 -0.000160 0.002977 0.000000 0.027381 0.000000
# 6 0.000000 0.000000 0.000000 -0.092890 0.000000 0.108374
#
#
# Mechanical properties :
#
#
# Convention : Reuss Voigt Hill
#
# Bulk Modulus (GPa) = 44.85714 53.14281 48.99997
# Shear Modulus (GPa) = 30.95745 24.65073 27.80409
#
# Velocity S-wave (km/s) = 3.68762 3.29063 3.49476
# Velocity P-wave (km/s) = 6.15106 6.14666 6.14886
#
# Compressibility (1/GPa) = 0.02229300
#
# Stress axis : x y z
#
# Youngs Moduli (GPa) = 103.29279 71.69707 131.65128
#
# Poissons Ratio (x) = 0.07768 0.35040
# Poissons Ratio (y) = 0.11192 0.09488
# Poissons Ratio (z) = 0.27492 0.05167
#
# Static dielectric constant tensor:
#      x y z
#    x 1.937540 0.000000 0.066140 
#    y 0.000000 1.841860 0.000000 
#    z 0.066140 0.000000 1.915510 
# 
# From -- ./inp_files/15302.got.cif
#   From: 2010.05.17/outbox.cif.g08.bks.cpg/sg12_8_cif.got.tgz:15302.got - 2010.06.03 13:09:07.
