data_PCOD9202162
_publ_section_title
;
Structure prediction by ZEFSAII (Michael W. Deem and Ramdas Pophale) SiO2 
 PCOD9202162
Probable space group: C 2/M
;
_chemical_formula_sum "Si O2"
_cell_formula_units_Z 48
_cell_length_a 27.504840
_cell_length_b 14.502756
_cell_length_c 9.347788
_cell_angle_alpha 90.000000
_cell_angle_beta 34.769182
_cell_angle_gamma 90.000000
_cell_volume 2126.426719
_symmetry_space_group_name_H-M "C 2/M"
_symmetry_group_IT_number 12
_symmetry_cell_setting 'monoclinic'
loop_
_space_group_symop_operation_xyz
x,y,z
-x,y,-z
-x,-y,-z
x,-y,z
1/2+x,1/2+y,z
1/2-x,1/2+y,-z
1/2-x,1/2-y,-z
1/2+x,1/2-y,z
loop_
_atom_site_type_symbol
_atom_site_label
_atom_site_fract_x
_atom_site_fract_y
_atom_site_fract_z
Si Si1 0.909579 0.198663 0.137801
Si Si2 0.615269 0.896770 0.146763
Si Si3 0.917311 0.399529 0.096724
Si Si4 0.426531 0.393150 0.796113
Si Si5 0.818025 0.896228 0.593930
Si Si6 0.653289 0.721297 0.219722
O O1 0.873057 0.302534 0.237830
O O2 0.845463 0.128712 0.368462
O O3 0.927363 0.169127 0.933273
O O4 0.000000 0.194759 0.000000
O O5 0.565310 0.892215 0.116398
O O6 0.716077 0.890757 0.860365
O O7 0.601678 0.000000 0.241254
O O8 0.602169 0.810084 0.283866
O O9 0.873998 0.500000 0.220472
O O10 0.000000 0.401078 0.000000
O O11 0.500000 0.375963 0.500000
O O12 0.427769 0.500000 0.831414
O O13 0.346479 0.359989 0.897775
O O14 0.866830 0.824636 0.579550
O O15 0.844931 0.000000 0.566444
O O16 0.750000 0.750000 0.000000
#
# Coordination Sequence:
#
# PCOD9202162 Si02
#       6
#     8   8   8   8   8   8
#     4  11  22  37  60  90 119 157 198 245 300 363
#     4   9  18  36  61  86 115 156 200 244 297 351
#     4   9  18  35  59  84 115 153 193 246 301 350
#     4  11  23  39  62  90 123 160 203 251 302 363
#     4  10  21  36  58  87 122 157 193 241 297 356
#     4  10  20  38  59  85 116 160 199 244 297 354
#
# _framework density 22.573079
#
# number of rings (size 3 to 8) (size 9 to 14) (size 15 to 20)
#    0.000    2.000    1.667    2.000    0.000    4.000 
#    0.000    0.833    0.000    5.000    0.000    0.000 
#    0.000    0.000    0.000    0.000    0.000    0.000 
#
# Total GULP energy -133906.350472 kJ/mol
# GULP energy per Si atom -5579.431270 kJ/mol
# Density = 2.252170 g / cm^3
# Si number density = 22.573079 Si / 1000 Ang^3
#
#
#
# Elastic Constant Matrix: (Units=GPa)
#
#
# Indices 1 2 3 4 5 6 
#
# 1 108.2052 30.9436 20.1981 0.0000 17.9529 0.0000
# 2 30.9436 150.8907 37.2879 0.0000 10.0756 0.0000
# 3 20.1981 37.2879 63.2616 0.0000 5.3652 0.0000
# 4 0.0000 0.0000 0.0000 11.3265 0.0000 29.1395
# 5 17.9529 10.0756 5.3652 0.0000 23.1255 0.0000
# 6 0.0000 0.0000 0.0000 29.1395 0.0000 13.3630
#
#
#
# Elastic Compliance Matrix: (Units=1/GPa)
#
#
# Indices 1 2 3 4 5 6 
#
# 1 0.011292 -0.001254 -0.002212 0.000000 -0.007706 0.000000
# 2 -0.001254 0.008026 -0.004199 0.000000 -0.001549 0.000000
# 3 -0.002212 -0.004199 0.019063 0.000000 -0.000876 0.000000
# 4 0.000000 0.000000 0.000000 -0.019151 0.000000 0.041762
# 5 -0.007706 -0.001549 -0.000876 0.000000 0.050103 0.000000
# 6 0.000000 0.000000 0.000000 0.041762 0.000000 -0.016233
#
#
# Mechanical properties :
#
#
# Convention : Reuss Voigt Hill
#
# Bulk Modulus (GPa) = 43.38460 55.46851 49.42656
# Shear Modulus (GPa) = 65.69187 25.15819 45.42503
#
# Velocity S-wave (km/s) = 5.40047 3.34207 4.49079
# Velocity P-wave (km/s) = 7.62549 6.28639 6.98809
#
# Compressibility (1/GPa) = 0.02304965
#
# Stress axis : x y z
#
# Youngs Moduli (GPa) = 88.55825 124.60261 52.45831
#
# Poissons Ratio (x) = 0.15630 0.11606
# Poissons Ratio (y) = 0.11109 0.22025
# Poissons Ratio (z) = 0.19592 0.52315
#
# Static dielectric constant tensor:
#      x y z
#    x 1.874650 0.000000 -0.036670 
#    y 0.000000 1.869300 0.000000 
#    z -0.036670 0.000000 1.832650 
# 
# From -- ./inp_files/104935.got.cif
#   From: 2010.05.17/outbox.cif.g08.bks.cpg/sg12_53_cif.got.tgz:104935.got - 2010.06.03 13:09:07.
