data_PCOD9202571
_publ_section_title
;
Structure prediction by ZEFSAII (Michael W. Deem and Ramdas Pophale) SiO2 
 PCOD9202571
Probable space group: C 2/M
;
_chemical_formula_sum "Si O2"
_cell_formula_units_Z 64
_cell_length_a 31.384189
_cell_length_b 17.652020
_cell_length_c 12.137515
_cell_angle_alpha 90.000000
_cell_angle_beta 29.615956
_cell_angle_gamma 90.000000
_cell_volume 3322.949729
_symmetry_space_group_name_H-M "C 2/M"
_symmetry_group_IT_number 12
_symmetry_cell_setting 'monoclinic'
loop_
_space_group_symop_operation_xyz
x,y,z
-x,y,-z
-x,-y,-z
x,-y,z
1/2+x,1/2+y,z
1/2-x,1/2+y,-z
1/2-x,1/2-y,-z
1/2+x,1/2-y,z
loop_
_atom_site_type_symbol
_atom_site_label
_atom_site_fract_x
_atom_site_fract_y
_atom_site_fract_z
Si Si1 0.259592 0.637576 0.776558
Si Si2 0.957582 0.589814 0.473945
Si Si3 0.752993 0.815107 0.268714
Si Si4 0.427166 0.586575 0.288117
Si Si5 0.776689 0.335028 0.901871
Si Si6 0.608807 0.654381 0.852150
Si Si7 0.609728 0.085205 0.966309
Si Si8 0.397694 0.820664 0.228788
O O1 0.245450 0.724865 0.765492
O O2 0.355269 0.614061 0.532287
O O3 0.189970 0.589183 0.867516
O O4 0.245991 0.621870 0.935860
O O5 0.934129 0.500000 0.510244
O O6 0.877008 0.646599 0.654510
O O7 0.000000 0.594411 0.500000
O O8 0.027150 0.611627 0.223613
O O9 0.766266 0.852614 0.119134
O O10 0.824070 0.840099 0.198799
O O11 0.660432 0.834467 0.532884
O O12 0.453027 0.500000 0.247361
O O13 0.384293 0.593902 0.262458
O O14 0.510916 0.639590 0.110387
O O15 0.750000 0.250000 0.000000
O O16 0.615122 0.733408 0.773791
O O17 0.634128 0.132727 0.804737
O O18 0.591026 0.000000 0.972963
O O19 0.500000 0.836367 0.000000
#
# Coordination Sequence:
#
# PCOD9202571 Si02
#       8
#     8   8   8   8   8   8   8   8
#     4  11  20  39  61  89 123 155 206 259 302 352
#     4  10  20  38  62  87 121 163 202 247 303 360
#     4  11  22  39  59  90 123 163 204 248 310 367
#     4  11  23  39  64  93 121 156 208 260 300 357
#     4  10  23  40  60  93 125 158 208 253 300 362
#     4  11  20  38  62  86 122 163 203 246 306 371
#     4  11  23  36  61  94 121 159 206 252 306 368
#     4  12  21  37  63  87 125 161 196 253 311 371
#
# _framework density 19.259996999999998
#
# number of rings (size 3 to 8) (size 9 to 14) (size 15 to 20)
#    0.000    1.125    5.000    3.000    0.000    1.750 
#    0.000    3.125    0.000    0.750    0.000    0.000 
#    0.000    0.000    0.000    0.000    0.000    0.000 
#
# Total GULP energy -178408.157250 kJ/mol
# GULP energy per Si atom -5575.254914 kJ/mol
# Density = 1.921616 g / cm^3
# Si number density = 19.259997 Si / 1000 Ang^3
#
#
#
# Elastic Constant Matrix: (Units=GPa)
#
#
# Indices 1 2 3 4 5 6 
#
# 1 110.4438 1.9939 27.0010 0.0000 8.0011 0.0000
# 2 1.9939 34.4414 -1.6391 0.0000 -0.6474 0.0000
# 3 27.0010 -1.6391 49.9486 0.0000 0.1766 0.0000
# 4 0.0000 0.0000 0.0000 8.0101 0.0000 -13.8710
# 5 8.0011 -0.6474 0.1766 0.0000 23.7795 0.0000
# 6 0.0000 0.0000 0.0000 -13.8710 0.0000 -129.0758
#
#
#
# Elastic Compliance Matrix: (Units=1/GPa)
#
#
# Indices 1 2 3 4 5 6 
#
# 1 0.010760 -0.000968 -0.005835 0.000000 -0.003603 0.000000
# 2 -0.000968 0.029182 0.001477 0.000000 0.001109 0.000000
# 3 -0.005835 0.001477 0.023217 0.000000 0.001831 0.000000
# 4 0.000000 0.000000 0.000000 0.105255 0.000000 -0.011311
# 5 -0.003603 0.001109 0.001831 0.000000 0.043282 0.000000
# 6 0.000000 0.000000 0.000000 -0.011311 0.000000 -0.006532
#
#
# Mechanical properties :
#
#
# Convention : Reuss Voigt Hill
#
# Bulk Modulus (GPa) = 19.04562 27.72727 23.38644
# Shear Modulus (GPa) = 21.42992 -8.29204 6.56894
#
# Velocity S-wave (km/s) = 3.33928 -2.07718 1.84880
# Velocity P-wave (km/s) = 4.97774 2.94528 4.08978
#
# Compressibility (1/GPa) = 0.05250552
#
# Stress axis : x y z
#
# Youngs Moduli (GPa) = 92.94096 34.26765 43.07179
#
# Poissons Ratio (x) = 0.03318 0.25134
# Poissons Ratio (y) = 0.09000 -0.06362
# Poissons Ratio (z) = 0.54235 -0.05062
#
# Static dielectric constant tensor:
#      x y z
#    x 1.716260 0.000000 -0.036010 
#    y 0.000000 1.693000 0.000000 
#    z -0.036010 0.000000 1.736710 
# 
# From -- ./inp_files/190029.got.cif
#   From: 2010.05.17/outbox.cif.g08.bks.cpg/sg12_96_cif.got.tgz:190029.got - 2010.06.03 13:09:07.
