data_PCOD9202579
_publ_section_title
;
Structure prediction by ZEFSAII (Michael W. Deem and Ramdas Pophale) SiO2 
 PCOD9202579
Probable space group: C 2/M
;
_chemical_formula_sum "Si O2"
_cell_formula_units_Z 54
_cell_length_a 13.523058
_cell_length_b 26.510517
_cell_length_c 12.655576
_cell_angle_alpha 90.000000
_cell_angle_beta 36.103330
_cell_angle_gamma 90.000000
_cell_volume 2673.435369
_symmetry_space_group_name_H-M "C 2/M"
_symmetry_group_IT_number 12
_symmetry_cell_setting 'monoclinic'
loop_
_space_group_symop_operation_xyz
x,y,z
-x,y,-z
-x,-y,-z
x,-y,z
1/2+x,1/2+y,z
1/2-x,1/2+y,-z
1/2-x,1/2-y,-z
1/2+x,1/2-y,z
loop_
_atom_site_type_symbol
_atom_site_label
_atom_site_fract_x
_atom_site_fract_y
_atom_site_fract_z
Si Si1 0.128645 0.139076 0.484509
Si Si2 0.801843 0.738943 0.333810
Si Si3 0.363294 0.873540 0.789768
Si Si4 0.805331 0.085014 0.264523
Si Si5 0.500000 0.200727 0.500000
Si Si6 0.477427 0.326166 0.837150
Si Si7 0.365143 0.059105 0.370917
Si Si8 0.000000 0.000000 0.000000
O O1 0.277766 0.179786 0.336994
O O2 0.215881 0.086058 0.435789
O O3 0.000000 0.136509 0.500000
O O4 0.026158 0.160287 0.674606
O O5 0.750000 0.750000 0.500000
O O6 0.662755 0.765421 0.379930
O O7 0.977187 0.768580 0.172520
O O8 0.292470 0.911281 0.760983
O O9 0.474303 0.834140 0.625583
O O10 0.468111 0.906807 0.781369
O O11 0.208377 0.843592 0.974042
O O12 0.687093 0.067983 0.461517
O O13 0.890608 0.138802 0.212391
O O14 0.948273 0.043891 0.129342
O O15 0.386938 0.000000 0.330562
#
# Coordination Sequence:
#
# PCOD9202579 Si02
#       8
#     8   8   8   8   4   8   8   2
#     4  10  22  45  68  85 117 166 217 269 318 374
#     4  10  20  38  62  88 119 161 205 256 319 377
#     4  12  21  35  57  95 135 165 201 247 314 392
#     4  11  20  33  54  89 132 169 204 250 314 385
#     4  12  20  34  63  88 125 174 194 250 322 380
#     4  10  21  37  61  93 126 163 206 258 312 385
#     4  11  24  39  61  91 127 171 219 260 312 369
#     4  12  20  28  54  88 130 178 210 252 292 386
#
# _framework density 20.198730999999999
#
# number of rings (size 3 to 8) (size 9 to 14) (size 15 to 20)
#    0.000    1.185    5.926    1.778    1.037    0.889 
#    0.000    7.407    6.519    0.889    0.000    0.000 
#    0.000    0.000    0.000    0.000    0.000    0.000 
#
# Total GULP energy -150494.539363 kJ/mol
# GULP energy per Si atom -5573.871828 kJ/mol
# Density = 2.015276 g / cm^3
# Si number density = 20.198731 Si / 1000 Ang^3
#
#
#
# Elastic Constant Matrix: (Units=GPa)
#
#
# Indices 1 2 3 4 5 6 
#
# 1 100.0122 31.6271 12.8325 0.0000 -10.9512 0.0000
# 2 31.6271 113.9709 42.7687 0.0000 -6.2247 0.0000
# 3 12.8325 42.7687 78.5089 0.0000 -17.7610 0.0000
# 4 0.0000 0.0000 0.0000 -26.6191 0.0000 20.3611
# 5 -10.9512 -6.2247 -17.7610 0.0000 11.4360 0.0000
# 6 0.0000 0.0000 0.0000 20.3611 0.0000 -0.5279
#
#
#
# Elastic Compliance Matrix: (Units=1/GPa)
#
#
# Indices 1 2 3 4 5 6 
#
# 1 0.012478 -0.003976 0.003608 0.000000 0.015388 0.000000
# 2 -0.003976 0.012494 -0.008447 0.000000 -0.010126 0.000000
# 3 0.003608 -0.008447 0.025424 0.000000 0.038341 0.000000
# 4 0.000000 0.000000 0.000000 0.001318 0.000000 0.050836
# 5 0.015388 -0.010126 0.038341 0.000000 0.156214 0.000000
# 6 0.000000 0.000000 0.000000 0.050836 0.000000 0.066461
#
#
# Mechanical properties :
#
#
# Convention : Reuss Voigt Hill
#
# Bulk Modulus (GPa) = 30.52103 51.88317 41.20210
# Shear Modulus (GPa) = 16.50480 10.54205 13.52343
#
# Velocity S-wave (km/s) = 2.86163 2.28703 2.59031
# Velocity P-wave (km/s) = 5.10507 5.71980 5.42116
#
# Compressibility (1/GPa) = 0.03276430
#
# Stress axis : x y z
#
# Youngs Moduli (GPa) = 80.13974 80.03544 39.33368
#
# Poissons Ratio (x) = 0.31823 -0.14190
# Poissons Ratio (y) = 0.31864 0.33227
# Poissons Ratio (z) = -0.28911 0.67610
#
# Static dielectric constant tensor:
#      x y z
#    x 1.715320 0.000000 -0.019160 
#    y 0.000000 1.715190 0.000000 
#    z -0.019160 0.000000 1.784540 
# 
# From -- ./inp_files/219111.got.cif
#   From: 2010.05.17/outbox.cif.g08.bks.cpg/sg12_110_cif.got.tgz:219111.got - 2010.06.03 13:09:07.
