data_PCOD9202239
_publ_section_title
;
Structure prediction by ZEFSAII (Michael W. Deem and Ramdas Pophale) SiO2 
 PCOD9202239
Probable space group: C 2/M
;
_chemical_formula_sum "Si O2"
_cell_formula_units_Z 56
_cell_length_a 29.364468
_cell_length_b 8.700884
_cell_length_c 14.529133
_cell_angle_alpha 90.000000
_cell_angle_beta 120.090817
_cell_angle_gamma 90.000000
_cell_volume 3211.867952
_symmetry_space_group_name_H-M "C 2/M"
_symmetry_group_IT_number 12
_symmetry_cell_setting 'monoclinic'
loop_
_space_group_symop_operation_xyz
x,y,z
-x,y,-z
-x,-y,-z
x,-y,z
1/2+x,1/2+y,z
1/2-x,1/2+y,-z
1/2-x,1/2-y,-z
1/2+x,1/2-y,z
loop_
_atom_site_type_symbol
_atom_site_label
_atom_site_fract_x
_atom_site_fract_y
_atom_site_fract_z
Si Si1 0.050109 0.686357 0.115431
Si Si2 0.027105 0.183291 0.291854
Si Si3 0.246169 0.818047 0.100002
Si Si4 0.359093 0.177588 0.927294
Si Si5 0.943728 0.684316 0.490351
Si Si6 0.087536 0.676015 0.824405
Si Si7 0.351654 0.319805 0.270746
O O1 0.048611 0.500000 0.122328
O O2 0.046598 0.760947 0.212075
O O3 0.104619 0.729792 0.120328
O O4 0.000000 0.729305 0.000000
O O5 0.060082 0.239977 0.412941
O O6 0.970899 0.265035 0.248809
O O7 0.021604 0.000000 0.287641
O O8 0.191549 0.772461 0.093240
O O9 0.293849 0.752462 0.209786
O O10 0.251374 0.000000 0.096939
O O11 0.250000 0.750000 0.000000
O O12 0.342789 0.000000 0.895437
O O13 0.398183 0.177174 0.054337
O O14 0.943538 0.500000 0.497679
O O15 0.894828 0.740403 0.379642
O O16 0.000000 0.728790 0.500000
O O17 0.093301 0.500000 0.796434
O O18 0.126469 0.786110 0.809334
O O19 0.349502 0.500000 0.287409
#
# Coordination Sequence:
#
# PCOD9202239 Si02
#       7
#     8   8   8   8   8   8   8
#     4  10  20  38  60  83 115 157 197 237 289 347
#     4  12  24  36  55  86 122 155 194 241 288 343
#     4  12  24  38  58  84 119 157 196 239 290 346
#     4  10  21  37  59  84 116 155 199 242 287 343
#     4  11  23  39  61  84 114 156 196 236 288 350
#     4  11  20  34  56  83 118 157 195 234 284 346
#     4  12  24  38  58  86 119 152 193 241 291 347
#
# _framework density 17.435337000000001
#
# number of rings (size 3 to 8) (size 9 to 14) (size 15 to 20)
#    0.000    0.857    4.286    4.714    0.000    2.000 
#    0.000    0.000    0.000    0.857    0.000    0.000 
#    0.000    0.000    0.000    0.000    0.000    0.000 
#
# Total GULP energy -156439.840398 kJ/mol
# GULP energy per Si atom -5587.137157 kJ/mol
# Density = 1.739565 g / cm^3
# Si number density = 17.435337 Si / 1000 Ang^3
#
#
#
# Elastic Constant Matrix: (Units=GPa)
#
#
# Indices 1 2 3 4 5 6 
#
# 1 72.2430 18.8799 30.0828 0.0000 5.7784 0.0000
# 2 18.8799 64.3937 25.8166 0.0000 8.7038 0.0000
# 3 30.0828 25.8166 91.3868 0.0000 2.0547 0.0000
# 4 0.0000 0.0000 0.0000 19.2141 0.0000 -4.2146
# 5 5.7784 8.7038 2.0547 0.0000 29.7960 0.0000
# 6 0.0000 0.0000 0.0000 -4.2146 0.0000 23.7519
#
#
#
# Elastic Compliance Matrix: (Units=1/GPa)
#
#
# Indices 1 2 3 4 5 6 
#
# 1 0.016669 -0.002730 -0.004668 0.000000 -0.002113 0.000000
# 2 -0.002730 0.018668 -0.004271 0.000000 -0.004629 0.000000
# 3 -0.004668 -0.004271 0.013658 0.000000 0.001211 0.000000
# 4 0.000000 0.000000 0.000000 0.054153 0.000000 0.009609
# 5 -0.002113 -0.004629 0.001211 0.000000 0.035240 0.000000
# 6 0.000000 0.000000 0.000000 0.009609 0.000000 0.043807
#
#
# Mechanical properties :
#
#
# Convention : Reuss Voigt Hill
#
# Bulk Modulus (GPa) = 38.97611 41.95356 40.46484
# Shear Modulus (GPa) = 23.35520 24.76869 24.06195
#
# Velocity S-wave (km/s) = 3.66393 3.77318 3.71896
# Velocity P-wave (km/s) = 6.34842 6.56484 6.45753
#
# Compressibility (1/GPa) = 0.02565674
#
# Stress axis : x y z
#
# Youngs Moduli (GPa) = 59.99319 53.56801 73.21449
#
# Poissons Ratio (x) = 0.14624 0.34179
# Poissons Ratio (y) = 0.16378 0.31269
# Poissons Ratio (z) = 0.28006 0.22878
#
# Static dielectric constant tensor:
#      x y z
#    x 1.599260 0.000000 0.006660 
#    y 0.000000 1.586670 0.000000 
#    z 0.006660 0.000000 1.585610 
# 
# From -- ./inp_files/181138.got.cif
#   From: 2010.05.17/outbox.cif.g08.bks.cpg/sg12_91_cif.got.tgz:181138.got - 2010.06.03 13:09:07.
