data_PCOD9202464
_publ_section_title
;
Structure prediction by ZEFSAII (Michael W. Deem and Ramdas Pophale) SiO2 
 PCOD9202464
Probable space group: C 2/M
;
_chemical_formula_sum "Si O2"
_cell_formula_units_Z 32
_cell_length_a 17.828000
_cell_length_b 17.277849
_cell_length_c 10.202938
_cell_angle_alpha 90.000000
_cell_angle_beta 28.906093
_cell_angle_gamma 90.000000
_cell_volume 1519.155266
_symmetry_space_group_name_H-M "C 2/M"
_symmetry_group_IT_number 12
_symmetry_cell_setting 'monoclinic'
loop_
_space_group_symop_operation_xyz
x,y,z
-x,y,-z
-x,-y,-z
x,-y,z
1/2+x,1/2+y,z
1/2-x,1/2+y,-z
1/2-x,1/2-y,-z
1/2+x,1/2-y,z
loop_
_atom_site_type_symbol
_atom_site_label
_atom_site_fract_x
_atom_site_fract_y
_atom_site_fract_z
Si Si1 0.169361 0.414244 0.178628
Si Si2 0.970051 0.183539 0.702658
Si Si3 0.236133 0.331666 0.594948
Si Si4 0.530767 0.848162 0.160106
O O1 0.222158 0.500000 0.137377
O O2 0.129475 0.410805 0.085940
O O3 0.000000 0.400307 0.500000
O O4 0.302309 0.350888 0.996455
O O5 0.983588 0.273780 0.722343
O O6 0.000000 0.174351 0.500000
O O7 0.099631 0.143135 0.597042
O O8 0.250000 0.250000 0.500000
O O9 0.132367 0.378427 0.648484
O O10 0.131104 0.320278 0.883786
#
# Coordination Sequence:
#
# PCOD9202464 Si02
#       4
#     8   8   8   8
#     4  11  25  41  59  86 124 164 202 246 300 358
#     4  11  21  37  65  92 113 153 205 254 298 350
#     4   9  20  35  58  96 120 148 196 247 304 352
#     4  10  20  38  61  91 123 155 192 249 310 354
#
# _framework density 21.064339
#
# number of rings (size 3 to 8) (size 9 to 14) (size 15 to 20)
#    0.000    1.750    2.500    1.500    7.000    0.500 
#    0.000    3.750    0.000    3.000    0.000    0.000 
#    0.000    0.000    0.000    0.000    0.000    0.000 
#
# Total GULP energy -89117.170242 kJ/mol
# GULP energy per Si atom -5569.823140 kJ/mol
# Density = 2.101640 g / cm^3
# Si number density = 21.064339 Si / 1000 Ang^3
#
#
#
# Elastic Constant Matrix: (Units=GPa)
#
#
# Indices 1 2 3 4 5 6 
#
# 1 151.1896 20.9063 34.1493 0.0004 -35.7788 -0.0002
# 2 20.9063 46.9420 16.8923 0.0005 -0.3652 -0.0004
# 3 34.1493 16.8923 82.0006 0.0013 -4.5652 -0.0010
# 4 0.0004 0.0005 0.0013 2.9548 -0.0006 2.7640
# 5 -35.7788 -0.3652 -4.5652 -0.0006 38.6829 0.0004
# 6 -0.0002 -0.0004 -0.0010 2.7640 0.0004 10.0961
#
#
#
# Elastic Compliance Matrix: (Units=1/GPa)
#
#
# Indices 1 2 3 4 5 6 
#
# 1 0.009771 -0.003233 -0.002921 0.000004 0.008662 -0.000002
# 2 -0.003233 0.024083 -0.003793 -0.000004 -0.003211 0.000002
# 3 -0.002921 -0.003793 0.014133 -0.000009 -0.001069 0.000004
# 4 0.000004 -0.000004 -0.000009 0.454945 0.000011 -0.124549
# 5 0.008662 -0.003211 -0.001069 0.000011 0.033707 -0.000004
# 6 -0.000002 0.000002 0.000004 -0.124549 -0.000004 0.133145
#
#
# Mechanical properties :
#
#
# Convention : Reuss Voigt Hill
#
# Bulk Modulus (GPa) = 35.59692 47.11425 41.35558
# Shear Modulus (GPa) = 7.15264 24.22571 15.68917
#
# Velocity S-wave (km/s) = 1.84472 3.39496 2.73210
# Velocity P-wave (km/s) = 4.63391 6.14680 5.44317
#
# Compressibility (1/GPa) = 0.02809232
#
# Stress axis : x y z
#
# Youngs Moduli (GPa) = 102.34477 41.52322 70.75470
#
# Poissons Ratio (x) = 0.13425 0.20666
# Poissons Ratio (y) = 0.33089 0.26840
# Poissons Ratio (z) = 0.29893 0.15752
#
# Static dielectric constant tensor:
#      x y z
#    x 1.901830 0.000000 -0.012770 
#    y 0.000000 1.736750 0.000000 
#    z -0.012770 0.000000 1.813500 
# 
# From -- ./inp_files/46714.got.cif
#   From: 2010.05.17/outbox.cif.g08.bks.cpg/sg12_24_cif.got.tgz:46714.got - 2010.06.03 13:09:07.
