data_PCOD9202339
_publ_section_title
;
Structure prediction by ZEFSAII (Michael W. Deem and Ramdas Pophale) SiO2 
 PCOD9202339
Probable space group: C 2/M
;
_chemical_formula_sum "Si O2"
_cell_formula_units_Z 64
_cell_length_a 11.612808
_cell_length_b 16.381370
_cell_length_c 14.113916
_cell_angle_alpha 90.000000
_cell_angle_beta 104.507593
_cell_angle_gamma 90.000000
_cell_volume 2599.331660
_symmetry_space_group_name_H-M "C 2/M"
_symmetry_group_IT_number 12
_symmetry_cell_setting 'monoclinic'
loop_
_space_group_symop_operation_xyz
x,y,z
-x,y,-z
-x,-y,-z
x,-y,z
1/2+x,1/2+y,z
1/2-x,1/2+y,-z
1/2-x,1/2-y,-z
1/2+x,1/2-y,z
loop_
_atom_site_type_symbol
_atom_site_label
_atom_site_fract_x
_atom_site_fract_y
_atom_site_fract_z
Si Si1 0.179980 0.335021 0.467001
Si Si2 0.279949 0.906317 0.845637
Si Si3 0.793629 0.911091 0.768022
Si Si4 0.894958 0.907118 0.580846
Si Si5 0.286843 0.097722 0.063612
Si Si6 0.927611 0.816090 0.279760
Si Si7 0.073891 0.349953 0.649867
Si Si8 0.008035 0.722550 0.110856
O O1 0.250000 0.250000 0.500000
O O2 0.291122 0.395913 0.483206
O O3 0.113060 0.358717 0.550007
O O4 0.069389 0.341021 0.371213
O O5 0.164380 0.886993 0.760608
O O6 0.376341 0.834868 0.849776
O O7 0.323319 0.000000 0.841335
O O8 0.241530 0.896594 0.947419
O O9 0.840859 0.887528 0.674849
O O10 0.802760 0.871534 0.872863
O O11 0.649808 0.914797 0.723258
O O12 0.849009 0.000000 0.791959
O O13 0.998940 0.841921 0.610906
O O14 0.936539 0.000000 0.587482
O O15 0.400557 0.156214 0.093611
O O16 0.311430 0.000000 0.082014
O O17 0.866259 0.733276 0.300685
O O18 0.990127 0.787272 0.193321
O O19 0.000000 0.753043 0.000000
#
# Coordination Sequence:
#
# PCOD9202339 Si02
#       8
#     8   8   8   8   8   8   8   8
#     4  10  20  38  61  82 110 143 185 236 295 351
#     4  10  23  39  57  83 121 167 204 244 302 359
#     4   9  18  34  57  83 113 147 192 242 293 346
#     4  10  22  38  59  85 117 157 191 232 296 363
#     4   9  17  35  58  81 118 160 200 247 298 347
#     4  12  23  36  59  87 123 156 197 244 289 353
#     4  10  21  35  58  89 109 144 187 239 297 348
#     4  10  22  36  58  89 119 158 207 257 293 340
#
# _framework density 24.621711999999999
#
# number of rings (size 3 to 8) (size 9 to 14) (size 15 to 20)
#    0.000    2.000    2.500    0.750    3.500    5.000 
#    0.000    2.500    0.000    6.000    0.000    0.000 
#    0.000    0.000    0.000    0.000    0.000    0.000 
#
# Total GULP energy -178240.863669 kJ/mol
# GULP energy per Si atom -5570.026990 kJ/mol
# Density = 2.456567 g / cm^3
# Si number density = 24.621712 Si / 1000 Ang^3
#
#
#
# Elastic Constant Matrix: (Units=GPa)
#
#
# Indices 1 2 3 4 5 6 
#
# 1 55.6141 3.9706 25.2317 0.0000 -11.8591 0.0000
# 2 3.9706 76.4110 4.0648 0.0000 18.7039 0.0000
# 3 25.2317 4.0648 72.0653 0.0000 -5.0189 0.0000
# 4 0.0000 0.0000 0.0000 28.3476 0.0000 4.5827
# 5 -11.8591 18.7039 -5.0189 0.0000 24.4374 0.0000
# 6 0.0000 0.0000 0.0000 4.5827 0.0000 7.8259
#
#
#
# Elastic Compliance Matrix: (Units=1/GPa)
#
#
# Indices 1 2 3 4 5 6 
#
# 1 0.024547 -0.004214 -0.007408 0.000000 0.013616 0.000000
# 2 -0.004214 0.017059 -0.000546 0.000000 -0.015214 0.000000
# 3 -0.007408 -0.000546 0.016516 0.000000 0.000215 0.000000
# 4 0.000000 0.000000 0.000000 0.038965 0.000000 -0.022817
# 5 0.013616 -0.015214 0.000215 0.000000 0.059217 0.000000
# 6 0.000000 0.000000 0.000000 -0.022817 0.000000 0.141141
#
#
# Mechanical properties :
#
#
# Convention : Reuss Voigt Hill
#
# Bulk Modulus (GPa) = 29.59993 30.06939 29.83466
# Shear Modulus (GPa) = 15.01301 23.51042 19.26171
#
# Velocity S-wave (km/s) = 2.47198 3.09344 2.80001
# Velocity P-wave (km/s) = 4.49395 4.99982 4.75362
#
# Compressibility (1/GPa) = 0.03378387
#
# Stress axis : x y z
#
# Youngs Moduli (GPa) = 40.73892 58.61907 60.54772
#
# Poissons Ratio (x) = 0.24704 0.44856
# Poissons Ratio (y) = 0.17169 0.03307
# Poissons Ratio (z) = 0.30181 0.03202
#
# Static dielectric constant tensor:
#      x y z
#    x 2.056690 0.000000 0.014280 
#    y 0.000000 1.990700 0.000000 
#    z 0.014280 0.000000 1.986110 
# 
# From -- ./inp_files/270314.got.cif
#   From: 2010.05.17/outbox.cif.g08.bks.cpg/sg12_136_cif.got.tgz:270314.got - 2010.06.03 13:09:07.
