data_PCOD9202033
_publ_section_title
;
Structure prediction by ZEFSAII (Michael W. Deem and Ramdas Pophale) SiO2 
 PCOD9202033
Probable space group: C 2/M
;
_chemical_formula_sum "Si O2"
_cell_formula_units_Z 48
_cell_length_a 20.668815
_cell_length_b 17.137545
_cell_length_c 16.788956
_cell_angle_alpha 90.000000
_cell_angle_beta 18.974628
_cell_angle_gamma 90.000000
_cell_volume 1933.618824
_symmetry_space_group_name_H-M "C 2/M"
_symmetry_group_IT_number 12
_symmetry_cell_setting 'monoclinic'
loop_
_space_group_symop_operation_xyz
x,y,z
-x,y,-z
-x,-y,-z
x,-y,z
1/2+x,1/2+y,z
1/2-x,1/2+y,-z
1/2-x,1/2-y,-z
1/2+x,1/2-y,z
loop_
_atom_site_type_symbol
_atom_site_label
_atom_site_fract_x
_atom_site_fract_y
_atom_site_fract_z
Si Si1 0.119553 0.090425 0.278742
Si Si2 0.579453 0.090740 0.252222
Si Si3 0.998272 0.154258 0.258684
Si Si4 0.773806 0.283023 0.612158
Si Si5 0.601697 0.913511 0.708851
Si Si6 0.375782 0.212240 0.051663
O O1 0.002740 0.099557 0.332879
O O2 0.000000 0.090810 0.500000
O O3 0.926715 0.238754 0.374339
O O4 0.221797 0.178383 0.167055
O O5 0.384392 0.137317 0.508079
O O6 0.545844 0.089135 0.195388
O O7 0.592774 0.000000 0.262545
O O8 0.783188 0.138357 0.031437
O O9 0.805558 0.121303 0.438657
O O10 0.202997 0.000000 0.183578
O O11 0.547221 0.277709 0.840010
O O12 0.736576 0.235495 0.737705
O O13 0.517320 0.864575 0.880763
O O14 0.637042 0.000000 0.692974
#
# Coordination Sequence:
#
# PCOD9202033 Si02
#       6
#     8   8   8   8   8   8
#     4  11  20  33  56  90 129 164 198 241 305 374
#     4  11  23  42  64  87 122 162 206 255 303 360
#     4  11  21  38  61  91 124 157 201 250 305 372
#     4  10  23  40  57  89 124 160 205 248 306 364
#     4  10  21  37  62  93 123 157 196 247 310 370
#     4  10  20  38  57  83 123 160 199 247 295 360
#
# _framework density 24.823920000000001
#
# number of rings (size 3 to 8) (size 9 to 14) (size 15 to 20)
#    0.000    1.500    3.333    2.500    0.000    2.667 
#    3.000    5.833    0.000    0.000    0.000    2.333 
#    0.000    0.000    0.000    0.000    0.000    0.000 
#
# Total GULP energy -133634.123714 kJ/mol
# GULP energy per Si atom -5568.088488 kJ/mol
# Density = 2.476742 g / cm^3
# Si number density = 24.823920 Si / 1000 Ang^3
#
#
#
# Elastic Constant Matrix: (Units=GPa)
#
#
# Indices 1 2 3 4 5 6 
#
# 1 21.8198 9.7014 12.0885 -0.0226 -8.9261 0.0169
# 2 9.7014 134.8012 66.0960 -0.0090 2.9783 0.0238
# 3 12.0885 66.0960 106.4689 0.0210 -20.0930 0.0150
# 4 -0.0226 -0.0090 0.0210 25.0199 0.0010 -6.8395
# 5 -8.9261 2.9783 -20.0930 0.0010 49.2233 -0.0104
# 6 0.0169 0.0238 0.0150 -6.8395 -0.0104 15.7249
#
#
#
# Elastic Compliance Matrix: (Units=1/GPa)
#
#
# Indices 1 2 3 4 5 6 
#
# 1 0.051945 -0.002616 -0.002672 0.000041 0.008487 -0.000026
# 2 -0.002616 0.011429 -0.007604 0.000006 -0.004270 -0.000007
# 3 -0.002672 -0.007604 0.015615 -0.000020 0.006350 -0.000005
# 4 0.000041 0.000006 -0.000020 0.045362 0.000002 0.019730
# 5 0.008487 -0.004270 0.006350 0.000002 0.024705 0.000008
# 6 -0.000026 -0.000007 -0.000005 0.019730 0.000008 0.072175
#
#
# Mechanical properties :
#
#
# Convention : Reuss Voigt Hill
#
# Bulk Modulus (GPa) = 18.79518 48.76240 33.77879
# Shear Modulus (GPa) = 18.88569 29.67389 24.27979
#
# Velocity S-wave (km/s) = 2.76123 3.46117 3.13082
# Velocity P-wave (km/s) = 4.21351 5.97151 5.16781
#
# Compressibility (1/GPa) = 0.05320513
#
# Stress axis : x y z
#
# Youngs Moduli (GPa) = 19.25099 87.49328 64.04148
#
# Poissons Ratio (x) = 0.22884 0.17115
# Poissons Ratio (y) = 0.05035 0.48699
# Poissons Ratio (z) = 0.05145 0.66532
#
# Static dielectric constant tensor:
#      x y z
#    x 2.102170 -0.000010 -0.117970 
#    y -0.000010 1.970440 0.000030 
#    z -0.117970 0.000030 2.475550 
# 
# From -- ./inp_files/285342.got.cif
#   From: 2010.05.17/outbox.cif.g08.bks.cpg/sg12_143_cif.got.tgz:285342.got - 2010.06.03 13:09:07.
