data_PCOD9202341
_publ_section_title
;
Structure prediction by ZEFSAII (Michael W. Deem and Ramdas Pophale) SiO2 
 PCOD9202341
Probable space group: C 2/M
;
_chemical_formula_sum "Si O2"
_cell_formula_units_Z 56
_cell_length_a 20.673401
_cell_length_b 7.794536
_cell_length_c 27.194581
_cell_angle_alpha 90.000000
_cell_angle_beta 142.408860
_cell_angle_gamma 90.000000
_cell_volume 2673.194268
_symmetry_space_group_name_H-M "C 2/M"
_symmetry_group_IT_number 12
_symmetry_cell_setting 'monoclinic'
loop_
_space_group_symop_operation_xyz
x,y,z
-x,y,-z
-x,-y,-z
x,-y,z
1/2+x,1/2+y,z
1/2-x,1/2+y,-z
1/2-x,1/2-y,-z
1/2+x,1/2-y,z
loop_
_atom_site_type_symbol
_atom_site_label
_atom_site_fract_x
_atom_site_fract_y
_atom_site_fract_z
Si Si1 0.735859 0.707397 0.747353
Si Si2 0.150384 0.205428 0.974920
Si Si3 0.736390 0.794152 0.861453
Si Si4 0.502650 0.210539 0.266813
Si Si5 0.979875 0.797296 0.433469
Si Si6 0.370482 0.204464 0.561135
Si Si7 0.926256 0.702171 0.794443
O O1 0.734483 0.500000 0.744942
O O2 0.753083 0.753019 0.814594
O O3 0.623220 0.771573 0.657861
O O4 0.832042 0.772817 0.771318
O O5 0.040827 0.278864 0.888663
O O6 0.139250 0.000000 0.968567
O O7 0.250000 0.250000 0.000000
O O8 0.179443 0.267551 0.047450
O O9 0.619286 0.732603 0.806476
O O10 0.734971 0.000000 0.864801
O O11 0.558295 0.267076 0.350347
O O12 0.562299 0.272027 0.253911
O O13 0.502929 0.000000 0.266441
O O14 0.082117 0.776077 0.460669
O O15 0.000000 0.724279 0.500000
O O16 0.959548 0.000000 0.427464
O O17 0.250000 0.250000 0.500000
O O18 0.380495 0.000000 0.564697
O O19 0.904008 0.500000 0.775745
#
# Coordination Sequence:
#
# PCOD9202341 Si02
#       7
#     8   8   8   8   8   8   8
#     4  10  22  38  60  88 117 153 195 240 286 341
#     4  11  22  37  59  87 116 151 193 241 293 342
#     4  10  20  38  61  82 113 156 194 234 289 347
#     4   9  18  36  61  83 111 155 195 232 286 345
#     4  10  22  40  62  87 119 158 197 241 295 351
#     4  11  23  39  62  90 120 155 196 243 294 349
#     4  10  21  39  60  85 118 154 195 237 285 345
#
# _framework density 20.948720000000002
#
# number of rings (size 3 to 8) (size 9 to 14) (size 15 to 20)
#    0.000    1.857    2.857    0.857    2.000    2.571 
#    0.000    4.286    0.000    0.000    0.000    0.000 
#    0.000    0.000    0.000    0.000    0.000    0.000 
#
# Total GULP energy -156406.506537 kJ/mol
# GULP energy per Si atom -5585.946662 kJ/mol
# Density = 2.090104 g / cm^3
# Si number density = 20.948720 Si / 1000 Ang^3
#
#
#
# Elastic Constant Matrix: (Units=GPa)
#
#
# Indices 1 2 3 4 5 6 
#
# 1 159.8922 -15.1970 38.5321 0.0000 -18.9639 0.0000
# 2 -15.1970 21.5904 -14.2956 0.0001 -6.1019 0.0007
# 3 38.5321 -14.2956 67.9326 0.0000 -21.0581 0.0000
# 4 0.0000 0.0001 0.0000 17.5207 0.0000 1.3558
# 5 -18.9639 -6.1019 -21.0581 0.0000 43.8296 0.0000
# 6 0.0000 0.0007 0.0000 1.3558 0.0000 23.1904
#
#
#
# Elastic Compliance Matrix: (Units=1/GPa)
#
#
# Indices 1 2 3 4 5 6 
#
# 1 0.007608 0.004421 -0.002554 0.000000 0.002680 0.000000
# 2 0.004421 0.066641 0.017607 0.000000 0.019650 -0.000002
# 3 -0.002554 0.017607 0.023843 0.000000 0.012801 0.000000
# 4 0.000000 0.000000 0.000000 0.057335 0.000000 -0.003352
# 5 0.002680 0.019650 0.012801 0.000000 0.032861 -0.000001
# 6 0.000000 -0.000002 0.000000 -0.003352 -0.000001 0.043317
#
#
# Mechanical properties :
#
#
# Convention : Reuss Voigt Hill
#
# Bulk Modulus (GPa) = 7.29712 29.72156 18.50934
# Shear Modulus (GPa) = 20.97882 32.93320 26.95601
#
# Velocity S-wave (km/s) = 3.16798 3.96926 3.59104
# Velocity P-wave (km/s) = 4.10760 5.93508 5.10380
#
# Compressibility (1/GPa) = 0.13704030
#
# Stress axis : x y z
#
# Youngs Moduli (GPa) = 131.44397 15.00582 41.94177
#
# Poissons Ratio (x) = -0.06635 0.10712
# Poissons Ratio (y) = -0.58117 -0.73847
# Poissons Ratio (z) = 0.33570 -0.26421
#
# Static dielectric constant tensor:
#      x y z
#    x 1.731120 0.000000 -0.021090 
#    y 0.000000 1.784100 0.000000 
#    z -0.021090 0.000000 1.740010 
# 
# From -- ./inp_files/231012.got.cif
#   From: 2010.05.17/outbox.cif.g08.bks.cpg/sg12_116_cif.got.tgz:231012.got - 2010.06.03 13:09:07.
