data_PCOD9202467
_publ_section_title
;
Structure prediction by ZEFSAII (Michael W. Deem and Ramdas Pophale) SiO2 
 PCOD9202467
Probable space group: C 2/M
;
_chemical_formula_sum "Si O2"
_cell_formula_units_Z 56
_cell_length_a 14.151708
_cell_length_b 15.230476
_cell_length_c 22.037638
_cell_angle_alpha 90.000000
_cell_angle_beta 29.658971
_cell_angle_gamma 90.000000
_cell_volume 2350.439767
_symmetry_space_group_name_H-M "C 2/M"
_symmetry_group_IT_number 12
_symmetry_cell_setting 'monoclinic'
loop_
_space_group_symop_operation_xyz
x,y,z
-x,y,-z
-x,-y,-z
x,-y,z
1/2+x,1/2+y,z
1/2-x,1/2+y,-z
1/2-x,1/2-y,-z
1/2+x,1/2-y,z
loop_
_atom_site_type_symbol
_atom_site_label
_atom_site_fract_x
_atom_site_fract_y
_atom_site_fract_z
Si Si1 0.933427 0.790009 0.633548
Si Si2 0.761106 0.646219 0.004075
Si Si3 0.839382 0.404036 0.704341
Si Si4 0.876077 0.603227 0.126997
Si Si5 0.796160 0.285284 0.365908
Si Si6 0.586876 0.596993 0.723545
Si Si7 0.832588 0.596448 0.839846
O O1 0.953043 0.686734 0.637320
O O2 0.812163 0.841771 0.751554
O O3 0.806893 0.793619 0.642230
O O4 0.143882 0.822514 0.498855
O O5 0.704912 0.607281 0.970372
O O6 0.973803 0.615825 0.901863
O O7 0.750000 0.750000 0.000000
O O8 0.626881 0.614852 0.133475
O O9 0.939451 0.500000 0.647121
O O10 0.704840 0.403746 0.720994
O O11 0.738087 0.397984 0.826535
O O12 0.833204 0.500000 0.143167
O O13 0.000000 0.634941 0.000000
O O14 0.836631 0.181885 0.353829
O O15 0.997374 0.333607 0.252577
O O16 0.603345 0.500000 0.686541
O O17 0.921800 0.500000 0.793999
#
# Coordination Sequence:
#
# PCOD9202467 Si02
#       7
#     8   8   8   8   8   8   8
#     4  10  21  40  64  87 126 165 209 257 307 367
#     4  12  22  39  62  91 126 166 208 253 310 376
#     4   9  21  39  58  88 123 159 202 253 310 364
#     4  11  25  43  65  95 128 164 208 258 312 370
#     4  10  21  38  61  94 120 164 213 253 307 371
#     4  10  20  38  61  91 127 162 206 256 311 372
#     4  11  22  38  60  88 125 164 205 256 310 368
#
# _framework density 23.825329
#
# number of rings (size 3 to 8) (size 9 to 14) (size 15 to 20)
#    0.000    1.571    2.857    2.143    2.000    2.286 
#    0.000    6.429    0.000    1.714    0.000    0.000 
#    0.000    0.000    0.000    0.000    0.000    0.000 
#
# Total GULP energy -156484.541482 kJ/mol
# GULP energy per Si atom -5588.733624 kJ/mol
# Density = 2.377110 g / cm^3
# Si number density = 23.825329 Si / 1000 Ang^3
#
#
#
# Elastic Constant Matrix: (Units=GPa)
#
#
# Indices 1 2 3 4 5 6 
#
# 1 63.1335 7.8089 11.0431 0.0003 5.3227 -0.0001
# 2 7.8089 132.0172 47.2317 -0.0057 6.4160 0.0008
# 3 11.0431 47.2317 138.4296 -0.0116 13.5930 0.0019
# 4 0.0003 -0.0057 -0.0116 4.8134 0.0021 11.2436
# 5 5.3227 6.4160 13.5930 0.0021 25.7430 0.0002
# 6 -0.0001 0.0008 0.0019 11.2436 0.0002 18.6192
#
#
#
# Elastic Compliance Matrix: (Units=1/GPa)
#
#
# Indices 1 2 3 4 5 6 
#
# 1 0.016288 -0.000525 -0.000846 0.000007 -0.002790 -0.000004
# 2 -0.000525 0.008655 -0.002858 -0.000010 -0.000539 0.000006
# 3 -0.000846 -0.002858 0.008627 -0.000051 -0.003668 0.000030
# 4 0.000007 -0.000010 -0.000051 -0.505985 0.000068 0.305551
# 5 -0.002790 -0.000539 -0.003668 0.000068 0.041494 -0.000041
# 6 -0.000004 0.000006 0.000030 0.305551 -0.000041 -0.130806
#
#
# Mechanical properties :
#
#
# Convention : Reuss Voigt Hill
#
# Bulk Modulus (GPa) = 39.82445 51.74974 45.78710
# Shear Modulus (GPa) = -9.17600 27.66821 9.24610
#
# Velocity S-wave (km/s) = -1.96462 3.41147 1.97211
# Velocity P-wave (km/s) = 3.40664 6.10616 4.94420
#
# Compressibility (1/GPa) = 0.02511020
#
# Stress axis : x y z
#
# Youngs Moduli (GPa) = 61.39623 115.54589 115.91898
#
# Poissons Ratio (x) = 0.06067 0.09809
# Poissons Ratio (y) = 0.03224 0.33130
# Poissons Ratio (z) = 0.05195 0.33024
#
# Static dielectric constant tensor:
#      x y z
#    x 1.976280 0.000000 0.018310 
#    y 0.000000 1.733500 0.000000 
#    z 0.018310 0.000000 1.875320 
# 
# From -- ./inp_files/340293.got.cif
#   From: 2010.05.17/outbox.cif.g08.bks.cpg/sg12_171_cif.got.tgz:340293.got - 2010.06.03 13:09:07.
