data_PCOD9202333
_publ_section_title
;
Structure prediction by ZEFSAII (Michael W. Deem and Ramdas Pophale) SiO2 
 PCOD9202333
Probable space group: C 2/M
;
_chemical_formula_sum "Si O2"
_cell_formula_units_Z 48
_cell_length_a 19.457528
_cell_length_b 7.580633
_cell_length_c 30.907169
_cell_angle_alpha 90.000000
_cell_angle_beta 151.207592
_cell_angle_gamma 90.000000
_cell_volume 2195.698501
_symmetry_space_group_name_H-M "C 2/M"
_symmetry_group_IT_number 12
_symmetry_cell_setting 'monoclinic'
loop_
_space_group_symop_operation_xyz
x,y,z
-x,y,-z
-x,-y,-z
x,-y,z
1/2+x,1/2+y,z
1/2-x,1/2+y,-z
1/2-x,1/2-y,-z
1/2+x,1/2-y,z
loop_
_atom_site_type_symbol
_atom_site_label
_atom_site_fract_x
_atom_site_fract_y
_atom_site_fract_z
Si Si1 0.835030 0.716589 0.914578
Si Si2 0.366345 0.298631 0.767031
Si Si3 0.333828 0.296233 0.419813
Si Si4 0.176142 0.796021 0.741330
Si Si5 0.175206 0.788627 0.913293
Si Si6 0.878370 0.787930 0.538896
O O1 0.836222 0.500000 0.914920
O O2 0.741639 0.777494 0.821802
O O3 0.763435 0.775505 0.920228
O O4 0.000000 0.771150 0.000000
O O5 0.393864 0.500000 0.795771
O O6 0.254927 0.295860 0.666340
O O7 0.294463 0.209298 0.768825
O O8 0.513770 0.221368 0.830205
O O9 0.500000 0.297306 0.500000
O O10 0.283470 0.500000 0.392485
O O11 0.330475 0.217899 0.465804
O O12 0.029164 0.719056 0.640722
O O13 0.142829 0.000000 0.732742
O O14 0.166571 0.000000 0.902755
O O15 0.250000 0.750000 0.000000
O O16 0.750000 0.750000 0.500000
O O17 0.896462 0.000000 0.542836
#
# Coordination Sequence:
#
# PCOD9202333 Si02
#       6
#     8   8   8   8   8   8
#     4   9  18  34  59  85 107 141 188 229 273 337
#     4  11  23  36  57  88 119 148 186 242 295 335
#     4  10  20  39  60  81 112 153 201 236 271 339
#     4  10  20  38  61  81 111 155 194 233 281 340
#     4  10  22  39  59  87 116 145 187 235 285 343
#     4  10  22  37  57  83 113 152 194 237 283 335
#
# _framework density 21.860925000000002
#
# number of rings (size 3 to 8) (size 9 to 14) (size 15 to 20)
#    0.000    2.000    1.667    1.500    2.333    4.333 
#    0.000    0.833    0.000    3.000    0.000    0.000 
#    0.000    0.000    0.000    0.000    0.000    0.000 
#
# Total GULP energy -134024.762876 kJ/mol
# GULP energy per Si atom -5584.365120 kJ/mol
# Density = 2.181117 g / cm^3
# Si number density = 21.860925 Si / 1000 Ang^3
#
#
#
# Elastic Constant Matrix: (Units=GPa)
#
#
# Indices 1 2 3 4 5 6 
#
# 1 187.4809 -9.1548 74.2639 -0.0001 -12.9723 -0.0014
# 2 -9.1548 45.3416 -4.1133 -0.0004 0.6899 -0.0020
# 3 74.2639 -4.1133 124.8277 0.0000 -6.5443 -0.0002
# 4 -0.0001 -0.0004 0.0000 4.4944 0.0001 4.6737
# 5 -12.9723 0.6899 -6.5443 0.0001 43.4595 -0.0001
# 6 -0.0014 -0.0020 -0.0002 4.6737 -0.0001 15.8029
#
#
#
# Elastic Compliance Matrix: (Units=1/GPa)
#
#
# Indices 1 2 3 4 5 6 
#
# 1 0.007121 0.001041 -0.004124 -0.000001 0.001488 0.000001
# 2 0.001041 0.022276 0.000113 -0.000002 -0.000026 0.000004
# 3 -0.004124 0.000113 0.010487 0.000000 0.000346 0.000000
# 4 -0.000001 -0.000002 0.000000 0.321322 -0.000001 -0.095032
# 5 0.001488 -0.000026 0.000346 -0.000001 0.023507 0.000001
# 6 0.000001 0.000004 0.000000 -0.095032 0.000001 0.091385
#
#
# Mechanical properties :
#
#
# Convention : Reuss Voigt Hill
#
# Bulk Modulus (GPa) = 29.46062 53.29354 41.37708
# Shear Modulus (GPa) = 10.13475 32.52833 21.33154
#
# Velocity S-wave (km/s) = 2.15548 3.86160 3.12714
# Velocity P-wave (km/s) = 4.43851 6.65688 5.65749
#
# Compressibility (1/GPa) = 0.03394362
#
# Stress axis : x y z
#
# Youngs Moduli (GPa) = 140.42121 44.89205 95.35898
#
# Poissons Ratio (x) = -0.04674 0.39330
# Poissons Ratio (y) = -0.14619 -0.01080
# Poissons Ratio (z) = 0.57916 -0.00509
#
# Static dielectric constant tensor:
#      x y z
#    x 1.839940 0.000000 0.015910 
#    y 0.000000 1.743220 0.000000 
#    z 0.015910 0.000000 1.776430 
# 
# From -- ./inp_files/213245.got.cif
#   From: 2010.05.17/outbox.cif.g08.bks.cpg/sg12_107_cif.got.tgz:213245.got - 2010.06.03 13:09:07.
