data_PCOD9202131
_publ_section_title
;
Structure prediction by ZEFSAII (Michael W. Deem and Ramdas Pophale) SiO2 
 PCOD9202131
Probable space group: C 2/M
;
_chemical_formula_sum "Si O2"
_cell_formula_units_Z 64
_cell_length_a 17.777699
_cell_length_b 33.965607
_cell_length_c 11.847952
_cell_angle_alpha 90.000000
_cell_angle_beta 27.409112
_cell_angle_gamma 90.000000
_cell_volume 3293.349681
_symmetry_space_group_name_H-M "C 2/M"
_symmetry_group_IT_number 12
_symmetry_cell_setting 'monoclinic'
loop_
_space_group_symop_operation_xyz
x,y,z
-x,y,-z
-x,-y,-z
x,-y,z
1/2+x,1/2+y,z
1/2-x,1/2+y,-z
1/2-x,1/2-y,-z
1/2+x,1/2-y,z
loop_
_atom_site_type_symbol
_atom_site_label
_atom_site_fract_x
_atom_site_fract_y
_atom_site_fract_z
Si Si1 0.874938 0.602975 0.500054
Si Si2 0.359336 0.455502 0.594418
Si Si3 0.996456 0.818233 0.181661
Si Si4 0.712247 0.808494 0.380114
Si Si5 0.395926 0.407033 0.327010
Si Si6 0.140417 0.543194 0.092289
Si Si7 0.809982 0.955943 0.096694
Si Si8 0.556053 0.258131 0.293397
O O1 0.870737 0.649027 0.529882
O O2 0.756945 0.598013 0.549974
O O3 0.806719 0.576113 0.691851
O O4 0.041723 0.582376 0.246431
O O5 0.500000 0.448736 0.500000
O O6 0.380347 0.500000 0.519113
O O7 0.353000 0.422703 0.507672
O O8 0.200816 0.455935 0.884440
O O9 0.005744 0.796298 0.287876
O O10 0.830209 0.808428 0.333328
O O11 0.992878 0.865628 0.198067
O O12 0.153979 0.804380 0.898776
O O13 0.566589 0.777123 0.580937
O O14 0.509505 0.440646 0.122856
O O15 0.057652 0.500000 0.220460
O O16 0.281070 0.543755 0.000284
O O17 0.779672 0.000000 0.178448
O O18 0.500000 0.263209 0.500000
O O19 0.750000 0.250000 0.000000
#
# Coordination Sequence:
#
# PCOD9202131 Si02
#       8
#     8   8   8   8   8   8   8   8
#     4  11  23  38  59  91 124 159 204 256 315 369
#     4  10  20  38  59  80 114 165 216 260 314 371
#     4  10  22  44  67  94 128 169 211 253 325 396
#     4  10  22  44  69  90 130 173 204 255 327 398
#     4  11  22  38  62  89 120 161 208 259 305 368
#     4  10  22  38  56  81 120 168 213 261 317 374
#     4  11  21  36  59  89 123 162 208 254 307 370
#     4  12  25  45  71 104 133 160 208 266 318 384
#
# _framework density 19.433102000000002
#
# number of rings (size 3 to 8) (size 9 to 14) (size 15 to 20)
#    0.000    1.375    3.750    1.875    0.000    6.500 
#    2.250    1.250    0.000    0.000    0.000    0.000 
#    0.000    0.000    0.000    0.000    0.000    0.000 
#
# Total GULP energy -178416.746342 kJ/mol
# GULP energy per Si atom -5575.523323 kJ/mol
# Density = 1.938887 g / cm^3
# Si number density = 19.433102 Si / 1000 Ang^3
#
#
#
# Elastic Constant Matrix: (Units=GPa)
#
#
# Indices 1 2 3 4 5 6 
#
# 1 64.9045 38.6178 25.1632 0.0000 14.4102 -0.0003
# 2 38.6178 78.8256 25.6267 0.0000 -5.4966 -0.0001
# 3 25.1632 25.6267 89.9144 0.0000 0.8179 -0.0004
# 4 0.0000 0.0000 0.0000 36.4383 0.0000 -1.2810
# 5 14.4102 -5.4966 0.8179 0.0000 28.5728 0.0002
# 6 -0.0003 -0.0001 -0.0004 -1.2810 0.0002 25.7405
#
#
#
# Elastic Compliance Matrix: (Units=1/GPa)
#
#
# Indices 1 2 3 4 5 6 
#
# 1 0.029314 -0.014284 -0.003974 0.000000 -0.017418 0.000000
# 2 -0.014284 0.021170 -0.002139 0.000000 0.011338 0.000000
# 3 -0.003974 -0.002139 0.012833 0.000000 0.001225 0.000000
# 4 0.000000 0.000000 0.000000 0.027492 0.000000 0.001368
# 5 -0.017418 0.011338 0.001225 0.000000 0.045929 -0.000001
# 6 0.000000 0.000000 0.000000 0.001368 -0.000001 0.038917
#
#
# Mechanical properties :
#
#
# Convention : Reuss Voigt Hill
#
# Bulk Modulus (GPa) = 44.40166 45.82886 45.11526
# Shear Modulus (GPa) = 22.32569 27.76612 25.04590
#
# Velocity S-wave (km/s) = 3.39314 3.78405 3.59392
# Velocity P-wave (km/s) = 6.18460 6.53653 6.36300
#
# Compressibility (1/GPa) = 0.02252168
#
# Stress axis : x y z
#
# Youngs Moduli (GPa) = 34.11327 47.23610 77.92695
#
# Poissons Ratio (x) = 0.67472 0.30970
# Poissons Ratio (y) = 0.48727 0.16672
# Poissons Ratio (z) = 0.13557 0.10106
#
# Static dielectric constant tensor:
#      x y z
#    x 1.688710 0.000000 -0.004180 
#    y 0.000000 1.661210 0.000000 
#    z -0.004180 0.000000 1.738620 
# 
# From -- ./inp_files/161185.got.cif
#   From: 2010.05.17/outbox.cif.g08.bks.cpg/sg12_81_cif.got.tgz:161185.got - 2010.06.03 13:09:07.
