data_PCOD9202275
_publ_section_title
;
Structure prediction by ZEFSAII (Michael W. Deem and Ramdas Pophale) SiO2 
 PCOD9202275
Probable space group: C 2/M
;
_chemical_formula_sum "Si O2"
_cell_formula_units_Z 64
_cell_length_a 26.706149
_cell_length_b 14.860489
_cell_length_c 12.149856
_cell_angle_alpha 90.000000
_cell_angle_beta 38.002832
_cell_angle_gamma 90.000000
_cell_volume 2968.827415
_symmetry_space_group_name_H-M "C 2/M"
_symmetry_group_IT_number 12
_symmetry_cell_setting 'monoclinic'
loop_
_space_group_symop_operation_xyz
x,y,z
-x,y,-z
-x,-y,-z
x,-y,z
1/2+x,1/2+y,z
1/2-x,1/2+y,-z
1/2-x,1/2-y,-z
1/2+x,1/2-y,z
loop_
_atom_site_type_symbol
_atom_site_label
_atom_site_fract_x
_atom_site_fract_y
_atom_site_fract_z
Si Si1 0.273898 0.607442 0.621560
Si Si2 0.847127 0.896346 0.253086
Si Si3 0.163296 0.784155 0.108403
Si Si4 0.469054 0.595539 0.679089
Si Si5 0.170866 0.400677 0.449225
Si Si6 0.515614 0.095303 0.844898
Si Si7 0.121158 0.727996 0.937647
Si Si8 0.392330 0.276696 0.558551
O O1 0.260314 0.500000 0.656652
O O2 0.324148 0.621649 0.420584
O O3 0.189439 0.663041 0.764420
O O4 0.326807 0.648586 0.630596
O O5 0.761974 0.892135 0.333438
O O6 0.894806 0.815298 0.111316
O O7 0.878064 0.000000 0.190732
O O8 0.127347 0.885090 0.153219
O O9 0.107096 0.760002 0.311115
O O10 0.250000 0.750000 0.000000
O O11 0.154790 0.748165 0.000518
O O12 0.500000 0.587520 0.500000
O O13 0.487009 0.500000 0.704224
O O14 0.522667 0.679270 0.628691
O O15 0.161762 0.500000 0.412416
O O16 0.139036 0.317082 0.435271
O O17 0.110506 0.398230 0.657564
O O18 0.487840 0.000000 0.842691
O O19 0.500000 0.092822 0.000000
O O20 0.461808 0.175647 0.896919
#
# Coordination Sequence:
#
# PCOD9202275 Si02
#       8
#     8   8   8   8   8   8   8   8
#     4  11  22  36  60  90 121 155 206 260 304 364
#     4  10  22  39  61  91 121 157 208 256 303 371
#     4  11  22  40  57  90 128 161 204 254 298 367
#     4   9  20  38  62  86 114 159 206 247 298 358
#     4  10  20  38  60  86 120 165 211 249 305 373
#     4  10  22  38  60  92 126 159 204 256 313 378
#     4  12  22  39  62  89 127 162 202 250 321 363
#     4  11  21  39  63  86 123 162 211 256 301 364
#
# _framework density 21.557331000000001
#
# number of rings (size 3 to 8) (size 9 to 14) (size 15 to 20)
#    0.000    1.500    2.500    2.625    1.750    3.000 
#    0.000    1.875    0.000    6.000    0.000    0.000 
#    0.000    0.000    0.000    0.000    0.000    0.000 
#
# Total GULP energy -178283.915113 kJ/mol
# GULP energy per Si atom -5571.372347 kJ/mol
# Density = 2.150827 g / cm^3
# Si number density = 21.557331 Si / 1000 Ang^3
#
#
#
# Elastic Constant Matrix: (Units=GPa)
#
#
# Indices 1 2 3 4 5 6 
#
# 1 38.8681 21.7034 7.9504 0.0000 7.6827 0.0000
# 2 21.7034 123.8353 38.1384 0.0000 3.3554 0.0000
# 3 7.9504 38.1384 42.3025 0.0000 5.0754 0.0000
# 4 0.0000 0.0000 0.0000 -10.2549 0.0000 20.0719
# 5 7.6827 3.3554 5.0754 0.0000 41.0746 0.0000
# 6 0.0000 0.0000 0.0000 20.0719 0.0000 -0.1604
#
#
#
# Elastic Compliance Matrix: (Units=1/GPa)
#
#
# Indices 1 2 3 4 5 6 
#
# 1 0.029563 -0.004873 -0.000555 0.000000 -0.005063 0.000000
# 2 -0.004873 0.011987 -0.010032 0.000000 0.001172 0.000000
# 3 -0.000555 -0.010032 0.033169 0.000000 -0.003175 0.000000
# 4 0.000000 0.000000 0.000000 0.000400 0.000000 0.050025
# 5 -0.005063 0.001172 -0.003175 0.000000 0.025590 0.000000
# 6 0.000000 0.000000 0.000000 0.050025 0.000000 0.025558
#
#
# Mechanical properties :
#
#
# Convention : Reuss Voigt Hill
#
# Bulk Modulus (GPa) = 22.83162 37.84337 30.33750
# Shear Modulus (GPa) = 29.10569 15.27944 22.19257
#
# Velocity S-wave (km/s) = 3.67843 2.66518 3.21201
# Velocity P-wave (km/s) = 5.35306 5.20229 5.27821
#
# Compressibility (1/GPa) = 0.04379890
#
# Stress axis : x y z
#
# Youngs Moduli (GPa) = 33.82561 83.42263 30.14857
#
# Poissons Ratio (x) = 0.40652 0.01674
# Poissons Ratio (y) = 0.16483 0.30245
# Poissons Ratio (z) = 0.01878 0.83689
#
# Static dielectric constant tensor:
#      x y z
#    x 1.809490 0.000000 -0.030440 
#    y 0.000000 1.889950 0.000000 
#    z -0.030440 0.000000 1.818160 
# 
# From -- ./inp_files/189450.got.cif
#   From: 2010.05.17/outbox.cif.g08.bks.cpg/sg12_95_cif.got.tgz:189450.got - 2010.06.03 13:09:07.
