data_PCOD9202594
_publ_section_title
;
Structure prediction by ZEFSAII (Michael W. Deem and Ramdas Pophale) SiO2 
 PCOD9202594
Probable space group: C 2/M
;
_chemical_formula_sum "Si O2"
_cell_formula_units_Z 48
_cell_length_a 19.712602
_cell_length_b 8.611900
_cell_length_c 27.405598
_cell_angle_alpha 90.000000
_cell_angle_beta 30.684868
_cell_angle_gamma 90.000000
_cell_volume 2374.221527
_symmetry_space_group_name_H-M "C 2/M"
_symmetry_group_IT_number 12
_symmetry_cell_setting 'monoclinic'
loop_
_space_group_symop_operation_xyz
x,y,z
-x,y,-z
-x,-y,-z
x,-y,z
1/2+x,1/2+y,z
1/2-x,1/2+y,-z
1/2-x,1/2-y,-z
1/2+x,1/2-y,z
loop_
_atom_site_type_symbol
_atom_site_label
_atom_site_fract_x
_atom_site_fract_y
_atom_site_fract_z
Si Si1 0.538488 0.818258 0.600958
Si Si2 0.806949 0.314724 0.665046
Si Si3 0.195845 0.187787 0.915113
Si Si4 0.246217 0.819098 0.403568
Si Si5 0.017789 0.181587 0.259499
Si Si6 0.587635 0.311561 0.875150
O O1 0.427117 0.792330 0.628434
O O2 0.677016 0.774822 0.490111
O O3 0.505214 0.719455 0.669083
O O4 0.535290 0.000000 0.616794
O O5 0.798508 0.500000 0.660170
O O6 0.821579 0.227686 0.605292
O O7 0.674202 0.261462 0.775664
O O8 0.334589 0.261184 0.844424
O O9 0.160057 0.231870 0.881155
O O10 0.206863 0.000000 0.909572
O O11 0.066130 0.235700 0.026353
O O12 0.400266 0.772324 0.305151
O O13 0.231169 0.000000 0.422816
O O14 0.003925 0.000000 0.258567
O O15 0.588696 0.500000 0.874149
#
# Coordination Sequence:
#
# PCOD9202594 Si02
#       6
#     8   8   8   8   8   8
#     4  11  22  40  65  88 114 151 195 239 287 346
#     4  10  20  38  62  89 118 153 192 233 285 346
#     4   9  16  33  60  89 116 149 191 234 285 341
#     4  12  26  41  57  82 119 157 195 241 291 343
#     4  12  24  39  59  86 119 154 195 241 289 342
#     4   8  15  31  60  90 116 148 189 233 282 344
#
# _framework density 20.217154000000001
#
# number of rings (size 3 to 8) (size 9 to 14) (size 15 to 20)
#    0.000    1.667    1.667    5.500    0.000    3.333 
#    0.000    3.333    0.000    0.000    0.000    0.000 
#    0.000    0.000    0.000    0.000    0.000    0.000 
#
# Total GULP energy -134152.385281 kJ/mol
# GULP energy per Si atom -5589.682720 kJ/mol
# Density = 2.017114 g / cm^3
# Si number density = 20.217154 Si / 1000 Ang^3
#
#
#
# Elastic Constant Matrix: (Units=GPa)
#
#
# Indices 1 2 3 4 5 6 
#
# 1 37.1542 9.8175 0.2885 0.0000 -8.3794 -0.0001
# 2 9.8175 16.4014 -2.9075 -0.0001 -1.4867 0.0000
# 3 0.2885 -2.9075 80.2201 -0.0004 -15.0829 0.0001
# 4 0.0000 -0.0001 -0.0004 26.8574 0.0001 -3.5667
# 5 -8.3794 -1.4867 -15.0829 0.0001 27.9201 0.0000
# 6 -0.0001 0.0000 0.0001 -3.5667 0.0000 22.9304
#
#
#
# Elastic Compliance Matrix: (Units=1/GPa)
#
#
# Indices 1 2 3 4 5 6 
#
# 1 0.034251 -0.019434 0.001014 0.000000 0.009792 0.000000
# 2 -0.019434 0.073019 0.002617 0.000000 -0.000531 0.000000
# 3 0.001014 0.002617 0.014069 0.000000 0.008044 0.000000
# 4 0.000000 0.000000 0.000000 0.038019 0.000000 0.005914
# 5 0.009792 -0.000531 0.008044 0.000000 0.043072 0.000000
# 6 0.000000 0.000000 0.000000 0.005914 0.000000 0.044530
#
#
# Mechanical properties :
#
#
# Convention : Reuss Voigt Hill
#
# Bulk Modulus (GPa) = 11.14450 16.46362 13.80406
# Shear Modulus (GPa) = 16.20855 23.98008 20.09432
#
# Velocity S-wave (km/s) = 2.83454 3.44775 3.15608
# Velocity P-wave (km/s) = 4.02954 4.90004 4.48596
#
# Compressibility (1/GPa) = 0.08973040
#
# Stress axis : x y z
#
# Youngs Moduli (GPa) = 29.19652 13.69506 71.07669
#
# Poissons Ratio (x) = 0.26615 -0.07204
# Poissons Ratio (y) = 0.56742 -0.18597
# Poissons Ratio (z) = -0.02959 -0.03583
#
# Static dielectric constant tensor:
#      x y z
#    x 1.712050 0.000000 -0.018710 
#    y 0.000000 1.677930 0.000000 
#    z -0.018710 0.000000 1.727500 
# 
# From -- ./inp_files/249348.got.cif
#   From: 2010.05.17/outbox.cif.g08.bks.cpg/sg12_125_cif.got.tgz:249348.got - 2010.06.03 13:09:07.
