data_PCOD9202177
_publ_section_title
;
Structure prediction by ZEFSAII (Michael W. Deem and Ramdas Pophale) SiO2 
 PCOD9202177
Probable space group: C 2/M
;
_chemical_formula_sum "Si O2"
_cell_formula_units_Z 32
_cell_length_a 10.554401
_cell_length_b 15.966829
_cell_length_c 15.113148
_cell_angle_alpha 90.000000
_cell_angle_beta 37.192207
_cell_angle_gamma 90.000000
_cell_volume 1539.560905
_symmetry_space_group_name_H-M "C 2/M"
_symmetry_group_IT_number 12
_symmetry_cell_setting 'monoclinic'
loop_
_space_group_symop_operation_xyz
x,y,z
-x,y,-z
-x,-y,-z
x,-y,z
1/2+x,1/2+y,z
1/2-x,1/2+y,-z
1/2-x,1/2-y,-z
1/2+x,1/2-y,z
loop_
_atom_site_type_symbol
_atom_site_label
_atom_site_fract_x
_atom_site_fract_y
_atom_site_fract_z
Si Si1 0.118029 0.778190 0.841263
Si Si2 0.429706 0.406732 0.284861
Si Si3 0.841235 0.408327 0.171465
Si Si4 0.574412 0.804909 0.551937
O O1 0.031246 0.838543 0.813111
O O2 0.114189 0.681489 0.809696
O O3 0.357729 0.808559 0.724330
O O4 0.000000 0.782314 0.000000
O O5 0.437721 0.500000 0.242847
O O6 0.608479 0.400949 0.259775
O O7 0.201893 0.387776 0.453352
O O8 0.858422 0.500000 0.207743
O O9 0.000000 0.411751 0.000000
O O10 0.500000 0.766013 0.500000
O O11 0.750000 0.750000 0.500000
#
# Coordination Sequence:
#
# PCOD9202177 Si02
#       4
#     8   8   8   8
#     4  10  21  35  58  89 117 152 198 252 296 348
#     4  10  21  38  61  84 116 161 202 242 300 364
#     4   9  18  34  56  82 114 151 193 238 299 362
#     4  10  20  38  59  87 119 158 199 244 299 359
#
# _framework density 20.785146999999998
#
# number of rings (size 3 to 8) (size 9 to 14) (size 15 to 20)
#    0.000    2.250    2.500    0.000    0.000    9.000 
#    0.000    0.000    0.000   15.000    0.000    0.000 
#    0.000    0.000    0.000    0.000    0.000    0.000 
#
# Total GULP energy -89166.841147 kJ/mol
# GULP energy per Si atom -5572.927572 kJ/mol
# Density = 2.073784 g / cm^3
# Si number density = 20.785147 Si / 1000 Ang^3
#
#
#
# Elastic Constant Matrix: (Units=GPa)
#
#
# Indices 1 2 3 4 5 6 
#
# 1 54.5836 25.4861 8.3259 -0.0016 -10.1217 0.0004
# 2 25.4861 183.0626 2.5233 -0.0009 23.6384 -0.0006
# 3 8.3259 2.5233 115.6294 -0.0012 -1.1246 -0.0002
# 4 -0.0016 -0.0009 -0.0012 39.2314 0.0011 -14.5872
# 5 -10.1217 23.6384 -1.1246 0.0011 12.6830 0.0008
# 6 0.0004 -0.0006 -0.0002 -14.5872 0.0008 61.4820
#
#
#
# Elastic Compliance Matrix: (Units=1/GPa)
#
#
# Indices 1 2 3 4 5 6 
#
# 1 0.031203 -0.009902 -0.001610 -0.000001 0.043214 -0.000001
# 2 -0.009902 0.010346 0.000223 0.000001 -0.027165 0.000001
# 3 -0.001610 0.000223 0.008750 0.000000 -0.000925 0.000000
# 4 -0.000001 0.000001 0.000000 0.027956 -0.000005 0.006633
# 5 0.043214 -0.027165 -0.000925 -0.000005 0.163879 -0.000004
# 6 -0.000001 0.000001 0.000000 0.006633 -0.000004 0.017839
#
#
# Mechanical properties :
#
#
# Convention : Reuss Voigt Hill
#
# Bulk Modulus (GPa) = 36.07447 47.32737 41.70092
# Shear Modulus (GPa) = 17.13554 43.80864 30.47209
#
# Velocity S-wave (km/s) = 2.87437 4.59594 3.83306
# Velocity P-wave (km/s) = 5.33007 7.14022 6.30049
#
# Compressibility (1/GPa) = 0.02772043
#
# Stress axis : x y z
#
# Youngs Moduli (GPa) = 32.04837 96.65768 114.28031
#
# Poissons Ratio (x) = 0.95710 0.18404
# Poissons Ratio (y) = 0.31734 -0.02549
# Poissons Ratio (z) = 0.05161 -0.02156
#
# Static dielectric constant tensor:
#      x y z
#    x 1.736830 0.000000 -0.010590 
#    y 0.000000 1.798860 0.000000 
#    z -0.010590 0.000000 1.809100 
# 
# From -- ./inp_files/45212.got.cif
#   From: 2010.05.17/outbox.cif.g08.bks.cpg/sg12_23_cif.got.tgz:45212.got - 2010.06.03 13:09:07.
