data_PCOD9202096
_publ_section_title
;
Structure prediction by ZEFSAII (Michael W. Deem and Ramdas Pophale) SiO2 
 PCOD9202096
Probable space group: C 2/M
;
_chemical_formula_sum "Si O2"
_cell_formula_units_Z 56
_cell_length_a 22.873674
_cell_length_b 26.777219
_cell_length_c 11.510458
_cell_angle_alpha 90.000000
_cell_angle_beta 22.314208
_cell_angle_gamma 90.000000
_cell_volume 2676.813435
_symmetry_space_group_name_H-M "C 2/M"
_symmetry_group_IT_number 12
_symmetry_cell_setting 'monoclinic'
loop_
_space_group_symop_operation_xyz
x,y,z
-x,y,-z
-x,-y,-z
x,-y,z
1/2+x,1/2+y,z
1/2-x,1/2+y,-z
1/2-x,1/2-y,-z
1/2+x,1/2-y,z
loop_
_atom_site_type_symbol
_atom_site_label
_atom_site_fract_x
_atom_site_fract_y
_atom_site_fract_z
Si Si1 0.087179 0.152268 0.059863
Si Si2 0.019313 0.631237 0.826730
Si Si3 0.316192 0.947963 0.850994
Si Si4 0.721977 0.681475 0.263770
Si Si5 0.815501 0.338157 0.853157
Si Si6 0.750205 0.275760 0.623690
Si Si7 0.240609 0.056517 0.719386
O O1 0.936604 0.154026 0.414785
O O2 0.228708 0.163410 0.889678
O O3 0.094860 0.196598 0.951932
O O4 0.111726 0.099840 0.947766
O O5 0.127908 0.679272 0.606722
O O6 0.105485 0.583140 0.613599
O O7 0.860841 0.647253 0.057279
O O8 0.000000 0.624041 0.000000
O O9 0.500000 0.948447 0.500000
O O10 0.278244 0.894227 0.970484
O O11 0.256546 0.948080 0.829055
O O12 0.267509 0.000000 0.999246
O O13 0.717571 0.732889 0.342790
O O14 0.749951 0.694728 0.077630
O O15 0.000000 0.332411 0.500000
O O16 0.750000 0.250000 0.500000
O O17 0.215915 0.000000 0.719359
#
# Coordination Sequence:
#
# PCOD9202096 Si02
#       7
#     8   8   8   8   8   8   8
#     4  10  23  39  62  93 122 158 203 255 309 360
#     4  11  22  39  61  91 117 157 211 252 297 366
#     4   8  13  26  52  80 105 144 194 238 285 344
#     4  12  23  37  62  91 127 157 200 259 307 357
#     4  10  20  38  58  85 125 163 202 247 303 370
#     4  11  23  43  63  87 119 162 208 251 302 367
#     4   9  19  38  60  83 120 163 201 246 304 362
#
# _framework density 20.920397000000001
#
# number of rings (size 3 to 8) (size 9 to 14) (size 15 to 20)
#    0.000    1.857    1.429    4.714    0.000    0.857 
#    0.000    2.857    0.000    4.286    0.000    0.000 
#    0.000    0.000    0.000    0.000    0.000    0.000 
#
# Total GULP energy -156171.514831 kJ/mol
# GULP energy per Si atom -5577.554101 kJ/mol
# Density = 2.087278 g / cm^3
# Si number density = 20.920397 Si / 1000 Ang^3
#
#
#
# Elastic Constant Matrix: (Units=GPa)
#
#
# Indices 1 2 3 4 5 6 
#
# 1 67.9076 30.2414 24.0718 -0.0305 16.9068 0.0179
# 2 30.2414 115.8393 34.8188 -0.0085 13.8744 0.0016
# 3 24.0718 34.8188 112.4838 -0.0840 12.1700 0.0452
# 4 -0.0305 -0.0085 -0.0840 12.9014 0.0608 10.6853
# 5 16.9068 13.8744 12.1700 0.0608 24.0972 -0.0369
# 6 0.0179 0.0016 0.0452 10.6853 -0.0369 20.4809
#
#
#
# Elastic Compliance Matrix: (Units=1/GPa)
#
#
# Indices 1 2 3 4 5 6 
#
# 1 0.019574 -0.003200 -0.002022 0.000191 -0.010870 -0.000132
# 2 -0.003200 0.010466 -0.002270 -0.000009 -0.002634 0.000007
# 3 -0.002022 -0.002270 0.010293 0.000164 -0.002474 -0.000111
# 4 0.000191 -0.000009 0.000164 0.136497 -0.000666 -0.071215
# 5 -0.010870 -0.002634 -0.002474 -0.000666 0.051894 0.000456
# 6 -0.000132 0.000007 -0.000111 -0.071215 0.000456 0.085981
#
#
# Mechanical properties :
#
#
# Convention : Reuss Voigt Hill
#
# Bulk Modulus (GPa) = 39.44898 52.72162 46.08530
# Shear Modulus (GPa) = 14.78682 25.30251 20.04466
#
# Velocity S-wave (km/s) = 2.66148 3.48151 3.09874
# Velocity P-wave (km/s) = 5.32375 6.43560 5.90590
#
# Compressibility (1/GPa) = 0.02534920
#
# Stress axis : x y z
#
# Youngs Moduli (GPa) = 51.08727 95.54843 97.15080
#
# Poissons Ratio (x) = 0.30579 0.19644
# Poissons Ratio (y) = 0.16350 0.22051
# Poissons Ratio (z) = 0.10330 0.21687
#
# Static dielectric constant tensor:
#      x y z
#    x 1.736820 -0.000050 0.033970 
#    y -0.000050 1.829920 0.000110 
#    z 0.033970 0.000110 1.668720 
# 
# From -- ./inp_files/178697.got.cif
#   From: 2010.05.17/outbox.cif.g08.bks.cpg/sg12_90_cif.got.tgz:178697.got - 2010.06.03 13:09:07.
