data_PCOD9202775
_publ_section_title
;
Structure prediction by ZEFSAII (Michael W. Deem and Ramdas Pophale) SiO2 
 PCOD9202775
Probable space group: C 2/M
;
_chemical_formula_sum "Si O2"
_cell_formula_units_Z 32
_cell_length_a 15.987196
_cell_length_b 14.712554
_cell_length_c 13.544059
_cell_angle_alpha 90.000000
_cell_angle_beta 28.161337
_cell_angle_gamma 90.000000
_cell_volume 1503.525084
_symmetry_space_group_name_H-M "C 2/M"
_symmetry_group_IT_number 12
_symmetry_cell_setting 'monoclinic'
loop_
_space_group_symop_operation_xyz
x,y,z
-x,y,-z
-x,-y,-z
x,-y,z
1/2+x,1/2+y,z
1/2-x,1/2+y,-z
1/2-x,1/2-y,-z
1/2+x,1/2-y,z
loop_
_atom_site_type_symbol
_atom_site_label
_atom_site_fract_x
_atom_site_fract_y
_atom_site_fract_z
Si Si1 0.523666 0.401604 0.592583
Si Si2 0.930136 0.696230 0.687258
Si Si3 0.933286 0.103980 0.965406
Si Si4 0.227733 0.357509 0.516375
O O1 0.500000 0.404177 0.500000
O O2 0.450890 0.500000 0.704622
O O3 0.441279 0.303221 0.704721
O O4 0.727151 0.394927 0.421398
O O5 0.000000 0.687889 0.500000
O O6 0.050881 0.634962 0.635318
O O7 0.730576 0.662259 0.900036
O O8 0.104598 0.105297 0.718376
O O9 0.873663 0.000000 0.042877
O O10 0.000000 0.142258 0.000000
O O11 0.250000 0.250000 0.500000
#
# Coordination Sequence:
#
# PCOD9202775 Si02
#       4
#     8   8   8   8
#     4   9  19  36  60  85 116 161 208 252 297 354
#     4  10  20  38  63  91 124 163 202 249 314 374
#     4  11  23  37  60  95 129 159 200 255 313 375
#     4  10  21  38  62  88 121 165 203 251 306 362
#
# _framework density 21.283317
#
# number of rings (size 3 to 8) (size 9 to 14) (size 15 to 20)
#    0.000    2.000    2.500    0.750    0.000    6.500 
#    0.000    0.000    0.000    8.250    0.000    0.000 
#    0.000    0.000    0.000    0.000    0.000    0.000 
#
# Total GULP energy -89082.144106 kJ/mol
# GULP energy per Si atom -5567.634007 kJ/mol
# Density = 2.123487 g / cm^3
# Si number density = 21.283317 Si / 1000 Ang^3
#
#
#
# Elastic Constant Matrix: (Units=GPa)
#
#
# Indices 1 2 3 4 5 6 
#
# 1 180.2256 37.6375 45.6285 -0.0001 -37.8896 0.0001
# 2 37.6375 112.5549 37.2406 -0.0005 -35.4841 0.0004
# 3 45.6285 37.2406 70.3811 -0.0001 -33.1871 0.0006
# 4 -0.0001 -0.0005 -0.0001 17.9551 0.0003 15.3726
# 5 -37.8896 -35.4841 -33.1871 0.0003 43.3705 -0.0004
# 6 0.0001 0.0004 0.0006 15.3726 -0.0004 -38.1716
#
#
#
# Elastic Compliance Matrix: (Units=1/GPa)
#
#
# Indices 1 2 3 4 5 6 
#
# 1 0.007099 -0.000254 -0.002568 0.000000 0.004029 0.000000
# 2 -0.000254 0.012315 -0.002668 0.000000 0.007813 0.000000
# 3 -0.002568 -0.002668 0.023777 0.000000 0.013768 0.000000
# 4 0.000000 0.000000 0.000000 0.041415 0.000000 0.016679
# 5 0.004029 0.007813 0.013768 0.000000 0.043504 0.000000
# 6 0.000000 0.000000 0.000000 0.016679 0.000000 -0.019481
#
#
# Mechanical properties :
#
#
# Convention : Reuss Voigt Hill
#
# Bulk Modulus (GPa) = 31.04507 67.13052 49.08780
# Shear Modulus (GPa) = 38.35961 20.80781 29.58371
#
# Velocity S-wave (km/s) = 4.24999 3.13015 3.73231
# Velocity P-wave (km/s) = 6.22105 6.68383 6.45659
#
# Compressibility (1/GPa) = 0.03221123
#
# Stress axis : x y z
#
# Youngs Moduli (GPa) = 140.86867 81.20095 42.05771
#
# Poissons Ratio (x) = 0.02062 0.10801
# Poissons Ratio (y) = 0.03578 0.11220
# Poissons Ratio (z) = 0.36176 0.21662
#
# Static dielectric constant tensor:
#      x y z
#    x 1.919870 0.000000 0.022650 
#    y 0.000000 1.796060 0.000000 
#    z 0.022650 0.000000 1.735440 
# 
# From -- ./inp_files/10156.got.cif
#   From: 2010.05.17/outbox.cif.g08.bks.cpg/sg12_6_cif.got.tgz:10156.got - 2010.06.03 13:09:07.
