data_PCOD9202710
_publ_section_title
;
Structure prediction by ZEFSAII (Michael W. Deem and Ramdas Pophale) SiO2 
 PCOD9202710
Probable space group: C 2/M
;
_chemical_formula_sum "Si O2"
_cell_formula_units_Z 64
_cell_length_a 17.644514
_cell_length_b 14.470017
_cell_length_c 17.234775
_cell_angle_alpha 90.000000
_cell_angle_beta 47.098059
_cell_angle_gamma 90.000000
_cell_volume 3223.322432
_symmetry_space_group_name_H-M "C 2/M"
_symmetry_group_IT_number 12
_symmetry_cell_setting 'monoclinic'
loop_
_space_group_symop_operation_xyz
x,y,z
-x,y,-z
-x,-y,-z
x,-y,z
1/2+x,1/2+y,z
1/2-x,1/2+y,-z
1/2-x,1/2-y,-z
1/2+x,1/2-y,z
loop_
_atom_site_type_symbol
_atom_site_label
_atom_site_fract_x
_atom_site_fract_y
_atom_site_fract_z
Si Si1 0.740986 0.231877 0.742085
Si Si2 0.046228 0.892822 0.751845
Si Si3 0.512850 0.234900 0.900201
Si Si4 0.323587 0.890096 0.972556
Si Si5 0.800660 0.389476 0.808783
Si Si6 0.267087 0.817209 0.559329
Si Si7 0.358782 0.391040 0.776587
Si Si8 0.988197 0.390372 0.420723
O O1 0.626683 0.188788 0.814384
O O2 0.731717 0.324735 0.801845
O O3 0.777506 0.260989 0.632089
O O4 0.820650 0.166084 0.729932
O O5 0.020130 0.825768 0.841523
O O6 0.165213 0.879061 0.644201
O O7 0.969977 0.866148 0.734456
O O8 0.025984 0.000000 0.785063
O O9 0.420479 0.170343 0.933532
O O10 0.500000 0.255231 0.000000
O O11 0.291655 0.868786 0.906133
O O12 0.349104 0.000000 0.957140
O O13 0.226764 0.874192 0.096696
O O14 0.783453 0.500000 0.808759
O O15 0.917291 0.363540 0.700517
O O16 0.250000 0.750000 0.500000
O O17 0.374258 0.869050 0.470863
O O18 0.359014 0.500000 0.759239
O O19 0.998489 0.500000 0.419599
O O20 0.000000 0.352206 0.500000
#
# Coordination Sequence:
#
# PCOD9202710 Si02
#       8
#     8   8   8   8   8   8   8   8
#     4  11  23  38  61  88 124 158 199 261 303 366
#     4  10  24  43  62  87 127 168 204 253 307 367
#     4  11  23  37  58  92 126 166 206 246 309 362
#     4  10  22  40  64  92 127 162 206 259 304 361
#     4  10  22  38  63  95 121 156 205 256 306 364
#     4  11  25  40  62  91 121 160 203 254 316 369
#     4  10  22  42  65  87 119 169 209 246 308 365
#     4  10  20  38  63  88 115 153 202 253 308 361
#
# _framework density 19.85529
#
# number of rings (size 3 to 8) (size 9 to 14) (size 15 to 20)
#    0.000    1.625    2.500    1.125    7.000    4.000 
#    0.000    1.250    0.000    1.500    0.000    0.000 
#    0.000    0.000    0.000    0.000    0.000    0.000 
#
# Total GULP energy -178777.498347 kJ/mol
# GULP energy per Si atom -5586.796823 kJ/mol
# Density = 1.981010 g / cm^3
# Si number density = 19.855290 Si / 1000 Ang^3
#
#
#
# Elastic Constant Matrix: (Units=GPa)
#
#
# Indices 1 2 3 4 5 6 
#
# 1 109.6940 34.3059 19.1242 0.0000 7.8157 0.0000
# 2 34.3059 51.1500 4.6804 0.0000 7.0932 0.0000
# 3 19.1242 4.6804 41.7832 0.0000 -1.2635 0.0000
# 4 0.0000 0.0000 0.0000 5.4764 0.0000 -10.5844
# 5 7.8157 7.0932 -1.2635 0.0000 40.2146 0.0000
# 6 0.0000 0.0000 0.0000 -10.5844 0.0000 30.4697
#
#
#
# Elastic Compliance Matrix: (Units=1/GPa)
#
#
# Indices 1 2 3 4 5 6 
#
# 1 0.012478 -0.007755 -0.004879 0.000000 -0.001211 0.000000
# 2 -0.007755 0.025094 0.000651 0.000000 -0.002899 0.000000
# 3 -0.004879 0.000651 0.026143 0.000000 0.001655 0.000000
# 4 0.000000 0.000000 0.000000 0.555664 0.000000 0.193023
# 5 -0.001211 -0.002899 0.001655 0.000000 0.025665 0.000000
# 6 0.000000 0.000000 0.000000 0.193023 0.000000 0.099871
#
#
# Mechanical properties :
#
#
# Convention : Reuss Voigt Hill
#
# Bulk Modulus (GPa) = 25.15781 35.42757 30.29269
# Shear Modulus (GPa) = 6.39278 24.86658 15.62968
#
# Velocity S-wave (km/s) = 1.79629 3.54275 2.80872
# Velocity P-wave (km/s) = 4.12314 5.88357 5.08019
#
# Compressibility (1/GPa) = 0.03974909
#
# Stress axis : x y z
#
# Youngs Moduli (GPa) = 80.13801 39.85035 38.25043
#
# Poissons Ratio (x) = 0.30903 0.18664
# Poissons Ratio (y) = 0.62146 -0.02489
# Poissons Ratio (z) = 0.39102 -0.02594
#
# Static dielectric constant tensor:
#      x y z
#    x 1.652190 0.000000 -0.009270 
#    y 0.000000 1.705480 0.000000 
#    z -0.009270 0.000000 1.700570 
# 
# From -- ./inp_files/270681.got.cif
#   From: 2010.05.17/outbox.cif.g08.bks.cpg/sg12_136_cif.got.tgz:270681.got - 2010.06.03 13:09:07.
