data_PCOD9202545
_publ_section_title
;
Structure prediction by ZEFSAII (Michael W. Deem and Ramdas Pophale) SiO2 
 PCOD9202545
Probable space group: C 2/M
;
_chemical_formula_sum "Si O2"
_cell_formula_units_Z 52
_cell_length_a 9.026785
_cell_length_b 17.321386
_cell_length_c 19.838094
_cell_angle_alpha 90.000000
_cell_angle_beta 51.545839
_cell_angle_gamma 90.000000
_cell_volume 2429.048591
_symmetry_space_group_name_H-M "C 2/M"
_symmetry_group_IT_number 12
_symmetry_cell_setting 'monoclinic'
loop_
_space_group_symop_operation_xyz
x,y,z
-x,y,-z
-x,-y,-z
x,-y,z
1/2+x,1/2+y,z
1/2-x,1/2+y,-z
1/2-x,1/2-y,-z
1/2+x,1/2-y,z
loop_
_atom_site_type_symbol
_atom_site_label
_atom_site_fract_x
_atom_site_fract_y
_atom_site_fract_z
Si Si1 0.929720 0.858481 0.713415
Si Si2 0.000000 0.642660 0.000000
Si Si3 0.016360 0.385453 0.848087
Si Si4 0.472625 0.750669 0.436122
Si Si5 0.827545 0.585799 0.640586
Si Si6 0.307007 0.416150 0.167193
Si Si7 0.908572 0.792345 0.870788
O O1 0.729866 0.902090 0.763593
O O2 0.944654 0.795991 0.649927
O O3 0.926632 0.816704 0.787243
O O4 0.122803 0.907133 0.662244
O O5 0.810805 0.694547 0.050508
O O6 0.997286 0.593577 0.069446
O O7 0.851546 0.413319 0.845524
O O8 0.987981 0.292831 0.855840
O O9 0.500000 0.710106 0.500000
O O10 0.556099 0.837614 0.411635
O O11 0.250000 0.750000 0.500000
O O12 0.908015 0.500000 0.603993
O O13 0.791270 0.590700 0.731549
O O14 0.403229 0.500000 0.137928
O O15 0.462100 0.349265 0.121281
#
# Coordination Sequence:
#
# PCOD9202545 Si02
#       7
#     8   4   8   8   8   8   8
#     4  10  21  39  60  90 118 164 202 250 303 367
#     4  10  22  36  55  90 119 164 206 260 298 358
#     4  11  21  36  63  88 124 157 209 251 307 360
#     4  12  24  39  63  96 126 159 205 252 300 367
#     4  10  22  42  64  88 122 164 205 248 304 362
#     4  10  22  39  62  90 121 160 205 253 306 364
#     4  10  20  38  62  86 122 160 209 253 308 362
#
# _framework density 21.407558999999999
#
# number of rings (size 3 to 8) (size 9 to 14) (size 15 to 20)
#    0.000    1.538    1.538    5.077    2.154    1.538 
#    0.000    4.615    0.000    0.923    0.000    0.000 
#    0.000    0.000    0.000    0.000    0.000    0.000 
#
# Total GULP energy -145216.480961 kJ/mol
# GULP energy per Si atom -5585.249268 kJ/mol
# Density = 2.135883 g / cm^3
# Si number density = 21.407559 Si / 1000 Ang^3
#
#
#
# Elastic Constant Matrix: (Units=GPa)
#
#
# Indices 1 2 3 4 5 6 
#
# 1 139.4957 20.1553 41.1698 0.0000 -1.3821 -0.0001
# 2 20.1553 107.3433 22.1758 0.0000 -5.3504 0.0000
# 3 41.1698 22.1758 79.4068 0.0000 -11.0146 -0.0001
# 4 0.0000 0.0000 0.0000 -3.6345 0.0000 -10.5694
# 5 -1.3821 -5.3504 -11.0146 0.0000 34.8329 0.0001
# 6 -0.0001 0.0000 -0.0001 -10.5694 0.0001 12.5270
#
#
#
# Elastic Compliance Matrix: (Units=1/GPa)
#
#
# Indices 1 2 3 4 5 6 
#
# 1 0.008562 -0.000759 -0.004389 0.000000 -0.001165 0.000000
# 2 -0.000759 0.009969 -0.002282 0.000000 0.000779 0.000000
# 3 -0.004389 -0.002282 0.016141 0.000000 0.004579 0.000000
# 4 0.000000 0.000000 0.000000 -0.079668 0.000000 -0.067218
# 5 -0.001165 0.000779 0.004579 0.000000 0.030230 0.000000
# 6 0.000000 0.000000 0.000000 -0.067218 0.000000 0.023114
#
#
# Mechanical properties :
#
#
# Convention : Reuss Voigt Hill
#
# Bulk Modulus (GPa) = 50.47427 54.80528 52.63978
# Shear Modulus (GPa) = 167.71283 24.92809 96.32046
#
# Velocity S-wave (km/s) = 8.86075 3.41611 6.71501
# Velocity P-wave (km/s) = 11.32752 6.41999 9.20676
#
# Compressibility (1/GPa) = 0.01981208
#
# Stress axis : x y z
#
# Youngs Moduli (GPa) = 116.79420 100.31329 61.95255
#
# Poissons Ratio (x) = 0.07614 0.27189
# Poissons Ratio (y) = 0.08865 0.14139
# Poissons Ratio (z) = 0.51258 0.22895
#
# Static dielectric constant tensor:
#      x y z
#    x 1.743520 0.000000 0.010330 
#    y 0.000000 1.742810 0.000000 
#    z 0.010330 0.000000 1.803230 
# 
# From -- ./inp_files/301062.got.cif
#   From: 2010.05.17/outbox.cif.g08.bks.cpg/sg12_151_cif.got.tgz:301062.got - 2010.06.03 13:09:07.
