data_PCOD9202510
_publ_section_title
;
Structure prediction by ZEFSAII (Michael W. Deem and Ramdas Pophale) SiO2 
 PCOD9202510
Probable space group: C 2/M
;
_chemical_formula_sum "Si O2"
_cell_formula_units_Z 48
_cell_length_a 8.488633
_cell_length_b 12.220486
_cell_length_c 24.017615
_cell_angle_alpha 90.000000
_cell_angle_beta 101.385833
_cell_angle_gamma 90.000000
_cell_volume 2442.440457
_symmetry_space_group_name_H-M "C 2/M"
_symmetry_group_IT_number 12
_symmetry_cell_setting 'monoclinic'
loop_
_space_group_symop_operation_xyz
x,y,z
-x,y,-z
-x,-y,-z
x,-y,z
1/2+x,1/2+y,z
1/2-x,1/2+y,-z
1/2-x,1/2-y,-z
1/2+x,1/2-y,z
loop_
_atom_site_type_symbol
_atom_site_label
_atom_site_fract_x
_atom_site_fract_y
_atom_site_fract_z
Si Si1 0.745618 0.623464 0.067992
Si Si2 0.532218 0.123175 0.436442
Si Si3 0.453509 0.500000 0.327857
Si Si4 0.280690 0.813836 0.735538
Si Si5 0.683285 0.305192 0.377908
Si Si6 0.373296 0.876661 0.201762
Si Si7 0.500000 0.790685 0.000000
O O1 0.680739 0.500000 0.060107
O O2 0.822491 0.637884 0.134187
O O3 0.882101 0.640400 0.030805
O O4 0.609168 0.712172 0.046039
O O5 0.500000 0.127018 0.500000
O O6 0.650609 0.218072 0.424514
O O7 0.362134 0.146402 0.394853
O O8 0.589829 0.000000 0.425834
O O9 0.351335 0.404705 0.287006
O O10 0.556951 0.403376 0.367543
O O11 0.332585 0.763418 0.679927
O O12 0.436791 0.863154 0.776277
O O13 0.211961 0.714791 0.767247
O O14 0.325545 0.000000 0.216117
#
# Coordination Sequence:
#
# PCOD9202510 Si02
#       7
#     8   8   4   8   8   8   4
#     4  10  21  38  60  88 118 157 200 246 296 349
#     4  11  25  43  65  91 121 155 199 249 299 352
#     4  12  24  40  62  90 121 157 201 243 291 363
#     4  12  24  40  62  89 122 160 198 243 299 358
#     4  12  24  42  64  89 122 158 200 242 298 359
#     4  11  24  39  61  90 124 158 199 248 299 352
#     4  10  20  38  62  84 120 156 202 246 294 350
#
# _framework density 19.652477000000001
#
# number of rings (size 3 to 8) (size 9 to 14) (size 15 to 20)
#    0.000    0.833    5.000    2.000    2.333    1.333 
#    0.000    0.417    1.833    0.000    0.000    0.000 
#    0.000    0.000    0.000    0.000    0.000    0.000 
#
# Total GULP energy -133632.175279 kJ/mol
# GULP energy per Si atom -5568.007303 kJ/mol
# Density = 1.960775 g / cm^3
# Si number density = 19.652477 Si / 1000 Ang^3
#
#
#
# Elastic Constant Matrix: (Units=GPa)
#
#
# Indices 1 2 3 4 5 6 
#
# 1 15.9971 6.3184 -8.8292 0.0000 2.3955 0.0000
# 2 6.3184 144.3346 25.9576 0.0000 -13.4609 0.0000
# 3 -8.8292 25.9576 51.5115 0.0000 7.4299 0.0000
# 4 0.0000 0.0000 0.0000 137.6556 0.0000 93.7726
# 5 2.3955 -13.4609 7.4299 0.0000 28.3174 0.0000
# 6 0.0000 0.0000 0.0000 93.7726 0.0000 75.6318
#
#
#
# Elastic Compliance Matrix: (Units=1/GPa)
#
#
# Indices 1 2 3 4 5 6 
#
# 1 0.079570 -0.008648 0.020330 0.000000 -0.016176 0.000000
# 2 -0.008648 0.009246 -0.007152 0.000000 0.007003 0.000000
# 3 0.020330 -0.007152 0.028311 0.000000 -0.012548 0.000000
# 4 0.000000 0.000000 0.000000 0.046749 0.000000 -0.057961
# 5 -0.016176 0.007003 -0.012548 0.000000 0.043304 0.000000
# 6 0.000000 0.000000 0.000000 -0.057961 0.000000 0.085086
#
#
# Mechanical properties :
#
#
# Convention : Reuss Voigt Hill
#
# Bulk Modulus (GPa) = 7.92474 28.74853 18.33663
# Shear Modulus (GPa) = 15.37190 60.88072 38.12631
#
# Velocity S-wave (km/s) = 2.79979 5.57188 4.40935
# Velocity P-wave (km/s) = 3.80697 7.48697 5.93918
#
# Compressibility (1/GPa) = 0.12618716
#
# Stress axis : x y z
#
# Youngs Moduli (GPa) = 12.56757 108.15167 35.32134
#
# Poissons Ratio (x) = 0.93530 -0.71807
# Poissons Ratio (y) = 0.10868 0.25261
# Poissons Ratio (z) = -0.25549 0.77348
#
# Static dielectric constant tensor:
#      x y z
#    x 1.700350 0.000000 -0.009510 
#    y 0.000000 1.672740 0.000000 
#    z -0.009510 0.000000 1.664870 
# 
# From -- ./inp_files/332000.got.cif
#   From: 2010.05.17/outbox.cif.g08.bks.cpg/sg12_166_cif.got.tgz:332000.got - 2010.06.03 13:09:07.
