data_PCOD9202233
_publ_section_title
;
Structure prediction by ZEFSAII (Michael W. Deem and Ramdas Pophale) SiO2 
 PCOD9202233
Probable space group: C 2/M
;
_chemical_formula_sum "Si O2"
_cell_formula_units_Z 64
_cell_length_a 16.706112
_cell_length_b 21.858768
_cell_length_c 8.979231
_cell_angle_alpha 90.000000
_cell_angle_beta 98.458080
_cell_angle_gamma 90.000000
_cell_volume 3243.327767
_symmetry_space_group_name_H-M "C 2/M"
_symmetry_group_IT_number 12
_symmetry_cell_setting 'monoclinic'
loop_
_space_group_symop_operation_xyz
x,y,z
-x,y,-z
-x,-y,-z
x,-y,z
1/2+x,1/2+y,z
1/2-x,1/2+y,-z
1/2-x,1/2-y,-z
1/2+x,1/2-y,z
loop_
_atom_site_type_symbol
_atom_site_label
_atom_site_fract_x
_atom_site_fract_y
_atom_site_fract_z
Si Si1 0.680891 0.842095 0.796504
Si Si2 0.754426 0.072186 0.063623
Si Si3 0.906045 0.565667 0.440140
Si Si4 0.939534 0.748336 0.093025
Si Si5 0.692135 0.124032 0.356329
Si Si6 0.408831 0.618663 0.948542
Si Si7 0.937952 0.732220 0.613971
Si Si8 0.175125 0.159997 0.367528
O O1 0.623239 0.877261 0.665184
O O2 0.635216 0.790448 0.873673
O O3 0.755974 0.813862 0.726035
O O4 0.709312 0.894871 0.915042
O O5 0.725493 0.107467 0.203771
O O6 0.847308 0.083712 0.040126
O O7 0.738736 0.000000 0.072161
O O8 0.888020 0.500000 0.362091
O O9 0.858817 0.569915 0.582461
O O10 0.000000 0.569143 0.500000
O O11 0.911787 0.810343 0.005144
O O12 0.999503 0.758078 0.246780
O O13 0.000000 0.712048 0.000000
O O14 0.626101 0.180149 0.348184
O O15 0.769371 0.131330 0.487948
O O16 0.500000 0.595933 0.000000
O O17 0.377514 0.619981 0.766967
O O18 0.879987 0.789763 0.567803
O O19 0.000000 0.713503 0.500000
#
# Coordination Sequence:
#
# PCOD9202233 Si02
#       8
#     8   8   8   8   8   8   8   8
#     4  10  22  38  62  88 127 157 208 250 306 362
#     4  11  25  41  64  91 120 162 209 258 301 352
#     4  10  20  38  60  82 119 170 216 252 298 356
#     4  11  21  38  61  90 124 162 193 244 309 372
#     4  11  23  38  58  89 125 159 205 255 303 355
#     4  10  22  42  64  89 121 158 202 248 309 370
#     4  12  23  36  59  91 130 158 198 241 308 373
#     4  10  22  38  58  89 120 162 197 242 307 367
#
# _framework density 19.732818999999999
#
# number of rings (size 3 to 8) (size 9 to 14) (size 15 to 20)
#    0.000    1.375    2.500    4.500    3.500    1.250 
#    0.000    0.625    0.000    4.500    0.000    0.000 
#    0.000    0.000    0.000    0.000    0.000    0.000 
#
# Total GULP energy -178314.925010 kJ/mol
# GULP energy per Si atom -5572.341407 kJ/mol
# Density = 1.968791 g / cm^3
# Si number density = 19.732819 Si / 1000 Ang^3
#
#
#
# Elastic Constant Matrix: (Units=GPa)
#
#
# Indices 1 2 3 4 5 6 
#
# 1 118.9954 26.1385 38.2797 0.0000 -4.3686 0.0000
# 2 26.1385 47.3845 14.8444 0.0000 -4.4135 0.0000
# 3 38.2797 14.8444 81.8915 0.0000 -8.7763 0.0000
# 4 0.0000 0.0000 0.0000 21.1025 0.0000 -4.7048
# 5 -4.3686 -4.4135 -8.7763 0.0000 35.1026 0.0000
# 6 0.0000 0.0000 0.0000 -4.7048 0.0000 51.0926
#
#
#
# Elastic Compliance Matrix: (Units=1/GPa)
#
#
# Indices 1 2 3 4 5 6 
#
# 1 0.010773 -0.004647 -0.004225 0.000000 -0.000300 0.000000
# 2 -0.004647 0.024496 -0.002055 0.000000 0.001988 0.000000
# 3 -0.004225 -0.002055 0.014873 0.000000 0.002934 0.000000
# 4 0.000000 0.000000 0.000000 0.048381 0.000000 0.004455
# 5 -0.000300 0.001988 0.002934 0.000000 0.029434 0.000000
# 6 0.000000 0.000000 0.000000 0.004455 0.000000 0.019983
#
#
# Mechanical properties :
#
#
# Convention : Reuss Voigt Hill
#
# Bulk Modulus (GPa) = 35.35142 45.19965 40.27553
# Shear Modulus (GPa) = 27.89806 32.72681 30.31243
#
# Velocity S-wave (km/s) = 3.76412 4.07688 3.92362
# Velocity P-wave (km/s) = 6.07004 6.71691 6.40165
#
# Compressibility (1/GPa) = 0.02828741
#
# Stress axis : x y z
#
# Youngs Moduli (GPa) = 92.82767 40.82270 67.23373
#
# Poissons Ratio (x) = 0.18969 0.28409
# Poissons Ratio (y) = 0.43134 0.13819
# Poissons Ratio (z) = 0.39224 0.08390
#
# Static dielectric constant tensor:
#      x y z
#    x 1.728820 0.000000 0.012230 
#    y 0.000000 1.708410 0.000000 
#    z 0.012230 0.000000 1.749710 
# 
# From -- ./inp_files/65885.got.cif
#   From: 2010.05.17/outbox.cif.g08.bks.cpg/sg12_33_cif.got.tgz:65885.got - 2010.06.03 13:09:07.
