data_PCOD9202321
_publ_section_title
;
Structure prediction by ZEFSAII (Michael W. Deem and Ramdas Pophale) SiO2 
 PCOD9202321
Probable space group: C 2/M
;
_chemical_formula_sum "Si O2"
_cell_formula_units_Z 64
_cell_length_a 17.215182
_cell_length_b 16.165681
_cell_length_c 15.521440
_cell_angle_alpha 90.000000
_cell_angle_beta 45.298211
_cell_angle_gamma 90.000000
_cell_volume 3070.232832
_symmetry_space_group_name_H-M "C 2/M"
_symmetry_group_IT_number 12
_symmetry_cell_setting 'monoclinic'
loop_
_space_group_symop_operation_xyz
x,y,z
-x,y,-z
-x,-y,-z
x,-y,z
1/2+x,1/2+y,z
1/2-x,1/2+y,-z
1/2-x,1/2-y,-z
1/2+x,1/2-y,z
loop_
_atom_site_type_symbol
_atom_site_label
_atom_site_fract_x
_atom_site_fract_y
_atom_site_fract_z
Si Si1 0.918563 0.171714 0.375415
Si Si2 0.763742 0.645068 0.339514
Si Si3 0.860130 0.245431 0.968340
Si Si4 0.975973 0.095990 0.158053
Si Si5 0.468968 0.150402 0.270817
Si Si6 0.802198 0.199036 0.198508
Si Si7 0.080144 0.403847 0.358407
Si Si8 0.414118 0.409774 0.646305
O O1 0.825723 0.148877 0.515400
O O2 0.913216 0.112483 0.297148
O O3 0.912962 0.267115 0.354441
O O4 0.037736 0.157615 0.326605
O O5 0.873625 0.605929 0.291768
O O6 0.791984 0.737188 0.284908
O O7 0.702574 0.604505 0.305869
O O8 0.919657 0.156157 0.915006
O O9 0.941338 0.313735 0.865493
O O10 0.750000 0.250000 0.000000
O O11 0.833849 0.251328 0.089601
O O12 0.896647 0.133296 0.146962
O O13 0.000580 0.000000 0.126171
O O14 0.521387 0.104986 0.311569
O O15 0.687773 0.152512 0.274682
O O16 0.109373 0.500000 0.349847
O O17 0.000000 0.378691 0.500000
O O18 0.500000 0.409879 0.500000
O O19 0.419067 0.500000 0.684769
#
# Coordination Sequence:
#
# PCOD9202321 Si02
#       8
#     8   8   8   8   8   8   8   8
#     4  10  20  38  60  95 129 163 210 261 318 392
#     4  11  22  35  66  93 124 170 208 264 323 386
#     4  11  24  45  65  90 125 169 222 272 315 380
#     4  11  25  41  66 101 132 166 213 274 336 387
#     4  11  22  41  62  90 125 164 215 259 319 381
#     4  12  23  42  67  92 129 170 221 269 319 382
#     4  11  25  41  62  95 136 173 207 257 324 397
#     4   9  19  35  55  85 122 164 209 254 310 371
#
# _framework density 20.845324000000002
#
# number of rings (size 3 to 8) (size 9 to 14) (size 15 to 20)
#    0.000    1.250    3.750    3.000    3.500    3.500 
#    0.000    0.000    0.000    0.750    0.000    1.750 
#    0.000    0.000    0.000    0.000    0.000    0.000 
#
# Total GULP energy -178800.147856 kJ/mol
# GULP energy per Si atom -5587.504621 kJ/mol
# Density = 2.079788 g / cm^3
# Si number density = 20.845324 Si / 1000 Ang^3
#
#
#
# Elastic Constant Matrix: (Units=GPa)
#
#
# Indices 1 2 3 4 5 6 
#
# 1 141.2037 20.1520 42.4061 0.0000 -4.2927 0.0000
# 2 20.1520 53.2589 8.4286 0.0000 -3.7043 0.0000
# 3 42.4061 8.4286 103.8250 0.0000 3.9540 0.0000
# 4 0.0000 0.0000 0.0000 15.3340 0.0000 5.2761
# 5 -4.2927 -3.7043 3.9540 0.0000 32.6737 0.0000
# 6 0.0000 0.0000 0.0000 5.2761 0.0000 23.0893
#
#
#
# Elastic Compliance Matrix: (Units=1/GPa)
#
#
# Indices 1 2 3 4 5 6 
#
# 1 0.008481 -0.002602 -0.003299 0.000000 0.001219 0.000000
# 2 -0.002602 0.020001 -0.000637 0.000000 0.002003 0.000000
# 3 -0.003299 -0.000637 0.011101 0.000000 -0.001849 0.000000
# 4 0.000000 0.000000 0.000000 0.070780 0.000000 -0.016174
# 5 0.001219 0.002003 -0.001849 0.000000 0.031217 0.000000
# 6 0.000000 0.000000 0.000000 -0.016174 0.000000 0.047006
#
#
# Mechanical properties :
#
#
# Convention : Reuss Voigt Hill
#
# Bulk Modulus (GPa) = 37.72685 48.91790 43.32237
# Shear Modulus (GPa) = 23.75317 29.37280 26.56299
#
# Velocity S-wave (km/s) = 3.37931 3.75785 3.57359
# Velocity P-wave (km/s) = 5.77616 6.50743 6.15267
#
# Compressibility (1/GPa) = 0.02650632
#
# Stress axis : x y z
#
# Youngs Moduli (GPa) = 117.90788 49.99760 90.07996
#
# Poissons Ratio (x) = 0.13010 0.29719
# Poissons Ratio (y) = 0.30682 0.05739
# Poissons Ratio (z) = 0.38900 0.03185
#
# Static dielectric constant tensor:
#      x y z
#    x 1.766170 0.000000 -0.002390 
#    y 0.000000 1.735510 0.000000 
#    z -0.002390 0.000000 1.769130 
# 
# From -- ./inp_files/216802.got.cif
#   From: 2010.05.17/outbox.cif.g08.bks.cpg/sg12_109_cif.got.tgz:216802.got - 2010.06.03 13:09:07.
