data_PCOD9202532
_publ_section_title
;
Structure prediction by ZEFSAII (Michael W. Deem and Ramdas Pophale) SiO2 
 PCOD9202532
Probable space group: C 2/M
;
_chemical_formula_sum "Si O2"
_cell_formula_units_Z 40
_cell_length_a 18.023130
_cell_length_b 13.781717
_cell_length_c 20.051563
_cell_angle_alpha 90.000000
_cell_angle_beta 24.136843
_cell_angle_gamma 90.000000
_cell_volume 2036.654304
_symmetry_space_group_name_H-M "C 2/M"
_symmetry_group_IT_number 12
_symmetry_cell_setting 'monoclinic'
loop_
_space_group_symop_operation_xyz
x,y,z
-x,y,-z
-x,-y,-z
x,-y,z
1/2+x,1/2+y,z
1/2-x,1/2+y,-z
1/2-x,1/2-y,-z
1/2+x,1/2-y,z
loop_
_atom_site_type_symbol
_atom_site_label
_atom_site_fract_x
_atom_site_fract_y
_atom_site_fract_z
Si Si1 0.506269 0.392815 0.074352
Si Si2 0.070053 0.114472 0.323789
Si Si3 0.659216 0.223702 0.144372
Si Si4 0.634409 0.807899 0.825463
Si Si5 0.861906 0.610721 0.317063
O O1 0.469593 0.500000 0.133601
O O2 0.369614 0.302902 0.198607
O O3 0.500000 0.402384 0.000000
O O4 0.703426 0.352577 0.933878
O O5 0.136339 0.182379 0.209116
O O6 0.176253 0.153612 0.301458
O O7 0.853953 0.125923 0.506536
O O8 0.110356 0.000000 0.281957
O O9 0.466654 0.177847 0.283172
O O10 0.750000 0.250000 0.000000
O O11 0.573665 0.869802 0.811682
O O12 0.500000 0.813800 0.000000
O O13 0.899968 0.500000 0.303683
#
# Coordination Sequence:
#
# PCOD9202532 Si02
#       5
#     8   8   8   8   8
#     4  10  20  38  62  86 116 153 200 249 299 350
#     4  11  24  41  61  89 125 163 200 248 308 366
#     4  12  22  40  62  90 119 159 199 255 299 359
#     4  11  20  40  63  91 119 158 205 255 299 351
#     4  11  24  40  61  91 126 161 198 247 311 366
#
# _framework density 19.640053000000002
#
# number of rings (size 3 to 8) (size 9 to 14) (size 15 to 20)
#    0.000    1.000    6.000    2.400    0.000    6.400 
#    0.000    0.000    0.000    3.600    0.000    0.000 
#    0.000    0.000    0.000    0.000    0.000    0.000 
#
# Total GULP energy -111608.245509 kJ/mol
# GULP energy per Si atom -5580.412275 kJ/mol
# Density = 1.959535 g / cm^3
# Si number density = 19.640053 Si / 1000 Ang^3
#
#
#
# Elastic Constant Matrix: (Units=GPa)
#
#
# Indices 1 2 3 4 5 6 
#
# 1 107.4208 44.4885 35.7320 -0.0014 -29.4521 0.0004
# 2 44.4885 134.9306 55.1026 -0.0083 -30.4524 -0.0003
# 3 35.7320 55.1026 52.4893 -0.0039 -15.5710 -0.0014
# 4 -0.0014 -0.0083 -0.0039 29.8774 0.0011 -5.3410
# 5 -29.4521 -30.4524 -15.5710 0.0011 41.0999 0.0007
# 6 0.0004 -0.0003 -0.0014 -5.3410 0.0007 0.5505
#
#
#
# Elastic Compliance Matrix: (Units=1/GPa)
#
#
# Indices 1 2 3 4 5 6 
#
# 1 0.013633 0.000059 -0.007246 0.000010 0.007068 0.000062
# 2 0.000059 0.013961 -0.013086 0.000005 0.005429 0.000019
# 3 -0.007246 -0.013086 0.037522 -0.000025 -0.000673 -0.000146
# 4 0.000010 0.000005 -0.000025 -0.045577 0.000011 -0.442187
# 5 0.007068 0.005429 -0.000673 0.000011 0.033164 0.000059
# 6 0.000062 0.000019 -0.000146 -0.442187 0.000059 -2.473575
#
#
# Mechanical properties :
#
#
# Convention : Reuss Voigt Hill
#
# Bulk Modulus (GPa) = 40.69918 62.83189 51.76553
# Shear Modulus (GPa) = -2.10780 24.94006 11.41613
#
# Velocity S-wave (km/s) = -1.03709 3.56737 2.41356
# Velocity P-wave (km/s) = 4.39698 7.00210 5.84649
#
# Compressibility (1/GPa) = 0.02457052
#
# Stress axis : x y z
#
# Youngs Moduli (GPa) = 73.35272 71.62875 26.65101
#
# Poissons Ratio (x) = -0.00426 0.19312
# Poissons Ratio (y) = -0.00436 0.34875
# Poissons Ratio (z) = 0.53152 0.93732
#
# Static dielectric constant tensor:
#      x y z
#    x 1.664430 0.000000 0.001420 
#    y 0.000000 1.728960 0.000000 
#    z 0.001420 0.000000 1.678610 
# 
# From -- ./inp_files/71223.got.cif
#   From: 2010.05.17/outbox.cif.g08.bks.cpg/sg12_36_cif.got.tgz:71223.got - 2010.06.03 13:09:07.
