data_PCOD9202506
_publ_section_title
;
Structure prediction by ZEFSAII (Michael W. Deem and Ramdas Pophale) SiO2 
 PCOD9202506
Probable space group: C 2/M
;
_chemical_formula_sum "Si O2"
_cell_formula_units_Z 56
_cell_length_a 19.139464
_cell_length_b 7.515166
_cell_length_c 28.054463
_cell_angle_alpha 90.000000
_cell_angle_beta 144.801356
_cell_angle_gamma 90.000000
_cell_volume 2325.969732
_symmetry_space_group_name_H-M "C 2/M"
_symmetry_group_IT_number 12
_symmetry_cell_setting 'monoclinic'
loop_
_space_group_symop_operation_xyz
x,y,z
-x,y,-z
-x,-y,-z
x,-y,z
1/2+x,1/2+y,z
1/2-x,1/2+y,-z
1/2-x,1/2-y,-z
1/2+x,1/2-y,z
loop_
_atom_site_type_symbol
_atom_site_label
_atom_site_fract_x
_atom_site_fract_y
_atom_site_fract_z
Si Si1 0.527809 0.716657 0.882758
Si Si2 0.334421 0.703726 0.427043
Si Si3 0.105346 0.216793 0.360117
Si Si4 0.878485 0.217203 0.167819
Si Si5 0.246579 0.200820 0.275977
Si Si6 0.115189 0.293164 0.036090
Si Si7 0.492097 0.293356 0.595687
O O1 0.527565 0.500000 0.882710
O O2 0.595314 0.773579 0.872030
O O3 0.387378 0.778712 0.803921
O O4 0.588220 0.781851 0.964809
O O5 0.358100 0.500000 0.424426
O O6 0.227275 0.708816 0.406021
O O7 0.281164 0.798604 0.351151
O O8 0.448030 0.779982 0.520166
O O9 0.076926 0.281783 0.397396
O O10 0.992461 0.266681 0.263649
O O11 0.113027 0.000000 0.364373
O O12 0.750312 0.282469 0.116976
O O13 0.873639 0.000000 0.164506
O O14 0.363951 0.284508 0.316974
O O15 0.240031 0.000000 0.254495
O O16 0.122154 0.500000 0.055058
O O17 0.000000 0.214008 0.000000
O O18 0.458812 0.500000 0.574273
#
# Coordination Sequence:
#
# PCOD9202506 Si02
#       7
#     8   8   8   8   8   8   8
#     4  10  21  39  60  82 114 153 193 236 284 340
#     4  11  22  38  58  87 121 151 197 250 293 346
#     4  10  20  38  62  84 116 160 196 235 294 351
#     4   9  18  37  60  83 115 150 190 235 278 339
#     4  11  23  39  60  85 115 158 204 242 290 353
#     4  10  22  37  60  92 118 146 187 232 284 349
#     4  10  23  38  58  87 120 157 193 244 304 346
#
# _framework density 24.075979
#
# number of rings (size 3 to 8) (size 9 to 14) (size 15 to 20)
#    0.000    1.857    1.429    2.143    2.000    4.857 
#    0.000    0.714    0.000    0.000    0.000    0.000 
#    0.000    0.000    0.000    0.000    0.000    0.000 
#
# Total GULP energy -156581.430138 kJ/mol
# GULP energy per Si atom -5592.193934 kJ/mol
# Density = 2.402118 g / cm^3
# Si number density = 24.075979 Si / 1000 Ang^3
#
#
#
# Elastic Constant Matrix: (Units=GPa)
#
#
# Indices 1 2 3 4 5 6 
#
# 1 75.9894 -6.0474 14.3192 0.0001 17.1463 -0.0015
# 2 -6.0474 65.4133 -1.9269 0.0002 4.7962 -0.0013
# 3 14.3192 -1.9269 71.2695 0.0000 27.5607 0.0000
# 4 0.0001 0.0002 0.0000 12.5639 0.0000 -5.4853
# 5 17.1463 4.7962 27.5607 0.0000 49.6828 0.0000
# 6 -0.0015 -0.0013 0.0000 -5.4853 0.0000 22.1359
#
#
#
# Elastic Compliance Matrix: (Units=1/GPa)
#
#
# Indices 1 2 3 4 5 6 
#
# 1 0.014528 0.001644 -0.001113 0.000000 -0.004555 0.000001
# 2 0.001644 0.015672 0.001143 0.000000 -0.002715 0.000001
# 3 -0.001113 0.001143 0.018053 0.000000 -0.009741 0.000000
# 4 0.000000 0.000000 0.000000 0.089249 0.000000 0.022116
# 5 -0.004555 -0.002715 -0.009741 0.000000 0.027365 -0.000001
# 6 0.000001 0.000001 0.000000 0.022116 -0.000001 0.050656
#
#
# Mechanical properties :
#
#
# Convention : Reuss Voigt Hill
#
# Bulk Modulus (GPa) = 19.37914 25.04022 22.20968
# Shear Modulus (GPa) = 21.79843 30.63169 26.21506
#
# Velocity S-wave (km/s) = 3.01225 3.57079 3.30335
# Velocity P-wave (km/s) = 4.49053 5.23677 4.87794
#
# Compressibility (1/GPa) = 0.05160187
#
# Stress axis : x y z
#
# Youngs Moduli (GPa) = 68.83182 63.80757 55.39385
#
# Poissons Ratio (x) = -0.10492 0.06165
# Poissons Ratio (y) = -0.11318 -0.06332
# Poissons Ratio (z) = 0.07660 -0.07294
#
# Static dielectric constant tensor:
#      x y z
#    x 1.912530 0.000000 0.011070 
#    y 0.000000 1.882550 0.000000 
#    z 0.011070 0.000000 1.884710 
# 
# From -- ./inp_files/275136.got.cif
#   From: 2010.05.17/outbox.cif.g08.bks.cpg/sg12_138_cif.got.tgz:275136.got - 2010.06.03 13:09:07.
