data_PCOD9202858
_publ_section_title
;
Structure prediction by ZEFSAII (Michael W. Deem and Ramdas Pophale) SiO2 
 PCOD9202858
Probable space group: C 2/M
;
_chemical_formula_sum "Si O2"
_cell_formula_units_Z 56
_cell_length_a 13.978558
_cell_length_b 26.802111
_cell_length_c 9.104778
_cell_angle_alpha 90.000000
_cell_angle_beta 116.311893
_cell_angle_gamma 90.000000
_cell_volume 3057.735323
_symmetry_space_group_name_H-M "C 2/M"
_symmetry_group_IT_number 12
_symmetry_cell_setting 'monoclinic'
loop_
_space_group_symop_operation_xyz
x,y,z
-x,y,-z
-x,-y,-z
x,-y,z
1/2+x,1/2+y,z
1/2-x,1/2+y,-z
1/2-x,1/2-y,-z
1/2+x,1/2-y,z
loop_
_atom_site_type_symbol
_atom_site_label
_atom_site_fract_x
_atom_site_fract_y
_atom_site_fract_z
Si Si1 0.166003 0.262534 0.316657
Si Si2 0.307608 0.320686 0.210541
Si Si3 0.036355 0.641994 0.359059
Si Si4 0.169588 0.443547 0.317819
Si Si5 0.605284 0.881732 0.994791
Si Si6 0.479581 0.333306 0.820675
Si Si7 0.892636 0.898301 0.504771
O O1 0.250000 0.250000 0.500000
O O2 0.239845 0.275015 0.226666
O O3 0.092920 0.309199 0.323631
O O4 0.094737 0.215071 0.233443
O O5 0.409352 0.315636 0.177627
O O6 0.350925 0.350510 0.382784
O O7 0.216246 0.353344 0.072934
O O8 0.121202 0.597340 0.395860
O O9 0.000000 0.652630 0.500000
O O10 0.936291 0.619050 0.199460
O O11 0.136285 0.500000 0.323508
O O12 0.296382 0.436885 0.423302
O O13 0.129243 0.427188 0.125776
O O14 0.500000 0.857185 0.000000
O O15 0.426274 0.376660 0.685506
O O16 0.500000 0.350061 0.000000
O O17 0.000000 0.916958 0.500000
#
# Coordination Sequence:
#
# PCOD9202858 Si02
#       7
#     8   8   8   8   8   8   8
#     4  12  23  38  58  83 118 158 205 236 284 344
#     4  10  20  39  58  76 115 158 190 245 284 332
#     4  11  24  37  58  85 120 156 193 241 298 343
#     4  10  20  38  64  89 111 148 195 239 294 357
#     4   9  18  38  59  81 111 150 190 241 285 342
#     4  11  25  36  57  90 118 157 198 241 292 340
#     4   9  18  39  60  82 117 152 187 240 289 344
#
# _framework density 18.314208000000001
#
# number of rings (size 3 to 8) (size 9 to 14) (size 15 to 20)
#    0.000    1.714    5.714    0.000    4.000    6.000 
#    0.000    0.000    0.000    0.429    0.000    0.000 
#    0.000    0.000    0.000    0.000    0.000    0.000 
#
# Total GULP energy -155883.515961 kJ/mol
# GULP energy per Si atom -5567.268427 kJ/mol
# Density = 1.827252 g / cm^3
# Si number density = 18.314208 Si / 1000 Ang^3
#
#
#
# Elastic Constant Matrix: (Units=GPa)
#
#
# Indices 1 2 3 4 5 6 
#
# 1 54.4419 -7.4647 40.7535 0.0000 17.1379 0.0000
# 2 -7.4647 38.6548 15.1751 0.0000 3.4023 0.0000
# 3 40.7535 15.1751 107.4628 0.0000 2.7151 0.0000
# 4 0.0000 0.0000 0.0000 6.3053 0.0000 3.8003
# 5 17.1379 3.4023 2.7151 0.0000 32.0550 0.0000
# 6 0.0000 0.0000 0.0000 3.8003 0.0000 4.9929
#
#
#
# Elastic Compliance Matrix: (Units=1/GPa)
#
#
# Indices 1 2 3 4 5 6 
#
# 1 0.040197 0.016355 -0.017003 0.000000 -0.021787 0.000000
# 2 0.016355 0.034258 -0.010750 0.000000 -0.011470 0.000000
# 3 -0.017003 -0.010750 0.017050 0.000000 0.008787 0.000000
# 4 0.000000 0.000000 0.000000 0.293018 0.000000 -0.223025
# 5 -0.021787 -0.011470 0.008787 0.000000 0.043317 0.000000
# 6 0.000000 0.000000 0.000000 -0.223025 0.000000 0.370034
#
#
# Mechanical properties :
#
#
# Convention : Reuss Voigt Hill
#
# Bulk Modulus (GPa) = 14.55423 33.05415 23.80419
# Shear Modulus (GPa) = 5.92716 18.81034 12.36875
#
# Velocity S-wave (km/s) = 1.80094 3.20830 2.60160
# Velocity P-wave (km/s) = 3.50553 5.64020 4.69577
#
# Compressibility (1/GPa) = 0.06870853
#
# Stress axis : x y z
#
# Youngs Moduli (GPa) = 24.87750 29.18993 58.65174
#
# Poissons Ratio (x) = -0.47741 0.99726
# Poissons Ratio (y) = -0.40688 0.63053
# Poissons Ratio (z) = 0.42300 0.31380
#
# Static dielectric constant tensor:
#      x y z
#    x 1.653570 0.000000 0.002680 
#    y 0.000000 1.635880 0.000000 
#    z 0.002680 0.000000 1.652050 
# 
# From -- ./inp_files/54322.got.cif
#   From: 2010.05.17/outbox.cif.g08.bks.cpg/sg12_28_cif.got.tgz:54322.got - 2010.06.03 13:09:07.
