data_PCOD9202879
_publ_section_title
;
Structure prediction by ZEFSAII (Michael W. Deem and Ramdas Pophale) SiO2 
 PCOD9202879
Probable space group: C 2/M
;
_chemical_formula_sum "Si O2"
_cell_formula_units_Z 48
_cell_length_a 19.690964
_cell_length_b 17.609723
_cell_length_c 16.106444
_cell_angle_alpha 90.000000
_cell_angle_beta 22.585281
_cell_angle_gamma 90.000000
_cell_volume 2144.944928
_symmetry_space_group_name_H-M "C 2/M"
_symmetry_group_IT_number 12
_symmetry_cell_setting 'monoclinic'
loop_
_space_group_symop_operation_xyz
x,y,z
-x,y,-z
-x,-y,-z
x,-y,z
1/2+x,1/2+y,z
1/2-x,1/2+y,-z
1/2-x,1/2-y,-z
1/2+x,1/2-y,z
loop_
_atom_site_type_symbol
_atom_site_label
_atom_site_fract_x
_atom_site_fract_y
_atom_site_fract_z
Si Si1 0.834382 0.414103 0.622168
Si Si2 0.884364 0.814092 0.012464
Si Si3 0.104410 0.847506 0.613327
Si Si4 0.443424 0.186629 0.745677
Si Si5 0.022517 0.649985 0.108373
Si Si6 0.797469 0.500000 0.156321
Si Si7 0.476736 0.500000 0.387960
O O1 0.783794 0.500000 0.658648
O O2 0.680289 0.368228 0.841839
O O3 0.911665 0.368274 0.457897
O O4 0.000000 0.417011 0.500000
O O5 0.724109 0.812916 0.125965
O O6 0.916734 0.727798 0.003615
O O7 0.051449 0.841571 0.769977
O O8 0.022914 0.771025 0.665394
O O9 0.312745 0.848489 0.360402
O O10 0.025618 0.924243 0.664214
O O11 0.397204 0.155814 0.889077
O O12 0.089226 0.575511 0.987118
O O13 0.643347 0.500000 0.260992
O O14 0.697519 0.500000 0.356922
#
# Coordination Sequence:
#
# PCOD9202879 Si02
#       7
#     8   8   8   8   8   4   4
#     4   9  20  36  59  92 121 152 202 256 293 336
#     4  10  20  38  64  90 120 162 209 248 293 354
#     4  11  23  40  61  89 125 159 197 247 309 363
#     4  10  20  38  64  90 120 162 209 248 293 354
#     4  11  23  40  61  89 125 159 197 247 309 363
#     4  11  25  43  65  90 117 154 205 253 300 365
#     4  11  25  43  65  90 117 154 205 253 300 365
#
# _framework density 22.378195999999999
#
# number of rings (size 3 to 8) (size 9 to 14) (size 15 to 20)
#    0.000    1.667    0.000    6.500    4.667    1.333 
#    0.000    2.500    0.000    4.000    0.000    0.000 
#    0.000    0.000    0.000    0.000    0.000    0.000 
#
# Total GULP energy -134409.555876 kJ/mol
# GULP energy per Si atom -5600.398161 kJ/mol
# Density = 2.232726 g / cm^3
# Si number density = 22.378196 Si / 1000 Ang^3
#
#
#
# Elastic Constant Matrix: (Units=GPa)
#
#
# Indices 1 2 3 4 5 6 
#
# 1 60.8097 37.8839 18.2326 -0.0050 1.8373 0.0015
# 2 37.8839 213.0027 77.8450 -0.0082 38.6600 0.0051
# 3 18.2326 77.8450 130.6631 -0.0155 4.6604 0.0062
# 4 -0.0050 -0.0082 -0.0155 29.7329 0.0076 5.8405
# 5 1.8373 38.6600 4.6604 0.0076 40.0924 -0.0028
# 6 0.0015 0.0051 0.0062 5.8405 -0.0028 3.3000
#
#
#
# Elastic Compliance Matrix: (Units=1/GPa)
#
#
# Indices 1 2 3 4 5 6 
#
# 1 0.018791 -0.003629 -0.000556 0.000002 0.002703 -0.000003
# 2 -0.003629 0.008143 -0.004088 0.000005 -0.007211 -0.000018
# 3 -0.000556 -0.004088 0.010066 0.000008 0.002797 -0.000024
# 4 0.000002 0.000005 0.000008 0.051558 -0.000022 -0.091251
# 5 0.002703 -0.007211 0.002797 -0.000022 0.031446 0.000070
# 6 -0.000003 -0.000018 -0.000024 -0.091251 0.000070 0.464539
#
#
# Mechanical properties :
#
#
# Convention : Reuss Voigt Hill
#
# Bulk Modulus (GPa) = 48.89097 74.71094 61.80095
# Shear Modulus (GPa) = 8.22494 32.65930 20.44212
#
# Velocity S-wave (km/s) = 1.91922 3.82439 3.02567
# Velocity P-wave (km/s) = 5.17747 7.27732 6.31528
#
# Compressibility (1/GPa) = 0.02045368
#
# Stress axis : x y z
#
# Youngs Moduli (GPa) = 53.21704 122.80630 99.34027
#
# Poissons Ratio (x) = 0.44573 0.05525
# Poissons Ratio (y) = 0.19315 0.40607
# Poissons Ratio (z) = 0.02960 0.50199
#
# Static dielectric constant tensor:
#      x y z
#    x 1.835050 0.000000 -0.041030 
#    y 0.000000 1.769070 0.000000 
#    z -0.041030 0.000000 1.822210 
# 
# From -- ./inp_files/285392.got.cif
#   From: 2010.05.17/outbox.cif.g08.bks.cpg/sg12_143_cif.got.tgz:285392.got - 2010.06.03 13:09:07.
