data_PCOD9202917
_publ_section_title
;
Structure prediction by ZEFSAII (Michael W. Deem and Ramdas Pophale) SiO2 
 PCOD9202917
Probable space group: C 2/M
;
_chemical_formula_sum "Si O2"
_cell_formula_units_Z 48
_cell_length_a 28.674790
_cell_length_b 17.318570
_cell_length_c 8.882133
_cell_angle_alpha 90.000000
_cell_angle_beta 29.871490
_cell_angle_gamma 90.000000
_cell_volume 2196.888418
_symmetry_space_group_name_H-M "C 2/M"
_symmetry_group_IT_number 12
_symmetry_cell_setting 'monoclinic'
loop_
_space_group_symop_operation_xyz
x,y,z
-x,y,-z
-x,-y,-z
x,-y,z
1/2+x,1/2+y,z
1/2-x,1/2+y,-z
1/2-x,1/2-y,-z
1/2+x,1/2-y,z
loop_
_atom_site_type_symbol
_atom_site_label
_atom_site_fract_x
_atom_site_fract_y
_atom_site_fract_z
Si Si1 0.283257 0.091359 0.903963
Si Si2 0.304117 0.819413 0.139600
Si Si3 0.865262 0.710593 0.472644
Si Si4 0.397607 0.589161 0.747489
Si Si5 0.837061 0.089503 0.254743
Si Si6 0.049650 0.762751 0.069458
O O1 0.343423 0.128185 0.602558
O O2 0.284751 0.000000 0.896830
O O3 0.321634 0.123009 0.953709
O O4 0.175247 0.116942 0.174256
O O5 0.229684 0.758290 0.282489
O O6 0.250778 0.867709 0.421162
O O7 0.391926 0.771216 0.955054
O O8 0.910860 0.712917 0.180946
O O9 0.939663 0.750494 0.376252
O O10 0.500000 0.624680 0.500000
O O11 0.418794 0.500000 0.644788
O O12 0.339166 0.588344 0.067305
O O13 0.922535 0.148841 0.047347
O O14 0.846506 0.000000 0.278673
#
# Coordination Sequence:
#
# PCOD9202917 Si02
#       6
#     8   8   8   8   8   8
#     4  11  23  40  61  91 125 161 210 264 307 362
#     4  11  22  40  62  93 127 164 200 259 314 365
#     4  10  22  42  63  88 122 169 207 245 310 383
#     4   9  19  35  57  87 125 161 196 242 306 368
#     4  10  20  38  64  93 123 162 203 254 305 366
#     4  10  22  41  64  89 124 165 209 249 306 383
#
# _framework density 21.849084999999999
#
# number of rings (size 3 to 8) (size 9 to 14) (size 15 to 20)
#    0.000    1.833    0.000    5.000    2.333    0.667 
#    0.000   11.667    0.000    0.000    0.000    0.000 
#    0.000    0.000    0.000    0.000    0.000    0.000 
#
# Total GULP energy -133947.986360 kJ/mol
# GULP energy per Si atom -5581.166098 kJ/mol
# Density = 2.179936 g / cm^3
# Si number density = 21.849085 Si / 1000 Ang^3
#
#
#
# Elastic Constant Matrix: (Units=GPa)
#
#
# Indices 1 2 3 4 5 6 
#
# 1 128.8417 59.7667 30.4827 0.0000 -32.6430 0.0000
# 2 59.7667 119.1199 47.6807 0.0000 -4.1372 0.0000
# 3 30.4827 47.6807 36.8067 0.0000 -0.7662 0.0000
# 4 0.0000 0.0000 0.0000 16.7772 0.0000 9.8844
# 5 -32.6430 -4.1372 -0.7662 0.0000 34.5924 0.0000
# 6 0.0000 0.0000 0.0000 9.8844 0.0000 23.4483
#
#
#
# Elastic Compliance Matrix: (Units=1/GPa)
#
#
# Indices 1 2 3 4 5 6 
#
# 1 0.014560 -0.004431 -0.006046 0.000000 0.013076 0.000000
# 2 -0.004431 0.018872 -0.020827 0.000000 -0.002386 0.000000
# 3 -0.006046 -0.020827 0.059013 0.000000 -0.006889 0.000000
# 4 0.000000 0.000000 0.000000 0.079298 0.000000 -0.033427
# 5 0.013076 -0.002386 -0.006889 0.000000 0.040809 0.000000
# 6 0.000000 0.000000 0.000000 -0.033427 0.000000 0.056738
#
#
# Mechanical properties :
#
#
# Convention : Reuss Voigt Hill
#
# Bulk Modulus (GPa) = 33.51613 62.29206 47.90410
# Shear Modulus (GPa) = 14.62650 24.75279 19.68964
#
# Velocity S-wave (km/s) = 2.59015 3.36951 3.00520
# Velocity P-wave (km/s) = 4.93136 6.61136 5.83217
#
# Compressibility (1/GPa) = 0.02983638
#
# Stress axis : x y z
#
# Youngs Moduli (GPa) = 68.67984 52.98877 16.94540
#
# Poissons Ratio (x) = 0.23480 0.10245
# Poissons Ratio (y) = 0.30433 0.35292
# Poissons Ratio (z) = 0.41524 1.10361
#
# Static dielectric constant tensor:
#      x y z
#    x 1.837980 0.000000 0.004260 
#    y 0.000000 1.796120 0.000000 
#    z 0.004260 0.000000 1.834000 
# 
# From -- ./inp_files/112742.got.cif
#   From: 2010.05.17/outbox.cif.g08.bks.cpg/sg12_57_cif.got.tgz:112742.got - 2010.06.03 13:09:07.
