data_PCOD9202489
_publ_section_title
;
Structure prediction by ZEFSAII (Michael W. Deem and Ramdas Pophale) SiO2 
 PCOD9202489
Probable space group: C 2/M
;
_chemical_formula_sum "Si O2"
_cell_formula_units_Z 28
_cell_length_a 8.111270
_cell_length_b 32.471679
_cell_length_c 5.272501
_cell_angle_alpha 90.000000
_cell_angle_beta 55.567948
_cell_angle_gamma 90.000000
_cell_volume 1145.400886
_symmetry_space_group_name_H-M "C 2/M"
_symmetry_group_IT_number 12
_symmetry_cell_setting 'monoclinic'
loop_
_space_group_symop_operation_xyz
x,y,z
-x,y,-z
-x,-y,-z
x,-y,z
1/2+x,1/2+y,z
1/2-x,1/2+y,-z
1/2-x,1/2-y,-z
1/2+x,1/2-y,z
loop_
_atom_site_type_symbol
_atom_site_label
_atom_site_fract_x
_atom_site_fract_y
_atom_site_fract_z
Si Si1 0.364357 0.500000 0.869096
Si Si2 0.271500 0.912589 0.139005
Si Si3 0.135628 0.292816 0.628980
Si Si4 0.239324 0.622470 0.355958
O O1 0.500000 0.500000 0.500000
O O2 0.236310 0.458283 0.966590
O O3 0.500000 0.500000 0.000000
O O4 0.188471 0.910617 0.498200
O O5 0.500000 0.900008 0.000000
O O6 0.182230 0.882956 0.998450
O O7 0.250000 0.250000 0.500000
O O8 0.266857 0.333888 0.473977
O O9 0.000000 0.294241 0.500000
O O10 0.000000 0.294509 0.000000
O O11 0.000000 0.617147 0.500000
#
# Coordination Sequence:
#
# PCOD9202489 Si02
#       4
#     4   8   8   8
#     4  12  25  40  55  84 124 152 178 238 310 356
#     4  10  20  38  62  83 105 149 202 238 275 343
#     4  11  22  39  61  90 124 159 197 246 300 354
#     4   9  18  35  61  85 110 147 197 245 282 330
#
# _framework density 24.445592000000001
#
# number of rings (size 3 to 8) (size 9 to 14) (size 15 to 20)
#    0.000    1.714    0.000    7.286    0.000    0.000 
#    0.000   14.286    0.000    0.000    0.000    0.000 
#    0.000    0.000    0.000    0.000    0.000    0.000 
#
# Total GULP energy -78196.727553 kJ/mol
# GULP energy per Si atom -5585.480540 kJ/mol
# Density = 2.438995 g / cm^3
# Si number density = 24.445592 Si / 1000 Ang^3
#
#
#
# Elastic Constant Matrix: (Units=GPa)
#
#
# Indices 1 2 3 4 5 6 
#
# 1 91.3577 37.3131 54.4584 0.0000 51.6663 0.0000
# 2 37.3131 160.9830 35.0507 0.0000 36.1746 0.0000
# 3 54.4584 35.0507 179.6930 0.0000 43.4759 0.0000
# 4 0.0000 0.0000 0.0000 37.0165 0.0000 5.5930
# 5 51.6663 36.1746 43.4759 0.0000 58.0082 0.0000
# 6 0.0000 0.0000 0.0000 5.5930 0.0000 48.5326
#
#
#
# Elastic Compliance Matrix: (Units=1/GPa)
#
#
# Indices 1 2 3 4 5 6 
#
# 1 0.022975 -0.000707 -0.002419 0.000000 -0.018209 0.000000
# 2 -0.000707 0.007268 -0.000317 0.000000 -0.003666 0.000000
# 3 -0.002419 -0.000317 0.007074 0.000000 -0.002949 0.000000
# 4 0.000000 0.000000 0.000000 0.027494 0.000000 -0.003168
# 5 -0.018209 -0.003666 -0.002949 0.000000 0.037954 0.000000
# 6 0.000000 0.000000 0.000000 -0.003168 0.000000 0.020970
#
#
# Mechanical properties :
#
#
# Convention : Reuss Voigt Hill
#
# Bulk Modulus (GPa) = 32.86088 76.18645 54.52366
# Shear Modulus (GPa) = 35.52076 49.05890 42.28983
#
# Velocity S-wave (km/s) = 3.81603 4.48466 4.16379
# Velocity P-wave (km/s) = 5.73478 7.61903 6.74305
#
# Compressibility (1/GPa) = 0.03043132
#
# Stress axis : x y z
#
# Youngs Moduli (GPa) = 43.52623 137.58306 141.37135
#
# Poissons Ratio (x) = 0.09722 0.34203
# Poissons Ratio (y) = 0.03076 0.04477
# Poissons Ratio (z) = 0.10531 0.04357
#
# Static dielectric constant tensor:
#      x y z
#    x 1.920250 0.000000 -0.093060 
#    y 0.000000 2.124980 0.000000 
#    z -0.093060 0.000000 2.077280 
# 
# From -- ./inp_files/3673.got.cif
#   From: 2010.05.17/outbox.cif.g08.bks.cpg/sg12_2_cif.got.tgz:3673.got - 2010.06.03 13:09:07.
