data_PCOD9202876
_publ_section_title
;
Structure prediction by ZEFSAII (Michael W. Deem and Ramdas Pophale) SiO2 
 PCOD9202876
Probable space group: C 2/M
;
_chemical_formula_sum "Si O2"
_cell_formula_units_Z 48
_cell_length_a 20.367314
_cell_length_b 8.105403
_cell_length_c 19.521943
_cell_angle_alpha 90.000000
_cell_angle_beta 136.911006
_cell_angle_gamma 90.000000
_cell_volume 2201.592806
_symmetry_space_group_name_H-M "C 2/M"
_symmetry_group_IT_number 12
_symmetry_cell_setting 'monoclinic'
loop_
_space_group_symop_operation_xyz
x,y,z
-x,y,-z
-x,-y,-z
x,-y,z
1/2+x,1/2+y,z
1/2-x,1/2+y,-z
1/2-x,1/2-y,-z
1/2+x,1/2-y,z
loop_
_atom_site_type_symbol
_atom_site_label
_atom_site_fract_x
_atom_site_fract_y
_atom_site_fract_z
Si Si1 0.850378 0.697371 0.609489
Si Si2 0.530771 0.691198 0.424280
Si Si3 0.834846 0.698976 0.014048
Si Si4 0.949758 0.298301 0.819736
Si Si5 0.662872 0.194798 0.139350
Si Si6 0.152510 0.690736 0.640008
O O1 0.852964 0.500000 0.611290
O O2 0.750000 0.750000 0.500000
O O3 0.933831 0.763275 0.623618
O O4 0.873417 0.755149 0.704035
O O5 0.503902 0.500000 0.408738
O O6 0.440901 0.795710 0.382281
O O7 0.618335 0.725942 0.543450
O O8 0.833181 0.500000 0.011531
O O9 0.824606 0.761579 0.927793
O O10 0.750000 0.750000 0.000000
O O11 0.942321 0.750758 0.117921
O O12 0.947744 0.500000 0.819870
O O13 0.919708 0.239929 0.872552
O O14 0.760238 0.220479 0.256157
O O15 0.643618 0.000000 0.116326
O O16 0.175811 0.500000 0.645441
#
# Coordination Sequence:
#
# PCOD9202876 Si02
#       6
#     8   8   8   8   8   8
#     4  11  22  37  59  89 124 165 210 257 310 368
#     4  11  22  38  58  84 121 162 208 256 306 367
#     4  10  22  40  63  92 122 159 206 258 311 369
#     4   9  20  39  63  88 120 164 209 253 304 364
#     4  10  20  38  64  90 119 158 207 253 305 370
#     4  11  22  37  59  88 121 158 202 253 312 373
#
# _framework density 21.802396000000002
#
# number of rings (size 3 to 8) (size 9 to 14) (size 15 to 20)
#    0.000    1.667    0.000    6.000    2.333    4.000 
#    0.000    2.500    0.000    2.000    0.000    0.000 
#    0.000    0.000    0.000    0.000    0.000    0.000 
#
# Total GULP energy -134141.948591 kJ/mol
# GULP energy per Si atom -5589.247858 kJ/mol
# Density = 2.175277 g / cm^3
# Si number density = 21.802396 Si / 1000 Ang^3
#
#
#
# Elastic Constant Matrix: (Units=GPa)
#
#
# Indices 1 2 3 4 5 6 
#
# 1 152.1613 7.9399 66.6036 0.0000 -10.1157 0.0000
# 2 7.9399 41.1047 -6.7542 0.0000 -8.8089 0.0000
# 3 66.6036 -6.7542 101.6639 0.0000 -4.9705 0.0000
# 4 0.0000 0.0000 0.0000 16.7486 0.0000 2.9169
# 5 -10.1157 -8.8089 -4.9705 0.0000 31.9557 0.0000
# 6 0.0000 0.0000 0.0000 2.9169 0.0000 26.6419
#
#
#
# Elastic Compliance Matrix: (Units=1/GPa)
#
#
# Indices 1 2 3 4 5 6 
#
# 1 0.009596 -0.002622 -0.006397 0.000000 0.001320 0.000000
# 2 -0.002622 0.027017 0.003866 0.000000 0.007219 0.000000
# 3 -0.006397 0.003866 0.014346 0.000000 0.001272 0.000000
# 4 0.000000 0.000000 0.000000 0.060867 0.000000 -0.006664
# 5 0.001320 0.007219 0.001272 0.000000 0.033899 0.000000
# 6 0.000000 0.000000 0.000000 -0.006664 0.000000 0.038264
#
#
# Mechanical properties :
#
#
# Convention : Reuss Voigt Hill
#
# Bulk Modulus (GPa) = 24.59830 47.83427 36.21628
# Shear Modulus (GPa) = 24.05618 30.21195 27.13406
#
# Velocity S-wave (km/s) = 3.32531 3.72656 3.53164
# Velocity P-wave (km/s) = 5.10396 6.36427 5.76864
#
# Compressibility (1/GPa) = 0.04065322
#
# Stress axis : x y z
#
# Youngs Moduli (GPa) = 104.20520 37.01412 69.70590
#
# Poissons Ratio (x) = 0.09705 0.44588
# Poissons Ratio (y) = 0.27321 -0.26945
# Poissons Ratio (z) = 0.66656 -0.14308
#
# Static dielectric constant tensor:
#      x y z
#    x 1.801020 0.000000 -0.005750 
#    y 0.000000 1.770920 0.000000 
#    z -0.005750 0.000000 1.794260 
# 
# From -- ./inp_files/320314.got.cif
#   From: 2010.05.17/outbox.cif.g08.bks.cpg/sg12_161_cif.got.tgz:320314.got - 2010.06.03 13:09:07.
