data_PCOD9202231
_publ_section_title
;
Structure prediction by ZEFSAII (Michael W. Deem and Ramdas Pophale) SiO2 
 PCOD9202231
Probable space group: C 2/M
;
_chemical_formula_sum "Si O2"
_cell_formula_units_Z 56
_cell_length_a 30.249228
_cell_length_b 18.256954
_cell_length_c 8.801822
_cell_angle_alpha 90.000000
_cell_angle_beta 38.302911
_cell_angle_gamma 90.000000
_cell_volume 3012.867378
_symmetry_space_group_name_H-M "C 2/M"
_symmetry_group_IT_number 12
_symmetry_cell_setting 'monoclinic'
loop_
_space_group_symop_operation_xyz
x,y,z
-x,y,-z
-x,-y,-z
x,-y,z
1/2+x,1/2+y,z
1/2-x,1/2+y,-z
1/2-x,1/2-y,-z
1/2+x,1/2-y,z
loop_
_atom_site_type_symbol
_atom_site_label
_atom_site_fract_x
_atom_site_fract_y
_atom_site_fract_z
Si Si1 0.839829 0.350636 0.594721
Si Si2 0.223433 0.204752 0.339004
Si Si3 0.064168 0.657838 0.937597
Si Si4 0.583775 0.585954 0.243012
Si Si5 0.531590 0.914881 0.574280
Si Si6 0.288261 0.585269 0.882441
Si Si7 0.646215 0.711892 0.865601
O O1 0.822926 0.264891 0.626989
O O2 0.872107 0.370003 0.342226
O O3 0.900605 0.369499 0.552275
O O4 0.768860 0.392821 0.833882
O O5 0.228750 0.135013 0.217111
O O6 0.297037 0.246177 0.180000
O O7 0.186987 0.189154 0.600173
O O8 0.090054 0.726386 0.965688
O O9 0.000000 0.681991 0.000000
O O10 0.030296 0.596307 0.134929
O O11 0.500000 0.597359 0.500000
O O12 0.593685 0.500000 0.172801
O O13 0.633273 0.597909 0.258396
O O14 0.611650 0.643085 0.042667
O O15 0.500000 0.889896 0.500000
O O16 0.552000 0.000000 0.508200
O O17 0.280857 0.500000 0.865915
#
# Coordination Sequence:
#
# PCOD9202231 Si02
#       7
#     8   8   8   8   8   8   8
#     4  10  20  38  60  82 117 159 197 238 292 352
#     4  10  22  39  62  91 118 150 201 254 294 354
#     4   9  21  37  57  86 119 156 198 238 293 362
#     4  10  23  41  61  89 121 157 203 253 306 360
#     4  10  22  37  55  87 124 156 195 241 291 353
#     4  11  23  39  61  89 120 156 199 245 301 361
#     4  10  21  40  63  87 120 153 197 251 302 351
#
# _framework density 18.586943999999999
#
# number of rings (size 3 to 8) (size 9 to 14) (size 15 to 20)
#    0.000    2.000    1.429    0.857    2.000    7.714 
#    0.000    0.000    0.000    3.000    0.000    0.000 
#    0.000    0.000    0.000    0.000    0.000    0.000 
#
# Total GULP energy -156258.337261 kJ/mol
# GULP energy per Si atom -5580.654902 kJ/mol
# Density = 1.854464 g / cm^3
# Si number density = 18.586944 Si / 1000 Ang^3
#
#
#
# Elastic Constant Matrix: (Units=GPa)
#
#
# Indices 1 2 3 4 5 6 
#
# 1 110.6491 77.2201 50.3075 0.0000 2.4294 0.0000
# 2 77.2201 89.7577 58.8923 0.0000 2.6394 0.0000
# 3 50.3075 58.8923 88.5148 0.0000 -12.2320 0.0000
# 4 0.0000 0.0000 0.0000 19.6238 0.0000 -17.2192
# 5 2.4294 2.6394 -12.2320 0.0000 11.8352 0.0000
# 6 0.0000 0.0000 0.0000 -17.2192 0.0000 -25.0648
#
#
#
# Elastic Compliance Matrix: (Units=1/GPa)
#
#
# Indices 1 2 3 4 5 6 
#
# 1 0.022618 -0.019530 0.000116 0.000000 -0.000168 0.000000
# 2 -0.019530 0.042423 -0.020858 0.000000 -0.027010 0.000000
# 3 0.000116 -0.020858 0.030040 0.000000 0.035675 0.000000
# 4 0.000000 0.000000 0.000000 0.031793 0.000000 -0.021842
# 5 -0.000168 -0.027010 0.035675 0.000000 0.127423 0.000000
# 6 0.000000 0.000000 0.000000 -0.021842 0.000000 -0.024892
#
#
# Mechanical properties :
#
#
# Convention : Reuss Voigt Hill
#
# Bulk Modulus (GPa) = 68.79579 73.52906 71.16242
# Shear Modulus (GPa) = 15.88329 8.11227 11.99778
#
# Velocity S-wave (km/s) = 2.92642 2.09140 2.54342
# Velocity P-wave (km/s) = 6.96505 6.74369 6.85526
#
# Compressibility (1/GPa) = 0.01453577
#
# Stress axis : x y z
#
# Youngs Moduli (GPa) = 44.21220 23.57212 33.28918
#
# Poissons Ratio (x) = 0.46036 -0.00385
# Poissons Ratio (y) = 0.86345 0.69436
# Poissons Ratio (z) = -0.00511 0.49168
#
# Static dielectric constant tensor:
#      x y z
#    x 1.644490 0.000000 -0.006920 
#    y 0.000000 1.608460 0.000000 
#    z -0.006920 0.000000 1.664470 
# 
# From -- ./inp_files/105916.got.cif
#   From: 2010.05.17/outbox.cif.g08.bks.cpg/sg12_53_cif.got.tgz:105916.got - 2010.06.03 13:09:07.
