data_PCOD9202299
_publ_section_title
;
Structure prediction by ZEFSAII (Michael W. Deem and Ramdas Pophale) SiO2 
 PCOD9202299
Probable space group: C 2/M
;
_chemical_formula_sum "Si O2"
_cell_formula_units_Z 50
_cell_length_a 15.173118
_cell_length_b 7.912145
_cell_length_c 22.400011
_cell_angle_alpha 90.000000
_cell_angle_beta 123.375156
_cell_angle_gamma 90.000000
_cell_volume 2245.684577
_symmetry_space_group_name_H-M "C 2/M"
_symmetry_group_IT_number 12
_symmetry_cell_setting 'monoclinic'
loop_
_space_group_symop_operation_xyz
x,y,z
-x,y,-z
-x,-y,-z
x,-y,z
1/2+x,1/2+y,z
1/2-x,1/2+y,-z
1/2-x,1/2-y,-z
1/2+x,1/2-y,z
loop_
_atom_site_type_symbol
_atom_site_label
_atom_site_fract_x
_atom_site_fract_y
_atom_site_fract_z
Si Si1 0.339332 0.700749 0.444729
Si Si2 0.606769 0.698352 0.674854
Si Si3 0.978143 0.802125 0.811406
Si Si4 0.104085 0.695708 0.347585
Si Si5 0.793876 0.298443 0.828300
Si Si6 0.500000 0.000000 0.500000
Si Si7 0.713903 0.703792 0.920699
O O1 0.361147 0.500000 0.469072
O O2 0.350850 0.711560 0.376504
O O3 0.218343 0.750248 0.414175
O O4 0.418876 0.847829 0.493668
O O5 0.591021 0.500000 0.681582
O O6 0.494520 0.781800 0.645431
O O7 0.695135 0.769023 0.752758
O O8 0.930030 0.777855 0.727737
O O9 0.899864 0.732560 0.831902
O O10 0.096201 0.731759 0.861673
O O11 0.985903 0.000000 0.824945
O O12 0.119568 0.500000 0.338942
O O13 0.779124 0.500000 0.824201
O O14 0.788103 0.235958 0.894000
O O15 0.712505 0.500000 0.918103
O O16 0.750000 0.750000 0.000000
#
# Coordination Sequence:
#
# PCOD9202299 Si02
#       7
#     8   8   8   8   8   2   8
#     4  10  24  44  67  98 132 171 214 264 316 387
#     4  10  20  38  65  93 128 160 208 271 318 363
#     4  11  22  37  60  91 123 160 211 266 314 378
#     4  11  22  37  64  97 128 159 210 267 317 370
#     4  10  20  38  60  89 122 161 206 263 319 370
#     4  12  26  44  76  90 136 182 212 248 328 394
#     4  10  23  41  58  82 124 169 210 259 320 381
#
# _framework density 22.264925000000002
#
# number of rings (size 3 to 8) (size 9 to 14) (size 15 to 20)
#    0.000    1.600    3.200    1.200    3.360    3.200 
#    0.000    4.000    0.000    0.000    0.000    0.000 
#    0.000    0.000    0.000    0.000    0.000    0.000 
#
# Total GULP energy -139434.182335 kJ/mol
# GULP energy per Si atom -5577.367293 kJ/mol
# Density = 2.221425 g / cm^3
# Si number density = 22.264925 Si / 1000 Ang^3
#
#
#
# Elastic Constant Matrix: (Units=GPa)
#
#
# Indices 1 2 3 4 5 6 
#
# 1 74.0876 0.9509 3.6478 0.0000 5.8619 0.0000
# 2 0.9509 47.4714 17.0033 0.0000 -0.0825 0.0000
# 3 3.6478 17.0033 66.1452 0.0000 -14.2298 0.0000
# 4 0.0000 0.0000 0.0000 14.2109 0.0000 8.1189
# 5 5.8619 -0.0825 -14.2298 0.0000 31.2731 0.0000
# 6 0.0000 0.0000 0.0000 8.1189 0.0000 29.6696
#
#
#
# Elastic Compliance Matrix: (Units=1/GPa)
#
#
# Indices 1 2 3 4 5 6 
#
# 1 0.013830 0.000269 -0.001540 0.000000 -0.003292 0.000000
# 2 0.000269 0.023453 -0.006697 0.000000 -0.003036 0.000000
# 3 -0.001540 -0.006697 0.018826 0.000000 0.008837 0.000000
# 4 0.000000 0.000000 0.000000 0.083408 0.000000 -0.022824
# 5 -0.003292 -0.003036 0.008837 0.000000 0.036607 0.000000
# 6 0.000000 0.000000 0.000000 -0.022824 0.000000 0.039950
#
#
# Mechanical properties :
#
#
# Convention : Reuss Voigt Hill
#
# Bulk Modulus (GPa) = 24.89212 25.65648 25.27430
# Shear Modulus (GPa) = 20.37472 26.10419 23.23946
#
# Velocity S-wave (km/s) = 3.02835 3.42780 3.23425
# Velocity P-wave (km/s) = 4.84067 5.21677 5.03224
#
# Compressibility (1/GPa) = 0.04017336
#
# Stress axis : x y z
#
# Youngs Moduli (GPa) = 72.30434 42.63785 53.11852
#
# Poissons Ratio (x) = -0.01146 0.08181
# Poissons Ratio (y) = -0.01944 0.35573
# Poissons Ratio (z) = 0.11136 0.28554
#
# Static dielectric constant tensor:
#      x y z
#    x 1.830050 0.000000 0.010270 
#    y 0.000000 1.788060 0.000000 
#    z 0.010270 0.000000 1.845700 
# 
# From -- ./inp_files/308435.got.cif
#   From: 2010.05.17/outbox.cif.g08.bks.cpg/sg12_155_cif.got.tgz:308435.got - 2010.06.03 13:09:07.
