data_PCOD9202754
_publ_section_title
;
Structure prediction by ZEFSAII (Michael W. Deem and Ramdas Pophale) SiO2 
 PCOD9202754
Probable space group: C 2/M
;
_chemical_formula_sum "Si O2"
_cell_formula_units_Z 64
_cell_length_a 29.833159
_cell_length_b 8.970726
_cell_length_c 11.228571
_cell_angle_alpha 90.000000
_cell_angle_beta 79.585286
_cell_angle_gamma 90.000000
_cell_volume 2955.539466
_symmetry_space_group_name_H-M "C 2/M"
_symmetry_group_IT_number 12
_symmetry_cell_setting 'monoclinic'
loop_
_space_group_symop_operation_xyz
x,y,z
-x,y,-z
-x,-y,-z
x,-y,z
1/2+x,1/2+y,z
1/2-x,1/2+y,-z
1/2-x,1/2-y,-z
1/2+x,1/2-y,z
loop_
_atom_site_type_symbol
_atom_site_label
_atom_site_fract_x
_atom_site_fract_y
_atom_site_fract_z
Si Si1 0.440143 0.826129 0.196205
Si Si2 0.817531 0.325883 0.764651
Si Si3 0.230884 0.322275 0.709883
Si Si4 0.972160 0.676581 0.712347
Si Si5 0.170913 0.674064 0.973714
Si Si6 0.926081 0.175242 0.963735
Si Si7 0.899062 0.176147 0.602109
Si Si8 0.645869 0.824224 0.604089
O O1 0.474840 0.791779 0.287003
O O2 0.448197 0.724113 0.078432
O O3 0.388810 0.810797 0.268226
O O4 0.447554 0.000000 0.159745
O O5 0.826279 0.500000 0.738227
O O6 0.777649 0.266011 0.699439
O O7 0.863229 0.234165 0.718053
O O8 0.805065 0.308409 0.909627
O O9 0.239509 0.500000 0.695178
O O10 0.203623 0.298061 0.846862
O O11 0.196008 0.276515 0.622406
O O12 0.966139 0.500000 0.702355
O O13 0.947637 0.754895 0.613861
O O14 0.947571 0.733638 0.844455
O O15 0.155749 0.500000 0.972832
O O16 0.126648 0.777388 0.996794
O O17 0.930870 0.000000 0.939907
O O18 0.876770 0.235057 0.491634
O O19 0.901872 0.000000 0.601246
O O20 0.647566 0.000000 0.572554
#
# Coordination Sequence:
#
# PCOD9202754 Si02
#       8
#     8   8   8   8   8   8   8   8
#     4  10  22  42  67  92 122 164 208 251 301 367
#     4  11  23  39  64  93 125 164 205 249 303 370
#     4  10  21  39  65  93 125 160 202 255 304 359
#     4  11  23  41  66  92 122 163 209 252 303 368
#     4  10  20  38  63  90 124 166 204 246 302 368
#     4  12  23  35  60  95 131 165 199 249 309 364
#     4  12  26  43  63  89 123 161 205 260 314 362
#     4  10  22  43  67  89 118 162 211 256 304 362
#
# _framework density 21.654252
#
# number of rings (size 3 to 8) (size 9 to 14) (size 15 to 20)
#    0.000    1.250    2.500    3.750    0.000    5.500 
#    0.000    2.500    0.000    0.000    0.000    0.000 
#    0.000    0.000    0.000    0.000    0.000    0.000 
#
# Total GULP energy -179039.213636 kJ/mol
# GULP energy per Si atom -5594.975426 kJ/mol
# Density = 2.160497 g / cm^3
# Si number density = 21.654252 Si / 1000 Ang^3
#
#
#
# Elastic Constant Matrix: (Units=GPa)
#
#
# Indices 1 2 3 4 5 6 
#
# 1 97.8239 35.6857 6.1138 0.0000 38.2278 0.0000
# 2 35.6857 68.4901 19.1380 0.0000 25.4342 0.0000
# 3 6.1138 19.1380 67.9065 0.0000 28.8166 0.0000
# 4 0.0000 0.0000 0.0000 3.9330 0.0000 2.4437
# 5 38.2278 25.4342 28.8166 0.0000 38.2839 0.0000
# 6 0.0000 0.0000 0.0000 2.4437 0.0000 26.9709
#
#
#
# Elastic Compliance Matrix: (Units=1/GPa)
#
#
# Indices 1 2 3 4 5 6 
#
# 1 0.021510 -0.004288 0.010546 0.000000 -0.026567 0.000000
# 2 -0.004288 0.020237 -0.002100 0.000000 -0.007582 0.000000
# 3 0.010546 -0.002100 0.026808 0.000000 -0.029314 0.000000
# 4 0.000000 0.000000 0.000000 0.269429 0.000000 -0.024412
# 5 -0.026567 -0.007582 -0.029314 0.000000 0.079751 0.000000
# 6 0.000000 0.000000 0.000000 -0.024412 0.000000 0.039289
#
#
# Mechanical properties :
#
#
# Convention : Reuss Voigt Hill
#
# Bulk Modulus (GPa) = 13.00880 39.56618 26.28749
# Shear Modulus (GPa) = 10.54113 25.38975 17.96544
#
# Velocity S-wave (km/s) = 2.20873 3.42790 2.88349
# Velocity P-wave (km/s) = 3.53910 5.82913 4.82203
#
# Compressibility (1/GPa) = 0.07687105
#
# Stress axis : x y z
#
# Youngs Moduli (GPa) = 46.49081 49.41326 37.30221
#
# Poissons Ratio (x) = 0.21189 -0.39339
# Poissons Ratio (y) = 0.19936 0.07833
# Poissons Ratio (z) = -0.49029 0.10376
#
# Static dielectric constant tensor:
#      x y z
#    x 1.790980 0.000000 0.016040 
#    y 0.000000 1.719800 0.000000 
#    z 0.016040 0.000000 1.818730 
# 
# From -- ./inp_files/187435.got.cif
#   From: 2010.05.17/outbox.cif.g08.bks.cpg/sg12_94_cif.got.tgz:187435.got - 2010.06.03 13:09:07.
