data_PCOD9202769
_publ_section_title
;
Structure prediction by ZEFSAII (Michael W. Deem and Ramdas Pophale) SiO2 
 PCOD9202769
Probable space group: C 2/M
;
_chemical_formula_sum "Si O2"
_cell_formula_units_Z 64
_cell_length_a 13.896840
_cell_length_b 15.016932
_cell_length_c 21.182709
_cell_angle_alpha 90.000000
_cell_angle_beta 40.854026
_cell_angle_gamma 90.000000
_cell_volume 2891.648940
_symmetry_space_group_name_H-M "C 2/M"
_symmetry_group_IT_number 12
_symmetry_cell_setting 'monoclinic'
loop_
_space_group_symop_operation_xyz
x,y,z
-x,y,-z
-x,-y,-z
x,-y,z
1/2+x,1/2+y,z
1/2-x,1/2+y,-z
1/2-x,1/2-y,-z
1/2+x,1/2-y,z
loop_
_atom_site_type_symbol
_atom_site_label
_atom_site_fract_x
_atom_site_fract_y
_atom_site_fract_z
Si Si1 0.871767 0.200038 0.199646
Si Si2 0.092721 0.240380 0.515368
Si Si3 0.047204 0.845962 0.295750
Si Si4 0.854577 0.676940 0.803537
Si Si5 0.671198 0.097571 0.627192
Si Si6 0.391790 0.602850 0.992181
Si Si7 0.173993 0.595578 0.771702
Si Si8 0.754223 0.899215 0.381922
O O1 0.757411 0.178335 0.199846
O O2 0.897899 0.306650 0.187068
O O3 0.794543 0.160522 0.300477
O O4 0.022185 0.151605 0.106257
O O5 0.998845 0.218123 0.623175
O O6 0.238567 0.179188 0.446583
O O7 0.137714 0.342266 0.480210
O O8 0.000000 0.212357 0.500000
O O9 0.905777 0.900421 0.345884
O O10 0.090376 0.778375 0.218533
O O11 0.186406 0.899578 0.251296
O O12 0.761864 0.644184 0.909116
O O13 0.997586 0.617686 0.718055
O O14 0.722601 0.093748 0.674598
O O15 0.698329 0.000000 0.584519
O O16 0.371158 0.500000 0.986550
O O17 0.500000 0.607375 0.000000
O O18 0.095255 0.500000 0.821720
O O19 0.709253 0.000000 0.388786
#
# Coordination Sequence:
#
# PCOD9202769 Si02
#       8
#     8   8   8   8   8   8   8   8
#     4  10  20  40  65  91 128 165 195 250 314 374
#     4  12  23  44  63  86 123 161 209 262 308 356
#     4  11  22  41  63  85 124 168 203 252 310 368
#     4  10  20  38  64  92 125 157 199 260 313 353
#     4  11  22  37  62  90 119 154 207 263 307 350
#     4   9  18  34  61  95 124 157 205 251 302 369
#     4  10  20  38  63  91 122 160 208 258 306 356
#     4  12  25  41  61  88 126 166 204 246 307 383
#
# _framework density 22.1327
#
# number of rings (size 3 to 8) (size 9 to 14) (size 15 to 20)
#    0.000    1.375    3.750    2.250    0.000    3.000 
#    0.000    3.125    0.000   11.625    0.000    0.000 
#    0.000    0.000    0.000    0.000    0.000    0.000 
#
# Total GULP energy -178816.379608 kJ/mol
# GULP energy per Si atom -5588.011863 kJ/mol
# Density = 2.208232 g / cm^3
# Si number density = 22.132700 Si / 1000 Ang^3
#
#
#
# Elastic Constant Matrix: (Units=GPa)
#
#
# Indices 1 2 3 4 5 6 
#
# 1 44.2242 15.0091 -1.6590 0.0000 0.5231 0.0000
# 2 15.0091 174.8918 55.8742 -0.0001 -4.8623 0.0000
# 3 -1.6590 55.8742 85.9953 -0.0004 -9.8297 0.0001
# 4 0.0000 -0.0001 -0.0004 14.7309 0.0001 -1.5979
# 5 0.5231 -4.8623 -9.8297 0.0001 24.3370 0.0000
# 6 0.0000 0.0000 0.0001 -1.5979 0.0000 18.7941
#
#
#
# Elastic Compliance Matrix: (Units=1/GPa)
#
#
# Indices 1 2 3 4 5 6 
#
# 1 0.023627 -0.002741 0.002218 0.000000 -0.000159 0.000000
# 2 -0.002741 0.007539 -0.005003 0.000000 -0.000456 0.000000
# 3 0.002218 -0.005003 0.015519 0.000000 0.005221 0.000000
# 4 0.000000 0.000000 0.000000 0.068516 0.000000 0.005825
# 5 -0.000159 -0.000456 0.005221 0.000000 0.043111 0.000000
# 6 0.000000 0.000000 0.000000 0.005825 0.000000 0.053704
#
#
# Mechanical properties :
#
#
# Convention : Reuss Voigt Hill
#
# Bulk Modulus (GPa) = 28.06327 49.28443 38.67385
# Shear Modulus (GPa) = 21.28160 27.29819 24.28990
#
# Velocity S-wave (km/s) = 3.10424 3.51577 3.31640
# Velocity P-wave (km/s) = 5.05525 6.22872 5.67241
#
# Compressibility (1/GPa) = 0.03563377
#
# Stress axis : x y z
#
# Youngs Moduli (GPa) = 42.32377 132.64755 64.43787
#
# Poissons Ratio (x) = 0.36357 -0.14295
# Poissons Ratio (y) = 0.11600 0.32239
# Poissons Ratio (z) = -0.09389 0.66366
#
# Static dielectric constant tensor:
#      x y z
#    x 1.845720 0.000000 -0.007850 
#    y 0.000000 1.838430 0.000000 
#    z -0.007850 0.000000 1.782190 
# 
# From -- ./inp_files/340162.got.cif
#   From: 2010.05.17/outbox.cif.g08.bks.cpg/sg12_171_cif.got.tgz:340162.got - 2010.06.03 13:09:07.
