data_PCOD9202726
_publ_section_title
;
Structure prediction by ZEFSAII (Michael W. Deem and Ramdas Pophale) SiO2 
 PCOD9202726
Probable space group: C 2/M
;
_chemical_formula_sum "Si O2"
_cell_formula_units_Z 48
_cell_length_a 8.860231
_cell_length_b 29.381432
_cell_length_c 9.382712
_cell_angle_alpha 90.000000
_cell_angle_beta 85.258939
_cell_angle_gamma 90.000000
_cell_volume 2434.208999
_symmetry_space_group_name_H-M "C 2/M"
_symmetry_group_IT_number 12
_symmetry_cell_setting 'monoclinic'
loop_
_space_group_symop_operation_xyz
x,y,z
-x,y,-z
-x,-y,-z
x,-y,z
1/2+x,1/2+y,z
1/2-x,1/2+y,-z
1/2-x,1/2-y,-z
1/2+x,1/2-y,z
loop_
_atom_site_type_symbol
_atom_site_label
_atom_site_fract_x
_atom_site_fract_y
_atom_site_fract_z
Si Si1 0.668167 0.202496 0.828269
Si Si2 0.293552 0.381110 0.657825
Si Si3 0.633912 0.550164 0.910456
Si Si4 0.615091 0.051619 0.874716
Si Si5 0.193866 0.302681 0.154642
Si Si6 0.844687 0.882863 0.322995
O O1 0.746121 0.169118 0.710845
O O2 0.730063 0.253835 0.821106
O O3 0.487912 0.201036 0.814189
O O4 0.709242 0.185469 0.985271
O O5 0.178663 0.416333 0.744912
O O6 0.286842 0.385803 0.488361
O O7 0.471325 0.386157 0.685975
O O8 0.580039 0.500000 0.867247
O O9 0.704694 0.575327 0.772129
O O10 0.500000 0.577186 0.000000
O O11 0.745991 0.544958 0.030935
O O12 0.562427 0.000000 0.835255
O O13 0.500000 0.073178 0.000000
O O14 0.276804 0.338951 0.248653
#
# Coordination Sequence:
#
# PCOD9202726 Si02
#       6
#     8   8   8   8   8   8
#     4  10  22  40  64  92 119 157 202 251 299 359
#     4  11  24  39  60  89 128 164 201 245 305 359
#     4  10  20  38  63  89 117 158 208 253 296 349
#     4  10  22  40  63  89 120 160 206 253 300 356
#     4  10  22  40  65  92 120 156 204 250 301 356
#     4  11  24  39  59  92 126 164 199 249 303 358
#
# _framework density 19.718931000000001
#
# number of rings (size 3 to 8) (size 9 to 14) (size 15 to 20)
#    0.000    1.667    1.667    2.000    4.667    3.333 
#    0.000    1.667    0.000    3.000    0.000    0.000 
#    0.000    0.000    0.000    0.000    0.000    0.000 
#
# Total GULP energy -133760.974599 kJ/mol
# GULP energy per Si atom -5573.373942 kJ/mol
# Density = 1.967405 g / cm^3
# Si number density = 19.718931 Si / 1000 Ang^3
#
#
#
# Elastic Constant Matrix: (Units=GPa)
#
#
# Indices 1 2 3 4 5 6 
#
# 1 34.6612 8.6488 21.9132 0.0000 -17.8132 0.0000
# 2 8.6488 85.3283 71.6652 0.0000 -10.7596 0.0000
# 3 21.9132 71.6652 142.4684 0.0000 -20.5460 0.0000
# 4 0.0000 0.0000 0.0000 -2.0393 0.0000 -0.4955
# 5 -17.8132 -10.7596 -20.5460 0.0000 31.0096 0.0000
# 6 0.0000 0.0000 0.0000 -0.4955 0.0000 28.9575
#
#
#
# Elastic Compliance Matrix: (Units=1/GPa)
#
#
# Indices 1 2 3 4 5 6 
#
# 1 0.042556 0.002242 -0.004462 0.000000 0.022267 0.000000
# 2 0.002242 0.020413 -0.010400 0.000000 0.001480 0.000000
# 3 -0.004462 -0.010400 0.013319 0.000000 0.002653 0.000000
# 4 0.000000 0.000000 0.000000 -0.488328 0.000000 -0.008356
# 5 0.022267 0.001480 0.002653 0.000000 0.047311 0.000000
# 6 0.000000 0.000000 0.000000 -0.008356 0.000000 0.034390
#
#
# Mechanical properties :
#
#
# Convention : Reuss Voigt Hill
#
# Bulk Modulus (GPa) = 19.58904 51.87914 35.73409
# Shear Modulus (GPa) = -17.35617 22.26760 2.45572
#
# Velocity S-wave (km/s) = -2.97000 3.36408 1.11717
# Velocity P-wave (km/s) = 1.34368 6.43862 4.45254
#
# Compressibility (1/GPa) = 0.05104895
#
# Stress axis : x y z
#
# Youngs Moduli (GPa) = 23.49850 48.98734 75.07815
#
# Poissons Ratio (x) = -0.10983 0.33500
# Poissons Ratio (y) = -0.05268 0.78080
# Poissons Ratio (z) = 0.10485 0.50946
#
# Static dielectric constant tensor:
#      x y z
#    x 1.933530 0.000000 -0.058590 
#    y 0.000000 1.738320 0.000000 
#    z -0.058590 0.000000 1.681510 
# 
# From -- ./inp_files/42190.got.cif
#   From: 2010.05.17/outbox.cif.g08.bks.cpg/sg12_22_cif.got.tgz:42190.got - 2010.06.03 13:09:07.
