data_PCOD9202982
_publ_section_title
;
Structure prediction by ZEFSAII (Michael W. Deem and Ramdas Pophale) SiO2 
 PCOD9202982
Probable space group: C 2/M
;
_chemical_formula_sum "Si O2"
_cell_formula_units_Z 46
_cell_length_a 8.615730
_cell_length_b 16.338624
_cell_length_c 25.360230
_cell_angle_alpha 90.000000
_cell_angle_beta 140.920250
_cell_angle_gamma 90.000000
_cell_volume 2250.494617
_symmetry_space_group_name_H-M "C 2/M"
_symmetry_group_IT_number 12
_symmetry_cell_setting 'monoclinic'
loop_
_space_group_symop_operation_xyz
x,y,z
-x,y,-z
-x,-y,-z
x,-y,z
1/2+x,1/2+y,z
1/2-x,1/2+y,-z
1/2-x,1/2-y,-z
1/2+x,1/2-y,z
loop_
_atom_site_type_symbol
_atom_site_label
_atom_site_fract_x
_atom_site_fract_y
_atom_site_fract_z
Si Si1 0.500000 0.787494 0.500000
Si Si2 0.453462 0.138690 0.736375
Si Si3 0.851588 0.500000 0.042157
Si Si4 0.000000 0.000000 0.500000
Si Si5 0.121261 0.330445 0.086145
Si Si6 0.289590 0.500000 0.871655
Si Si7 0.057289 0.138110 0.438891
Si Si8 0.631209 0.730684 0.195851
O O1 0.485965 0.725191 0.446759
O O2 0.739617 0.842220 0.551514
O O3 0.200754 0.100784 0.649488
O O4 0.384160 0.196713 0.766552
O O5 0.599311 0.191801 0.731920
O O6 0.659636 0.076973 0.810933
O O7 0.787600 0.500000 0.087286
O O8 0.001721 0.418253 0.067188
O O9 0.583571 0.500000 0.944005
O O10 0.146217 0.073191 0.505508
O O11 0.413548 0.331857 0.152896
O O12 0.083528 0.268868 0.125196
O O13 0.000000 0.298553 0.000000
#
# Coordination Sequence:
#
# PCOD9202982 Si02
#       8
#     4   8   4   2   8   4   8   8
#     4   9  20  38  64  97 118 160 196 237 296 374
#     4  11  21  40  60  86 119 155 193 247 298 350
#     4  11  23  40  57  78 113 158 197 248 289 349
#     4  10  22  38  58  92 118 156 198 236 284 360
#     4  11  21  38  57  81 112 151 196 253 297 347
#     4  11  23  38  58  81 114 157 198 236 302 347
#     4  10  20  38  65  88 127 155 199 242 298 354
#     4  10  23  36  58  87 114 145 202 247 297 354
#
# _framework density 20.439951000000001
#
# number of rings (size 3 to 8) (size 9 to 14) (size 15 to 20)
#    0.000    1.565    1.739    3.391    0.000    2.435 
#    0.000    0.000    3.826    0.000    0.000    0.000 
#    0.000    0.000    0.000    0.000    0.000    0.000 
#
# Total GULP energy -128153.785591 kJ/mol
# GULP energy per Si atom -5571.903721 kJ/mol
# Density = 2.039343 g / cm^3
# Si number density = 20.439951 Si / 1000 Ang^3
#
#
#
# Elastic Constant Matrix: (Units=GPa)
#
#
# Indices 1 2 3 4 5 6 
#
# 1 129.0204 43.0053 18.9995 0.0000 27.0401 0.0000
# 2 43.0053 85.1249 10.8299 0.0002 23.8862 0.0000
# 3 18.9995 10.8299 47.5801 0.0004 25.0917 0.0000
# 4 0.0000 0.0002 0.0004 -16.0689 0.0002 15.7811
# 5 27.0401 23.8862 25.0917 0.0002 29.4343 0.0000
# 6 0.0000 0.0000 0.0000 15.7811 0.0000 32.2973
#
#
#
# Elastic Compliance Matrix: (Units=1/GPa)
#
#
# Indices 1 2 3 4 5 6 
#
# 1 0.010268 -0.003230 0.000413 0.000000 -0.007164 0.000000
# 2 -0.003230 0.017075 0.005715 0.000000 -0.015761 0.000000
# 3 0.000413 0.005715 0.040326 0.000000 -0.039393 0.000000
# 4 0.000000 0.000000 0.000000 -0.042052 0.000000 0.020548
# 5 -0.007164 -0.015761 -0.039393 0.000000 0.086926 0.000000
# 6 0.000000 0.000000 0.000000 0.020548 0.000000 0.020922
#
#
# Mechanical properties :
#
#
# Convention : Reuss Voigt Hill
#
# Bulk Modulus (GPa) = 13.61208 45.26607 29.43907
# Shear Modulus (GPa) = 32.86086 21.72526 27.29306
#
# Velocity S-wave (km/s) = 4.01394 3.26372 3.65811
# Velocity P-wave (km/s) = 5.30625 6.03295 5.68123
#
# Compressibility (1/GPa) = 0.07346417
#
# Stress axis : x y z
#
# Youngs Moduli (GPa) = 97.39191 58.56658 24.79799
#
# Poissons Ratio (x) = 0.18915 -0.01024
# Poissons Ratio (y) = 0.31455 -0.14172
# Poissons Ratio (z) = -0.04020 -0.33470
#
# Static dielectric constant tensor:
#      x y z
#    x 1.726320 0.000000 -0.018500 
#    y 0.000000 1.738220 0.000000 
#    z -0.018500 0.000000 1.775050 
# 
# From -- ./inp_files/256490.got.cif
#   From: 2010.05.17/outbox.cif.g08.bks.cpg/sg12_129_cif.got.tgz:256490.got - 2010.06.03 13:09:07.
