data_PCOD9202885
_publ_section_title
;
Structure prediction by ZEFSAII (Michael W. Deem and Ramdas Pophale) SiO2 
 PCOD9202885
Probable space group: C 2/M
;
_chemical_formula_sum "Si O2"
_cell_formula_units_Z 54
_cell_length_a 10.442872
_cell_length_b 30.881709
_cell_length_c 8.158686
_cell_angle_alpha 90.000000
_cell_angle_beta 106.909888
_cell_angle_gamma 90.000000
_cell_volume 2517.364213
_symmetry_space_group_name_H-M "C 2/M"
_symmetry_group_IT_number 12
_symmetry_cell_setting 'monoclinic'
loop_
_space_group_symop_operation_xyz
x,y,z
-x,y,-z
-x,-y,-z
x,-y,z
1/2+x,1/2+y,z
1/2-x,1/2+y,-z
1/2-x,1/2-y,-z
1/2+x,1/2-y,z
loop_
_atom_site_type_symbol
_atom_site_label
_atom_site_fract_x
_atom_site_fract_y
_atom_site_fract_z
Si Si1 0.736976 0.835126 0.739618
Si Si2 0.173611 0.077505 0.720164
Si Si3 0.657702 0.743726 0.807283
Si Si4 0.500000 0.500000 0.500000
Si Si5 0.570410 0.950362 0.367370
Si Si6 0.000000 0.802831 0.000000
Si Si7 0.383327 0.093842 0.073077
Si Si8 0.147019 0.169801 0.577434
O O1 0.655679 0.789987 0.720180
O O2 0.656533 0.873300 0.798181
O O3 0.783132 0.840369 0.568937
O O4 0.870214 0.830257 0.902770
O O5 0.293867 0.072006 0.634154
O O6 0.120888 0.125791 0.669412
O O7 0.070784 0.038885 0.642305
O O8 0.254603 0.078424 0.922063
O O9 0.525393 0.726015 0.847749
O O10 0.717748 0.706083 0.714335
O O11 0.750000 0.750000 0.000000
O O12 0.500000 0.931664 0.500000
O O13 0.462471 0.945997 0.183486
O O14 0.605688 0.000000 0.413440
O O15 0.500000 0.114171 0.000000
O O16 0.000000 0.189855 0.500000
#
# Coordination Sequence:
#
# PCOD9202885 Si02
#       8
#     8   8   8   2   8   4   8   8
#     4  11  23  41  67  95 136 172 232 276 344 412
#     4  11  23  41  68  96 142 174 237 279 349 416
#     4  10  22  40  64  93 128 177 218 271 331 410
#     4  12  24  40  68 110 130 200 224 294 346 430
#     4  10  21  41  68  95 131 173 225 285 347 411
#     4  10  20  38  64  90 129 174 213 276 344 390
#     4  10  24  42  69 102 133 184 231 288 347 411
#     4  12  23  42  66  98 135 180 223 285 348 415
#
# _framework density 21.451008000000002
#
# number of rings (size 3 to 8) (size 9 to 14) (size 15 to 20)
#    0.000    1.333    2.963    3.111    2.074    0.889 
#    2.667    0.741    0.000    1.778    0.000    0.000 
#    0.000    0.000    0.000    0.000    0.000    0.000 
#
# Total GULP energy -150323.385624 kJ/mol
# GULP energy per Si atom -5567.532801 kJ/mol
# Density = 2.140218 g / cm^3
# Si number density = 21.451008 Si / 1000 Ang^3
#
#
#
# Elastic Constant Matrix: (Units=GPa)
#
#
# Indices 1 2 3 4 5 6 
#
# 1 42.2506 9.4656 21.7244 0.0000 -14.7816 0.0000
# 2 9.4656 98.0498 32.7995 0.0000 3.8448 0.0000
# 3 21.7244 32.7995 104.0049 0.0000 -7.1698 0.0000
# 4 0.0000 0.0000 0.0000 32.6590 0.0000 5.2224
# 5 -14.7816 3.8448 -7.1698 0.0000 38.5954 0.0000
# 6 0.0000 0.0000 0.0000 5.2224 0.0000 24.5685
#
#
#
# Elastic Compliance Matrix: (Units=1/GPa)
#
#
# Indices 1 2 3 4 5 6 
#
# 1 0.030467 -0.001666 -0.005088 0.000000 0.010889 0.000000
# 2 -0.001666 0.011622 -0.003485 0.000000 -0.002443 0.000000
# 3 -0.005088 -0.003485 0.011818 0.000000 0.000594 0.000000
# 4 0.000000 0.000000 0.000000 0.031697 0.000000 -0.006738
# 5 0.010889 -0.002443 0.000594 0.000000 0.030434 0.000000
# 6 0.000000 0.000000 0.000000 -0.006738 0.000000 0.042135
#
#
# Mechanical properties :
#
#
# Convention : Reuss Voigt Hill
#
# Bulk Modulus (GPa) = 29.91537 41.36491 35.64014
# Shear Modulus (GPa) = 26.34437 31.18565 28.76501
#
# Velocity S-wave (km/s) = 3.50825 3.81702 3.66589
# Velocity P-wave (km/s) = 5.51241 6.22507 5.87955
#
# Compressibility (1/GPa) = 0.03342764
#
# Stress axis : x y z
#
# Youngs Moduli (GPa) = 32.82198 86.04740 84.61821
#
# Poissons Ratio (x) = 0.14338 0.43052
# Poissons Ratio (y) = 0.05469 0.29493
# Poissons Ratio (z) = 0.16699 0.29991
#
# Static dielectric constant tensor:
#      x y z
#    x 1.846610 0.000000 -0.002560 
#    y 0.000000 1.772840 0.000000 
#    z -0.002560 0.000000 1.823610 
# 
# From -- ./inp_files/54350.got.cif
#   From: 2010.05.17/outbox.cif.g08.bks.cpg/sg12_28_cif.got.tgz:54350.got - 2010.06.03 13:09:07.
