data_PCOD9202797
_publ_section_title
;
Structure prediction by ZEFSAII (Michael W. Deem and Ramdas Pophale) SiO2 
 PCOD9202797
Probable space group: C 2/M
;
_chemical_formula_sum "Si O2"
_cell_formula_units_Z 48
_cell_length_a 15.417477
_cell_length_b 27.125184
_cell_length_c 6.671320
_cell_angle_alpha 90.000000
_cell_angle_beta 45.160202
_cell_angle_gamma 90.000000
_cell_volume 1978.307047
_symmetry_space_group_name_H-M "C 2/M"
_symmetry_group_IT_number 12
_symmetry_cell_setting 'monoclinic'
loop_
_space_group_symop_operation_xyz
x,y,z
-x,y,-z
-x,-y,-z
x,-y,z
1/2+x,1/2+y,z
1/2-x,1/2+y,-z
1/2-x,1/2-y,-z
1/2+x,1/2-y,z
loop_
_atom_site_type_symbol
_atom_site_label
_atom_site_fract_x
_atom_site_fract_y
_atom_site_fract_z
Si Si1 0.100981 0.441310 0.210617
Si Si2 0.368564 0.800953 0.731725
Si Si3 0.117879 0.903096 0.217473
Si Si4 0.802435 0.138005 0.286797
Si Si5 0.599013 0.060028 0.715622
Si Si6 0.821934 0.194359 0.645412
O O1 0.108682 0.500000 0.191983
O O2 0.244921 0.423836 0.978930
O O3 0.062087 0.430897 0.027818
O O4 0.068270 0.432122 0.511376
O O5 0.500000 0.825287 0.500000
O O6 0.277361 0.831195 0.742956
O O7 0.375627 0.746377 0.627643
O O8 0.317581 0.801290 0.041094
O O9 0.122987 0.851557 0.327996
O O10 0.000000 0.930780 0.500000
O O11 0.100824 0.890010 0.010638
O O12 0.716122 0.096935 0.527374
O O13 0.837838 0.179241 0.390821
O O14 0.624703 0.000000 0.677464
#
# Coordination Sequence:
#
# PCOD9202797 Si02
#       6
#     8   8   8   8   8   8
#     4  10  20  38  63  92 130 172 222 286 347 396
#     4  10  23  40  64  94 130 170 223 292 337 401
#     4  11  24  40  63  93 133 180 228 282 336 407
#     4  11  23  38  68  94 128 178 229 272 343 410
#     4  10  21  36  61  97 133 167 214 282 342 399
#     4  10  23  43  59  92 134 173 222 279 348 407
#
# _framework density 24.263169999999999
#
# number of rings (size 3 to 8) (size 9 to 14) (size 15 to 20)
#    0.000    1.667    1.667    2.000    7.000    1.000 
#    0.000    1.667    0.000    0.000    0.000    7.000 
#    0.000    0.000    0.000    0.000    0.000    0.000 
#
# Total GULP energy -133865.445654 kJ/mol
# GULP energy per Si atom -5577.726902 kJ/mol
# Density = 2.420795 g / cm^3
# Si number density = 24.263170 Si / 1000 Ang^3
#
#
#
# Elastic Constant Matrix: (Units=GPa)
#
#
# Indices 1 2 3 4 5 6 
#
# 1 95.5851 5.5034 77.9453 0.0000 -1.2096 0.0000
# 2 5.5034 77.4209 10.6074 0.0000 -17.2144 0.0000
# 3 77.9453 10.6074 214.0955 0.0000 1.2529 0.0000
# 4 0.0000 0.0000 0.0000 35.0258 0.0000 16.3869
# 5 -1.2096 -17.2144 1.2529 0.0000 37.6892 0.0000
# 6 0.0000 0.0000 0.0000 16.3869 0.0000 10.9046
#
#
#
# Elastic Compliance Matrix: (Units=1/GPa)
#
#
# Indices 1 2 3 4 5 6 
#
# 1 0.014898 -0.000190 -0.005418 0.000000 0.000572 0.000000
# 2 -0.000190 0.014501 -0.000688 0.000000 0.006640 0.000000
# 3 -0.005418 -0.000688 0.006682 0.000000 -0.000710 0.000000
# 4 0.000000 0.000000 0.000000 0.096151 0.000000 -0.144492
# 5 0.000572 0.006640 -0.000710 0.000000 0.029608 0.000000
# 6 0.000000 0.000000 0.000000 -0.144492 0.000000 0.308841
#
#
# Mechanical properties :
#
#
# Convention : Reuss Voigt Hill
#
# Bulk Modulus (GPa) = 42.57368 63.91263 53.24316
# Shear Modulus (GPa) = 10.18121 36.26027 23.22074
#
# Velocity S-wave (km/s) = 2.05067 3.87002 3.09696
# Velocity P-wave (km/s) = 4.81578 6.80940 5.89744
#
# Compressibility (1/GPa) = 0.02348869
#
# Stress axis : x y z
#
# Youngs Moduli (GPa) = 67.12296 68.96290 149.66630
#
# Poissons Ratio (x) = 0.01308 0.81087
# Poissons Ratio (y) = 0.01273 0.10301
# Poissons Ratio (z) = 0.36366 0.04746
#
# Static dielectric constant tensor:
#      x y z
#    x 2.069830 0.000000 0.004310 
#    y 0.000000 1.841010 0.000000 
#    z 0.004310 0.000000 2.079130 
# 
# From -- ./inp_files/12926.got.cif
#   From: 2010.05.17/outbox.cif.g08.bks.cpg/sg12_7_cif.got.tgz:12926.got - 2010.06.03 13:09:07.
