data_PCOD9202109
_publ_section_title
;
Structure prediction by ZEFSAII (Michael W. Deem and Ramdas Pophale) SiO2 
 PCOD9202109
Probable space group: C 2/M
;
_chemical_formula_sum "Si O2"
_cell_formula_units_Z 58
_cell_length_a 10.932520
_cell_length_b 16.085677
_cell_length_c 16.926074
_cell_angle_alpha 90.000000
_cell_angle_beta 114.651596
_cell_angle_gamma 90.000000
_cell_volume 2705.286504
_symmetry_space_group_name_H-M "C 2/M"
_symmetry_group_IT_number 12
_symmetry_cell_setting 'monoclinic'
loop_
_space_group_symop_operation_xyz
x,y,z
-x,y,-z
-x,-y,-z
x,-y,z
1/2+x,1/2+y,z
1/2-x,1/2+y,-z
1/2-x,1/2-y,-z
1/2+x,1/2-y,z
loop_
_atom_site_type_symbol
_atom_site_label
_atom_site_fract_x
_atom_site_fract_y
_atom_site_fract_z
Si Si1 0.000000 0.000000 0.000000
Si Si2 0.909704 0.092263 0.297308
Si Si3 0.193249 0.407128 0.376907
Si Si4 0.838520 0.405837 0.449719
Si Si5 0.177135 0.154183 0.009862
Si Si6 0.137326 0.778883 0.322527
Si Si7 0.677849 0.905051 0.102665
Si Si8 0.587852 0.741389 0.128073
O O1 0.884762 0.928775 0.972086
O O2 0.820124 0.095935 0.352114
O O3 0.269936 0.171481 0.387049
O O4 0.810085 0.098203 0.194887
O O5 0.973791 0.000000 0.310867
O O6 0.129339 0.500000 0.344302
O O7 0.221699 0.406315 0.477790
O O8 0.123203 0.318084 0.342257
O O9 0.816336 0.500000 0.410154
O O10 0.015285 0.165875 0.322485
O O11 0.000000 0.395388 0.500000
O O12 0.284502 0.126553 0.974363
O O13 0.054251 0.199894 0.930861
O O14 0.197976 0.211029 0.092633
O O15 0.132817 0.781719 0.226846
O O16 0.577558 0.839992 0.114912
O O17 0.632650 0.000000 0.089557
#
# Coordination Sequence:
#
# PCOD9202109 Si02
#       8
#     2   8   8   8   8   8   8   8
#     4   8  16  32  56  84 106 158 200 244 306 352
#     4  10  22  37  62  97 125 156 211 270 308 363
#     4  10  23  43  64  91 127 162 206 261 317 374
#     4  10  24  45  66  93 128 165 205 259 322 381
#     4  10  20  38  58  88 126 163 199 259 309 355
#     4  12  22  39  66  95 123 169 213 258 312 379
#     4  11  20  37  61  88 121 165 208 254 311 363
#     4  10  22  35  58  93 124 157 207 256 304 363
#
# _framework density 21.439503999999999
#
# number of rings (size 3 to 8) (size 9 to 14) (size 15 to 20)
#    0.000    1.793    3.448    1.241    1.931    0.552 
#    4.966    3.448    0.000    0.000    7.172    0.000 
#    0.000    0.000    0.000    0.000    0.000    0.000 
#
# Total GULP energy -161529.982974 kJ/mol
# GULP energy per Si atom -5569.999413 kJ/mol
# Density = 2.139071 g / cm^3
# Si number density = 21.439504 Si / 1000 Ang^3
#
#
#
# Elastic Constant Matrix: (Units=GPa)
#
#
# Indices 1 2 3 4 5 6 
#
# 1 47.9009 44.6674 24.7983 0.0000 2.6466 0.0000
# 2 44.6674 211.8526 33.5916 0.0000 3.8124 0.0000
# 3 24.7983 33.5916 101.8315 0.0000 -16.8540 0.0000
# 4 0.0000 0.0000 0.0000 29.3298 0.0000 -34.1628
# 5 2.6466 3.8124 -16.8540 0.0000 25.3442 0.0000
# 6 0.0000 0.0000 0.0000 -34.1628 0.0000 -24.0968
#
#
#
# Elastic Compliance Matrix: (Units=1/GPa)
#
#
# Indices 1 2 3 4 5 6 
#
# 1 0.029344 -0.005020 -0.006598 0.000000 -0.006697 0.000000
# 2 -0.005020 0.005938 -0.000896 0.000000 -0.000965 0.000000
# 3 -0.006598 -0.000896 0.013326 0.000000 0.009685 0.000000
# 4 0.000000 0.000000 0.000000 0.012860 0.000000 -0.018231
# 5 -0.006697 -0.000965 0.009685 0.000000 0.046742 0.000000
# 6 0.000000 0.000000 0.000000 -0.018231 0.000000 -0.015652
#
#
# Mechanical properties :
#
#
# Convention : Reuss Voigt Hill
#
# Bulk Modulus (GPa) = 42.41143 63.07773 52.74458
# Shear Modulus (GPa) = 39.85812 23.35063 31.60437
#
# Velocity S-wave (km/s) = 4.31640 3.30379 3.84359
# Velocity P-wave (km/s) = 6.68331 6.63615 6.65977
#
# Compressibility (1/GPa) = 0.02357855
#
# Stress axis : x y z
#
# Youngs Moduli (GPa) = 34.07898 168.40251 75.04382
#
# Poissons Ratio (x) = 0.84540 0.49516
# Poissons Ratio (y) = 0.17108 0.06724
# Poissons Ratio (z) = 0.22486 0.15089
#
# Static dielectric constant tensor:
#      x y z
#    x 1.808490 0.000000 0.002960 
#    y 0.000000 1.794680 0.000000 
#    z 0.002960 0.000000 1.768040 
# 
# From -- ./inp_files/268741.got.cif
#   From: 2010.05.17/outbox.cif.g08.bks.cpg/sg12_135_cif.got.tgz:268741.got - 2010.06.03 13:09:07.
