data_PCOD9202815
_publ_section_title
;
Structure prediction by ZEFSAII (Michael W. Deem and Ramdas Pophale) SiO2 
 PCOD9202815
Probable space group: C 2/M
;
_chemical_formula_sum "Si O2"
_cell_formula_units_Z 64
_cell_length_a 16.973987
_cell_length_b 15.441597
_cell_length_c 18.716484
_cell_angle_alpha 90.000000
_cell_angle_beta 143.897433
_cell_angle_gamma 90.000000
_cell_volume 2890.593896
_symmetry_space_group_name_H-M "C 2/M"
_symmetry_group_IT_number 12
_symmetry_cell_setting 'monoclinic'
loop_
_space_group_symop_operation_xyz
x,y,z
-x,y,-z
-x,-y,-z
x,-y,z
1/2+x,1/2+y,z
1/2-x,1/2+y,-z
1/2-x,1/2-y,-z
1/2+x,1/2-y,z
loop_
_atom_site_type_symbol
_atom_site_label
_atom_site_fract_x
_atom_site_fract_y
_atom_site_fract_z
Si Si1 0.634544 0.902269 0.134706
Si Si2 0.190197 0.151998 0.464952
Si Si3 0.874765 0.598585 0.188054
Si Si4 0.599798 0.872672 0.633286
Si Si5 0.564850 0.332798 0.624004
Si Si6 0.578628 0.396870 0.988407
Si Si7 0.347063 0.645508 0.721686
Si Si8 0.889884 0.653308 0.727542
O O1 0.786828 0.865257 0.245331
O O2 0.602088 0.900109 0.194822
O O3 0.643569 0.000000 0.112763
O O4 0.500000 0.861223 0.000000
O O5 0.250000 0.250000 0.500000
O O6 0.187627 0.114585 0.383377
O O7 0.288842 0.112427 0.595972
O O8 0.044323 0.152016 0.393971
O O9 0.871073 0.500000 0.156333
O O10 0.925228 0.593375 0.306365
O O11 0.969396 0.656668 0.209268
O O12 0.727168 0.637708 0.087678
O O13 0.500000 0.904716 0.500000
O O14 0.579337 0.769846 0.624733
O O15 0.746292 0.888403 0.708347
O O16 0.500000 0.365424 0.500000
O O17 0.594315 0.500000 0.011023
O O18 0.492254 0.380292 0.855026
O O19 0.500000 0.361754 0.000000
O O20 0.340772 0.750405 0.713320
#
# Coordination Sequence:
#
# PCOD9202815 Si02
#       8
#     8   8   8   8   8   8   8   8
#     4  11  25  43  64  93 134 176 221 280 334 392
#     4  10  20  38  63  94 128 160 207 270 333 379
#     4  11  24  40  63  89 128 180 211 256 335 400
#     4  11  20  36  62  95 125 160 213 264 320 389
#     4  11  20  41  67  92 125 177 220 267 334 400
#     4  10  22  42  61  85 128 174 215 264 325 391
#     4  11  21  36  65  95 121 163 210 267 320 378
#     4  11  21  42  62  94 131 164 215 268 327 391
#
# _framework density 22.140778999999998
#
# number of rings (size 3 to 8) (size 9 to 14) (size 15 to 20)
#    0.000    1.250    3.750    4.875    0.000    3.500 
#    0.000    4.375    0.000    0.000    0.000    0.000 
#    0.000    0.000    0.000    0.000    0.000    0.000 
#
# Total GULP energy -178692.553592 kJ/mol
# GULP energy per Si atom -5584.142300 kJ/mol
# Density = 2.209039 g / cm^3
# Si number density = 22.140779 Si / 1000 Ang^3
#
#
#
# Elastic Constant Matrix: (Units=GPa)
#
#
# Indices 1 2 3 4 5 6 
#
# 1 109.1015 -3.4784 13.6748 0.0001 10.0298 0.0001
# 2 -3.4784 41.3173 -5.1611 0.0001 9.4754 0.0000
# 3 13.6748 -5.1611 115.3599 0.0004 10.2260 0.0002
# 4 0.0001 0.0001 0.0004 15.4819 0.0002 -9.1074
# 5 10.0298 9.4754 10.2260 0.0002 36.3728 0.0001
# 6 0.0001 0.0000 0.0002 -9.1074 0.0001 -6.4792
#
#
#
# Elastic Compliance Matrix: (Units=1/GPa)
#
#
# Indices 1 2 3 4 5 6 
#
# 1 0.009565 0.001333 -0.000830 0.000000 -0.002751 0.000000
# 2 0.001333 0.026292 0.001700 0.000000 -0.007695 0.000000
# 3 -0.000830 0.001700 0.009089 0.000000 -0.002769 0.000000
# 4 0.000000 0.000000 0.000000 0.035356 0.000000 -0.049698
# 5 -0.002751 -0.007695 -0.002769 0.000000 0.031035 0.000000
# 6 0.000000 0.000000 0.000000 -0.049698 0.000000 -0.084483
#
#
# Mechanical properties :
#
#
# Convention : Reuss Voigt Hill
#
# Bulk Modulus (GPa) = 20.26298 30.64994 25.45646
# Shear Modulus (GPa) = 128.53748 26.45801 77.49774
#
# Velocity S-wave (km/s) = 7.62763 3.46061 5.92269
# Velocity P-wave (km/s) = 9.31375 5.46270 7.63502
#
# Compressibility (1/GPa) = 0.04935107
#
# Stress axis : x y z
#
# Youngs Moduli (GPa) = 104.54494 38.03415 110.02911
#
# Poissons Ratio (x) = -0.05068 0.09136
# Poissons Ratio (y) = -0.13931 -0.18710
# Poissons Ratio (z) = 0.08681 -0.06467
#
# Static dielectric constant tensor:
#      x y z
#    x 1.804450 0.000000 0.020400 
#    y 0.000000 1.842760 0.000000 
#    z 0.020400 0.000000 1.862410 
# 
# From -- ./inp_files/271763.got.cif
#   From: 2010.05.17/outbox.cif.g08.bks.cpg/sg12_136_cif.got.tgz:271763.got - 2010.06.03 13:09:07.
