data_PCOD9202032
_publ_section_title
;
Structure prediction by ZEFSAII (Michael W. Deem and Ramdas Pophale) SiO2 
 PCOD9202032
Probable space group: C 2/M
;
_chemical_formula_sum "Si O2"
_cell_formula_units_Z 64
_cell_length_a 13.651750
_cell_length_b 13.007545
_cell_length_c 24.660403
_cell_angle_alpha 90.000000
_cell_angle_beta 133.094939
_cell_angle_gamma 90.000000
_cell_volume 3197.710330
_symmetry_space_group_name_H-M "C 2/M"
_symmetry_group_IT_number 12
_symmetry_cell_setting 'monoclinic'
loop_
_space_group_symop_operation_xyz
x,y,z
-x,y,-z
-x,-y,-z
x,-y,z
1/2+x,1/2+y,z
1/2-x,1/2+y,-z
1/2-x,1/2-y,-z
1/2+x,1/2-y,z
loop_
_atom_site_type_symbol
_atom_site_label
_atom_site_fract_x
_atom_site_fract_y
_atom_site_fract_z
Si Si1 0.681058 0.335674 0.399601
Si Si2 0.746472 0.880494 0.291918
Si Si3 0.481649 0.236966 0.179389
Si Si4 0.909674 0.706097 0.413354
Si Si5 0.902476 0.886130 0.245009
Si Si6 0.954418 0.877588 0.894568
Si Si7 0.216640 0.877872 0.065711
Si Si8 0.143726 0.384144 0.430791
O O1 0.785386 0.357598 0.390848
O O2 0.537355 0.380588 0.332191
O O3 0.743592 0.375240 0.479425
O O4 0.670568 0.211304 0.401192
O O5 0.595643 0.840804 0.242983
O O6 0.849053 0.806147 0.361970
O O7 0.782267 0.869848 0.241588
O O8 0.762548 0.000000 0.312583
O O9 0.423693 0.303095 0.206915
O O10 0.549431 0.312623 0.161416
O O11 0.354698 0.178714 0.106175
O O12 0.000000 0.733351 0.500000
O O13 0.003834 0.643126 0.408061
O O14 0.889958 0.000000 0.216127
O O15 0.841877 0.850952 0.896761
O O16 0.945289 0.000000 0.880647
O O17 0.097208 0.857648 0.978126
O O18 0.239131 0.000000 0.074184
O O19 0.142704 0.500000 0.408334
#
# Coordination Sequence:
#
# PCOD9202032 Si02
#       8
#     8   8   8   8   8   8   8   8
#     4  10  20  38  57  83 111 141 188 236 297 348
#     4  11  24  40  55  79 117 155 191 239 292 343
#     4  12  21  37  59  86 116 151 195 231 275 339
#     4  10  21  39  59  82 108 143 195 247 288 347
#     4  11  23  38  56  78 113 155 189 230 285 342
#     4   9  19  37  61  90 119 146 187 231 275 333
#     4   9  19  37  61  88 118 152 183 227 284 330
#     4  10  21  37  61  84 108 140 188 249 295 342
#
# _framework density 20.014320000000001
#
# number of rings (size 3 to 8) (size 9 to 14) (size 15 to 20)
#    0.000    1.750    2.500    3.000    0.000    3.500 
#    0.000    0.000    0.000    0.000    0.000   10.500 
#    0.000    0.000    0.000    0.000    0.000    0.000 
#
# Total GULP energy -178765.335305 kJ/mol
# GULP energy per Si atom -5586.416728 kJ/mol
# Density = 1.996877 g / cm^3
# Si number density = 20.014320 Si / 1000 Ang^3
#
#
#
# Elastic Constant Matrix: (Units=GPa)
#
#
# Indices 1 2 3 4 5 6 
#
# 1 48.0552 11.7659 -1.4486 0.0000 5.4056 0.0000
# 2 11.7659 84.1674 15.5332 0.0000 5.6536 0.0000
# 3 -1.4486 15.5332 19.8386 0.0000 8.0543 0.0000
# 4 0.0000 0.0000 0.0000 18.6468 0.0000 -3.7782
# 5 5.4056 5.6536 8.0543 0.0000 25.4706 0.0000
# 6 0.0000 0.0000 0.0000 -3.7782 0.0000 18.0713
#
#
#
# Elastic Compliance Matrix: (Units=1/GPa)
#
#
# Indices 1 2 3 4 5 6 
#
# 1 0.022750 -0.004133 0.007440 0.000000 -0.006264 0.000000
# 2 -0.004133 0.014642 -0.012394 0.000000 0.001546 0.000000
# 3 0.007440 -0.012394 0.069043 0.000000 -0.020661 0.000000
# 4 0.000000 0.000000 0.000000 0.056001 0.000000 0.011708
# 5 -0.006264 0.001546 -0.020661 0.000000 0.046780 0.000000
# 6 0.000000 0.000000 0.000000 0.011708 0.000000 0.057784
#
#
# Mechanical properties :
#
#
# Convention : Reuss Voigt Hill
#
# Bulk Modulus (GPa) = 11.32999 22.64025 16.98512
# Shear Modulus (GPa) = 15.89349 20.85179 18.37264
#
# Velocity S-wave (km/s) = 2.82105 3.23126 3.03310
# Velocity P-wave (km/s) = 4.03538 5.02573 4.55754
#
# Compressibility (1/GPa) = 0.08826130
#
# Stress axis : x y z
#
# Youngs Moduli (GPa) = 43.95594 68.29541 14.48382
#
# Poissons Ratio (x) = 0.28224 -0.10776
# Poissons Ratio (y) = 0.18165 0.17951
# Poissons Ratio (z) = -0.32703 0.84646
#
# Static dielectric constant tensor:
#      x y z
#    x 1.720260 0.000000 -0.005590 
#    y 0.000000 1.688210 0.000000 
#    z -0.005590 0.000000 1.680010 
# 
# From -- ./inp_files/361050.got.cif
#   From: 2010.05.17/outbox.cif.g08.bks.cpg/sg12_181_cif.got.tgz:361050.got - 2010.06.03 13:09:07.
