data_PCOD9202777
_publ_section_title
;
Structure prediction by ZEFSAII (Michael W. Deem and Ramdas Pophale) SiO2 
 PCOD9202777
Probable space group: C 2/M
;
_chemical_formula_sum "Si O2"
_cell_formula_units_Z 48
_cell_length_a 16.205352
_cell_length_b 8.825199
_cell_length_c 17.152379
_cell_angle_alpha 90.000000
_cell_angle_beta 88.418716
_cell_angle_gamma 90.000000
_cell_volume 2452.121142
_symmetry_space_group_name_H-M "C 2/M"
_symmetry_group_IT_number 12
_symmetry_cell_setting 'monoclinic'
loop_
_space_group_symop_operation_xyz
x,y,z
-x,y,-z
-x,-y,-z
x,-y,z
1/2+x,1/2+y,z
1/2-x,1/2+y,-z
1/2-x,1/2-y,-z
1/2+x,1/2-y,z
loop_
_atom_site_type_symbol
_atom_site_label
_atom_site_fract_x
_atom_site_fract_y
_atom_site_fract_z
Si Si1 0.089793 0.821115 0.657777
Si Si2 0.584866 0.179510 0.332421
Si Si3 0.847108 0.318613 0.189963
Si Si4 0.176356 0.319214 0.171812
Si Si5 0.159106 0.319118 0.500155
Si Si6 0.009412 0.684595 0.089165
O O1 0.146272 0.749567 0.723551
O O2 0.108960 0.750460 0.573144
O O3 0.996317 0.776497 0.680716
O O4 0.102124 0.000000 0.654982
O O5 0.650825 0.206086 0.262695
O O6 0.619118 0.213402 0.417198
O O7 0.562617 0.000000 0.329466
O O8 0.847637 0.500000 0.194338
O O9 0.762468 0.262367 0.153379
O O10 0.929208 0.268654 0.140935
O O11 0.186616 0.500000 0.160305
O O12 0.096804 0.267908 0.123950
O O13 0.162465 0.500000 0.508765
O O14 0.250000 0.250000 0.500000
O O15 0.010032 0.500000 0.091103
O O16 0.000000 0.732554 0.000000
#
# Coordination Sequence:
#
# PCOD9202777 Si02
#       6
#     8   8   8   8   8   8
#     4  12  24  38  59  86 119 159 207 255 306 360
#     4  10  21  39  60  84 116 160 204 249 305 362
#     4  11  22  39  63  91 123 161 207 253 306 368
#     4  10  20  38  63  91 125 162 203 249 305 368
#     4  11  23  38  58  85 121 160 206 254 303 359
#     4   9  19  38  64  91 123 163 201 245 308 378
#
# _framework density 19.57489
#
# number of rings (size 3 to 8) (size 9 to 14) (size 15 to 20)
#    0.000    1.500    1.667    4.000    0.000    6.000 
#    0.000    0.000    0.000    3.500    0.000    0.000 
#    0.000    0.000    0.000    0.000    0.000    0.000 
#
# Total GULP energy -134147.957904 kJ/mol
# GULP energy per Si atom -5589.498246 kJ/mol
# Density = 1.953034 g / cm^3
# Si number density = 19.574890 Si / 1000 Ang^3
#
#
#
# Elastic Constant Matrix: (Units=GPa)
#
#
# Indices 1 2 3 4 5 6 
#
# 1 130.1886 49.3493 43.0695 0.0000 25.8670 0.0000
# 2 49.3493 41.8091 35.2680 0.0000 9.5408 0.0000
# 3 43.0695 35.2680 113.6321 0.0000 20.6327 0.0000
# 4 0.0000 0.0000 0.0000 10.4635 0.0000 2.3865
# 5 25.8670 9.5408 20.6327 0.0000 17.4583 0.0000
# 6 0.0000 0.0000 0.0000 2.3865 0.0000 37.7481
#
#
#
# Elastic Compliance Matrix: (Units=1/GPa)
#
#
# Indices 1 2 3 4 5 6 
#
# 1 0.017713 -0.018717 0.002551 0.000000 -0.019031 0.000000
# 2 -0.018717 0.052950 -0.011613 0.000000 0.012520 0.000000
# 3 0.002551 -0.011613 0.013969 0.000000 -0.013942 0.000000
# 4 0.000000 0.000000 0.000000 0.096969 0.000000 -0.006131
# 5 -0.019031 0.012520 -0.013942 0.000000 0.095112 0.000000
# 6 0.000000 0.000000 0.000000 -0.006131 0.000000 0.026879
#
#
# Mechanical properties :
#
#
# Convention : Reuss Voigt Hill
#
# Bulk Modulus (GPa) = 34.39451 60.11148 47.25300
# Shear Modulus (GPa) = 13.55595 23.66351 18.60973
#
# Velocity S-wave (km/s) = 2.63443 3.48065 3.08668
# Velocity P-wave (km/s) = 5.18290 6.85043 6.07416
#
# Compressibility (1/GPa) = 0.02907441
#
# Stress axis : x y z
#
# Youngs Moduli (GPa) = 56.45487 18.88581 71.58472
#
# Poissons Ratio (x) = 0.35348 -0.18260
# Poissons Ratio (y) = 1.05665 0.83133
# Poissons Ratio (z) = -0.14401 0.21932
#
# Static dielectric constant tensor:
#      x y z
#    x 1.702500 0.000000 -0.012040 
#    y 0.000000 1.657550 0.000000 
#    z -0.012040 0.000000 1.696750 
# 
# From -- ./inp_files/267706.got.cif
#   From: 2010.05.17/outbox.cif.g08.bks.cpg/sg12_134_cif.got.tgz:267706.got - 2010.06.03 13:09:07.
