data_PCOD9202727
_publ_section_title
;
Structure prediction by ZEFSAII (Michael W. Deem and Ramdas Pophale) SiO2 
 PCOD9202727
Probable space group: C 2/M
;
_chemical_formula_sum "Si O2"
_cell_formula_units_Z 64
_cell_length_a 14.739009
_cell_length_b 9.344816
_cell_length_c 22.101141
_cell_angle_alpha 90.000000
_cell_angle_beta 87.587235
_cell_angle_gamma 90.000000
_cell_volume 3041.365047
_symmetry_space_group_name_H-M "C 2/M"
_symmetry_group_IT_number 12
_symmetry_cell_setting 'monoclinic'
loop_
_space_group_symop_operation_xyz
x,y,z
-x,y,-z
-x,-y,-z
x,-y,z
1/2+x,1/2+y,z
1/2-x,1/2+y,-z
1/2-x,1/2-y,-z
1/2+x,1/2-y,z
loop_
_atom_site_type_symbol
_atom_site_label
_atom_site_fract_x
_atom_site_fract_y
_atom_site_fract_z
Si Si1 0.459638 0.671292 0.379518
Si Si2 0.359122 0.838685 0.775959
Si Si3 0.841163 0.827753 0.016131
Si Si4 0.075700 0.336861 0.740679
Si Si5 0.391680 0.663359 0.148296
Si Si6 0.102944 0.839712 0.114743
Si Si7 0.693897 0.830759 0.553179
Si Si8 0.834987 0.833490 0.657837
O O1 0.447956 0.500000 0.384255
O O2 0.422281 0.733007 0.316935
O O3 0.401838 0.753149 0.431824
O O4 0.567469 0.704417 0.375221
O O5 0.468607 0.843618 0.761572
O O6 0.344430 0.764653 0.841417
O O7 0.321615 0.754610 0.719336
O O8 0.326214 0.000000 0.777332
O O9 0.903654 0.798106 0.955735
O O10 0.833777 0.000000 0.020162
O O11 0.750000 0.750000 0.000000
O O12 0.865758 0.779944 0.082788
O O13 0.105028 0.500000 0.725924
O O14 0.128512 0.267410 0.795493
O O15 0.358770 0.500000 0.157699
O O16 0.500985 0.652602 0.142026
O O17 0.142800 0.000000 0.116328
O O18 0.750000 0.750000 0.500000
O O19 0.755314 0.816563 0.611888
O O20 0.683035 0.000000 0.540869
O O21 0.842631 0.000000 0.674765
#
# Coordination Sequence:
#
# PCOD9202727 Si02
#       8
#     8   8   8   8   8   8   8   8
#     4  10  20  38  63  89 118 155 196 239 286 338
#     4   9  17  30  53  84 112 137 176 230 280 328
#     4  10  21  35  49  69 100 137 176 222 274 330
#     4   9  17  31  53  83 113 140 176 226 282 335
#     4   9  17  32  54  76  98 132 181 228 270 326
#     4   9  17  32  54  75  98 134 179 224 273 330
#     4  11  24  42  62  89 123 158 197 239 282 336
#     4   9  20  39  62  86 118 158 195 233 285 345
#
# _framework density 21.043184
#
# number of rings (size 3 to 8) (size 9 to 14) (size 15 to 20)
#    0.000    2.500    0.000    1.875    0.000    7.500 
#    2.250    2.500    0.000    3.750    0.000    0.000 
#    0.000    0.000    0.000    0.000    0.000    0.000 
#
# Total GULP energy -178638.599278 kJ/mol
# GULP energy per Si atom -5582.456227 kJ/mol
# Density = 2.099529 g / cm^3
# Si number density = 21.043184 Si / 1000 Ang^3
#
#
#
# Elastic Constant Matrix: (Units=GPa)
#
#
# Indices 1 2 3 4 5 6 
#
# 1 56.5686 23.0354 10.1548 0.0000 -19.8192 0.0000
# 2 23.0354 62.8187 16.9553 0.0000 -3.1279 0.0000
# 3 10.1548 16.9553 24.4383 0.0000 -11.1915 0.0000
# 4 0.0000 0.0000 0.0000 33.2675 0.0000 1.0829
# 5 -19.8192 -3.1279 -11.1915 0.0000 31.3537 0.0000
# 6 0.0000 0.0000 0.0000 1.0829 0.0000 18.7467
#
#
#
# Elastic Compliance Matrix: (Units=1/GPa)
#
#
# Indices 1 2 3 4 5 6 
#
# 1 0.027295 -0.010145 0.003747 0.000000 0.017579 0.000000
# 2 -0.010145 0.023677 -0.016815 0.000000 -0.010053 0.000000
# 3 0.003747 -0.016815 0.061378 0.000000 0.022600 0.000000
# 4 0.000000 0.000000 0.000000 0.030116 0.000000 -0.001740
# 5 0.017579 -0.010053 0.022600 0.000000 0.050070 0.000000
# 6 0.000000 0.000000 0.000000 -0.001740 0.000000 0.053443
#
#
# Mechanical properties :
#
#
# Convention : Reuss Voigt Hill
#
# Bulk Modulus (GPa) = 15.16897 27.12407 21.14652
# Shear Modulus (GPa) = 15.90426 22.91893 19.41160
#
# Velocity S-wave (km/s) = 2.75215 3.30379 3.04051
# Velocity P-wave (km/s) = 4.16212 5.24128 4.73256
#
# Compressibility (1/GPa) = 0.06592407
#
# Stress axis : x y z
#
# Youngs Moduli (GPa) = 36.63654 42.23502 16.29237
#
# Poissons Ratio (x) = 0.42848 -0.06105
# Poissons Ratio (y) = 0.37168 0.27396
# Poissons Ratio (z) = -0.13728 0.71020
#
# Static dielectric constant tensor:
#      x y z
#    x 1.803850 0.000000 -0.039190 
#    y 0.000000 1.702270 0.000000 
#    z -0.039190 0.000000 1.765760 
# 
# From -- ./inp_files/314022.got.cif
#   From: 2010.05.17/outbox.cif.g08.bks.cpg/sg12_158_cif.got.tgz:314022.got - 2010.06.03 13:09:07.
