data_PCOD9202091
_publ_section_title
;
Structure prediction by ZEFSAII (Michael W. Deem and Ramdas Pophale) SiO2 
 PCOD9202091
Probable space group: C 2/M
;
_chemical_formula_sum "Si O2"
_cell_formula_units_Z 64
_cell_length_a 14.193256
_cell_length_b 19.425295
_cell_length_c 10.388673
_cell_angle_alpha 90.000000
_cell_angle_beta 80.976853
_cell_angle_gamma 90.000000
_cell_volume 2828.797356
_symmetry_space_group_name_H-M "C 2/M"
_symmetry_group_IT_number 12
_symmetry_cell_setting 'monoclinic'
loop_
_space_group_symop_operation_xyz
x,y,z
-x,y,-z
-x,-y,-z
x,-y,z
1/2+x,1/2+y,z
1/2-x,1/2+y,-z
1/2-x,1/2-y,-z
1/2+x,1/2-y,z
loop_
_atom_site_type_symbol
_atom_site_label
_atom_site_fract_x
_atom_site_fract_y
_atom_site_fract_z
Si Si1 0.912851 0.079053 0.113745
Si Si2 0.676045 0.079728 0.652468
Si Si3 0.294692 0.927337 0.964159
Si Si4 0.093055 0.739879 0.210991
Si Si5 0.615416 0.194517 0.478829
Si Si6 0.983812 0.600026 0.855529
Si Si7 0.225372 0.312058 0.841426
Si Si8 0.104705 0.796302 0.706883
O O1 0.812912 0.077754 0.058895
O O2 0.887095 0.126818 0.241241
O O3 0.936764 0.000000 0.144418
O O4 0.000000 0.103577 0.000000
O O5 0.659686 0.125427 0.528382
O O6 0.572544 0.080435 0.747653
O O7 0.741934 0.129929 0.726424
O O8 0.704945 0.000000 0.629711
O O9 0.379075 0.928243 0.841130
O O10 0.302108 0.000000 0.036724
O O11 0.317845 0.859895 0.039987
O O12 0.143940 0.708974 0.326994
O O13 0.032634 0.681295 0.154678
O O14 0.177757 0.779524 0.125042
O O15 0.009889 0.789735 0.274311
O O16 0.500000 0.185545 0.500000
O O17 0.637257 0.260550 0.565782
O O18 0.000000 0.578699 0.000000
O O19 0.156105 0.253691 0.800496
#
# Coordination Sequence:
#
# PCOD9202091 Si02
#       8
#     8   8   8   8   8   8   8   8
#     4  10  22  39  58  83 118 160 204 254 308 359
#     4  11  22  39  61  89 128 167 201 247 307 370
#     4  11  23  37  55  86 128 165 201 243 306 375
#     4  11  22  39  63  86 122 151 211 254 301 362
#     4   9  19  41  60  90 116 157 204 252 305 353
#     4  12  22  38  60  91 124 161 197 246 310 371
#     4  11  22  37  59  89 117 166 197 254 301 364
#     4  10  20  38  58  85 114 151 200 255 301 358
#
# _framework density 22.624454
#
# number of rings (size 3 to 8) (size 9 to 14) (size 15 to 20)
#    0.000    1.375    5.000    2.250    0.000    7.250 
#    0.000    0.625    0.000    8.625    0.000    0.000 
#    0.000    0.000    0.000    0.000    0.000    0.000 
#
# Total GULP energy -178449.959731 kJ/mol
# GULP energy per Si atom -5576.561242 kJ/mol
# Density = 2.257296 g / cm^3
# Si number density = 22.624454 Si / 1000 Ang^3
#
#
#
# Elastic Constant Matrix: (Units=GPa)
#
#
# Indices 1 2 3 4 5 6 
#
# 1 88.6720 4.5176 -7.1498 0.0000 -5.5898 0.0000
# 2 4.5176 126.4319 23.5253 0.0000 7.6376 0.0000
# 3 -7.1498 23.5253 43.8775 0.0000 6.7680 0.0000
# 4 0.0000 0.0000 0.0000 19.2184 0.0000 -0.7666
# 5 -5.5898 7.6376 6.7680 0.0000 23.5981 0.0000
# 6 0.0000 0.0000 0.0000 -0.7666 0.0000 18.0442
#
#
#
# Elastic Compliance Matrix: (Units=1/GPa)
#
#
# Indices 1 2 3 4 5 6 
#
# 1 0.011645 -0.000942 0.002019 0.000000 0.002484 0.000000
# 2 -0.000942 0.008917 -0.004661 0.000000 -0.001772 0.000000
# 3 0.002019 -0.004661 0.026484 0.000000 -0.005609 0.000000
# 4 0.000000 0.000000 0.000000 0.052122 0.000000 0.002214
# 5 0.002484 -0.001772 -0.005609 0.000000 0.045147 0.000000
# 6 0.000000 0.000000 0.000000 0.002214 0.000000 0.055514
#
#
# Mechanical properties :
#
#
# Convention : Reuss Voigt Hill
#
# Bulk Modulus (GPa) = 25.07592 33.41862 29.24727
# Shear Modulus (GPa) = 22.69741 28.04468 25.37104
#
# Velocity S-wave (km/s) = 3.17081 3.52458 3.35236
# Velocity P-wave (km/s) = 4.95106 5.60059 5.28581
#
# Compressibility (1/GPa) = 0.03987890
#
# Stress axis : x y z
#
# Youngs Moduli (GPa) = 85.87429 112.13973 37.75853
#
# Poissons Ratio (x) = 0.10562 -0.07625
# Poissons Ratio (y) = 0.08088 0.17600
# Poissons Ratio (z) = -0.17341 0.52271
#
# Static dielectric constant tensor:
#      x y z
#    x 1.856880 0.000000 -0.004610 
#    y 0.000000 1.897210 0.000000 
#    z -0.004610 0.000000 1.920980 
# 
# From -- ./inp_files/146141.got.cif
#   From: 2010.05.17/outbox.cif.g08.bks.cpg/sg12_74_cif.got.tgz:146141.got - 2010.06.03 13:09:07.
