data_PCOD9202242
_publ_section_title
;
Structure prediction by ZEFSAII (Michael W. Deem and Ramdas Pophale) SiO2 
 PCOD9202242
Probable space group: C 2/M
;
_chemical_formula_sum "Si O2"
_cell_formula_units_Z 40
_cell_length_a 29.579887
_cell_length_b 12.436628
_cell_length_c 9.829364
_cell_angle_alpha 90.000000
_cell_angle_beta 38.295669
_cell_angle_gamma 90.000000
_cell_volume 2240.886606
_symmetry_space_group_name_H-M "C 2/M"
_symmetry_group_IT_number 12
_symmetry_cell_setting 'monoclinic'
loop_
_space_group_symop_operation_xyz
x,y,z
-x,y,-z
-x,-y,-z
x,-y,z
1/2+x,1/2+y,z
1/2-x,1/2+y,-z
1/2-x,1/2-y,-z
1/2+x,1/2-y,z
loop_
_atom_site_type_symbol
_atom_site_label
_atom_site_fract_x
_atom_site_fract_y
_atom_site_fract_z
Si Si1 0.574429 0.000000 0.242921
Si Si2 0.174137 0.295802 0.017811
Si Si3 0.666245 0.779762 0.721653
Si Si4 0.923013 0.873780 0.254007
Si Si5 0.835227 0.871258 0.719049
Si Si6 0.576394 0.000000 0.911609
O O1 0.500000 0.000000 0.500000
O O2 0.622271 0.103365 0.170384
O O3 0.559582 0.000000 0.114319
O O4 0.161306 0.198600 0.152315
O O5 0.155448 0.265535 0.907877
O O6 0.258351 0.335798 0.831009
O O7 0.750000 0.750000 0.500000
O O8 0.628816 0.691993 0.718754
O O9 0.628601 0.894423 0.768783
O O10 0.902506 0.844693 0.458125
O O11 0.908172 0.000000 0.281369
O O12 0.000000 0.854188 0.000000
O O13 0.833956 0.000000 0.745984
O O14 0.500000 0.000000 0.000000
#
# Coordination Sequence:
#
# PCOD9202242 Si02
#       6
#     4   8   8   8   8   4
#     4  10  22  40  62  84 122 158 199 238 304 365
#     4  10  21  37  58  89 115 161 193 246 300 357
#     4  11  22  38  62  89 123 158 202 252 301 365
#     4  10  22  39  62  86 117 158 199 247 305 360
#     4  10  20  38  60  83 123 151 202 245 298 356
#     4  10  24  42  60  90 130 160 197 256 312 361
#
# _framework density 17.850076999999999
#
# number of rings (size 3 to 8) (size 9 to 14) (size 15 to 20)
#    0.000    1.800    3.000    0.600    1.400    5.600 
#    0.000    0.000    0.000    4.200    0.000    0.000 
#    0.000    0.000    0.000    0.000    0.000    0.000 
#
# Total GULP energy -111345.197985 kJ/mol
# GULP energy per Si atom -5567.259899 kJ/mol
# Density = 1.780945 g / cm^3
# Si number density = 17.850077 Si / 1000 Ang^3
#
#
#
# Elastic Constant Matrix: (Units=GPa)
#
#
# Indices 1 2 3 4 5 6 
#
# 1 84.5259 41.8151 33.9176 0.0000 -2.1081 0.0000
# 2 41.8151 241.1666 34.9892 0.0000 55.5442 0.0000
# 3 33.9176 34.9892 132.7503 0.0000 -15.3872 0.0000
# 4 0.0000 0.0000 0.0000 13.3321 0.0000 9.7768
# 5 -2.1081 55.5442 -15.3872 0.0000 43.6234 0.0000
# 6 0.0000 0.0000 0.0000 9.7768 0.0000 29.1833
#
#
#
# Elastic Compliance Matrix: (Units=1/GPa)
#
#
# Indices 1 2 3 4 5 6 
#
# 1 0.014379 -0.002961 -0.002477 0.000000 0.003591 0.000000
# 2 -0.002961 0.007410 -0.002405 0.000000 -0.010427 0.000000
# 3 -0.002477 -0.002405 0.009531 0.000000 0.006304 0.000000
# 4 0.000000 0.000000 0.000000 0.099435 0.000000 -0.033312
# 5 0.003591 -0.010427 0.006304 0.000000 0.038597 0.000000
# 6 0.000000 0.000000 0.000000 -0.033312 0.000000 0.045426
#
#
# Mechanical properties :
#
#
# Convention : Reuss Voigt Hill
#
# Bulk Modulus (GPa) = 63.96567 75.54296 69.75431
# Shear Modulus (GPa) = 21.21565 40.40917 30.81241
#
# Velocity S-wave (km/s) = 3.45127 4.76311 4.15924
# Velocity P-wave (km/s) = 7.19684 8.52422 7.88850
#
# Compressibility (1/GPa) = 0.01563339
#
# Stress axis : x y z
#
# Youngs Moduli (GPa) = 69.54592 134.94845 104.92552
#
# Poissons Ratio (x) = 0.39955 0.25992
# Poissons Ratio (y) = 0.20591 0.25237
# Poissons Ratio (z) = 0.17228 0.32458
#
# Static dielectric constant tensor:
#      x y z
#    x 1.550450 0.000000 0.030150 
#    y 0.000000 1.593910 0.000000 
#    z 0.030150 0.000000 1.579780 
# 
# From -- ./inp_files/71449.got.cif
#   From: 2010.05.17/outbox.cif.g08.bks.cpg/sg12_36_cif.got.tgz:71449.got - 2010.06.03 13:09:07.
