data_PCOD9202863
_publ_section_title
;
Structure prediction by ZEFSAII (Michael W. Deem and Ramdas Pophale) SiO2 
 PCOD9202863
Probable space group: C 2/M
;
_chemical_formula_sum "Si O2"
_cell_formula_units_Z 48
_cell_length_a 9.847974
_cell_length_b 14.530095
_cell_length_c 17.290180
_cell_angle_alpha 90.000000
_cell_angle_beta 94.952854
_cell_angle_gamma 90.000000
_cell_volume 2464.848350
_symmetry_space_group_name_H-M "C 2/M"
_symmetry_group_IT_number 12
_symmetry_cell_setting 'monoclinic'
loop_
_space_group_symop_operation_xyz
x,y,z
-x,y,-z
-x,-y,-z
x,-y,z
1/2+x,1/2+y,z
1/2-x,1/2+y,-z
1/2-x,1/2-y,-z
1/2+x,1/2-y,z
loop_
_atom_site_type_symbol
_atom_site_label
_atom_site_fract_x
_atom_site_fract_y
_atom_site_fract_z
Si Si1 0.892374 0.603413 0.391714
Si Si2 0.194645 0.341105 0.454433
Si Si3 0.580283 0.108020 0.925653
Si Si4 0.964164 0.750839 0.798049
Si Si5 0.197687 0.217465 0.693016
Si Si6 0.604649 0.607799 0.072490
O O1 0.911767 0.500000 0.361344
O O2 0.818131 0.594859 0.471221
O O3 0.810221 0.675705 0.335879
O O4 0.039387 0.652556 0.414254
O O5 0.250000 0.250000 0.500000
O O6 0.288876 0.346134 0.382863
O O7 0.537648 0.172674 0.852763
O O8 0.740799 0.118807 0.948121
O O9 0.553634 0.000000 0.906954
O O10 0.500000 0.131893 0.000000
O O11 0.833731 0.707623 0.749602
O O12 0.917562 0.829584 0.854451
O O13 0.066297 0.793531 0.739893
O O14 0.582653 0.500000 0.089489
O O15 0.500000 0.634087 0.000000
#
# Coordination Sequence:
#
# PCOD9202863 Si02
#       6
#     8   8   8   8   8   8
#     4  10  20  38  64  89 116 162 211 247 295 367
#     4   9  18  35  58  88 116 151 196 246 288 353
#     4  10  23  42  64  89 119 161 210 251 295 368
#     4  12  23  40  62  91 123 167 196 252 312 370
#     4  11  23  38  59  90 124 156 200 247 309 359
#     4  10  23  42  63  88 122 162 204 250 304 363
#
# _framework density 19.473814000000001
#
# number of rings (size 3 to 8) (size 9 to 14) (size 15 to 20)
#    0.000    1.667    3.333    1.500    2.333    2.667 
#    0.000    1.667    0.000    1.000    0.000    0.000 
#    0.000    0.000    0.000    0.000    0.000    0.000 
#
# Total GULP energy -133767.763331 kJ/mol
# GULP energy per Si atom -5573.656805 kJ/mol
# Density = 1.942949 g / cm^3
# Si number density = 19.473814 Si / 1000 Ang^3
#
#
#
# Elastic Constant Matrix: (Units=GPa)
#
#
# Indices 1 2 3 4 5 6 
#
# 1 61.9495 23.0415 18.3323 0.0000 -14.9954 0.0000
# 2 23.0415 64.5365 15.0968 0.0000 -3.2621 0.0000
# 3 18.3323 15.0968 77.4930 0.0000 -24.9571 0.0000
# 4 0.0000 0.0000 0.0000 9.5085 0.0000 -6.8082
# 5 -14.9954 -3.2621 -24.9571 0.0000 50.8751 0.0000
# 6 0.0000 0.0000 0.0000 -6.8082 0.0000 8.4658
#
#
#
# Elastic Compliance Matrix: (Units=1/GPa)
#
#
# Indices 1 2 3 4 5 6 
#
# 1 0.020281 -0.006529 -0.002061 0.000000 0.004548 0.000000
# 2 -0.006529 0.018353 -0.002698 0.000000 -0.002071 0.000000
# 3 -0.002061 -0.002698 0.016230 0.000000 0.007181 0.000000
# 4 0.000000 0.000000 0.000000 0.247928 0.000000 0.199382
# 5 0.004548 -0.002071 0.007181 0.000000 0.024387 0.000000
# 6 0.000000 0.000000 0.000000 0.199382 0.000000 0.278464
#
#
# Mechanical properties :
#
#
# Convention : Reuss Voigt Hill
#
# Bulk Modulus (GPa) = 30.97096 35.21336 33.09216
# Shear Modulus (GPa) = 7.82494 23.60379 15.71437
#
# Velocity S-wave (km/s) = 2.00672 3.48527 2.84377
# Velocity P-wave (km/s) = 4.61602 5.85814 5.27378
#
# Compressibility (1/GPa) = 0.03228831
#
# Stress axis : x y z
#
# Youngs Moduli (GPa) = 49.30607 54.48831 61.61287
#
# Poissons Ratio (x) = 0.35576 0.12700
# Poissons Ratio (y) = 0.32192 0.16622
# Poissons Ratio (z) = 0.10163 0.14700
#
# Static dielectric constant tensor:
#      x y z
#    x 1.676370 0.000000 -0.009670 
#    y 0.000000 1.690550 0.000000 
#    z -0.009670 0.000000 1.692760 
# 
# From -- ./inp_files/255792.got.cif
#   From: 2010.05.17/outbox.cif.g08.bks.cpg/sg12_128_cif.got.tgz:255792.got - 2010.06.03 13:09:07.
