data_PCOD9202925
_publ_section_title
;
Structure prediction by ZEFSAII (Michael W. Deem and Ramdas Pophale) SiO2 
 PCOD9202925
Probable space group: C 2/M
;
_chemical_formula_sum "Si O2"
_cell_formula_units_Z 44
_cell_length_a 24.451588
_cell_length_b 11.866152
_cell_length_c 8.552310
_cell_angle_alpha 90.000000
_cell_angle_beta 64.754586
_cell_angle_gamma 90.000000
_cell_volume 2244.418490
_symmetry_space_group_name_H-M "C 2/M"
_symmetry_group_IT_number 12
_symmetry_cell_setting 'monoclinic'
loop_
_space_group_symop_operation_xyz
x,y,z
-x,y,-z
-x,-y,-z
x,-y,z
1/2+x,1/2+y,z
1/2-x,1/2+y,-z
1/2-x,1/2-y,-z
1/2+x,1/2-y,z
loop_
_atom_site_type_symbol
_atom_site_label
_atom_site_fract_x
_atom_site_fract_y
_atom_site_fract_z
Si Si1 0.456203 0.127302 0.405521
Si Si2 0.357694 0.500000 0.419396
Si Si3 0.365839 0.126562 0.058174
Si Si4 0.941804 0.193527 0.159756
Si Si5 0.168565 0.372660 0.259329
Si Si6 0.737755 0.312925 0.351615
O O1 0.500000 0.142557 0.500000
O O2 0.464943 0.223468 0.268613
O O3 0.387613 0.133532 0.552690
O O4 0.466500 0.000000 0.332156
O O5 0.398882 0.598990 0.284136
O O6 0.314737 0.402318 0.554048
O O7 0.405105 0.224088 0.088107
O O8 0.299805 0.132577 0.217397
O O9 0.390898 0.000000 0.051821
O O10 0.356888 0.143895 0.883813
O O11 0.000000 0.145811 0.000000
O O12 0.194118 0.500000 0.236613
O O13 0.216340 0.279793 0.252111
O O14 0.750000 0.250000 0.500000
#
# Coordination Sequence:
#
# PCOD9202925 Si02
#       6
#     8   4   8   8   8   8
#     4  10  20  38  64  93 126 169 214 269 321 374
#     4  12  25  44  65  94 130 175 222 256 318 388
#     4  11  23  40  66 101 127 163 210 268 328 379
#     4  12  25  43  66  92 134 173 219 263 317 382
#     4  10  22  39  62  94 129 162 210 267 326 384
#     4  12  23  41  67  91 130 169 216 264 319 384
#
# _framework density 19.604188000000001
#
# number of rings (size 3 to 8) (size 9 to 14) (size 15 to 20)
#    0.000    0.909    4.545    2.455    1.273    4.364 
#    0.000    1.364    0.000    0.000    0.000    0.000 
#    0.000    0.000    0.000    0.000    0.000    0.000 
#
# Total GULP energy -122469.762405 kJ/mol
# GULP energy per Si atom -5566.807382 kJ/mol
# Density = 1.955957 g / cm^3
# Si number density = 19.604188 Si / 1000 Ang^3
#
#
#
# Elastic Constant Matrix: (Units=GPa)
#
#
# Indices 1 2 3 4 5 6 
#
# 1 49.8490 39.4952 8.9100 0.0000 -0.6612 0.0000
# 2 39.4952 132.0265 22.9049 0.0000 13.6774 0.0000
# 3 8.9100 22.9049 81.0169 0.0000 -16.6356 0.0000
# 4 0.0000 0.0000 0.0000 23.3272 0.0000 -8.0424
# 5 -0.6612 13.6774 -16.6356 0.0000 37.6726 0.0000
# 6 0.0000 0.0000 0.0000 -8.0424 0.0000 -2.1257
#
#
#
# Elastic Compliance Matrix: (Units=1/GPa)
#
#
# Indices 1 2 3 4 5 6 
#
# 1 0.026732 -0.008399 0.000173 0.000000 0.003595 0.000000
# 2 -0.008399 0.011283 -0.003450 0.000000 -0.005767 0.000000
# 3 0.000173 -0.003450 0.014909 0.000000 0.007839 0.000000
# 4 0.000000 0.000000 0.000000 0.018603 0.000000 -0.070382
# 5 0.003595 -0.005767 0.007839 0.000000 0.032163 0.000000
# 6 0.000000 0.000000 0.000000 -0.070382 0.000000 -0.204145
#
#
# Mechanical properties :
#
#
# Convention : Reuss Voigt Hill
#
# Bulk Modulus (GPa) = 33.81719 45.05696 39.43708
# Shear Modulus (GPa) = -74.35624 24.54696 -24.90464
#
# Velocity S-wave (km/s) = -6.16531 3.54238 -3.56810
# Velocity P-wave (km/s) = 5.77876 6.30591 1.78473
#
# Compressibility (1/GPa) = 0.02957076
#
# Stress axis : x y z
#
# Youngs Moduli (GPa) = 37.40827 88.62962 67.07221
#
# Poissons Ratio (x) = 0.74442 -0.01159
# Poissons Ratio (y) = 0.31420 0.23143
# Poissons Ratio (z) = -0.00647 0.30581
#
# Static dielectric constant tensor:
#      x y z
#    x 1.689320 0.000000 -0.006790 
#    y 0.000000 1.665740 0.000000 
#    z -0.006790 0.000000 1.680850 
# 
# From -- ./inp_files/84269.got.cif
#   From: 2010.05.17/outbox.cif.g08.bks.cpg/sg12_43_cif.got.tgz:84269.got - 2010.06.03 13:09:07.
