data_PCOD9202141
_publ_section_title
;
Structure prediction by ZEFSAII (Michael W. Deem and Ramdas Pophale) SiO2 
 PCOD9202141
Probable space group: C 2/M
;
_chemical_formula_sum "Si O2"
_cell_formula_units_Z 56
_cell_length_a 25.502061
_cell_length_b 9.528621
_cell_length_c 18.261610
_cell_angle_alpha 90.000000
_cell_angle_beta 138.911122
_cell_angle_gamma 90.000000
_cell_volume 2916.493989
_symmetry_space_group_name_H-M "C 2/M"
_symmetry_group_IT_number 12
_symmetry_cell_setting 'monoclinic'
loop_
_space_group_symop_operation_xyz
x,y,z
-x,y,-z
-x,-y,-z
x,-y,z
1/2+x,1/2+y,z
1/2-x,1/2+y,-z
1/2-x,1/2-y,-z
1/2+x,1/2-y,z
loop_
_atom_site_type_symbol
_atom_site_label
_atom_site_fract_x
_atom_site_fract_y
_atom_site_fract_z
Si Si1 0.865659 0.837072 0.911167
Si Si2 0.891968 0.662356 0.797636
Si Si3 0.178659 0.332502 0.739873
Si Si4 0.274044 0.339273 0.455988
Si Si5 0.011460 0.164218 0.827772
Si Si6 0.904594 0.166708 0.478660
Si Si7 0.071836 0.165930 0.728929
O O1 0.900235 0.740743 0.883407
O O2 0.772755 0.805536 0.827931
O O3 0.871559 0.000000 0.893488
O O4 0.916366 0.822319 0.038403
O O5 0.916111 0.500000 0.827693
O O6 0.798742 0.668182 0.677898
O O7 0.941187 0.741258 0.786349
O O8 0.166529 0.500000 0.728045
O O9 0.130476 0.260218 0.622831
O O10 0.143870 0.260257 0.776038
O O11 0.283618 0.500000 0.489556
O O12 0.250000 0.250000 0.500000
O O13 0.354109 0.297232 0.498365
O O14 0.041376 0.201453 0.778234
O O15 0.986596 0.000000 0.799734
O O16 0.997060 0.185700 0.595117
O O17 0.891487 0.000000 0.449319
O O18 0.092461 0.000000 0.749816
#
# Coordination Sequence:
#
# PCOD9202141 Si02
#       7
#     8   8   8   8   8   8   8
#     4  10  22  40  61  85 115 156 199 236 285 352
#     4  11  22  37  59  89 120 150 191 242 292 341
#     4  11  23  38  59  87 117 150 193 243 290 339
#     4  10  21  35  55  84 118 153 190 233 282 341
#     4  10  22  41  62  84 115 156 198 237 287 351
#     4  10  20  38  59  82 114 152 193 233 284 351
#     4  10  22  39  61  85 113 153 196 238 288 347
#
# _framework density 19.201136999999999
#
# number of rings (size 3 to 8) (size 9 to 14) (size 15 to 20)
#    0.000    1.714    1.429    2.571    0.000    9.143 
#    0.000    0.000    0.000    0.000    0.000    0.000 
#    0.000    0.000    0.000    0.000    0.000    0.000 
#
# Total GULP energy -156487.420661 kJ/mol
# GULP energy per Si atom -5588.836452 kJ/mol
# Density = 1.915743 g / cm^3
# Si number density = 19.201137 Si / 1000 Ang^3
#
#
#
# Elastic Constant Matrix: (Units=GPa)
#
#
# Indices 1 2 3 4 5 6 
#
# 1 100.7076 55.5017 0.2597 0.0000 1.1503 0.0000
# 2 55.5017 61.1013 15.0130 0.0000 1.9396 0.0000
# 3 0.2597 15.0130 26.5280 0.0000 -2.9239 0.0000
# 4 0.0000 0.0000 0.0000 21.8333 0.0000 -3.8534
# 5 1.1503 1.9396 -2.9239 0.0000 20.2420 0.0000
# 6 0.0000 0.0000 0.0000 -3.8534 0.0000 39.5791
#
#
#
# Elastic Compliance Matrix: (Units=1/GPa)
#
#
# Indices 1 2 3 4 5 6 
#
# 1 0.023746 -0.025202 0.014376 0.000000 0.003142 0.000000
# 2 -0.025202 0.045994 -0.026533 0.000000 -0.006808 0.000000
# 3 0.014376 -0.026533 0.053615 0.000000 0.009470 0.000000
# 4 0.000000 0.000000 0.000000 0.046602 0.000000 0.004537
# 5 0.003142 -0.006808 0.009470 0.000000 0.051244 0.000000
# 6 0.000000 0.000000 0.000000 0.004537 0.000000 0.025708
#
#
# Mechanical properties :
#
#
# Convention : Reuss Voigt Hill
#
# Bulk Modulus (GPa) = 20.56014 36.65396 28.60705
# Shear Modulus (GPa) = 14.79998 24.16837 19.48418
#
# Velocity S-wave (km/s) = 2.77932 3.55166 3.18896
# Velocity P-wave (km/s) = 4.58590 5.99583 5.33762
#
# Compressibility (1/GPa) = 0.04863781
#
# Stress axis : x y z
#
# Youngs Moduli (GPa) = 42.11246 21.74201 18.65153
#
# Poissons Ratio (x) = 0.54794 -0.26814
# Poissons Ratio (y) = 1.06131 0.49488
# Poissons Ratio (z) = -0.60542 0.57688
#
# Static dielectric constant tensor:
#      x y z
#    x 1.657760 0.000000 0.001470 
#    y 0.000000 1.646300 0.000000 
#    z 0.001470 0.000000 1.669950 
# 
# From -- ./inp_files/238876.got.cif
#   From: 2010.05.17/outbox.cif.g08.bks.cpg/sg12_120_cif.got.tgz:238876.got - 2010.06.03 13:09:07.
