data_PCOD9202367
_publ_section_title
;
Structure prediction by ZEFSAII (Michael W. Deem and Ramdas Pophale) SiO2 
 PCOD9202367
Probable space group: C 2/M
;
_chemical_formula_sum "Si O2"
_cell_formula_units_Z 48
_cell_length_a 25.201228
_cell_length_b 7.437536
_cell_length_c 11.244253
_cell_angle_alpha 90.000000
_cell_angle_beta 79.264278
_cell_angle_gamma 90.000000
_cell_volume 2070.677952
_symmetry_space_group_name_H-M "C 2/M"
_symmetry_group_IT_number 12
_symmetry_cell_setting 'monoclinic'
loop_
_space_group_symop_operation_xyz
x,y,z
-x,y,-z
-x,-y,-z
x,-y,z
1/2+x,1/2+y,z
1/2-x,1/2+y,-z
1/2-x,1/2-y,-z
1/2+x,1/2-y,z
loop_
_atom_site_type_symbol
_atom_site_label
_atom_site_fract_x
_atom_site_fract_y
_atom_site_fract_z
Si Si1 0.869695 0.282234 0.692829
Si Si2 0.344235 0.704095 0.201344
Si Si3 0.507342 0.295136 0.363336
Si Si4 0.764398 0.713841 0.859726
Si Si5 0.037282 0.779221 0.872550
Si Si6 0.185805 0.286918 0.531060
O O1 0.875313 0.500000 0.694796
O O2 0.928650 0.205220 0.685792
O O3 0.823892 0.219909 0.803733
O O4 0.844019 0.232048 0.576644
O O5 0.343189 0.500000 0.154500
O O6 0.286770 0.788911 0.191036
O O7 0.400864 0.782201 0.135347
O O8 0.342461 0.700135 0.344180
O O9 0.500000 0.213900 0.500000
O O10 0.486419 0.500000 0.381675
O O11 0.481458 0.219226 0.252199
O O12 0.767031 0.500000 0.832043
O O13 0.750000 0.750000 0.000000
O O14 0.036535 0.000000 0.870287
O O15 0.000000 0.725359 0.000000
O O16 0.179355 0.500000 0.545231
O O17 0.250000 0.250000 0.500000
#
# Coordination Sequence:
#
# PCOD9202367 Si02
#       6
#     8   8   8   8   8   8
#     4  10  22  39  57  83 118 151 186 232 285 346
#     4  10  20  38  61  84 116 150 187 240 290 334
#     4  10  21  37  59  88 114 145 196 244 281 336
#     4  10  22  38  56  83 116 151 191 233 285 342
#     4   9  19  35  58  85 113 149 193 239 287 339
#     4  11  21  36  58  85 116 148 187 230 285 347
#
# _framework density 23.180814000000002
#
# number of rings (size 3 to 8) (size 9 to 14) (size 15 to 20)
#    0.000    2.000    1.667    1.500    2.333    4.333 
#    0.000    0.833    0.000    1.000    0.000    0.000 
#    0.000    0.000    0.000    0.000    0.000    0.000 
#
# Total GULP energy -134036.211196 kJ/mol
# GULP energy per Si atom -5584.842133 kJ/mol
# Density = 2.312805 g / cm^3
# Si number density = 23.180814 Si / 1000 Ang^3
#
#
#
# Elastic Constant Matrix: (Units=GPa)
#
#
# Indices 1 2 3 4 5 6 
#
# 1 105.1121 -0.2217 20.5190 0.0000 -31.9400 0.0000
# 2 -0.2217 73.5959 -4.9623 0.0000 1.1361 0.0000
# 3 20.5190 -4.9623 116.7847 0.0000 -24.6187 0.0000
# 4 0.0000 0.0000 0.0000 12.0056 0.0000 -2.1371
# 5 -31.9400 1.1361 -24.6187 0.0000 45.1568 0.0000
# 6 0.0000 0.0000 0.0000 -2.1371 0.0000 7.6041
#
#
#
# Elastic Compliance Matrix: (Units=1/GPa)
#
#
# Indices 1 2 3 4 5 6 
#
# 1 0.012133 -0.000118 -0.000370 0.000000 0.008383 0.000000
# 2 -0.000118 0.013628 0.000576 0.000000 -0.000112 0.000000
# 3 -0.000370 0.000576 0.009710 0.000000 0.005018 0.000000
# 4 0.000000 0.000000 0.000000 0.087681 0.000000 0.024643
# 5 0.008383 -0.000112 0.005018 0.000000 0.030813 0.000000
# 6 0.000000 0.000000 0.000000 0.024643 0.000000 0.138434
#
#
# Mechanical properties :
#
#
# Convention : Reuss Voigt Hill
#
# Bulk Modulus (GPa) = 28.05168 36.24031 32.14600
# Shear Modulus (GPa) = 16.44172 31.63047 24.03610
#
# Velocity S-wave (km/s) = 2.66612 3.69794 3.22358
# Velocity P-wave (km/s) = 4.64813 5.82243 5.26810
#
# Compressibility (1/GPa) = 0.03564848
#
# Stress axis : x y z
#
# Youngs Moduli (GPa) = 82.42031 73.37869 102.98709
#
# Poissons Ratio (x) = 0.00864 0.03806
# Poissons Ratio (y) = 0.00971 -0.05933
# Poissons Ratio (z) = 0.03046 -0.04228
#
# Static dielectric constant tensor:
#      x y z
#    x 1.877940 0.000000 0.045800 
#    y 0.000000 1.897830 0.000000 
#    z 0.045800 0.000000 1.940190 
# 
# From -- ./inp_files/172208.got.cif
#   From: 2010.05.17/outbox.cif.g08.bks.cpg/sg12_87_cif.got.tgz:172208.got - 2010.06.03 13:09:07.
