data_PCOD9202559
_publ_section_title
;
Structure prediction by ZEFSAII (Michael W. Deem and Ramdas Pophale) SiO2 
 PCOD9202559
Probable space group: C 2/M
;
_chemical_formula_sum "Si O2"
_cell_formula_units_Z 56
_cell_length_a 25.754162
_cell_length_b 8.383429
_cell_length_c 14.136199
_cell_angle_alpha 90.000000
_cell_angle_beta 48.970757
_cell_angle_gamma 90.000000
_cell_volume 2302.442765
_symmetry_space_group_name_H-M "C 2/M"
_symmetry_group_IT_number 12
_symmetry_cell_setting 'monoclinic'
loop_
_space_group_symop_operation_xyz
x,y,z
-x,y,-z
-x,-y,-z
x,-y,z
1/2+x,1/2+y,z
1/2-x,1/2+y,-z
1/2-x,1/2-y,-z
1/2+x,1/2-y,z
loop_
_atom_site_type_symbol
_atom_site_label
_atom_site_fract_x
_atom_site_fract_y
_atom_site_fract_z
Si Si1 0.372786 0.314738 0.844633
Si Si2 0.593685 0.808882 0.852753
Si Si3 0.260987 0.685097 0.346455
Si Si4 0.690680 0.188640 0.898912
Si Si5 0.121632 0.178353 0.553789
Si Si6 0.416834 0.182851 0.593343
Si Si7 0.000871 0.314150 0.192367
O O1 0.360467 0.500000 0.841094
O O2 0.382345 0.223485 0.734934
O O3 0.444762 0.288123 0.814220
O O4 0.316802 0.249067 0.986231
O O5 0.661406 0.736675 0.721612
O O6 0.616442 0.782113 0.934523
O O7 0.526093 0.755542 0.877945
O O8 0.592748 0.000000 0.843476
O O9 0.250368 0.500000 0.375697
O O10 0.259603 0.722149 0.234128
O O11 0.202212 0.785619 0.466474
O O12 0.704455 0.000000 0.879580
O O13 0.106871 0.198569 0.459883
O O14 0.070317 0.302344 0.663656
O O15 0.105079 0.000000 0.605907
O O16 0.500000 0.194617 0.500000
O O17 0.400156 0.000000 0.586962
O O18 0.023711 0.500000 0.162191
#
# Coordination Sequence:
#
# PCOD9202559 Si02
#       7
#     8   8   8   8   8   8   8
#     4  12  24  38  60  91 123 156 195 243 298 355
#     4   8  19  38  60  85 118 157 201 244 293 345
#     4  10  20  38  62  87 119 157 198 244 294 350
#     4   9  19  40  62  85 118 159 200 244 292 345
#     4  12  24  39  61  89 122 156 196 245 297 354
#     4  11  23  41  64  88 117 155 196 242 296 352
#     4  11  22  38  59  88 120 159 202 245 295 351
#
# _framework density 24.321994
#
# number of rings (size 3 to 8) (size 9 to 14) (size 15 to 20)
#    0.857    0.714    1.429    4.714    0.000    2.857 
#    0.000    3.571    0.000    0.000    0.000    0.000 
#    0.000    0.000    0.000    0.000    0.000    0.000 
#
# Total GULP energy -156549.575460 kJ/mol
# GULP energy per Si atom -5591.056266 kJ/mol
# Density = 2.426664 g / cm^3
# Si number density = 24.321994 Si / 1000 Ang^3
#
#
#
# Elastic Constant Matrix: (Units=GPa)
#
#
# Indices 1 2 3 4 5 6 
#
# 1 79.9978 1.0343 -5.7669 0.0000 5.8132 0.0000
# 2 1.0343 46.9469 -6.9276 -0.0001 2.9963 0.0000
# 3 -5.7669 -6.9276 88.3293 0.0000 27.5356 0.0000
# 4 0.0000 -0.0001 0.0000 27.4112 0.0000 2.5244
# 5 5.8132 2.9963 27.5356 0.0000 35.8210 0.0000
# 6 0.0000 0.0000 0.0000 2.5244 0.0000 16.6408
#
#
#
# Elastic Compliance Matrix: (Units=1/GPa)
#
#
# Indices 1 2 3 4 5 6 
#
# 1 0.012907 0.000244 0.002001 0.000000 -0.003653 0.000000
# 2 0.000244 0.022018 0.003063 0.000000 -0.004236 0.000000
# 3 0.002001 0.003063 0.015615 0.000000 -0.012584 0.000000
# 4 0.000000 0.000000 0.000000 0.036998 0.000000 -0.005613
# 5 -0.003653 -0.004236 -0.012584 0.000000 0.038537 0.000000
# 6 0.000000 0.000000 0.000000 -0.005613 0.000000 0.060945
#
#
# Mechanical properties :
#
#
# Convention : Reuss Voigt Hill
#
# Bulk Modulus (GPa) = 16.35182 21.32819 18.84000
# Shear Modulus (GPa) = 25.40784 31.10352 28.25568
#
# Velocity S-wave (km/s) = 3.23560 3.57994 3.41212
# Velocity P-wave (km/s) = 4.54934 5.08686 4.82559
#
# Compressibility (1/GPa) = 0.06115526
#
# Stress axis : x y z
#
# Youngs Moduli (GPa) = 77.47826 45.41805 64.04041
#
# Poissons Ratio (x) = -0.01108 -0.12811
# Poissons Ratio (y) = -0.01890 -0.19618
# Poissons Ratio (z) = -0.15500 -0.13913
#
# Static dielectric constant tensor:
#      x y z
#    x 2.001010 0.000000 0.018970 
#    y 0.000000 1.795570 0.000000 
#    z 0.018970 0.000000 2.053710 
# 
# From -- ./inp_files/248893.got.cif
#   From: 2010.05.17/outbox.cif.g08.bks.cpg/sg12_125_cif.got.tgz:248893.got - 2010.06.03 13:09:07.
