data_PCOD9202697
_publ_section_title
;
Structure prediction by ZEFSAII (Michael W. Deem and Ramdas Pophale) SiO2 
 PCOD9202697
Probable space group: C 2/M
;
_chemical_formula_sum "Si O2"
_cell_formula_units_Z 64
_cell_length_a 15.404647
_cell_length_b 8.381457
_cell_length_c 23.341070
_cell_angle_alpha 90.000000
_cell_angle_beta 98.380468
_cell_angle_gamma 90.000000
_cell_volume 2981.465119
_symmetry_space_group_name_H-M "C 2/M"
_symmetry_group_IT_number 12
_symmetry_cell_setting 'monoclinic'
loop_
_space_group_symop_operation_xyz
x,y,z
-x,y,-z
-x,-y,-z
x,-y,z
1/2+x,1/2+y,z
1/2-x,1/2+y,-z
1/2-x,1/2-y,-z
1/2+x,1/2-y,z
loop_
_atom_site_type_symbol
_atom_site_label
_atom_site_fract_x
_atom_site_fract_y
_atom_site_fract_z
Si Si1 0.875506 0.807045 0.642265
Si Si2 0.148829 0.309573 0.237066
Si Si3 0.289428 0.190305 0.444363
Si Si4 0.217113 0.310277 0.057760
Si Si5 0.116684 0.195089 0.856099
Si Si6 0.053463 0.807738 0.607867
Si Si7 0.646444 0.693854 0.733544
Si Si8 0.438805 0.688670 0.887364
O O1 0.894225 0.739361 0.706909
O O2 0.780575 0.752973 0.610560
O O3 0.951989 0.760205 0.605005
O O4 0.875794 0.000000 0.646337
O O5 0.144784 0.500000 0.228339
O O6 0.251190 0.262840 0.253148
O O7 0.106620 0.227589 0.177931
O O8 0.250000 0.250000 0.500000
O O9 0.386599 0.248227 0.438120
O O10 0.288865 0.000000 0.444173
O O11 0.219443 0.500000 0.057813
O O12 0.288891 0.253730 0.111444
O O13 0.121218 0.257758 0.068411
O O14 0.250000 0.250000 0.000000
O O15 0.103577 0.247183 0.789264
O O16 0.038226 0.249473 0.889649
O O17 0.115769 0.000000 0.855626
O O18 0.100331 0.750376 0.671228
O O19 0.055799 0.000000 0.606506
O O20 0.641929 0.500000 0.731815
O O21 0.442148 0.500000 0.895837
#
# Coordination Sequence:
#
# PCOD9202697 Si02
#       8
#     8   8   8   8   8   8   8   8
#     4  10  22  39  61  88 118 152 195 241 288 345
#     4  11  20  34  60  91 122 155 190 234 291 349
#     4  11  24  41  60  85 116 152 197 248 294 342
#     4  11  23  42  63  85 116 155 199 246 293 346
#     4   9  19  37  61  85 116 157 197 230 281 354
#     4  10  20  38  63  87 115 154 194 236 289 351
#     4   9  16  31  58  87 113 149 188 226 279 344
#     4  11  22  38  62  90 117 153 198 242 287 345
#
# _framework density 21.465957
#
# number of rings (size 3 to 8) (size 9 to 14) (size 15 to 20)
#    0.000    1.750    2.500    2.250    0.000    4.000 
#    0.000    7.500    0.000    0.000    0.000    0.000 
#    0.000    0.000    0.000    0.000    0.000    0.000 
#
# Total GULP energy -178813.254612 kJ/mol
# GULP energy per Si atom -5587.914207 kJ/mol
# Density = 2.141710 g / cm^3
# Si number density = 21.465957 Si / 1000 Ang^3
#
#
#
# Elastic Constant Matrix: (Units=GPa)
#
#
# Indices 1 2 3 4 5 6 
#
# 1 99.6295 14.2175 3.0061 0.0000 -41.9865 0.0000
# 2 14.2175 17.2885 1.4008 0.0000 -8.5208 0.0000
# 3 3.0061 1.4008 62.5803 0.0000 -36.7570 0.0000
# 4 0.0000 0.0000 0.0000 29.1463 0.0000 -7.3206
# 5 -41.9865 -8.5208 -36.7570 0.0000 41.6921 0.0000
# 6 0.0000 0.0000 0.0000 -7.3206 0.0000 22.3677
#
#
#
# Elastic Compliance Matrix: (Units=1/GPa)
#
#
# Indices 1 2 3 4 5 6 
#
# 1 0.052903 0.004628 0.060566 0.000000 0.107619 0.000000
# 2 0.004628 0.070290 0.019453 0.000000 0.036176 0.000000
# 3 0.060566 0.019453 0.105347 0.000000 0.157847 0.000000
# 4 0.000000 0.000000 0.000000 0.037383 0.000000 0.012235
# 5 0.107619 0.036176 0.157847 0.000000 0.278921 0.000000
# 6 0.000000 0.000000 0.000000 0.012235 0.000000 0.048712
#
#
# Mechanical properties :
#
#
# Convention : Reuss Voigt Hill
#
# Bulk Modulus (GPa) = 2.51361 24.08301 13.29831
# Shear Modulus (GPa) = 8.97873 29.36614 19.17244
#
# Velocity S-wave (km/s) = 2.04740 3.70271 2.99181
# Velocity P-wave (km/s) = 2.60051 5.43356 4.25947
#
# Compressibility (1/GPa) = 0.39783390
#
# Stress axis : x y z
#
# Youngs Moduli (GPa) = 18.90252 14.22686 9.49244
#
# Poissons Ratio (x) = -0.06584 -0.57492
# Poissons Ratio (y) = -0.08748 -0.18465
# Poissons Ratio (z) = -1.14485 -0.27675
#
# Static dielectric constant tensor:
#      x y z
#    x 2.067400 0.000000 -0.238680 
#    y 0.000000 1.739150 0.000000 
#    z -0.238680 0.000000 1.983130 
# 
# From -- ./inp_files/338818.got.cif
#   From: 2010.05.17/outbox.cif.g08.bks.cpg/sg12_170_cif.got.tgz:338818.got - 2010.06.03 13:09:07.
