data_PCOD9202290
_publ_section_title
;
Structure prediction by ZEFSAII (Michael W. Deem and Ramdas Pophale) SiO2 
 PCOD9202290
Probable space group: C 2/M
;
_chemical_formula_sum "Si O2"
_cell_formula_units_Z 56
_cell_length_a 11.629081
_cell_length_b 18.345083
_cell_length_c 14.732929
_cell_angle_alpha 90.000000
_cell_angle_beta 120.624479
_cell_angle_gamma 90.000000
_cell_volume 2704.689375
_symmetry_space_group_name_H-M "C 2/M"
_symmetry_group_IT_number 12
_symmetry_cell_setting 'monoclinic'
loop_
_space_group_symop_operation_xyz
x,y,z
-x,y,-z
-x,-y,-z
x,-y,z
1/2+x,1/2+y,z
1/2-x,1/2+y,-z
1/2-x,1/2-y,-z
1/2+x,1/2-y,z
loop_
_atom_site_type_symbol
_atom_site_label
_atom_site_fract_x
_atom_site_fract_y
_atom_site_fract_z
Si Si1 0.811482 0.082137 0.728176
Si Si2 0.113393 0.183018 0.397448
Si Si3 0.436487 0.081336 0.233896
Si Si4 0.696107 0.671670 0.775525
Si Si5 0.307718 0.845446 0.624770
Si Si6 0.734617 0.806117 0.911199
Si Si7 0.613239 0.585135 0.916979
O O1 0.803480 0.141369 0.646693
O O2 0.688707 0.086225 0.747716
O O3 0.956108 0.092859 0.832926
O O4 0.813468 0.000000 0.690348
O O5 0.169751 0.150507 0.513763
O O6 0.136991 0.268476 0.390437
O O7 0.957347 0.171470 0.318836
O O8 0.574296 0.096645 0.341321
O O9 0.402436 0.147359 0.151218
O O10 0.437897 0.000000 0.194464
O O11 0.780625 0.652538 0.721264
O O12 0.739559 0.752208 0.827337
O O13 0.693258 0.617287 0.861303
O O14 0.750000 0.750000 0.000000
O O15 0.843466 0.867221 0.979383
O O16 0.642183 0.500000 0.942569
#
# Coordination Sequence:
#
# PCOD9202290 Si02
#       7
#     8   8   8   8   8   8   8
#     4   9  20  39  62  88 121 158 201 253 301 355
#     4  10  21  38  62  87 118 160 206 255 296 360
#     4  11  23  40  59  88 128 162 198 250 312 366
#     4  10  20  39  61  88 122 159 204 251 304 360
#     4  11  23  37  59  89 123 160 202 246 310 369
#     4  10  20  38  60  88 119 158 206 249 300 362
#     4   9  19  37  62  90 117 156 205 253 300 352
#
# _framework density 20.70478
#
# number of rings (size 3 to 8) (size 9 to 14) (size 15 to 20)
#    0.000    2.000    1.429    1.714    0.000    2.286 
#    2.571    5.714    0.000    8.571    0.000    0.000 
#    0.000    0.000    0.000    0.000    0.000    0.000 
#
# Total GULP energy -156151.102931 kJ/mol
# GULP energy per Si atom -5576.825105 kJ/mol
# Density = 2.065765 g / cm^3
# Si number density = 20.704780 Si / 1000 Ang^3
#
#
#
# Elastic Constant Matrix: (Units=GPa)
#
#
# Indices 1 2 3 4 5 6 
#
# 1 63.9346 16.8487 21.6852 0.0000 -1.6011 0.0000
# 2 16.8487 108.5314 38.0215 0.0000 -0.0489 0.0000
# 3 21.6852 38.0215 75.8726 0.0000 -1.9129 0.0000
# 4 0.0000 0.0000 0.0000 14.5536 0.0000 4.9680
# 5 -1.6011 -0.0489 -1.9129 0.0000 21.8751 0.0000
# 6 0.0000 0.0000 0.0000 4.9680 0.0000 13.0637
#
#
#
# Elastic Compliance Matrix: (Units=1/GPa)
#
#
# Indices 1 2 3 4 5 6 
#
# 1 0.017458 -0.001176 -0.004378 0.000000 0.000892 0.000000
# 2 -0.001176 0.011260 -0.005320 0.000000 -0.000526 0.000000
# 3 -0.004378 -0.005320 0.017126 0.000000 0.001165 0.000000
# 4 0.000000 0.000000 0.000000 0.078962 0.000000 -0.030029
# 5 0.000892 -0.000526 0.001165 0.000000 0.045880 0.000000
# 6 0.000000 0.000000 0.000000 -0.030029 0.000000 0.087968
#
#
# Mechanical properties :
#
#
# Convention : Reuss Voigt Hill
#
# Bulk Modulus (GPa) = 41.49878 44.60548 43.05213
# Shear Modulus (GPa) = 17.33494 21.35069 19.34281
#
# Velocity S-wave (km/s) = 2.89665 3.21471 3.05982
# Velocity P-wave (km/s) = 5.59232 5.94722 5.77250
#
# Compressibility (1/GPa) = 0.02409710
#
# Stress axis : x y z
#
# Youngs Moduli (GPa) = 57.27990 88.81063 58.38935
#
# Poissons Ratio (x) = 0.10446 0.25562
# Poissons Ratio (y) = 0.06737 0.31061
# Poissons Ratio (z) = 0.25076 0.47245
#
# Static dielectric constant tensor:
#      x y z
#    x 1.737420 0.000000 -0.001440 
#    y 0.000000 1.758820 0.000000 
#    z -0.001440 0.000000 1.802760 
# 
# From -- ./inp_files/206752.got.cif
#   From: 2010.05.17/outbox.cif.g08.bks.cpg/sg12_104_cif.got.tgz:206752.got - 2010.06.03 13:09:07.
