data_PCOD9202437
_publ_section_title
;
Structure prediction by ZEFSAII (Michael W. Deem and Ramdas Pophale) SiO2 
 PCOD9202437
Probable space group: C 2/M
;
_chemical_formula_sum "Si O2"
_cell_formula_units_Z 42
_cell_length_a 18.051830
_cell_length_b 11.728583
_cell_length_c 18.616497
_cell_angle_alpha 90.000000
_cell_angle_beta 145.310389
_cell_angle_gamma 90.000000
_cell_volume 2243.244236
_symmetry_space_group_name_H-M "C 2/M"
_symmetry_group_IT_number 12
_symmetry_cell_setting 'monoclinic'
loop_
_space_group_symop_operation_xyz
x,y,z
-x,y,-z
-x,-y,-z
x,-y,z
1/2+x,1/2+y,z
1/2-x,1/2+y,-z
1/2-x,1/2-y,-z
1/2+x,1/2-y,z
loop_
_atom_site_type_symbol
_atom_site_label
_atom_site_fract_x
_atom_site_fract_y
_atom_site_fract_z
Si Si1 0.721203 0.128898 0.839268
Si Si2 0.000000 0.500000 0.000000
Si Si3 0.799004 0.131726 0.444825
Si Si4 0.954294 0.279673 0.677951
Si Si5 0.323311 0.791435 0.799139
Si Si6 0.981089 0.133113 0.133073
O O1 0.578860 0.145576 0.758370
O O2 0.736071 0.000000 0.822313
O O3 0.747279 0.223107 0.799755
O O4 0.832473 0.143854 0.988374
O O5 0.899402 0.399717 0.890838
O O6 0.900090 0.214095 0.565238
O O7 0.663446 0.149052 0.380619
O O8 0.768768 0.169792 0.339706
O O9 0.838554 0.000000 0.479363
O O10 0.996488 0.187041 0.771145
O O11 0.429357 0.704387 0.850059
O O12 0.016402 0.000000 0.160425
#
# Coordination Sequence:
#
# PCOD9202437 Si02
#       6
#     8   2   8   8   8   8
#     4  11  22  39  60  90 118 150 195 247 292 342
#     4  12  20  40  58  94 120 156 192 238 288 350
#     4  10  21  40  59  81 115 157 198 236 288 355
#     4  10  22  38  59  86 117 152 197 239 295 343
#     4  11  22  38  62  89 117 156 194 237 293 344
#     4  10  20  38  61  88 118 153 193 237 290 350
#
# _framework density 18.722882999999999
#
# number of rings (size 3 to 8) (size 9 to 14) (size 15 to 20)
#    0.000    1.524    2.857    2.286    0.000    2.286 
#    3.429    4.762    0.000    0.000    0.000    0.000 
#    0.000    0.000    0.000    0.000    0.000    0.000 
#
# Total GULP energy -117044.066597 kJ/mol
# GULP energy per Si atom -5573.526981 kJ/mol
# Density = 1.868027 g / cm^3
# Si number density = 18.722883 Si / 1000 Ang^3
#
#
#
# Elastic Constant Matrix: (Units=GPa)
#
#
# Indices 1 2 3 4 5 6 
#
# 1 26.6691 11.5836 12.6696 0.0000 -0.2278 0.0000
# 2 11.5836 102.3093 11.0290 0.0000 -10.8743 0.0000
# 3 12.6696 11.0290 34.7422 0.0000 -4.3933 0.0000
# 4 0.0000 0.0000 0.0000 9.1793 0.0000 1.0414
# 5 -0.2278 -10.8743 -4.3933 0.0000 21.5758 0.0000
# 6 0.0000 0.0000 0.0000 1.0414 0.0000 9.4617
#
#
#
# Elastic Compliance Matrix: (Units=1/GPa)
#
#
# Indices 1 2 3 4 5 6 
#
# 1 0.047057 -0.004073 -0.016489 0.000000 -0.004913 0.000000
# 2 -0.004073 0.010931 -0.001328 0.000000 0.005196 0.000000
# 3 -0.016489 -0.001328 0.036039 0.000000 0.006495 0.000000
# 4 0.000000 0.000000 0.000000 0.110318 0.000000 -0.012142
# 5 -0.004913 0.005196 0.006495 0.000000 0.050237 0.000000
# 6 0.000000 0.000000 0.000000 -0.012142 0.000000 0.107025
#
#
# Mechanical properties :
#
#
# Convention : Reuss Voigt Hill
#
# Bulk Modulus (GPa) = 19.90111 26.03166 22.96639
# Shear Modulus (GPa) = 11.84452 16.60593 14.22523
#
# Velocity S-wave (km/s) = 2.51793 2.98137 2.75940
# Velocity P-wave (km/s) = 4.37100 5.07792 4.73767
#
# Compressibility (1/GPa) = 0.05024846
#
# Stress axis : x y z
#
# Youngs Moduli (GPa) = 21.25091 91.48480 27.74741
#
# Poissons Ratio (x) = 0.37257 0.45752
# Poissons Ratio (y) = 0.08654 0.03684
# Poissons Ratio (z) = 0.35040 0.12148
#
# Static dielectric constant tensor:
#      x y z
#    x 1.634560 0.000000 -0.002400 
#    y 0.000000 1.607440 0.000000 
#    z -0.002400 0.000000 1.636470 
# 
# From -- ./inp_files/324806.got.cif
#   From: 2010.05.17/outbox.cif.g08.bks.cpg/sg12_163_cif.got.tgz:324806.got - 2010.06.03 13:09:07.
