data_PCOD9202613
_publ_section_title
;
Structure prediction by ZEFSAII (Michael W. Deem and Ramdas Pophale) SiO2 
 PCOD9202613
Probable space group: C 2/M
;
_chemical_formula_sum "Si O2"
_cell_formula_units_Z 56
_cell_length_a 12.481300
_cell_length_b 14.400087
_cell_length_c 19.221198
_cell_angle_alpha 90.000000
_cell_angle_beta 58.178395
_cell_angle_gamma 90.000000
_cell_volume 2935.404162
_symmetry_space_group_name_H-M "C 2/M"
_symmetry_group_IT_number 12
_symmetry_cell_setting 'monoclinic'
loop_
_space_group_symop_operation_xyz
x,y,z
-x,y,-z
-x,-y,-z
x,-y,z
1/2+x,1/2+y,z
1/2-x,1/2+y,-z
1/2-x,1/2-y,-z
1/2+x,1/2-y,z
loop_
_atom_site_type_symbol
_atom_site_label
_atom_site_fract_x
_atom_site_fract_y
_atom_site_fract_z
Si Si1 0.928398 0.262477 0.223403
Si Si2 0.120547 0.894765 0.199789
Si Si3 0.441039 0.603801 0.615681
Si Si4 0.237372 0.857817 0.521961
Si Si5 0.167235 0.701491 0.366064
Si Si6 0.085352 0.607992 0.903344
Si Si7 0.455665 0.896777 0.346289
O O1 0.790185 0.217087 0.276696
O O2 0.945053 0.322155 0.148491
O O3 0.935866 0.331385 0.286909
O O4 0.031717 0.182647 0.197518
O O5 0.266383 0.881303 0.130763
O O6 0.108348 0.888821 0.288003
O O7 0.082364 0.000000 0.193701
O O8 0.406829 0.500000 0.601117
O O9 0.592586 0.611455 0.567812
O O10 0.384147 0.694475 0.597266
O O11 0.250000 0.750000 0.500000
O O12 0.291548 0.859961 0.581922
O O13 0.328899 0.903396 0.434993
O O14 0.057975 0.651553 0.360846
O O15 0.067859 0.500000 0.887399
O O16 0.000000 0.624452 0.000000
O O17 0.495289 0.000000 0.311692
#
# Coordination Sequence:
#
# PCOD9202613 Si02
#       7
#     8   8   8   8   8   8   8
#     4  12  21  41  65  87 123 158 198 249 298 352
#     4  10  20  38  62  90 120 154 198 239 293 361
#     4  11  22  38  59  85 112 154 202 246 292 348
#     4  12  22  40  57  79 119 159 201 252 295 344
#     4  12  22  39  59  81 116 157 195 251 292 346
#     4  10  22  40  66  96 122 153 194 242 302 364
#     4  12  26  39  57  87 118 159 207 252 299 348
#
# _framework density 19.077442000000001
#
# number of rings (size 3 to 8) (size 9 to 14) (size 15 to 20)
#    0.000    0.714    7.143    1.286    0.000    3.429 
#    0.000    0.714    0.000    0.429    0.000    0.000 
#    0.000    0.000    0.000    0.000    0.000    0.000 
#
# Total GULP energy -156594.892743 kJ/mol
# GULP energy per Si atom -5592.674741 kJ/mol
# Density = 1.903402 g / cm^3
# Si number density = 19.077442 Si / 1000 Ang^3
#
#
#
# Elastic Constant Matrix: (Units=GPa)
#
#
# Indices 1 2 3 4 5 6 
#
# 1 75.5034 41.0327 53.8568 0.0000 -14.7180 0.0000
# 2 41.0327 123.5600 44.7120 0.0000 -10.8446 0.0000
# 3 53.8568 44.7120 122.3588 0.0000 -20.5568 0.0000
# 4 0.0000 0.0000 0.0000 -75.8210 0.0000 -31.9549
# 5 -14.7180 -10.8446 -20.5568 0.0000 24.0774 0.0000
# 6 0.0000 0.0000 0.0000 -31.9549 0.0000 8.3179
#
#
#
# Elastic Compliance Matrix: (Units=1/GPa)
#
#
# Indices 1 2 3 4 5 6 
#
# 1 0.021587 -0.004135 -0.007106 0.000000 0.005266 0.000000
# 2 -0.004135 0.010166 -0.001810 0.000000 0.000506 0.000000
# 3 -0.007106 -0.001810 0.012953 0.000000 0.005900 0.000000
# 4 0.000000 0.000000 0.000000 -0.005036 0.000000 -0.019346
# 5 0.005266 0.000506 0.005900 0.000000 0.050017 0.000000
# 6 0.000000 0.000000 0.000000 -0.019346 0.000000 0.045902
#
#
# Mechanical properties :
#
#
# Convention : Reuss Voigt Hill
#
# Bulk Modulus (GPa) = 53.75080 66.73615 60.24348
# Shear Modulus (GPa) = 29.78108 3.43624 16.60866
#
# Velocity S-wave (km/s) = 3.95532 1.34355 2.95378
# Velocity P-wave (km/s) = 7.00682 6.12082 6.57876
#
# Compressibility (1/GPa) = 0.01860437
#
# Stress axis : x y z
#
# Youngs Moduli (GPa) = 46.32451 98.36982 77.20329
#
# Poissons Ratio (x) = 0.40678 0.54858
# Poissons Ratio (y) = 0.19156 0.13971
# Poissons Ratio (z) = 0.32917 0.17801
#
# Static dielectric constant tensor:
#      x y z
#    x 1.666130 0.000000 0.009590 
#    y 0.000000 1.115990 0.000000 
#    z 0.009590 0.000000 1.653780 
# 
# From -- ./inp_files/263227.got.cif
#   From: 2010.05.17/outbox.cif.g08.bks.cpg/sg12_132_cif.got.tgz:263227.got - 2010.06.03 13:09:07.
