data_PCOD9202289
_publ_section_title
;
Structure prediction by ZEFSAII (Michael W. Deem and Ramdas Pophale) SiO2 
 PCOD9202289
Probable space group: C 2/M
;
_chemical_formula_sum "Si O2"
_cell_formula_units_Z 40
_cell_length_a 11.310024
_cell_length_b 18.593210
_cell_length_c 7.922796
_cell_angle_alpha 90.000000
_cell_angle_beta 85.142626
_cell_angle_gamma 90.000000
_cell_volume 1660.098388
_symmetry_space_group_name_H-M "C 2/M"
_symmetry_group_IT_number 12
_symmetry_cell_setting 'monoclinic'
loop_
_space_group_symop_operation_xyz
x,y,z
-x,y,-z
-x,-y,-z
x,-y,z
1/2+x,1/2+y,z
1/2-x,1/2+y,-z
1/2-x,1/2-y,-z
1/2+x,1/2-y,z
loop_
_atom_site_type_symbol
_atom_site_label
_atom_site_fract_x
_atom_site_fract_y
_atom_site_fract_z
Si Si1 0.397442 0.582127 0.905644
Si Si2 0.320433 0.140630 0.903306
Si Si3 0.827460 0.787738 0.344211
Si Si4 0.793388 0.914621 0.565751
Si Si5 0.062500 0.651137 0.743564
O O1 0.434082 0.500000 0.868736
O O2 0.361701 0.610653 0.727170
O O3 0.500000 0.620358 0.000000
O O4 0.280524 0.584024 0.035663
O O5 0.250907 0.204257 0.815800
O O6 0.430990 0.119527 0.771515
O O7 0.380938 0.154981 0.076140
O O8 0.750000 0.750000 0.500000
O O9 0.845135 0.868725 0.406010
O O10 0.937900 0.734685 0.310937
O O11 0.655953 0.893190 0.619691
O O12 0.804083 0.000000 0.543341
#
# Coordination Sequence:
#
# PCOD9202289 Si02
#       5
#     8   8   8   8   8
#     4   9  19  39  62  86 120 158 198 244 296 363
#     4  10  20  38  60  88 114 153 206 243 296 359
#     4  10  21  38  56  87 123 158 193 243 308 359
#     4   9  19  37  61  89 121 157 200 246 300 356
#     4   9  20  39  61  86 120 154 202 251 296 353
#
# _framework density 24.094957000000001
#
# number of rings (size 3 to 8) (size 9 to 14) (size 15 to 20)
#    0.000    2.600    0.000    0.600    0.000    4.800 
#   18.000    5.000    0.000    3.600    0.000    0.000 
#    0.000    0.000    0.000    0.000    0.000    0.400 
#
# Total GULP energy -111640.783416 kJ/mol
# GULP energy per Si atom -5582.039171 kJ/mol
# Density = 2.404012 g / cm^3
# Si number density = 24.094957 Si / 1000 Ang^3
#
#
#
# Elastic Constant Matrix: (Units=GPa)
#
#
# Indices 1 2 3 4 5 6 
#
# 1 103.9120 13.8415 15.7609 0.0000 0.3793 0.0000
# 2 13.8415 86.3197 19.8227 0.0000 0.1046 0.0000
# 3 15.7609 19.8227 86.0130 0.0000 14.4455 0.0000
# 4 0.0000 0.0000 0.0000 23.9919 0.0000 -4.6111
# 5 0.3793 0.1046 14.4455 0.0000 20.9598 0.0000
# 6 0.0000 0.0000 0.0000 -4.6111 0.0000 13.4856
#
#
#
# Elastic Compliance Matrix: (Units=1/GPa)
#
#
# Indices 1 2 3 4 5 6 
#
# 1 0.010044 -0.001214 -0.001732 0.000000 0.001018 0.000000
# 2 -0.001214 0.012464 -0.002989 0.000000 0.002020 0.000000
# 3 -0.001732 -0.002989 0.014277 0.000000 -0.009794 0.000000
# 4 0.000000 0.000000 0.000000 0.044613 0.000000 0.015254
# 5 0.001018 0.002020 -0.009794 0.000000 0.054432 0.000000
# 6 0.000000 0.000000 0.000000 0.015254 0.000000 0.079369
#
#
# Mechanical properties :
#
#
# Convention : Reuss Voigt Hill
#
# Bulk Modulus (GPa) = 40.13640 41.67723 40.90681
# Shear Modulus (GPa) = 21.24289 26.80875 24.02582
#
# Velocity S-wave (km/s) = 2.97245 3.33923 3.16116
# Velocity P-wave (km/s) = 5.33614 5.67467 5.50801
#
# Compressibility (1/GPa) = 0.02491504
#
# Stress axis : x y z
#
# Youngs Moduli (GPa) = 99.56009 80.23412 70.04223
#
# Poissons Ratio (x) = 0.09742 0.12128
# Poissons Ratio (y) = 0.12089 0.20936
# Poissons Ratio (z) = 0.17240 0.23983
#
# Static dielectric constant tensor:
#      x y z
#    x 1.964030 0.000000 0.029790 
#    y 0.000000 1.909100 0.000000 
#    z 0.029790 0.000000 1.974580 
# 
# From -- ./inp_files/47054.got.cif
#   From: 2010.05.17/outbox.cif.g08.bks.cpg/sg12_24_cif.got.tgz:47054.got - 2010.06.03 13:09:07.
