data_PCOD9202783
_publ_section_title
;
Structure prediction by ZEFSAII (Michael W. Deem and Ramdas Pophale) SiO2 
 PCOD9202783
Probable space group: C 2/M
;
_chemical_formula_sum "Si O2"
_cell_formula_units_Z 64
_cell_length_a 15.710019
_cell_length_b 15.091745
_cell_length_c 18.931887
_cell_angle_alpha 90.000000
_cell_angle_beta 138.848388
_cell_angle_gamma 90.000000
_cell_volume 2953.734571
_symmetry_space_group_name_H-M "C 2/M"
_symmetry_group_IT_number 12
_symmetry_cell_setting 'monoclinic'
loop_
_space_group_symop_operation_xyz
x,y,z
-x,y,-z
-x,-y,-z
x,-y,z
1/2+x,1/2+y,z
1/2-x,1/2+y,-z
1/2-x,1/2-y,-z
1/2+x,1/2-y,z
loop_
_atom_site_type_symbol
_atom_site_label
_atom_site_fract_x
_atom_site_fract_y
_atom_site_fract_z
Si Si1 0.061527 0.678063 0.366225
Si Si2 0.929126 0.598056 0.039912
Si Si3 0.389670 0.730464 0.380142
Si Si4 0.228352 0.166840 0.395556
Si Si5 0.205428 0.100341 0.788147
Si Si6 0.670692 0.100928 0.865326
Si Si7 0.470611 0.598694 0.194034
Si Si8 0.573366 0.700792 0.977620
O O1 0.142678 0.751540 0.373407
O O2 0.173530 0.632295 0.483308
O O3 0.967970 0.719970 0.367337
O O4 0.967505 0.622731 0.256740
O O5 0.995402 0.500000 0.085309
O O6 0.839019 0.596660 0.914158
O O7 0.978217 0.698971 0.066065
O O8 0.847985 0.601331 0.061898
O O9 0.500000 0.688741 0.500000
O O10 0.308227 0.795889 0.378878
O O11 0.300243 0.659990 0.284395
O O12 0.121372 0.097948 0.305476
O O13 0.105106 0.134479 0.785006
O O14 0.167100 0.000000 0.745867
O O15 0.775312 0.177689 0.913281
O O16 0.711292 0.000000 0.870276
O O17 0.419251 0.500000 0.150600
O O18 0.452323 0.653365 0.112131
O O19 0.500000 0.664144 0.000000
#
# Coordination Sequence:
#
# PCOD9202783 Si02
#       8
#     8   8   8   8   8   8   8   8
#     4  10  21  41  64  91 128 175 223 271 331 400
#     4  10  22  41  65  93 123 163 213 263 326 399
#     4  10  21  38  62  92 127 170 224 272 327 398
#     4  10  22  39  65  94 126 172 224 277 333 396
#     4  10  20  38  63  91 127 167 213 272 330 390
#     4  11  23  42  66  93 131 174 221 270 325 398
#     4  11  23  40  63  93 129 171 224 274 325 390
#     4  12  26  40  65  97 130 175 219 273 335 395
#
# _framework density 21.667484999999999
#
# number of rings (size 3 to 8) (size 9 to 14) (size 15 to 20)
#    0.000    1.500    2.500    2.250    3.500    2.000 
#    0.000    0.625    0.000    2.250    0.000    0.000 
#    0.000    0.000    0.000    0.000    0.000    0.000 
#
# Total GULP energy -178559.690690 kJ/mol
# GULP energy per Si atom -5579.990334 kJ/mol
# Density = 2.161817 g / cm^3
# Si number density = 21.667485 Si / 1000 Ang^3
#
#
#
# Elastic Constant Matrix: (Units=GPa)
#
#
# Indices 1 2 3 4 5 6 
#
# 1 94.0501 22.5945 4.7056 0.0000 -8.7340 0.0000
# 2 22.5945 71.9250 41.8782 0.0000 -6.6871 0.0000
# 3 4.7056 41.8782 105.7575 0.0000 -0.1831 0.0000
# 4 0.0000 0.0000 0.0000 16.9627 0.0000 6.7812
# 5 -8.7340 -6.6871 -0.1831 0.0000 28.0854 0.0000
# 6 0.0000 0.0000 0.0000 6.7812 0.0000 17.7166
#
#
#
# Elastic Compliance Matrix: (Units=1/GPa)
#
#
# Indices 1 2 3 4 5 6 
#
# 1 0.011814 -0.004102 0.001103 0.000000 0.002704 0.000000
# 2 -0.004102 0.020017 -0.007738 0.000000 0.003440 0.000000
# 3 0.001103 -0.007738 0.012468 0.000000 -0.001418 0.000000
# 4 0.000000 0.000000 0.000000 0.069603 0.000000 -0.026641
# 5 0.002704 0.003440 -0.001418 0.000000 0.037256 0.000000
# 6 0.000000 0.000000 0.000000 -0.026641 0.000000 0.066642
#
#
# Mechanical properties :
#
#
# Convention : Reuss Voigt Hill
#
# Bulk Modulus (GPa) = 43.81001 45.56543 44.68772
# Shear Modulus (GPa) = 20.25248 26.05657 23.15453
#
# Velocity S-wave (km/s) = 3.06059 3.47156 3.27254
# Velocity P-wave (km/s) = 5.72300 6.09459 5.91172
#
# Compressibility (1/GPa) = 0.02282584
#
# Stress axis : x y z
#
# Youngs Moduli (GPa) = 84.64457 49.95662 80.20414
#
# Poissons Ratio (x) = 0.20494 -0.08850
# Poissons Ratio (y) = 0.34724 0.62062
# Poissons Ratio (z) = -0.09340 0.38657
#
# Static dielectric constant tensor:
#      x y z
#    x 1.807120 0.000000 0.052380 
#    y 0.000000 1.794470 0.000000 
#    z 0.052380 0.000000 1.815700 
# 
# From -- ./inp_files/270704.got.cif
#   From: 2010.05.17/outbox.cif.g08.bks.cpg/sg12_136_cif.got.tgz:270704.got - 2010.06.03 13:09:07.
