data_PCOD9202530
_publ_section_title
;
Structure prediction by ZEFSAII (Michael W. Deem and Ramdas Pophale) SiO2 
 PCOD9202530
Probable space group: C 2/M
;
_chemical_formula_sum "Si O2"
_cell_formula_units_Z 40
_cell_length_a 25.145711
_cell_length_b 9.312573
_cell_length_c 9.821534
_cell_angle_alpha 90.000000
_cell_angle_beta 116.945259
_cell_angle_gamma 90.000000
_cell_volume 2050.241340
_symmetry_space_group_name_H-M "C 2/M"
_symmetry_group_IT_number 12
_symmetry_cell_setting 'monoclinic'
loop_
_space_group_symop_operation_xyz
x,y,z
-x,y,-z
-x,-y,-z
x,-y,z
1/2+x,1/2+y,z
1/2-x,1/2+y,-z
1/2-x,1/2-y,-z
1/2+x,1/2-y,z
loop_
_atom_site_type_symbol
_atom_site_label
_atom_site_fract_x
_atom_site_fract_y
_atom_site_fract_z
Si Si1 0.098314 0.832131 0.148018
Si Si2 0.738007 0.669995 0.344773
Si Si3 0.431219 0.669842 0.197298
Si Si4 0.550268 0.830919 0.352906
Si Si5 0.650713 0.830097 0.700950
O O1 0.169545 0.810620 0.223424
O O2 0.072337 0.731903 0.234805
O O3 0.087163 0.000000 0.171399
O O4 0.071355 0.806375 0.968097
O O5 0.748308 0.500000 0.378693
O O6 0.750000 0.750000 0.500000
O O7 0.785370 0.715342 0.284898
O O8 0.433246 0.500000 0.224519
O O9 0.490144 0.747527 0.320899
O O10 0.373822 0.738948 0.202325
O O11 0.602802 0.810257 0.523368
O O12 0.537636 0.000000 0.329298
O O13 0.652264 0.000000 0.736395
#
# Coordination Sequence:
#
# PCOD9202530 Si02
#       5
#     8   8   8   8   8
#     4  10  22  39  60  86 118 152 190 237 286 340
#     4  10  20  38  62  86 114 148 189 237 286 339
#     4  11  24  39  56  85 120 155 193 234 286 342
#     4  11  22  38  61  87 115 152 196 238 284 340
#     4  10  22  39  59  86 117 149 190 240 288 338
#
# _framework density 19.509898
#
# number of rings (size 3 to 8) (size 9 to 14) (size 15 to 20)
#    0.000    1.600    2.000    2.400    0.000    9.600 
#    0.000    0.000    0.000    0.000    0.000    0.000 
#    0.000    0.000    0.000    0.000    0.000    0.000 
#
# Total GULP energy -111818.912680 kJ/mol
# GULP energy per Si atom -5590.945634 kJ/mol
# Density = 1.946549 g / cm^3
# Si number density = 19.509898 Si / 1000 Ang^3
#
#
#
# Elastic Constant Matrix: (Units=GPa)
#
#
# Indices 1 2 3 4 5 6 
#
# 1 63.9512 13.4454 -10.0679 0.0000 -13.4492 0.0000
# 2 13.4454 43.5869 26.7126 0.0000 -8.5048 0.0000
# 3 -10.0679 26.7126 37.0516 0.0000 -6.4540 0.0000
# 4 0.0000 0.0000 0.0000 27.7208 0.0000 -8.6724
# 5 -13.4492 -8.5048 -6.4540 0.0000 33.3078 0.0000
# 6 0.0000 0.0000 0.0000 -8.6724 0.0000 29.3046
#
#
#
# Elastic Compliance Matrix: (Units=1/GPa)
#
#
# Indices 1 2 3 4 5 6 
#
# 1 0.025581 -0.020240 0.023226 0.000000 0.009661 0.000000
# 2 -0.020240 0.057913 -0.047711 0.000000 -0.002630 0.000000
# 3 0.023226 -0.047711 0.069557 0.000000 0.010674 0.000000
# 4 0.000000 0.000000 0.000000 0.039755 0.000000 0.011765
# 5 0.009661 -0.002630 0.010674 0.000000 0.035321 0.000000
# 6 0.000000 0.000000 0.000000 0.011765 0.000000 0.037606
#
#
# Mechanical properties :
#
#
# Convention : Reuss Voigt Hill
#
# Bulk Modulus (GPa) = 15.72289 22.75222 19.23756
# Shear Modulus (GPa) = 13.28438 25.69994 19.49216
#
# Velocity S-wave (km/s) = 2.61225 3.63337 3.16427
# Velocity P-wave (km/s) = 4.14426 5.41193 4.81995
#
# Compressibility (1/GPa) = 0.06360153
#
# Stress axis : x y z
#
# Youngs Moduli (GPa) = 39.09199 17.26732 14.37667
#
# Poissons Ratio (x) = 0.34949 -0.33391
# Poissons Ratio (y) = 0.79123 0.68592
# Poissons Ratio (z) = -0.90796 0.82383
#
# Static dielectric constant tensor:
#      x y z
#    x 1.699360 0.000000 0.002530 
#    y 0.000000 1.648730 0.000000 
#    z 0.002530 0.000000 1.656430 
# 
# From -- ./inp_files/92757.got.cif
#   From: 2010.05.17/outbox.cif.g08.bks.cpg/sg12_47_cif.got.tgz:92757.got - 2010.06.03 13:09:07.
