data_PCOD9202277
_publ_section_title
;
Structure prediction by ZEFSAII (Michael W. Deem and Ramdas Pophale) SiO2 
 PCOD9202277
Probable space group: C 2/M
;
_chemical_formula_sum "Si O2"
_cell_formula_units_Z 56
_cell_length_a 25.530073
_cell_length_b 9.210510
_cell_length_c 14.635486
_cell_angle_alpha 90.000000
_cell_angle_beta 122.908706
_cell_angle_gamma 90.000000
_cell_volume 2889.235154
_symmetry_space_group_name_H-M "C 2/M"
_symmetry_group_IT_number 12
_symmetry_cell_setting 'monoclinic'
loop_
_space_group_symop_operation_xyz
x,y,z
-x,y,-z
-x,-y,-z
x,-y,z
1/2+x,1/2+y,z
1/2-x,1/2+y,-z
1/2-x,1/2-y,-z
1/2+x,1/2-y,z
loop_
_atom_site_type_symbol
_atom_site_label
_atom_site_fract_x
_atom_site_fract_y
_atom_site_fract_z
Si Si1 0.450337 0.669900 0.371231
Si Si2 0.514070 0.673131 0.240594
Si Si3 0.225494 0.171897 0.066409
Si Si4 0.389260 0.828793 0.781723
Si Si5 0.746901 0.327614 0.594540
Si Si6 0.326953 0.172165 0.320910
Si Si7 0.409850 0.326290 0.988779
O O1 0.500000 0.679095 0.500000
O O2 0.431550 0.500000 0.343254
O O3 0.483401 0.714568 0.308010
O O4 0.390611 0.764346 0.340493
O O5 0.526144 0.500000 0.254516
O O6 0.576368 0.757164 0.272109
O O7 0.464227 0.702232 0.112796
O O8 0.272859 0.196303 0.194566
O O9 0.156081 0.217986 0.029067
O O10 0.223013 0.000000 0.046146
O O11 0.250000 0.250000 0.000000
O O12 0.314957 0.805561 0.705037
O O13 0.415308 0.754263 0.897906
O O14 0.401225 0.000000 0.794705
O O15 0.736436 0.500000 0.574907
O O16 0.750000 0.250000 0.500000
O O17 0.694561 0.255806 0.608702
O O18 0.331920 0.000000 0.342763
O O19 0.408530 0.500000 0.970204
#
# Coordination Sequence:
#
# PCOD9202277 Si02
#       7
#     8   8   8   8   8   8   8
#     4  10  23  43  65  91 122 164 211 254 306 366
#     4  10  22  39  62  89 123 167 209 250 301 365
#     4  10  21  36  59  89 123 162 203 250 303 361
#     4  11  24  40  61  92 125 158 200 256 312 359
#     4  11  25  43  65  93 124 163 207 256 312 371
#     4  11  23  41  65  94 126 162 203 255 313 364
#     4  10  20  38  60  86 122 164 205 245 300 369
#
# _framework density 19.382290999999999
#
# number of rings (size 3 to 8) (size 9 to 14) (size 15 to 20)
#    0.000    1.571    1.429    2.571    2.000    7.714 
#    0.000    0.000    0.000    0.000    0.000    0.000 
#    0.000    0.000    0.000    0.000    0.000    0.000 
#
# Total GULP energy -156560.909941 kJ/mol
# GULP energy per Si atom -5591.461069 kJ/mol
# Density = 1.933818 g / cm^3
# Si number density = 19.382291 Si / 1000 Ang^3
#
#
#
# Elastic Constant Matrix: (Units=GPa)
#
#
# Indices 1 2 3 4 5 6 
#
# 1 135.7642 49.4337 23.4712 0.0000 -25.8585 0.0000
# 2 49.4337 50.4540 37.3420 0.0000 -13.1569 0.0000
# 3 23.4712 37.3420 45.5057 0.0000 -26.9568 0.0000
# 4 0.0000 0.0000 0.0000 22.7907 0.0000 -5.3733
# 5 -25.8585 -13.1569 -26.9568 0.0000 38.1413 0.0000
# 6 0.0000 0.0000 0.0000 -5.3733 0.0000 39.8539
#
#
#
# Elastic Compliance Matrix: (Units=1/GPa)
#
#
# Indices 1 2 3 4 5 6 
#
# 1 0.024091 -0.052098 0.050497 0.000000 0.034051 0.000000
# 2 -0.052098 0.174442 -0.174691 0.000000 -0.098612 0.000000
# 3 0.050497 -0.174691 0.213072 0.000000 0.124566 0.000000
# 4 0.000000 0.000000 0.000000 0.045318 0.000000 0.006110
# 5 0.034051 -0.098612 0.124566 0.000000 0.103326 0.000000
# 6 0.000000 0.000000 0.000000 0.006110 0.000000 0.025915
#
#
# Mechanical properties :
#
#
# Convention : Reuss Voigt Hill
#
# Bulk Modulus (GPa) = 16.94344 50.24642 33.59493
# Shear Modulus (GPa) = 5.21691 28.25566 16.73629
#
# Velocity S-wave (km/s) = 1.64238 3.82227 2.94170
# Velocity P-wave (km/s) = 3.51529 6.74239 5.37667
#
# Compressibility (1/GPa) = 0.05901991
#
# Stress axis : x y z
#
# Youngs Moduli (GPa) = 41.50949 5.73256 4.69325
#
# Poissons Ratio (x) = 0.29866 -0.23699
# Poissons Ratio (y) = 2.16256 0.81987
# Poissons Ratio (z) = -2.09610 1.00143
#
# Static dielectric constant tensor:
#      x y z
#    x 1.663360 0.000000 0.007090 
#    y 0.000000 1.649810 0.000000 
#    z 0.007090 0.000000 1.662410 
# 
# From -- ./inp_files/238243.got.cif
#   From: 2010.05.17/outbox.cif.g08.bks.cpg/sg12_120_cif.got.tgz:238243.got - 2010.06.03 13:09:07.
