data_PCOD9202698
_publ_section_title
;
Structure prediction by ZEFSAII (Michael W. Deem and Ramdas Pophale) SiO2 
 PCOD9202698
Probable space group: C 2/M
;
_chemical_formula_sum "Si O2"
_cell_formula_units_Z 64
_cell_length_a 17.022647
_cell_length_b 14.752478
_cell_length_c 20.588126
_cell_angle_alpha 90.000000
_cell_angle_beta 38.447119
_cell_angle_gamma 90.000000
_cell_volume 3214.800758
_symmetry_space_group_name_H-M "C 2/M"
_symmetry_group_IT_number 12
_symmetry_cell_setting 'monoclinic'
loop_
_space_group_symop_operation_xyz
x,y,z
-x,y,-z
-x,-y,-z
x,-y,z
1/2+x,1/2+y,z
1/2-x,1/2+y,-z
1/2-x,1/2-y,-z
1/2+x,1/2-y,z
loop_
_atom_site_type_symbol
_atom_site_label
_atom_site_fract_x
_atom_site_fract_y
_atom_site_fract_z
Si Si1 0.221318 0.646705 0.037771
Si Si2 0.363729 0.764143 0.579958
Si Si3 0.371209 0.600176 0.822170
Si Si4 0.502041 0.892672 0.721239
Si Si5 0.852658 0.100497 0.084642
Si Si6 0.698621 0.605799 0.473227
Si Si7 0.158373 0.739582 0.259196
Si Si8 0.846125 0.106164 0.344048
O O1 0.259965 0.597413 0.946890
O O2 0.250000 0.750000 0.000000
O O3 0.084480 0.632254 0.159848
O O4 0.314659 0.614017 0.034336
O O5 0.500000 0.811622 0.500000
O O6 0.370682 0.679882 0.525894
O O7 0.340119 0.730456 0.667959
O O8 0.253803 0.830714 0.627272
O O9 0.389420 0.500000 0.781697
O O10 0.343280 0.675197 0.787112
O O11 0.506636 0.624496 0.767260
O O12 0.650933 0.879474 0.634417
O O13 0.452703 0.827983 0.694991
O O14 0.482616 0.000000 0.720058
O O15 0.781230 0.178367 0.168779
O O16 0.809898 0.000000 0.132815
O O17 0.000000 0.106329 0.000000
O O18 0.670050 0.500000 0.476724
O O19 0.668453 0.620545 0.568804
O O20 0.820443 0.000000 0.347353
#
# Coordination Sequence:
#
# PCOD9202698 Si02
#       8
#     8   8   8   8   8   8   8   8
#     4  11  20  36  62  88 121 156 198 248 290 348
#     4  12  25  38  60  89 122 157 191 237 300 358
#     4  11  22  39  62  87 119 158 204 246 287 344
#     4  10  20  38  63  87 115 154 199 244 295 348
#     4  10  22  38  58  85 119 155 192 239 298 354
#     4  10  22  42  65  87 116 154 200 248 288 348
#     4  11  22  37  57  85 120 155 191 241 291 345
#     4  10  23  41  64  91 118 153 198 248 296 348
#
# _framework density 19.907921000000002
#
# number of rings (size 3 to 8) (size 9 to 14) (size 15 to 20)
#    0.000    1.375    2.500    4.875    1.750    2.000 
#    0.000    0.000    0.000    0.375    0.000    0.000 
#    0.000    0.000    0.000    0.000    0.000    0.000 
#
# Total GULP energy -178701.813596 kJ/mol
# GULP energy per Si atom -5584.431675 kJ/mol
# Density = 1.986261 g / cm^3
# Si number density = 19.907921 Si / 1000 Ang^3
#
#
#
# Elastic Constant Matrix: (Units=GPa)
#
#
# Indices 1 2 3 4 5 6 
#
# 1 39.8179 13.8101 26.3929 0.0000 -6.0478 -0.0001
# 2 13.8101 74.9846 12.1064 0.0000 -11.5005 -0.0001
# 3 26.3929 12.1064 57.3133 0.0000 1.8418 -0.0002
# 4 0.0000 0.0000 0.0000 59.3975 0.0000 68.1644
# 5 -6.0478 -11.5005 1.8418 0.0000 29.5440 0.0001
# 6 -0.0001 -0.0001 -0.0002 68.1644 0.0001 179.8300
#
#
#
# Elastic Compliance Matrix: (Units=1/GPa)
#
#
# Indices 1 2 3 4 5 6 
#
# 1 0.039045 -0.003149 -0.017568 0.000000 0.007862 0.000000
# 2 -0.003149 0.015040 -0.001898 0.000000 0.005328 0.000000
# 3 -0.017568 -0.001898 0.026131 0.000000 -0.005964 0.000000
# 4 0.000000 0.000000 0.000000 0.029797 0.000000 -0.011295
# 5 0.007862 0.005328 -0.005964 0.000000 0.037903 0.000000
# 6 0.000000 0.000000 0.000000 -0.011295 0.000000 0.009842
#
#
# Mechanical properties :
#
#
# Convention : Reuss Voigt Hill
#
# Bulk Modulus (GPa) = 28.58294 30.74828 29.66561
# Shear Modulus (GPa) = 23.29373 61.74139 42.51756
#
# Velocity S-wave (km/s) = 3.42434 5.57502 4.62639
# Velocity P-wave (km/s) = 5.47938 7.54452 6.59331
#
# Compressibility (1/GPa) = 0.03498590
#
# Stress axis : x y z
#
# Youngs Moduli (GPa) = 25.61124 66.49094 38.26928
#
# Poissons Ratio (x) = 0.20937 0.67231
# Poissons Ratio (y) = 0.08065 0.07264
# Poissons Ratio (z) = 0.44994 0.12620
#
# Static dielectric constant tensor:
#      x y z
#    x 1.685360 0.000000 -0.021120 
#    y 0.000000 1.724040 0.000000 
#    z -0.021120 0.000000 1.748780 
# 
# From -- ./inp_files/270652.got.cif
#   From: 2010.05.17/outbox.cif.g08.bks.cpg/sg12_136_cif.got.tgz:270652.got - 2010.06.03 13:09:07.
