data_PCOD9202229
_publ_section_title
;
Structure prediction by ZEFSAII (Michael W. Deem and Ramdas Pophale) SiO2 
 PCOD9202229
Probable space group: C 2/M
;
_chemical_formula_sum "Si O2"
_cell_formula_units_Z 64
_cell_length_a 30.278345
_cell_length_b 9.522962
_cell_length_c 19.071838
_cell_angle_alpha 90.000000
_cell_angle_beta 38.183956
_cell_angle_gamma 90.000000
_cell_volume 3399.519411
_symmetry_space_group_name_H-M "C 2/M"
_symmetry_group_IT_number 12
_symmetry_cell_setting 'monoclinic'
loop_
_space_group_symop_operation_xyz
x,y,z
-x,y,-z
-x,-y,-z
x,-y,z
1/2+x,1/2+y,z
1/2-x,1/2+y,-z
1/2-x,1/2-y,-z
1/2+x,1/2-y,z
loop_
_atom_site_type_symbol
_atom_site_label
_atom_site_fract_x
_atom_site_fract_y
_atom_site_fract_z
Si Si1 0.384080 0.837505 0.326965
Si Si2 0.213048 0.664900 0.676306
Si Si3 0.008208 0.668526 0.572747
Si Si4 0.020343 0.655620 0.056360
Si Si5 0.286684 0.333522 0.050288
Si Si6 0.652209 0.665315 0.880648
Si Si7 0.362648 0.832769 0.838342
Si Si8 0.382819 0.665915 0.468261
O O1 0.315651 0.796479 0.365150
O O2 0.450435 0.832592 0.190822
O O3 0.399173 0.738175 0.373362
O O4 0.375438 0.000000 0.361497
O O5 0.194981 0.500000 0.707433
O O6 0.172954 0.754072 0.784679
O O7 0.297309 0.682583 0.581807
O O8 0.020065 0.500000 0.564705
O O9 0.072602 0.753814 0.527792
O O10 0.000000 0.698676 0.500000
O O11 0.935489 0.703064 0.706636
O O12 0.052255 0.500000 0.029320
O O13 0.076334 0.776947 0.000984
O O14 0.000000 0.662706 0.000000
O O15 0.299118 0.500000 0.024855
O O16 0.293709 0.303007 0.123554
O O17 0.206983 0.302123 0.122640
O O18 0.344672 0.249399 0.932090
O O19 0.650480 0.500000 0.870329
O O20 0.364310 0.000000 0.849954
O O21 0.399129 0.500000 0.448111
#
# Coordination Sequence:
#
# PCOD9202229 Si02
#       8
#     8   8   8   8   8   8   8   8
#     4  10  21  40  65  87 116 160 205 244 290 355
#     4  10  22  42  62  85 119 160 204 246 295 357
#     4  10  23  42  65  88 116 157 202 245 290 355
#     4  10  20  38  60  82 116 160 197 235 285 348
#     4   9  20  37  57  86 118 148 185 237 294 344
#     4  11  23  35  57  90 122 154 191 245 299 349
#     4   9  19  38  61  84 111 149 195 236 285 348
#     4  11  25  41  62  91 122 154 196 253 307 352
#
# _framework density 18.82619
#
# number of rings (size 3 to 8) (size 9 to 14) (size 15 to 20)
#    0.000    2.000    1.250    1.125    3.500    4.000 
#    0.000    0.000    0.000    0.000    0.000    0.000 
#    0.000    0.000    0.000    0.000    0.000    0.000 
#
# Total GULP energy -178641.235254 kJ/mol
# GULP energy per Si atom -5582.538602 kJ/mol
# Density = 1.878334 g / cm^3
# Si number density = 18.826190 Si / 1000 Ang^3
#
#
#
# Elastic Constant Matrix: (Units=GPa)
#
#
# Indices 1 2 3 4 5 6 
#
# 1 107.6106 56.0603 29.1411 -0.0003 13.9263 0.0000
# 2 56.0603 47.9432 35.0968 -0.0014 8.6556 -0.0008
# 3 29.1411 35.0968 62.6891 -0.0030 2.9783 0.0005
# 4 -0.0003 -0.0014 -0.0030 19.2554 -0.0002 -2.7208
# 5 13.9263 8.6556 2.9783 -0.0002 18.7908 0.0009
# 6 0.0000 -0.0008 0.0005 -2.7208 0.0009 32.1274
#
#
#
# Elastic Compliance Matrix: (Units=1/GPa)
#
#
# Indices 1 2 3 4 5 6 
#
# 1 0.026459 -0.036116 0.008122 -0.000001 -0.004261 -0.000001
# 2 -0.036116 0.088243 -0.032198 0.000001 -0.008778 0.000003
# 3 0.008122 -0.032198 0.030010 0.000002 0.004055 -0.000001
# 4 -0.000001 0.000001 0.000002 0.052562 0.000000 0.004451
# 5 -0.004261 -0.008778 0.004055 0.000000 0.059776 -0.000002
# 6 -0.000001 0.000003 -0.000001 0.004451 -0.000002 0.031503
#
#
# Mechanical properties :
#
#
# Convention : Reuss Voigt Hill
#
# Bulk Modulus (GPa) = 41.10213 50.98214 46.04214
# Shear Modulus (GPa) = 11.98908 20.56438 16.27673
#
# Velocity S-wave (km/s) = 2.52629 3.30862 2.94356
# Velocity P-wave (km/s) = 5.51265 6.46028 6.00519
#
# Compressibility (1/GPa) = 0.02432964
#
# Stress axis : x y z
#
# Youngs Moduli (GPa) = 37.79397 11.33230 33.32267
#
# Poissons Ratio (x) = 0.40927 -0.27065
# Poissons Ratio (y) = 1.36495 1.07292
# Poissons Ratio (z) = -0.30697 0.36488
#
# Static dielectric constant tensor:
#      x y z
#    x 1.664040 0.000000 -0.014040 
#    y 0.000000 1.634710 0.000000 
#    z -0.014040 0.000000 1.636560 
# 
# From -- ./inp_files/295529.got.cif
#   From: 2010.05.17/outbox.cif.g08.bks.cpg/sg12_148_cif.got.tgz:295529.got - 2010.06.03 13:09:07.
