data_PCOD9203976
_publ_section_title
;
Structure prediction by ZEFSAII (Michael W. Deem and Ramdas Pophale) SiO2 
 PCOD9203976
Probable space group: C 2/M
;
_chemical_formula_sum "Si O2"
_cell_formula_units_Z 44
_cell_length_a 20.175952
_cell_length_b 12.918928
_cell_length_c 7.644965
_cell_angle_alpha 90.000000
_cell_angle_beta 75.967354
_cell_angle_gamma 90.000000
_cell_volume 1933.207014
_symmetry_space_group_name_H-M "C 2/M"
_symmetry_group_IT_number 12
_symmetry_cell_setting 'monoclinic'
loop_
_space_group_symop_operation_xyz
x,y,z
-x,y,-z
-x,-y,-z
x,-y,z
1/2+x,1/2+y,z
1/2-x,1/2+y,-z
1/2-x,1/2-y,-z
1/2+x,1/2-y,z
loop_
_atom_site_type_symbol
_atom_site_label
_atom_site_fract_x
_atom_site_fract_y
_atom_site_fract_z
Si Si1 0.901526 0.324782 0.473538
Si Si2 0.047137 0.384727 0.214184
Si Si3 0.285514 0.797478 0.306685
Si Si4 0.129773 0.883071 0.917235
Si Si5 0.000000 0.217664 0.000000
Si Si6 0.643475 0.615677 0.319535
O O1 0.974711 0.355245 0.349321
O O2 0.848487 0.356297 0.357350
O O3 0.890744 0.204493 0.538171
O O4 0.897405 0.377731 0.666694
O O5 0.046555 0.500000 0.143683
O O6 0.050241 0.297135 0.067721
O O7 0.250000 0.750000 0.500000
O O8 0.315635 0.703437 0.173736
O O9 0.225097 0.861576 0.257025
O O10 0.056584 0.855179 0.875668
O O11 0.151230 0.000000 0.857492
O O12 0.118366 0.881205 0.134933
O O13 0.632222 0.500000 0.396219
#
# Coordination Sequence:
#
# PCOD9203976 Si02
#       6
#     8   8   8   8   4   8
#     4  10  20  40  62  92 130 159 207 261 303 382
#     4  11  23  40  63  90 125 168 208 261 315 366
#     4  10  22  40  65  90 128 165 210 255 302 373
#     4  11  23  43  67  93 128 166 207 259 313 372
#     4  12  22  44  66  94 130 158 216 256 316 376
#     4  10  22  40  64  93 127 165 207 257 312 365
#
# _framework density 22.760107000000001
#
# number of rings (size 3 to 8) (size 9 to 14) (size 15 to 20)
#    0.000    1.455    3.636    2.182    0.000    4.364 
#    0.000    7.273    0.000    0.000    0.000    0.000 
#    0.000    0.000    0.000    0.000    0.000    0.000 
#
# Total GULP energy -122661.869286 kJ/mol
# GULP energy per Si atom -5575.539513 kJ/mol
# Density = 2.270830 g / cm^3
# Si number density = 22.760107 Si / 1000 Ang^3
#
#
#
# Elastic Constant Matrix: (Units=GPa)
#
#
# Indices 1 2 3 4 5 6 
#
# 1 51.7323 26.8192 -4.4650 0.0000 15.8366 0.0000
# 2 26.8192 111.0086 -2.8152 0.0000 17.5235 0.0000
# 3 -4.4650 -2.8152 43.3408 0.0000 8.0037 0.0000
# 4 0.0000 0.0000 0.0000 -0.3577 0.0000 40.4732
# 5 15.8366 17.5235 8.0037 0.0000 30.3916 0.0000
# 6 0.0000 0.0000 0.0000 40.4732 0.0000 -90.1949
#
#
#
# Elastic Compliance Matrix: (Units=1/GPa)
#
#
# Indices 1 2 3 4 5 6 
#
# 1 0.025603 -0.004148 0.004615 0.000000 -0.012165 0.000000
# 2 -0.004148 0.010716 0.001062 0.000000 -0.004297 0.000000
# 3 0.004615 0.001062 0.025410 0.000000 -0.009709 0.000000
# 4 0.000000 0.000000 0.000000 0.056167 0.000000 0.025204
# 5 -0.012165 -0.004297 -0.009709 0.000000 0.044277 0.000000
# 6 0.000000 0.000000 0.000000 0.025204 0.000000 0.000223
#
#
# Mechanical properties :
#
#
# Convention : Reuss Voigt Hill
#
# Bulk Modulus (GPa) = 15.43540 27.23996 21.33768
# Shear Modulus (GPa) = 27.63433 0.40400 14.01917
#
# Velocity S-wave (km/s) = 3.48825 0.42177 2.48453
# Velocity P-wave (km/s) = 4.79796 3.49735 4.19832
#
# Compressibility (1/GPa) = 0.06478613
#
# Stress axis : x y z
#
# Youngs Moduli (GPa) = 39.05781 93.32093 39.35419
#
# Poissons Ratio (x) = 0.38712 -0.18161
# Poissons Ratio (y) = 0.16202 -0.04180
# Poissons Ratio (z) = -0.18024 -0.09912
#
# Static dielectric constant tensor:
#      x y z
#    x 1.987150 0.000000 0.057990 
#    y 0.000000 1.860360 0.000000 
#    z 0.057990 0.000000 1.948500 
# 
# From -- ./inp_files/84066.got.cif
#   From: 2010.05.17/outbox.cif.g08.bks.cpg/sg12_43_cif.got.tgz:84066.got - 2010.06.03 13:09:07.
