data_PCOD9203630
_publ_section_title
;
Structure prediction by ZEFSAII (Michael W. Deem and Ramdas Pophale) SiO2 
 PCOD9203630
Probable space group: C 2/M
;
_chemical_formula_sum "Si O2"
_cell_formula_units_Z 32
_cell_length_a 17.138548
_cell_length_b 17.122470
_cell_length_c 5.305603
_cell_angle_alpha 90.000000
_cell_angle_beta 114.041364
_cell_angle_gamma 90.000000
_cell_volume 1421.888763
_symmetry_space_group_name_H-M "C 2/M"
_symmetry_group_IT_number 12
_symmetry_cell_setting 'monoclinic'
loop_
_space_group_symop_operation_xyz
x,y,z
-x,y,-z
-x,-y,-z
x,-y,z
1/2+x,1/2+y,z
1/2-x,1/2+y,-z
1/2-x,1/2-y,-z
1/2+x,1/2-y,z
loop_
_atom_site_type_symbol
_atom_site_label
_atom_site_fract_x
_atom_site_fract_y
_atom_site_fract_z
Si Si1 0.760558 0.086655 0.505894
Si Si2 0.387292 0.826241 0.497736
Si Si3 0.397216 0.911372 0.009266
Si Si4 0.055083 0.149699 0.327175
O O1 0.714019 0.154159 0.606557
O O2 0.859472 0.099635 0.594459
O O3 0.743392 0.000000 0.592953
O O4 0.706134 0.088965 0.175086
O O5 0.414469 0.852978 0.258074
O O6 0.412369 0.738356 0.586141
O O7 0.424559 0.882164 0.767325
O O8 0.422724 0.000000 0.098170
O O9 0.000000 0.127005 0.500000
O O10 0.000000 0.146203 0.000000
#
# Coordination Sequence:
#
# PCOD9203630 Si02
#       4
#     8   8   8   8
#     4   9  22  41  68  92 118 160 212 257 297 356
#     4  10  20  39  65  88 121 161 210 253 293 358
#     4   9  18  34  66  95 114 146 205 265 298 338
#     4  12  27  41  59  92 133 167 195 244 315 376
#
# _framework density 22.505275999999999
#
# number of rings (size 3 to 8) (size 9 to 14) (size 15 to 20)
#    1.500    0.500    0.000    3.750    3.500    2.000 
#    0.000    0.000    0.000   25.500    0.000    0.000 
#    0.000    0.000    0.000    0.000    0.000    0.000 
#
# Total GULP energy -89344.198529 kJ/mol
# GULP energy per Si atom -5584.012408 kJ/mol
# Density = 2.245405 g / cm^3
# Si number density = 22.505276 Si / 1000 Ang^3
#
#
#
# Elastic Constant Matrix: (Units=GPa)
#
#
# Indices 1 2 3 4 5 6 
#
# 1 139.7535 -3.8128 50.5985 0.0000 6.6111 0.0000
# 2 -3.8128 33.5483 22.2958 0.0000 8.0856 0.0000
# 3 50.5985 22.2958 114.8253 0.0000 -11.9865 0.0000
# 4 0.0000 0.0000 0.0000 13.6500 0.0000 3.8904
# 5 6.6111 8.0856 -11.9865 0.0000 37.2791 0.0000
# 6 0.0000 0.0000 0.0000 3.8904 0.0000 31.3643
#
#
#
# Elastic Compliance Matrix: (Units=1/GPa)
#
#
# Indices 1 2 3 4 5 6 
#
# 1 0.009765 0.006362 -0.006067 0.000000 -0.005062 0.000000
# 2 0.006362 0.042299 -0.012512 0.000000 -0.014326 0.000000
# 3 -0.006067 -0.012512 0.014701 0.000000 0.008516 0.000000
# 4 0.000000 0.000000 0.000000 0.075945 0.000000 -0.009420
# 5 -0.005062 -0.014326 0.008516 0.000000 0.033568 0.000000
# 6 0.000000 0.000000 0.000000 -0.009420 0.000000 0.033052
#
#
# Mechanical properties :
#
#
# Convention : Reuss Voigt Hill
#
# Bulk Modulus (GPa) = 23.62359 47.36556 35.49458
# Shear Modulus (GPa) = 20.17157 31.06170 25.61664
#
# Velocity S-wave (km/s) = 2.99708 3.71913 3.37746
# Velocity P-wave (km/s) = 4.74303 6.28766 5.56916
#
# Compressibility (1/GPa) = 0.04233057
#
# Stress axis : x y z
#
# Youngs Moduli (GPa) = 102.40677 23.64131 68.02384
#
# Poissons Ratio (x) = -0.15040 0.41268
# Poissons Ratio (y) = -0.65149 0.85112
# Poissons Ratio (z) = 0.62127 0.29580
#
# Static dielectric constant tensor:
#      x y z
#    x 1.962360 0.000000 0.067100 
#    y 0.000000 1.764950 0.000000 
#    z 0.067100 0.000000 1.809970 
# 
# From -- ./inp_files/14870.got.cif
#   From: 2010.05.17/outbox.cif.g08.bks.cpg/sg12_8_cif.got.tgz:14870.got - 2010.06.03 13:09:07.
