data_PCOD9203108
_publ_section_title
;
Structure prediction by ZEFSAII (Michael W. Deem and Ramdas Pophale) SiO2 
 PCOD9203108
Probable space group: C 2/M
;
_chemical_formula_sum "Si O2"
_cell_formula_units_Z 44
_cell_length_a 23.057236
_cell_length_b 14.642500
_cell_length_c 18.653572
_cell_angle_alpha 90.000000
_cell_angle_beta 162.941568
_cell_angle_gamma 90.000000
_cell_volume 1847.420984
_symmetry_space_group_name_H-M "C 2/M"
_symmetry_group_IT_number 12
_symmetry_cell_setting 'monoclinic'
loop_
_space_group_symop_operation_xyz
x,y,z
-x,y,-z
-x,-y,-z
x,-y,z
1/2+x,1/2+y,z
1/2-x,1/2+y,-z
1/2-x,1/2-y,-z
1/2+x,1/2-y,z
loop_
_atom_site_type_symbol
_atom_site_label
_atom_site_fract_x
_atom_site_fract_y
_atom_site_fract_z
Si Si1 0.787192 0.500000 0.059034
Si Si2 0.856137 0.751116 0.548757
Si Si3 0.064119 0.897621 0.157687
Si Si4 0.929506 0.391567 0.837363
Si Si5 0.848982 0.649462 0.257365
Si Si6 0.219732 0.672294 0.051707
O O1 0.851766 0.579080 0.195176
O O2 0.731441 0.581402 0.934509
O O3 0.750000 0.750000 0.500000
O O4 0.752552 0.667010 0.386123
O O5 0.781051 0.844301 0.425680
O O6 0.077116 0.732911 0.832323
O O7 0.110912 0.000000 0.240267
O O8 0.000000 0.903006 0.000000
O O9 0.875710 0.859269 0.977697
O O10 0.912263 0.500000 0.812536
O O11 0.085985 0.358805 0.962272
O O12 0.000000 0.364703 0.000000
O O13 0.000000 0.625968 0.500000
O O14 0.880049 0.755003 0.270150
#
# Coordination Sequence:
#
# PCOD9203108 Si02
#       6
#     4   8   8   8   8   8
#     4  12  27  48  71  97 144 195 238 293 350 424
#     4  10  21  38  67 102 136 169 227 294 357 407
#     4  11  24  40  69 105 135 173 233 298 359 416
#     4  10  20  38  67 103 138 176 222 287 360 423
#     4  12  27  47  72 102 144 194 242 284 351 433
#     4  11  25  45  71 103 141 188 235 297 358 410
#
# _framework density 23.816986
#
# number of rings (size 3 to 8) (size 9 to 14) (size 15 to 20)
#    0.000    1.091    5.455    1.364    3.818    0.727 
#    1.636    0.455    4.000    0.000    0.000    0.000 
#    0.000    0.000    0.000    0.000    0.000    0.000 
#
# Total GULP energy -122610.936693 kJ/mol
# GULP energy per Si atom -5573.224395 kJ/mol
# Density = 2.376278 g / cm^3
# Si number density = 23.816986 Si / 1000 Ang^3
#
#
#
# Elastic Constant Matrix: (Units=GPa)
#
#
# Indices 1 2 3 4 5 6 
#
# 1 114.0027 56.2297 43.7737 -0.0088 -16.2781 -0.0096
# 2 56.2297 155.8117 44.4420 -0.0142 -20.9512 -0.0150
# 3 43.7737 44.4420 87.4170 -0.0104 -6.6946 -0.0139
# 4 -0.0088 -0.0142 -0.0104 -13.5914 -0.0088 -31.7997
# 5 -16.2781 -20.9512 -6.6946 -0.0088 41.2189 -0.0086
# 6 -0.0096 -0.0150 -0.0139 -31.7997 -0.0086 32.5928
#
#
#
# Elastic Compliance Matrix: (Units=1/GPa)
#
#
# Indices 1 2 3 4 5 6 
#
# 1 0.012261 -0.002772 -0.004524 -0.000002 0.002699 -0.000001
# 2 -0.002772 0.008585 -0.002761 -0.000004 0.002821 -0.000001
# 3 -0.004524 -0.002761 0.015051 -0.000004 -0.000745 0.000000
# 4 -0.000002 -0.000004 -0.000004 -0.022413 -0.000013 -0.021867
# 5 0.002699 0.002821 -0.000745 -0.000013 0.026639 -0.000004
# 6 -0.000001 -0.000001 0.000000 -0.021867 -0.000004 0.009346
#
#
# Mechanical properties :
#
#
# Convention : Reuss Voigt Hill
#
# Bulk Modulus (GPa) = 63.35193 71.79138 67.57165
# Shear Modulus (GPa) = 66.80568 26.22980 46.51774
#
# Velocity S-wave (km/s) = 5.30193 3.32219 4.42422
# Velocity P-wave (km/s) = 8.00861 6.70256 7.38452
#
# Compressibility (1/GPa) = 0.01578484
#
# Stress axis : x y z
#
# Youngs Moduli (GPa) = 81.55820 116.48341 66.43989
#
# Poissons Ratio (x) = 0.32284 0.30058
# Poissons Ratio (y) = 0.22605 0.18341
# Poissons Ratio (z) = 0.36897 0.32157
#
# Static dielectric constant tensor:
#      x y z
#    x 2.016820 0.000000 0.087650 
#    y 0.000000 1.908780 0.000000 
#    z 0.087650 0.000000 1.901790 
# 
# From -- ./inp_files/290195.got.cif
#   From: 2010.05.17/outbox.cif.g08.bks.cpg/sg12_146_cif.got.tgz:290195.got - 2010.06.03 13:09:07.
