data_PCOD9203557
_publ_section_title
;
Structure prediction by ZEFSAII (Michael W. Deem and Ramdas Pophale) SiO2 
 PCOD9203557
Probable space group: C 2/M
;
_chemical_formula_sum "Si O2"
_cell_formula_units_Z 42
_cell_length_a 19.328893
_cell_length_b 9.980142
_cell_length_c 11.837810
_cell_angle_alpha 90.000000
_cell_angle_beta 68.184677
_cell_angle_gamma 90.000000
_cell_volume 2120.039112
_symmetry_space_group_name_H-M "C 2/M"
_symmetry_group_IT_number 12
_symmetry_cell_setting 'monoclinic'
loop_
_space_group_symop_operation_xyz
x,y,z
-x,y,-z
-x,-y,-z
x,-y,z
1/2+x,1/2+y,z
1/2-x,1/2+y,-z
1/2-x,1/2-y,-z
1/2+x,1/2-y,z
loop_
_atom_site_type_symbol
_atom_site_label
_atom_site_fract_x
_atom_site_fract_y
_atom_site_fract_z
Si Si1 0.684140 0.155232 0.398801
Si Si2 0.448900 0.738547 0.368690
Si Si3 0.322679 0.661826 0.989491
Si Si4 0.344050 0.339541 0.241474
Si Si5 0.597753 0.146813 0.217480
Si Si6 0.000000 0.000000 0.500000
O O1 0.622631 0.223714 0.512844
O O2 0.767329 0.214027 0.344450
O O3 0.654127 0.158491 0.288499
O O4 0.688316 0.000000 0.431190
O O5 0.415429 0.710652 0.265369
O O6 0.514585 0.845444 0.316848
O O7 0.485638 0.615402 0.411827
O O8 0.313751 0.500000 0.977932
O O9 0.386755 0.728690 0.873952
O O10 0.250000 0.750000 0.000000
O O11 0.340890 0.686063 0.109985
O O12 0.341890 0.500000 0.255979
O O13 0.610500 0.000000 0.156306
#
# Coordination Sequence:
#
# PCOD9203557 Si02
#       6
#     8   8   8   8   8   2
#     4  10  20  39  64  89 121 168 212 261 320 380
#     4  12  23  40  62  95 131 167 214 261 323 383
#     4  11  23  42  68  95 125 169 216 265 324 381
#     4  10  22  40  63  92 129 166 213 265 319 385
#     4  11  23  41  67  92 129 171 218 261 318 388
#     4  12  24  36  62  94 136 164 208 266 320 386
#
# _framework density 19.810956000000001
#
# number of rings (size 3 to 8) (size 9 to 14) (size 15 to 20)
#    0.000    1.143    4.762    1.714    1.333    2.286 
#    0.000    6.667    0.000    0.000    0.000    0.000 
#    0.000    0.000    0.000    0.000    0.000    0.000 
#
# Total GULP energy -116909.270992 kJ/mol
# GULP energy per Si atom -5567.108142 kJ/mol
# Density = 1.976586 g / cm^3
# Si number density = 19.810956 Si / 1000 Ang^3
#
#
#
# Elastic Constant Matrix: (Units=GPa)
#
#
# Indices 1 2 3 4 5 6 
#
# 1 91.4219 23.0988 11.8490 0.0000 13.4713 0.0000
# 2 23.0988 100.2363 37.4904 0.0000 9.5433 0.0000
# 3 11.8490 37.4904 58.9535 0.0000 4.2287 0.0000
# 4 0.0000 0.0000 0.0000 -0.7174 0.0000 -22.6330
# 5 13.4713 9.5433 4.2287 0.0000 31.7310 0.0000
# 6 0.0000 0.0000 0.0000 -22.6330 0.0000 180.3522
#
#
#
# Elastic Compliance Matrix: (Units=1/GPa)
#
#
# Indices 1 2 3 4 5 6 
#
# 1 0.012228 -0.002091 -0.000808 0.000000 -0.004455 0.000000
# 2 -0.002091 0.013709 -0.008143 0.000000 -0.002150 0.000000
# 3 -0.000808 -0.008143 0.022317 0.000000 -0.000182 0.000000
# 4 0.000000 0.000000 0.000000 -0.281077 0.000000 -0.035273
# 5 -0.004455 -0.002150 -0.000182 0.000000 0.034077 0.000000
# 6 0.000000 0.000000 0.000000 -0.035273 0.000000 0.001118
#
#
# Mechanical properties :
#
#
# Convention : Reuss Voigt Hill
#
# Bulk Modulus (GPa) = 38.21533 43.94313 41.07923
# Shear Modulus (GPa) = -29.97243 54.15138 12.08948
#
# Velocity S-wave (km/s) = -3.89385 5.23387 2.47299
# Velocity P-wave (km/s) = 0.94032 7.66511 5.37911
#
# Compressibility (1/GPa) = 0.02616751
#
# Stress axis : x y z
#
# Youngs Moduli (GPa) = 81.78045 72.94558 44.80969
#
# Poissons Ratio (x) = 0.15256 0.03621
# Poissons Ratio (y) = 0.17104 0.36490
# Poissons Ratio (z) = 0.06609 0.59402
#
# Static dielectric constant tensor:
#      x y z
#    x 1.734040 0.000000 -0.036380 
#    y 0.000000 1.681570 0.000000 
#    z -0.036380 0.000000 1.719160 
# 
# From -- ./inp_files/163037.got.cif
#   From: 2010.05.17/outbox.cif.g08.bks.cpg/sg12_82_cif.got.tgz:163037.got - 2010.06.03 13:09:07.
