data_PCOD9203600
_publ_section_title
;
Structure prediction by ZEFSAII (Michael W. Deem and Ramdas Pophale) SiO2 
 PCOD9203600
Probable space group: C 2/M
;
_chemical_formula_sum "Si O2"
_cell_formula_units_Z 48
_cell_length_a 30.359952
_cell_length_b 7.815658
_cell_length_c 18.850277
_cell_angle_alpha 90.000000
_cell_angle_beta 33.576808
_cell_angle_gamma 90.000000
_cell_volume 2473.729351
_symmetry_space_group_name_H-M "C 2/M"
_symmetry_group_IT_number 12
_symmetry_cell_setting 'monoclinic'
loop_
_space_group_symop_operation_xyz
x,y,z
-x,y,-z
-x,-y,-z
x,-y,z
1/2+x,1/2+y,z
1/2-x,1/2+y,-z
1/2-x,1/2-y,-z
1/2+x,1/2-y,z
loop_
_atom_site_type_symbol
_atom_site_label
_atom_site_fract_x
_atom_site_fract_y
_atom_site_fract_z
Si Si1 0.228726 0.304821 0.803821
Si Si2 0.711509 0.197876 0.126065
Si Si3 0.124150 0.206082 0.498068
Si Si4 0.970750 0.792746 0.617335
Si Si5 0.841018 0.305199 0.390495
Si Si6 0.386473 0.500000 0.085099
Si Si7 0.571975 0.500000 0.805561
O O1 0.205276 0.500000 0.817599
O O2 0.253917 0.296382 0.852362
O O3 0.306798 0.260239 0.652149
O O4 0.161327 0.167103 0.876577
O O5 0.616746 0.225010 0.249834
O O6 0.729079 0.000000 0.115777
O O7 0.750000 0.250000 0.000000
O O8 0.142701 0.292052 0.547595
O O9 0.038937 0.258995 0.581031
O O10 0.122670 0.000000 0.510726
O O11 0.000000 0.739889 0.500000
O O12 0.966456 0.000000 0.623325
O O13 0.852812 0.500000 0.350056
O O14 0.750000 0.250000 0.500000
O O15 0.895918 0.168140 0.277160
O O16 0.393569 0.500000 0.160881
O O17 0.476586 0.500000 0.935945
#
# Coordination Sequence:
#
# PCOD9203600 Si02
#       7
#     8   8   8   8   8   4   4
#     4  11  23  43  70  99 132 177 230 271 333 409
#     4  12  25  42  64  94 134 181 230 281 336 401
#     4  10  21  39  68  99 135 177 221 281 345 402
#     4  10  20  39  64  93 133 172 219 284 337 395
#     4  12  24  42  70 101 139 175 219 282 341 401
#     4  11  26  46  72  97 135 186 219 275 336 412
#     4  11  26  48  68 102 140 170 228 275 340 408
#
# _framework density 19.403901000000001
#
# number of rings (size 3 to 8) (size 9 to 14) (size 15 to 20)
#    0.000    1.000    4.167    2.500    1.167    5.000 
#    0.000    1.667    0.000    0.000    0.000    0.000 
#    0.000    0.000    0.000    0.000    0.000    0.000 
#
# Total GULP energy -134245.283402 kJ/mol
# GULP energy per Si atom -5593.553475 kJ/mol
# Density = 1.935974 g / cm^3
# Si number density = 19.403901 Si / 1000 Ang^3
#
#
#
# Elastic Constant Matrix: (Units=GPa)
#
#
# Indices 1 2 3 4 5 6 
#
# 1 132.0063 43.9165 64.2231 -0.0047 -6.9700 0.0026
# 2 43.9165 121.7999 55.4159 -0.0109 -3.5523 0.0062
# 3 64.2231 55.4159 138.4582 -0.0187 5.5193 0.0118
# 4 -0.0047 -0.0109 -0.0187 30.1296 0.0071 -1.9184
# 5 -6.9700 -3.5523 5.5193 0.0071 30.5466 -0.0035
# 6 0.0026 0.0062 0.0118 -1.9184 -0.0035 22.1658
#
#
#
# Elastic Compliance Matrix: (Units=1/GPa)
#
#
# Indices 1 2 3 4 5 6 
#
# 1 0.010364 -0.001725 -0.004233 -0.000002 0.002929 0.000002
# 2 -0.001725 0.010437 -0.003434 0.000001 0.001441 -0.000001
# 3 -0.004233 -0.003434 0.010692 0.000005 -0.003297 -0.000004
# 4 -0.000002 0.000001 0.000005 0.033374 -0.000009 0.002888
# 5 0.002929 0.001441 -0.003297 -0.000009 0.034168 0.000006
# 6 0.000002 -0.000001 -0.000004 0.002888 0.000006 0.045364
#
#
# Mechanical properties :
#
#
# Convention : Reuss Voigt Hill
#
# Bulk Modulus (GPa) = 78.69988 79.93062 79.31525
# Shear Modulus (GPa) = 29.86490 31.81567 30.84028
#
# Velocity S-wave (km/s) = 3.92742 4.05366 3.99104
# Velocity P-wave (km/s) = 7.82387 7.94934 7.88686
#
# Compressibility (1/GPa) = 0.01270650
#
# Stress axis : x y z
#
# Youngs Moduli (GPa) = 96.49149 95.81477 93.52781
#
# Poissons Ratio (x) = 0.16530 0.39594
# Poissons Ratio (y) = 0.16647 0.32121
# Poissons Ratio (z) = 0.40848 0.32906
#
# Static dielectric constant tensor:
#      x y z
#    x 1.668960 0.000000 0.013950 
#    y 0.000000 1.693390 0.000000 
#    z 0.013950 0.000000 1.638440 
# 
# From -- ./inp_files/295387.got.cif
#   From: 2010.05.17/outbox.cif.g08.bks.cpg/sg12_148_cif.got.tgz:295387.got - 2010.06.03 13:09:07.
