data_PCOD9203717
_publ_section_title
;
Structure prediction by ZEFSAII (Michael W. Deem and Ramdas Pophale) SiO2 
 PCOD9203717
Probable space group: C 2/M
;
_chemical_formula_sum "Si O2"
_cell_formula_units_Z 64
_cell_length_a 17.621582
_cell_length_b 13.409627
_cell_length_c 23.419175
_cell_angle_alpha 90.000000
_cell_angle_beta 152.047880
_cell_angle_gamma 90.000000
_cell_volume 2593.935818
_symmetry_space_group_name_H-M "C 2/M"
_symmetry_group_IT_number 12
_symmetry_cell_setting 'monoclinic'
loop_
_space_group_symop_operation_xyz
x,y,z
-x,y,-z
-x,-y,-z
x,-y,z
1/2+x,1/2+y,z
1/2-x,1/2+y,-z
1/2-x,1/2-y,-z
1/2+x,1/2-y,z
loop_
_atom_site_type_symbol
_atom_site_label
_atom_site_fract_x
_atom_site_fract_y
_atom_site_fract_z
Si Si1 0.675286 0.318989 0.198043
Si Si2 0.329188 0.381191 0.985108
Si Si3 0.241660 0.882703 0.939146
Si Si4 0.990541 0.678872 0.621373
Si Si5 0.281858 0.315693 0.642776
Si Si6 0.003741 0.885699 0.689220
Si Si7 0.947274 0.385609 0.713740
Si Si8 0.420103 0.888909 0.883873
O O1 0.487009 0.339653 0.057782
O O2 0.824992 0.360139 0.261484
O O3 0.697151 0.348479 0.278386
O O4 0.698978 0.200450 0.206883
O O5 0.346877 0.500000 0.994575
O O6 0.338489 0.342618 0.056913
O O7 0.140941 0.361593 0.845481
O O8 0.172347 0.853889 0.831898
O O9 0.208965 0.000000 0.919787
O O10 0.433663 0.873198 0.063932
O O11 0.969024 0.795903 0.623569
O O12 0.908839 0.622881 0.620594
O O13 0.898619 0.669531 0.500689
O O14 0.387167 0.377079 0.666772
O O15 0.346309 0.201172 0.677896
O O16 0.007090 0.000000 0.670653
O O17 0.923182 0.500000 0.717441
O O18 0.353451 0.000000 0.833000
O O19 0.500000 0.884344 0.000000
#
# Coordination Sequence:
#
# PCOD9203717 Si02
#       8
#     8   8   8   8   8   8   8   8
#     4  12  25  39  64  90 133 172 206 253 322 377
#     4  10  22  39  63  96 128 162 208 259 318 385
#     4   9  17  33  57  87 120 151 196 253 306 366
#     4  11  26  42  59  92 128 168 216 258 310 375
#     4  11  24  42  65  92 124 166 217 263 308 375
#     4  10  20  39  66  91 118 158 211 265 313 366
#     4  10  23  44  68  94 124 162 212 268 321 374
#     4  10  22  37  57  90 129 166 204 249 310 383
#
# _framework density 24.672930999999998
#
# number of rings (size 3 to 8) (size 9 to 14) (size 15 to 20)
#    0.000    1.625    1.250    3.375    5.250    6.500 
#    0.000    1.250    0.000    4.500    0.000    0.000 
#    0.000    0.000    0.000    0.000    0.000    0.000 
#
# Total GULP energy -178853.358197 kJ/mol
# GULP energy per Si atom -5589.167444 kJ/mol
# Density = 2.461677 g / cm^3
# Si number density = 24.672931 Si / 1000 Ang^3
#
#
#
# Elastic Constant Matrix: (Units=GPa)
#
#
# Indices 1 2 3 4 5 6 
#
# 1 91.1122 -15.8264 -4.5493 -0.0009 5.8343 -0.0003
# 2 -15.8264 92.1499 -8.2059 0.0037 10.3652 0.0023
# 3 -4.5493 -8.2059 55.2465 0.0075 -1.5954 0.0047
# 4 -0.0009 0.0037 0.0075 9.4922 0.0019 -4.2522
# 5 5.8343 10.3652 -1.5954 0.0019 38.3895 0.0003
# 6 -0.0003 0.0023 0.0047 -4.2522 0.0003 7.5818
#
#
#
# Elastic Compliance Matrix: (Units=1/GPa)
#
#
# Indices 1 2 3 4 5 6 
#
# 1 0.011599 0.002367 0.001239 -0.000001 -0.002350 -0.000002
# 2 0.002367 0.011814 0.001849 -0.000010 -0.003473 -0.000010
# 3 0.001239 0.001849 0.018480 -0.000027 0.000080 -0.000027
# 4 -0.000001 -0.000010 -0.000027 0.140701 -0.000006 0.078912
# 5 -0.002350 -0.003473 0.000080 -0.000006 0.027347 -0.000004
# 6 -0.000002 -0.000010 -0.000027 0.078912 -0.000004 0.176153
#
#
# Mechanical properties :
#
#
# Convention : Reuss Voigt Hill
#
# Bulk Modulus (GPa) = 18.93864 20.14947 19.54405
# Shear Modulus (GPa) = 12.72965 28.89870 20.81418
#
# Velocity S-wave (km/s) = 2.27389 3.42610 2.90764
# Velocity P-wave (km/s) = 3.81924 4.88213 4.38303
#
# Compressibility (1/GPa) = 0.05280210
#
# Stress axis : x y z
#
# Youngs Moduli (GPa) = 86.21470 84.64785 54.11336
#
# Poissons Ratio (x) = -0.20034 -0.06704
# Poissons Ratio (y) = -0.20405 -0.10007
# Poissons Ratio (z) = -0.10680 -0.15654
#
# Static dielectric constant tensor:
#      x y z
#    x 1.959540 0.000000 0.028660 
#    y 0.000000 1.935320 0.000000 
#    z 0.028660 0.000000 2.065540 
# 
# From -- ./inp_files/344083.got.cif
#   From: 2010.05.17/outbox.cif.g08.bks.cpg/sg12_173_cif.got.tgz:344083.got - 2010.06.03 13:09:07.
