data_PCOD9203216
_publ_section_title
;
Structure prediction by ZEFSAII (Michael W. Deem and Ramdas Pophale) SiO2 
 PCOD9203216
Probable space group: C 2/M
;
_chemical_formula_sum "Si O2"
_cell_formula_units_Z 56
_cell_length_a 19.551015
_cell_length_b 7.540959
_cell_length_c 23.961786
_cell_angle_alpha 90.000000
_cell_angle_beta 139.533040
_cell_angle_gamma 90.000000
_cell_volume 2292.799573
_symmetry_space_group_name_H-M "C 2/M"
_symmetry_group_IT_number 12
_symmetry_cell_setting 'monoclinic'
loop_
_space_group_symop_operation_xyz
x,y,z
-x,y,-z
-x,-y,-z
x,-y,z
1/2+x,1/2+y,z
1/2-x,1/2+y,-z
1/2-x,1/2-y,-z
1/2+x,1/2-y,z
loop_
_atom_site_type_symbol
_atom_site_label
_atom_site_fract_x
_atom_site_fract_y
_atom_site_fract_z
Si Si1 0.785665 0.203748 0.765109
Si Si2 0.342129 0.208054 0.679926
Si Si3 0.165483 0.788298 0.495324
Si Si4 0.055708 0.298346 0.782879
Si Si5 0.045260 0.214787 0.589755
Si Si6 0.784840 0.781701 0.887586
Si Si7 0.631159 0.710887 0.946316
O O1 0.842205 0.279884 0.746268
O O2 0.659884 0.215238 0.676803
O O3 0.810985 0.278998 0.841758
O O4 0.818020 0.000000 0.786914
O O5 0.229726 0.277845 0.589442
O O6 0.440596 0.288568 0.706879
O O7 0.344617 0.000000 0.667422
O O8 0.250000 0.750000 0.500000
O O9 0.045638 0.723221 0.423386
O O10 0.153695 0.000000 0.491294
O O11 0.052701 0.500000 0.760005
O O12 0.164690 0.220361 0.827306
O O13 0.066271 0.301170 0.857016
O O14 0.000000 0.259808 0.500000
O O15 0.056402 0.000000 0.597349
O O16 0.864838 0.730480 0.986754
O O17 0.782019 0.000000 0.887320
O O18 0.609896 0.500000 0.930842
O O19 0.750000 0.750000 0.000000
#
# Coordination Sequence:
#
# PCOD9203216 Si02
#       7
#     8   8   8   8   8   8   8
#     4  11  22  35  56  82 108 138 182 229 263 310
#     4  10  21  39  57  75 109 151 177 211 273 328
#     4  10  22  38  58  80 107 142 178 221 267 318
#     4   9  18  34  57  79 104 140 181 218 262 319
#     4  10  20  39  59  75 105 146 182 213 265 326
#     4   8  17  33  53  79 106 137 174 216 265 315
#     4   9  16  31  54  78 108 139 174 217 265 317
#
# _framework density 24.424289999999999
#
# number of rings (size 3 to 8) (size 9 to 14) (size 15 to 20)
#    0.000    2.429    1.429    1.714    2.000    2.000 
#    0.000    7.857    0.000    4.286    0.000    0.000 
#    0.000    0.000    0.000    0.000    0.000    0.000 
#
# Total GULP energy -156208.824567 kJ/mol
# GULP energy per Si atom -5578.886592 kJ/mol
# Density = 2.436870 g / cm^3
# Si number density = 24.424290 Si / 1000 Ang^3
#
#
#
# Elastic Constant Matrix: (Units=GPa)
#
#
# Indices 1 2 3 4 5 6 
#
# 1 84.5133 -9.1924 0.2955 0.0000 -8.2476 0.0000
# 2 -9.1924 67.3586 -6.8160 -0.0001 1.1160 0.0002
# 3 0.2955 -6.8160 13.3004 0.0000 -17.6298 0.0000
# 4 0.0000 -0.0001 0.0000 11.1639 0.0000 -6.4568
# 5 -8.2476 1.1160 -17.6298 0.0000 45.9927 0.0000
# 6 0.0000 0.0002 0.0000 -6.4568 0.0000 16.7263
#
#
#
# Elastic Compliance Matrix: (Units=1/GPa)
#
#
# Indices 1 2 3 4 5 6 
#
# 1 0.012578 0.002427 0.007880 0.000000 0.005217 0.000000
# 2 0.002427 0.016837 0.017503 0.000000 0.006736 0.000000
# 3 0.007880 0.017503 0.173385 0.000000 0.067450 0.000000
# 4 0.000000 0.000000 0.000000 0.115322 0.000000 0.044517
# 5 0.005217 0.006736 0.067450 0.000000 0.048369 0.000000
# 6 0.000000 0.000000 0.000000 0.044517 0.000000 0.076971
#
#
# Mechanical properties :
#
#
# Convention : Reuss Voigt Hill
#
# Bulk Modulus (GPa) = 3.86967 14.86071 9.36519
# Shear Modulus (GPa) = 10.54892 26.83560 18.69226
#
# Velocity S-wave (km/s) = 2.08048 3.31830 2.76943
# Velocity P-wave (km/s) = 2.71275 4.55841 3.75087
#
# Compressibility (1/GPa) = 0.25842018
#
# Stress axis : x y z
#
# Youngs Moduli (GPa) = 79.50347 59.39404 5.76750
#
# Poissons Ratio (x) = -0.14418 -0.04545
# Poissons Ratio (y) = -0.19299 -0.10095
# Poissons Ratio (z) = -0.62648 -1.03956
#
# Static dielectric constant tensor:
#      x y z
#    x 1.972050 0.000000 -0.023750 
#    y 0.000000 2.022140 0.000000 
#    z -0.023750 0.000000 2.004160 
# 
# From -- ./inp_files/342515.got.cif
#   From: 2010.05.17/outbox.cif.g08.bks.cpg/sg12_172_cif.got.tgz:342515.got - 2010.06.03 13:09:07.
