data_PCOD9203211
_publ_section_title
;
Structure prediction by ZEFSAII (Michael W. Deem and Ramdas Pophale) SiO2 
 PCOD9203211
Probable space group: C 2/M
;
_chemical_formula_sum "Si O2"
_cell_formula_units_Z 48
_cell_length_a 13.194754
_cell_length_b 17.614440
_cell_length_c 12.581388
_cell_angle_alpha 90.000000
_cell_angle_beta 105.341238
_cell_angle_gamma 90.000000
_cell_volume 2819.948305
_symmetry_space_group_name_H-M "C 2/M"
_symmetry_group_IT_number 12
_symmetry_cell_setting 'monoclinic'
loop_
_space_group_symop_operation_xyz
x,y,z
-x,y,-z
-x,-y,-z
x,-y,z
1/2+x,1/2+y,z
1/2-x,1/2+y,-z
1/2-x,1/2-y,-z
1/2+x,1/2-y,z
loop_
_atom_site_type_symbol
_atom_site_label
_atom_site_fract_x
_atom_site_fract_y
_atom_site_fract_z
Si Si1 0.728732 0.856973 0.796363
Si Si2 0.765368 0.148616 0.403973
Si Si3 0.870194 0.199884 0.641401
Si Si4 0.859252 0.500000 0.570744
Si Si5 0.885670 0.089480 0.023229
Si Si6 0.613318 0.696049 0.770464
Si Si7 0.606351 0.000000 0.671878
O O1 0.807019 0.840505 0.719313
O O2 0.665930 0.778927 0.801404
O O3 0.652066 0.924828 0.739872
O O4 0.797824 0.883832 0.915065
O O5 0.846539 0.157941 0.524067
O O6 0.682164 0.217569 0.386363
O O7 0.825363 0.156730 0.309800
O O8 0.700865 0.072656 0.402134
O O9 0.992025 0.205184 0.703311
O O10 0.858655 0.500000 0.442026
O O11 0.980616 0.500000 0.638446
O O12 0.880422 0.143104 0.124461
O O13 0.871870 0.000000 0.045103
O O14 0.000000 0.097700 0.000000
#
# Coordination Sequence:
#
# PCOD9203211 Si02
#       7
#     8   8   8   4   8   8   4
#     4  11  21  40  63  87 118 155 204 248 291 353
#     4  10  22  37  59  88 126 154 195 246 296 361
#     4  10  20  39  58  89 120 156 198 240 297 353
#     4  11  22  38  59  92 122 160 194 241 298 363
#     4  11  23  40  63  87 119 156 202 253 296 351
#     4  11  23  38  63  87 119 165 193 248 302 352
#     4  11  22  38  65  89 120 159 200 243 296 348
#
# _framework density 17.021588999999999
#
# number of rings (size 3 to 8) (size 9 to 14) (size 15 to 20)
#    0.000    1.333    4.167    2.000    1.167    0.000 
#    1.500    0.833    0.000    1.000    0.000    0.000 
#    0.000    0.000    0.000    0.000    0.000    0.000 
#
# Total GULP energy -134055.337721 kJ/mol
# GULP energy per Si atom -5585.639072 kJ/mol
# Density = 1.698285 g / cm^3
# Si number density = 17.021589 Si / 1000 Ang^3
#
#
#
# Elastic Constant Matrix: (Units=GPa)
#
#
# Indices 1 2 3 4 5 6 
#
# 1 108.5536 82.6885 82.8014 0.0000 12.1060 0.0000
# 2 82.6885 136.4213 91.1892 0.0000 -3.3730 0.0000
# 3 82.8014 91.1892 144.4622 0.0000 15.6594 0.0000
# 4 0.0000 0.0000 0.0000 24.4199 0.0000 -1.6168
# 5 12.1060 -3.3730 15.6594 0.0000 32.2071 0.0000
# 6 0.0000 0.0000 0.0000 -1.6168 0.0000 17.6640
#
#
#
# Elastic Compliance Matrix: (Units=1/GPa)
#
#
# Indices 1 2 3 4 5 6 
#
# 1 0.021297 -0.009260 -0.005689 0.000000 -0.006209 0.000000
# 2 -0.009260 0.017706 -0.006806 0.000000 0.008644 0.000000
# 3 -0.005689 -0.006806 0.015122 0.000000 -0.005927 0.000000
# 4 0.000000 0.000000 0.000000 0.041200 0.000000 0.003771
# 5 -0.006209 0.008644 -0.005927 0.000000 0.037170 0.000000
# 6 0.000000 0.000000 0.000000 0.003771 0.000000 0.056958
#
#
# Mechanical properties :
#
#
# Convention : Reuss Voigt Hill
#
# Bulk Modulus (GPa) = 94.20344 100.31058 97.25701
# Shear Modulus (GPa) = 21.14166 23.70873 22.42519
#
# Velocity S-wave (km/s) = 3.52810 3.73616 3.63362
# Velocity P-wave (km/s) = 8.48883 8.81312 8.65250
#
# Compressibility (1/GPa) = 0.01061532
#
# Stress axis : x y z
#
# Youngs Moduli (GPa) = 46.95494 56.47805 66.12999
#
# Poissons Ratio (x) = 0.52296 0.37621
# Poissons Ratio (y) = 0.43478 0.45010
# Poissons Ratio (z) = 0.26712 0.38441
#
# Static dielectric constant tensor:
#      x y z
#    x 1.542020 0.000000 -0.001360 
#    y 0.000000 1.564010 0.000000 
#    z -0.001360 0.000000 1.556720 
# 
# From -- ./inp_files/131688.got.cif
#   From: 2010.05.17/outbox.cif.g08.bks.cpg/sg12_66_cif.got.tgz:131688.got - 2010.06.03 13:09:07.
