data_PCOD9203586
_publ_section_title
;
Structure prediction by ZEFSAII (Michael W. Deem and Ramdas Pophale) SiO2 
 PCOD9203586
Probable space group: C 2/M
;
_chemical_formula_sum "Si O2"
_cell_formula_units_Z 56
_cell_length_a 15.405466
_cell_length_b 8.800478
_cell_length_c 24.826783
_cell_angle_alpha 90.000000
_cell_angle_beta 121.097118
_cell_angle_gamma 90.000000
_cell_volume 2882.199089
_symmetry_space_group_name_H-M "C 2/M"
_symmetry_group_IT_number 12
_symmetry_cell_setting 'monoclinic'
loop_
_space_group_symop_operation_xyz
x,y,z
-x,y,-z
-x,-y,-z
x,-y,z
1/2+x,1/2+y,z
1/2-x,1/2+y,-z
1/2-x,1/2-y,-z
1/2+x,1/2-y,z
loop_
_atom_site_type_symbol
_atom_site_label
_atom_site_fract_x
_atom_site_fract_y
_atom_site_fract_z
Si Si1 0.085846 0.819278 0.796010
Si Si2 0.536093 0.180898 0.147440
Si Si3 0.510096 0.182692 0.661751
Si Si4 0.649045 0.181020 0.994256
Si Si5 0.408648 0.182719 0.430485
Si Si6 0.723827 0.181370 0.433417
Si Si7 0.807043 0.181299 0.880232
O O1 0.059581 0.769435 0.727163
O O2 0.192820 0.743749 0.846002
O O3 0.000289 0.755087 0.808751
O O4 0.093211 0.000000 0.803548
O O5 0.635784 0.254321 0.153659
O O6 0.548641 0.000000 0.157739
O O7 0.445264 0.207955 0.075457
O O8 0.561275 0.219877 0.620918
O O9 0.391102 0.220699 0.619153
O O10 0.519325 0.000000 0.672994
O O11 0.636887 0.256684 0.048576
O O12 0.660785 0.000000 0.004654
O O13 0.750000 0.250000 0.000000
O O14 0.500000 0.228233 0.500000
O O15 0.305491 0.257720 0.417307
O O16 0.399012 0.000000 0.431596
O O17 0.750000 0.250000 0.500000
O O18 0.729892 0.000000 0.439135
O O19 0.806425 0.000000 0.879920
#
# Coordination Sequence:
#
# PCOD9203586 Si02
#       7
#     8   8   8   8   8   8   8
#     4  12  26  44  66  92 127 170 217 265 318 383
#     4  11  24  43  67  95 129 169 215 267 321 379
#     4  10  23  43  64  88 128 170 207 256 317 376
#     4  11  22  38  65  97 130 168 213 266 323 377
#     4  10  20  39  64  92 125 163 201 249 310 369
#     4  11  22  38  63  94 126 162 202 253 308 370
#     4  12  25  42  66  95 130 171 215 266 321 380
#
# _framework density 19.429608000000002
#
# number of rings (size 3 to 8) (size 9 to 14) (size 15 to 20)
#    0.000    1.000    2.857    4.286    0.000    6.571 
#    0.000    2.857    0.000    0.000    0.000    0.000 
#    0.000    0.000    0.000    0.000    0.000    0.000 
#
# Total GULP energy -156680.934499 kJ/mol
# GULP energy per Si atom -5595.747661 kJ/mol
# Density = 1.938539 g / cm^3
# Si number density = 19.429608 Si / 1000 Ang^3
#
#
#
# Elastic Constant Matrix: (Units=GPa)
#
#
# Indices 1 2 3 4 5 6 
#
# 1 113.1002 27.0773 11.2069 0.0000 -22.1709 0.0000
# 2 27.0773 68.8711 34.6328 0.0000 -10.6693 0.0000
# 3 11.2069 34.6328 72.1616 0.0000 -21.1832 0.0000
# 4 0.0000 0.0000 0.0000 32.8825 0.0000 -3.6473
# 5 -22.1709 -10.6693 -21.1832 0.0000 27.8866 0.0000
# 6 0.0000 0.0000 0.0000 -3.6473 0.0000 37.7647
#
#
#
# Elastic Compliance Matrix: (Units=1/GPa)
#
#
# Indices 1 2 3 4 5 6 
#
# 1 0.011594 -0.004719 0.003398 0.000000 0.009993 0.000000
# 2 -0.004719 0.021064 -0.010440 0.000000 -0.003623 0.000000
# 3 0.003398 -0.010440 0.023115 0.000000 0.016266 0.000000
# 4 0.000000 0.000000 0.000000 0.030741 0.000000 0.002969
# 5 0.009993 -0.003623 0.016266 0.000000 0.054774 0.000000
# 6 0.000000 0.000000 0.000000 0.002969 0.000000 0.026766
#
#
# Mechanical properties :
#
#
# Convention : Reuss Voigt Hill
#
# Bulk Modulus (GPa) = 31.00690 44.44078 37.72384
# Shear Modulus (GPa) = 24.71259 31.78781 28.25020
#
# Velocity S-wave (km/s) = 3.57024 4.04920 3.81724
# Velocity P-wave (km/s) = 5.74358 6.69206 6.23588
#
# Compressibility (1/GPa) = 0.03225088
#
# Stress axis : x y z
#
# Youngs Moduli (GPa) = 86.25420 47.47521 43.26106
#
# Poissons Ratio (x) = 0.22402 -0.14698
# Poissons Ratio (y) = 0.40700 0.45164
# Poissons Ratio (z) = -0.29305 0.49563
#
# Static dielectric constant tensor:
#      x y z
#    x 1.654490 0.000000 0.006750 
#    y 0.000000 1.646840 0.000000 
#    z 0.006750 0.000000 1.659370 
# 
# From -- ./inp_files/338989.got.cif
#   From: 2010.05.17/outbox.cif.g08.bks.cpg/sg12_170_cif.got.tgz:338989.got - 2010.06.03 13:09:07.
