data_PCOD9203409
_publ_section_title
;
Structure prediction by ZEFSAII (Michael W. Deem and Ramdas Pophale) SiO2 
 PCOD9203409
Probable space group: C 2/M
;
_chemical_formula_sum "Si O2"
_cell_formula_units_Z 58
_cell_length_a 11.657404
_cell_length_b 17.972419
_cell_length_c 14.874724
_cell_angle_alpha 90.000000
_cell_angle_beta 111.632190
_cell_angle_gamma 90.000000
_cell_volume 2896.937818
_symmetry_space_group_name_H-M "C 2/M"
_symmetry_group_IT_number 12
_symmetry_cell_setting 'monoclinic'
loop_
_space_group_symop_operation_xyz
x,y,z
-x,y,-z
-x,-y,-z
x,-y,z
1/2+x,1/2+y,z
1/2-x,1/2+y,-z
1/2-x,1/2-y,-z
1/2+x,1/2-y,z
loop_
_atom_site_type_symbol
_atom_site_label
_atom_site_fract_x
_atom_site_fract_y
_atom_site_fract_z
Si Si1 0.739014 0.820591 0.738768
Si Si2 0.004215 0.868084 0.863733
Si Si3 0.358316 0.917775 0.991531
Si Si4 0.657296 0.179737 0.308077
Si Si5 0.500000 0.500000 0.000000
Si Si6 0.676791 0.585785 0.768762
Si Si7 0.494851 0.086527 0.391129
Si Si8 0.905942 0.713307 0.133118
O O1 0.787530 0.763285 0.676733
O O2 0.635956 0.878534 0.677018
O O3 0.676351 0.774202 0.802008
O O4 0.857614 0.860306 0.815115
O O5 0.052289 0.883239 0.776535
O O6 0.065960 0.789959 0.909279
O O7 0.038145 0.934857 0.938190
O O8 0.344154 0.850130 0.055656
O O9 0.336172 0.000000 0.026288
O O10 0.500000 0.915698 0.000000
O O11 0.272793 0.909817 0.880003
O O12 0.763518 0.129484 0.295791
O O13 0.599908 0.139530 0.378266
O O14 0.539369 0.184746 0.206552
O O15 0.661055 0.500000 0.740100
O O16 0.500000 0.087808 0.500000
O O17 0.507222 0.000000 0.364365
#
# Coordination Sequence:
#
# PCOD9203409 Si02
#       8
#     8   8   8   8   2   8   8   8
#     4  10  23  40  66  88 123 164 206 251 315 379
#     4  11  25  39  54  82 122 167 212 254 299 358
#     4  10  21  33  51  83 118 156 211 269 313 354
#     4  10  20  39  62  91 120 156 199 252 315 371
#     4  12  28  40  48  84 126 174 218 252 288 348
#     4  11  21  36  56  82 117 162 214 260 300 363
#     4  10  23  43  70 102 125 151 198 258 322 389
#     4  10  21  37  58  84 114 160 212 260 306 356
#
# _framework density 20.021139999999999
#
# number of rings (size 3 to 8) (size 9 to 14) (size 15 to 20)
#    0.000    1.655    3.448    0.414    3.862    3.310 
#    0.000    0.000    0.000    0.000    0.000    2.897 
#    0.000    0.000    0.000    0.000    0.000    0.000 
#
# Total GULP energy -161720.287000 kJ/mol
# GULP energy per Si atom -5576.561621 kJ/mol
# Density = 1.997557 g / cm^3
# Si number density = 20.021140 Si / 1000 Ang^3
#
#
#
# Elastic Constant Matrix: (Units=GPa)
#
#
# Indices 1 2 3 4 5 6 
#
# 1 94.4464 19.4381 12.9127 0.0000 -12.0634 0.0000
# 2 19.4381 126.5475 36.1396 0.0000 -15.4702 0.0000
# 3 12.9127 36.1396 33.2820 0.0000 -12.8026 0.0000
# 4 0.0000 0.0000 0.0000 30.9846 0.0000 -7.9229
# 5 -12.0634 -15.4702 -12.8026 0.0000 23.7943 0.0000
# 6 0.0000 0.0000 0.0000 -7.9229 0.0000 34.4225
#
#
#
# Elastic Compliance Matrix: (Units=1/GPa)
#
#
# Indices 1 2 3 4 5 6 
#
# 1 0.011561 -0.000640 -0.002138 0.000000 0.004294 0.000000
# 2 -0.000640 0.011507 -0.011971 0.000000 0.000716 0.000000
# 3 -0.002138 -0.011971 0.051024 0.000000 0.018587 0.000000
# 4 0.000000 0.000000 0.000000 0.034292 0.000000 0.007893
# 5 0.004294 0.000716 0.018587 0.000000 0.054670 0.000000
# 6 0.000000 0.000000 0.000000 0.007893 0.000000 0.030867
#
#
# Mechanical properties :
#
#
# Convention : Reuss Voigt Hill
#
# Bulk Modulus (GPa) = 22.42505 43.47295 32.94900
# Shear Modulus (GPa) = 20.98331 30.22598 25.60465
#
# Velocity S-wave (km/s) = 3.24088 3.88971 3.58002
# Velocity P-wave (km/s) = 5.02289 6.47563 5.79496
#
# Compressibility (1/GPa) = 0.04459300
#
# Stress axis : x y z
#
# Youngs Moduli (GPa) = 86.50054 86.90601 19.59845
#
# Poissons Ratio (x) = 0.05563 0.04191
# Poissons Ratio (y) = 0.05537 0.23461
# Poissons Ratio (z) = 0.18496 1.04035
#
# Static dielectric constant tensor:
#      x y z
#    x 1.736050 0.000000 -0.017140 
#    y 0.000000 1.734450 0.000000 
#    z -0.017140 0.000000 1.675590 
# 
# From -- ./inp_files/206154.got.cif
#   From: 2010.05.17/outbox.cif.g08.bks.cpg/sg12_104_cif.got.tgz:206154.got - 2010.06.03 13:09:07.
