data_PCOD9203828
_publ_section_title
;
Structure prediction by ZEFSAII (Michael W. Deem and Ramdas Pophale) SiO2 
 PCOD9203828
Probable space group: C 2/M
;
_chemical_formula_sum "Si O2"
_cell_formula_units_Z 44
_cell_length_a 17.882719
_cell_length_b 17.886033
_cell_length_c 6.876665
_cell_angle_alpha 90.000000
_cell_angle_beta 98.268982
_cell_angle_gamma 90.000000
_cell_volume 2176.640970
_symmetry_space_group_name_H-M "C 2/M"
_symmetry_group_IT_number 12
_symmetry_cell_setting 'monoclinic'
loop_
_space_group_symop_operation_xyz
x,y,z
-x,y,-z
-x,-y,-z
x,-y,z
1/2+x,1/2+y,z
1/2-x,1/2+y,-z
1/2-x,1/2-y,-z
1/2+x,1/2-y,z
loop_
_atom_site_type_symbol
_atom_site_label
_atom_site_fract_x
_atom_site_fract_y
_atom_site_fract_z
Si Si1 0.656916 0.838561 0.462921
Si Si2 0.326018 0.000000 0.410273
Si Si3 0.585741 0.627718 0.586408
Si Si4 0.000000 0.632905 0.500000
Si Si5 0.541436 0.000000 0.806245
Si Si6 0.227082 0.766069 0.771795
Si Si7 0.074963 0.000000 0.901753
Si Si8 0.648326 0.500000 0.326498
O O1 0.650299 0.927173 0.462250
O O2 0.570798 0.816319 0.467632
O O3 0.699715 0.804224 0.297617
O O4 0.708561 0.812668 0.662201
O O5 0.368072 0.000000 0.215080
O O6 0.237135 0.000000 0.382908
O O7 0.500000 0.653571 0.500000
O O8 0.653263 0.684314 0.679613
O O9 0.577650 0.571562 0.765191
O O10 0.614157 0.573814 0.419720
O O11 0.017363 0.575971 0.684459
O O12 0.500000 0.000000 0.000000
O O13 0.250000 0.750000 0.000000
O O14 0.136966 0.000000 0.091803
O O15 0.000000 0.000000 0.000000
#
# Coordination Sequence:
#
# PCOD9203828 Si02
#       8
#     8   4   8   4   4   8   4   4
#     4  10  23  44  66  90 129 169 218 278 326 400
#     4  10  20  39  69  92 122 183 214 267 348 382
#     4  11  23  41  67  96 134 182 218 273 340 399
#     4   9  20  40  66  88 118 171 216 256 332 381
#     4   9  19  37  60  97 128 152 210 282 318 379
#     4  11  26  44  62  97 136 170 218 274 333 405
#     4  11  21  37  64 103 133 165 229 272 316 404
#     4  11  20  40  65  99 135 171 224 276 327 402
#
# _framework density 20.214635999999999
#
# number of rings (size 3 to 8) (size 9 to 14) (size 15 to 20)
#    0.000    1.636    3.636    1.091    3.818    2.909 
#    0.000    0.909    0.000    0.000    0.000    0.000 
#    0.000    0.000    0.000    0.000    0.000    0.000 
#
# Total GULP energy -122557.459767 kJ/mol
# GULP energy per Si atom -5570.793626 kJ/mol
# Density = 2.016863 g / cm^3
# Si number density = 20.214636 Si / 1000 Ang^3
#
#
#
# Elastic Constant Matrix: (Units=GPa)
#
#
# Indices 1 2 3 4 5 6 
#
# 1 189.7984 43.2544 49.5132 0.0000 -15.2767 0.0000
# 2 43.2544 85.5499 31.6283 0.0000 -0.0667 0.0000
# 3 49.5132 31.6283 133.4414 0.0000 -9.7065 0.0000
# 4 0.0000 0.0000 0.0000 2.2028 0.0000 5.3665
# 5 -15.2767 -0.0667 -9.7065 0.0000 27.1618 0.0000
# 6 0.0000 0.0000 0.0000 5.3665 0.0000 21.9107
#
#
#
# Elastic Compliance Matrix: (Units=1/GPa)
#
#
# Indices 1 2 3 4 5 6 
#
# 1 0.006549 -0.002734 -0.001555 0.000000 0.003121 0.000000
# 2 -0.002734 0.013984 -0.002474 0.000000 -0.002387 0.000000
# 3 -0.001555 -0.002474 0.008822 0.000000 0.002272 0.000000
# 4 0.000000 0.000000 0.000000 1.125607 0.000000 -0.275691
# 5 0.003121 -0.002387 0.002272 0.000000 0.039378 0.000000
# 6 0.000000 0.000000 0.000000 -0.275691 0.000000 0.113164
#
#
# Mechanical properties :
#
#
# Convention : Reuss Voigt Hill
#
# Bulk Modulus (GPa) = 63.17017 73.06462 68.11739
# Shear Modulus (GPa) = 3.76987 29.21464 16.49226
#
# Velocity S-wave (km/s) = 1.36710 3.80573 2.85942
# Velocity P-wave (km/s) = 5.81460 7.45214 6.68371
#
# Compressibility (1/GPa) = 0.01583026
#
# Stress axis : x y z
#
# Youngs Moduli (GPa) = 152.70523 71.51041 113.34675
#
# Poissons Ratio (x) = 0.19549 0.17624
# Poissons Ratio (y) = 0.41745 0.28040
# Poissons Ratio (z) = 0.23744 0.17690
#
# Static dielectric constant tensor:
#      x y z
#    x 1.906630 0.000000 0.173460 
#    y 0.000000 1.790620 0.000000 
#    z 0.173460 0.000000 1.974280 
# 
# From -- ./inp_files/20500.got.cif
#   From: 2010.05.17/outbox.cif.g08.bks.cpg/sg12_11_cif.got.tgz:20500.got - 2010.06.03 13:09:07.
