data_PCOD9203264
_publ_section_title
;
Structure prediction by ZEFSAII (Michael W. Deem and Ramdas Pophale) SiO2 
 PCOD9203264
Probable space group: C 2/M
;
_chemical_formula_sum "Si O2"
_cell_formula_units_Z 40
_cell_length_a 13.056035
_cell_length_b 18.422153
_cell_length_c 11.857113
_cell_angle_alpha 90.000000
_cell_angle_beta 49.906997
_cell_angle_gamma 90.000000
_cell_volume 2181.685355
_symmetry_space_group_name_H-M "C 2/M"
_symmetry_group_IT_number 12
_symmetry_cell_setting 'monoclinic'
loop_
_space_group_symop_operation_xyz
x,y,z
-x,y,-z
-x,-y,-z
x,-y,z
1/2+x,1/2+y,z
1/2-x,1/2+y,-z
1/2-x,1/2-y,-z
1/2+x,1/2-y,z
loop_
_atom_site_type_symbol
_atom_site_label
_atom_site_fract_x
_atom_site_fract_y
_atom_site_fract_z
Si Si1 0.621187 0.772804 0.165749
Si Si2 0.104385 0.839530 0.634785
Si Si3 0.768214 0.000000 0.690035
Si Si4 0.070337 0.366925 0.833427
Si Si5 0.482539 0.500000 0.340700
Si Si6 0.208130 0.750587 0.353394
O O1 0.517376 0.706688 0.229412
O O2 0.544698 0.843811 0.172917
O O3 0.645246 0.778654 0.282991
O O4 0.750000 0.750000 0.000000
O O5 0.126887 0.807414 0.491277
O O6 0.238849 0.814163 0.604165
O O7 0.062295 0.922890 0.679266
O O8 0.672787 0.068429 0.737005
O O9 0.886551 0.000000 0.517181
O O10 0.858228 0.000000 0.741178
O O11 0.164270 0.296666 0.778676
O O12 0.000000 0.384858 0.000000
#
# Coordination Sequence:
#
# PCOD9203264 Si02
#       6
#     8   8   4   8   4   8
#     4  11  22  36  62  88 120 157 200 245 303 353
#     4  10  22  37  62  86 120 154 202 250 293 359
#     4  11  23  36  59  88 122 154 200 248 303 352
#     4  11  21  37  58  88 123 156 194 249 297 354
#     4  11  22  38  63  85 116 161 198 248 303 364
#     4  10  20  39  60  90 116 155 203 246 295 351
#
# _framework density 18.334448999999999
#
# number of rings (size 3 to 8) (size 9 to 14) (size 15 to 20)
#    0.000    1.400    4.000    2.100    2.800    0.000 
#    0.000    1.000    0.000    2.400    0.000    0.000 
#    0.000    0.000    0.000    0.000    0.000    0.000 
#
# Total GULP energy -111349.357463 kJ/mol
# GULP energy per Si atom -5567.467873 kJ/mol
# Density = 1.829272 g / cm^3
# Si number density = 18.334449 Si / 1000 Ang^3
#
#
#
# Elastic Constant Matrix: (Units=GPa)
#
#
# Indices 1 2 3 4 5 6 
#
# 1 121.8957 70.0555 27.0223 0.0000 10.0907 0.0000
# 2 70.0555 121.9407 16.8520 0.0000 4.4369 0.0000
# 3 27.0223 16.8520 75.6037 0.0000 -10.9841 0.0000
# 4 0.0000 0.0000 0.0000 28.1433 0.0000 -18.0632
# 5 10.0907 4.4369 -10.9841 0.0000 33.6757 0.0000
# 6 0.0000 0.0000 0.0000 -18.0632 0.0000 31.4380
#
#
#
# Elastic Compliance Matrix: (Units=1/GPa)
#
#
# Indices 1 2 3 4 5 6 
#
# 1 0.013476 -0.007046 -0.003882 0.000000 -0.004376 0.000000
# 2 -0.007046 0.012253 -0.000147 0.000000 0.000449 0.000000
# 3 -0.003882 -0.000147 0.015556 0.000000 0.006257 0.000000
# 4 0.000000 0.000000 0.000000 0.056291 0.000000 0.032343
# 5 -0.004376 0.000449 0.006257 0.000000 0.032988 0.000000
# 6 0.000000 0.000000 0.000000 0.032343 0.000000 0.050392
#
#
# Mechanical properties :
#
#
# Convention : Reuss Voigt Hill
#
# Bulk Modulus (GPa) = 52.26285 60.81108 56.53696
# Shear Modulus (GPa) = 23.86808 32.35211 28.11010
#
# Velocity S-wave (km/s) = 3.61198 4.20522 3.91984
# Velocity P-wave (km/s) = 6.77956 7.53778 7.16870
#
# Compressibility (1/GPa) = 0.01913405
#
# Stress axis : x y z
#
# Youngs Moduli (GPa) = 74.20485 81.61286 64.28343
#
# Poissons Ratio (x) = 0.57508 0.24953
# Poissons Ratio (y) = 0.52288 0.00948
# Poissons Ratio (z) = 0.28804 0.01203
#
# Static dielectric constant tensor:
#      x y z
#    x 1.718220 0.000000 0.008660 
#    y 0.000000 1.633800 0.000000 
#    z 0.008660 0.000000 1.651110 
# 
# From -- ./inp_files/130891.got.cif
#   From: 2010.05.17/outbox.cif.g08.bks.cpg/sg12_66_cif.got.tgz:130891.got - 2010.06.03 13:09:07.
