data_PCOD9203439
_publ_section_title
;
Structure prediction by ZEFSAII (Michael W. Deem and Ramdas Pophale) SiO2 
 PCOD9203439
Probable space group: C 2/M
;
_chemical_formula_sum "Si O2"
_cell_formula_units_Z 64
_cell_length_a 8.760926
_cell_length_b 28.560517
_cell_length_c 21.572449
_cell_angle_alpha 90.000000
_cell_angle_beta 34.259144
_cell_angle_gamma 90.000000
_cell_volume 3038.611642
_symmetry_space_group_name_H-M "C 2/M"
_symmetry_group_IT_number 12
_symmetry_cell_setting 'monoclinic'
loop_
_space_group_symop_operation_xyz
x,y,z
-x,y,-z
-x,-y,-z
x,-y,z
1/2+x,1/2+y,z
1/2-x,1/2+y,-z
1/2-x,1/2-y,-z
1/2+x,1/2-y,z
loop_
_atom_site_type_symbol
_atom_site_label
_atom_site_fract_x
_atom_site_fract_y
_atom_site_fract_z
Si Si1 0.718328 0.853236 0.556334
Si Si2 0.150970 0.092162 0.249293
Si Si3 0.954353 0.191404 0.361542
Si Si4 0.271773 0.053243 0.944177
Si Si5 0.672499 0.318483 0.806002
Si Si6 0.462556 0.757237 0.246504
Si Si7 0.192891 0.095543 0.094675
Si Si8 0.781703 0.552936 0.518392
O O1 0.458101 0.836036 0.680989
O O2 0.688349 0.906725 0.542780
O O3 0.000000 0.849401 0.500000
O O4 0.742783 0.822164 0.485643
O O5 0.033761 0.144049 0.298928
O O6 0.097121 0.080200 0.195207
O O7 0.999760 0.060603 0.350578
O O8 0.471340 0.086617 0.153011
O O9 0.224705 0.209016 0.304541
O O10 0.879899 0.231739 0.338418
O O11 0.212405 0.055170 0.037439
O O12 0.341956 0.000000 0.902519
O O13 0.000000 0.067256 0.000000
O O14 0.521173 0.283724 0.809353
O O15 0.766640 0.287005 0.832236
O O16 0.490189 0.364021 0.873363
O O17 0.500000 0.113919 0.000000
O O18 0.806038 0.500000 0.486391
O O19 0.000000 0.560114 0.500000
#
# Coordination Sequence:
#
# PCOD9203439 Si02
#       8
#     8   8   8   8   8   8   8   8
#     4  11  23  37  58  87 122 159 196 237 296 347
#     4  10  20  39  63  85 122 154 190 240 294 346
#     4  10  21  37  56  91 120 159 194 238 289 345
#     4  10  23  40  64  93 115 146 195 244 292 348
#     4  11  22  40  58  88 120 157 194 248 287 340
#     4  10  22  36  62  84 122 153 204 237 287 347
#     4  10  22  40  63  86 118 153 194 240 297 347
#     4  10  22  38  59  88 119 157 196 234 287 359
#
# _framework density 21.062252000000001
#
# number of rings (size 3 to 8) (size 9 to 14) (size 15 to 20)
#    0.000    1.750    2.500    1.125    3.500    6.000 
#    0.000    1.250    0.000    0.000    0.000    0.000 
#    0.000    0.000    0.000    0.000    0.000    0.000 
#
# Total GULP energy -178762.800590 kJ/mol
# GULP energy per Si atom -5586.337518 kJ/mol
# Density = 2.101431 g / cm^3
# Si number density = 21.062252 Si / 1000 Ang^3
#
#
#
# Elastic Constant Matrix: (Units=GPa)
#
#
# Indices 1 2 3 4 5 6 
#
# 1 65.6298 -4.4157 9.4053 -0.0010 -10.9159 -0.0005
# 2 -4.4157 33.9662 0.1347 0.0009 -3.5733 0.0000
# 3 9.4053 0.1347 43.8168 0.0064 -9.2914 0.0018
# 4 -0.0010 0.0009 0.0064 137.5883 -0.0023 32.9234
# 5 -10.9159 -3.5733 -9.2914 -0.0023 20.2201 -0.0006
# 6 -0.0005 0.0000 0.0018 32.9234 -0.0006 42.3572
#
#
#
# Elastic Compliance Matrix: (Units=1/GPa)
#
#
# Indices 1 2 3 4 5 6 
#
# 1 0.017211 0.003195 -0.001788 0.000000 0.009034 0.000000
# 2 0.003195 0.030644 0.000813 0.000000 0.007514 0.000000
# 3 -0.001788 0.000813 0.025516 -0.000001 0.010903 0.000000
# 4 0.000000 0.000000 -0.000001 0.008929 0.000001 -0.006940
# 5 0.009034 0.007514 0.010903 0.000001 0.060671 0.000000
# 6 0.000000 0.000000 0.000000 -0.006940 0.000000 0.029003
#
#
# Mechanical properties :
#
#
# Convention : Reuss Voigt Hill
#
# Bulk Modulus (GPa) = 12.85183 17.07349 14.96266
# Shear Modulus (GPa) = 25.84384 49.25237 37.54811
#
# Velocity S-wave (km/s) = 3.50669 4.84097 4.22681
# Velocity P-wave (km/s) = 4.74456 6.27458 5.56243
#
# Compressibility (1/GPa) = 0.07780993
#
# Stress axis : x y z
#
# Youngs Moduli (GPa) = 58.10287 32.63319 39.19163
#
# Poissons Ratio (x) = -0.10426 0.07009
# Poissons Ratio (y) = -0.18564 -0.03188
# Poissons Ratio (z) = 0.10391 -0.02654
#
# Static dielectric constant tensor:
#      x y z
#    x 1.771990 0.000000 0.006970 
#    y 0.000000 1.749630 0.000000 
#    z 0.006970 0.000000 1.751620 
# 
# From -- ./inp_files/334333.got.cif
#   From: 2010.05.17/outbox.cif.g08.bks.cpg/sg12_168_cif.got.tgz:334333.got - 2010.06.03 13:09:07.
