data_PCOD9203686
_publ_section_title
;
Structure prediction by ZEFSAII (Michael W. Deem and Ramdas Pophale) SiO2 
 PCOD9203686
Probable space group: C 2/M
;
_chemical_formula_sum "Si O2"
_cell_formula_units_Z 50
_cell_length_a 9.845178
_cell_length_b 16.392627
_cell_length_c 20.695681
_cell_angle_alpha 90.000000
_cell_angle_beta 39.510026
_cell_angle_gamma 90.000000
_cell_volume 2124.978549
_symmetry_space_group_name_H-M "C 2/M"
_symmetry_group_IT_number 12
_symmetry_cell_setting 'monoclinic'
loop_
_space_group_symop_operation_xyz
x,y,z
-x,y,-z
-x,-y,-z
x,-y,z
1/2+x,1/2+y,z
1/2-x,1/2+y,-z
1/2-x,1/2-y,-z
1/2+x,1/2-y,z
loop_
_atom_site_type_symbol
_atom_site_label
_atom_site_fract_x
_atom_site_fract_y
_atom_site_fract_z
Si Si1 0.585620 0.693799 0.136340
Si Si2 0.669847 0.591486 0.681103
Si Si3 0.434174 0.089194 0.265138
Si Si4 0.904664 0.294874 0.683137
Si Si5 0.289049 0.636312 0.042409
Si Si6 0.552767 0.377460 0.584387
Si Si7 0.500000 0.500000 0.500000
O O1 0.535943 0.644581 0.219753
O O2 0.344067 0.725810 0.207624
O O3 0.745673 0.768989 0.077940
O O4 0.667841 0.635233 0.049401
O O5 0.651286 0.500000 0.712319
O O6 0.866617 0.636778 0.642522
O O7 0.673117 0.592996 0.603463
O O8 0.488508 0.163990 0.293376
O O9 0.586910 0.093550 0.147265
O O10 0.193348 0.092541 0.328421
O O11 0.468254 0.000000 0.283357
O O12 0.026686 0.219634 0.605325
O O13 0.500000 0.605918 0.000000
O O14 0.628769 0.426149 0.493401
#
# Coordination Sequence:
#
# PCOD9203686 Si02
#       7
#     8   8   8   8   8   8   2
#     4   9  21  32  59  90 128 181 229 259 306 371
#     4  10  20  39  65  94 130 176 213 263 333 385
#     4  12  23  39  65  99 137 176 226 275 328 376
#     4  10  21  40  67  96 127 177 219 261 324 393
#     4  11  19  34  54  94 135 181 232 275 299 369
#     4  12  23  46  70  94 125 168 215 269 343 414
#     4  12  28  48  76 102 126 156 218 286 346 420
#
# _framework density 23.529648999999999
#
# number of rings (size 3 to 8) (size 9 to 14) (size 15 to 20)
#    0.960    0.320    4.800    2.400    0.000    0.960 
#    0.000    3.200    0.000    3.360    0.000    0.000 
#    0.000    0.000    0.000    0.000    0.000    0.000 
#
# Total GULP energy -139286.571600 kJ/mol
# GULP energy per Si atom -5571.462864 kJ/mol
# Density = 2.347609 g / cm^3
# Si number density = 23.529649 Si / 1000 Ang^3
#
#
#
# Elastic Constant Matrix: (Units=GPa)
#
#
# Indices 1 2 3 4 5 6 
#
# 1 41.4062 -5.3665 9.5272 0.0021 7.6603 0.0000
# 2 -5.3665 119.6840 15.8743 0.0015 10.6624 -0.0005
# 3 9.5272 15.8743 101.2616 0.0043 1.1459 -0.0022
# 4 0.0021 0.0015 0.0043 -19.9589 -0.0014 18.3004
# 5 7.6603 10.6624 1.1459 -0.0014 51.3100 0.0006
# 6 0.0000 -0.0005 -0.0022 18.3004 0.0006 17.8567
#
#
#
# Elastic Compliance Matrix: (Units=1/GPa)
#
#
# Indices 1 2 3 4 5 6 
#
# 1 0.025784 0.001883 -0.002674 0.000001 -0.004181 -0.000001
# 2 0.001883 0.008829 -0.001538 0.000000 -0.002082 0.000000
# 3 -0.002674 -0.001538 0.010363 0.000002 0.000487 0.000000
# 4 0.000001 0.000000 0.000002 -0.025831 -0.000001 0.026472
# 5 -0.004181 -0.002082 0.000487 -0.000001 0.020535 0.000001
# 6 -0.000001 0.000000 0.000000 0.026472 0.000001 0.028871
#
#
# Mechanical properties :
#
#
# Convention : Reuss Voigt Hill
#
# Bulk Modulus (GPa) = 24.80227 33.60241 29.20234
# Shear Modulus (GPa) = 57.70491 25.99603 41.85047
#
# Velocity S-wave (km/s) = 4.95758 3.32749 4.22195
# Velocity P-wave (km/s) = 6.58285 5.39210 6.01700
#
# Compressibility (1/GPa) = 0.04031888
#
# Stress axis : x y z
#
# Youngs Moduli (GPa) = 38.78415 113.26086 96.50161
#
# Poissons Ratio (x) = -0.21330 0.25802
# Poissons Ratio (y) = -0.07304 0.14839
# Poissons Ratio (z) = 0.10370 0.17417
#
# Static dielectric constant tensor:
#      x y z
#    x 1.846670 0.000000 0.015190 
#    y 0.000000 1.955200 0.000000 
#    z 0.015190 0.000000 2.008830 
# 
# From -- ./inp_files/256939.got.cif
#   From: 2010.05.17/outbox.cif.g08.bks.cpg/sg12_129_cif.got.tgz:256939.got - 2010.06.03 13:09:07.
