data_PCOD9203052
_publ_section_title
;
Structure prediction by ZEFSAII (Michael W. Deem and Ramdas Pophale) SiO2 
 PCOD9203052
Probable space group: C 2/M
;
_chemical_formula_sum "Si O2"
_cell_formula_units_Z 52
_cell_length_a 11.384606
_cell_length_b 15.508810
_cell_length_c 17.141465
_cell_angle_alpha 90.000000
_cell_angle_beta 120.567299
_cell_angle_gamma 90.000000
_cell_volume 2605.937043
_symmetry_space_group_name_H-M "C 2/M"
_symmetry_group_IT_number 12
_symmetry_cell_setting 'monoclinic'
loop_
_space_group_symop_operation_xyz
x,y,z
-x,y,-z
-x,-y,-z
x,-y,z
1/2+x,1/2+y,z
1/2-x,1/2+y,-z
1/2-x,1/2-y,-z
1/2+x,1/2-y,z
loop_
_atom_site_type_symbol
_atom_site_label
_atom_site_fract_x
_atom_site_fract_y
_atom_site_fract_z
Si Si1 0.236080 0.094366 0.285646
Si Si2 0.240659 0.713073 0.328278
Si Si3 0.436864 0.898689 0.613181
Si Si4 0.000000 0.724010 0.500000
Si Si5 0.645046 0.375299 0.084403
Si Si6 0.372899 0.905619 0.036540
Si Si7 0.344338 0.178437 0.870432
O O1 0.194685 0.185275 0.311389
O O2 0.398370 0.102879 0.321698
O O3 0.161727 0.092402 0.177623
O O4 0.217173 0.000000 0.318570
O O5 0.142862 0.651415 0.345690
O O6 0.391757 0.719059 0.415920
O O7 0.237635 0.679630 0.237980
O O8 0.417144 0.840883 0.528973
O O9 0.398060 0.000000 0.593374
O O10 0.762617 0.404447 0.066361
O O11 0.662356 0.272880 0.096185
O O12 0.500000 0.397471 0.000000
O O13 0.496852 0.840813 0.094472
O O14 0.436617 0.000000 0.056763
O O15 0.308775 0.884203 0.930302
#
# Coordination Sequence:
#
# PCOD9203052 Si02
#       7
#     8   8   8   4   8   8   8
#     4   9  20  37  57  86 116 153 203 243 281 340
#     4  10  21  37  61  90 119 150 189 243 297 350
#     4  10  20  38  66  88 111 149 195 242 287 347
#     4  10  21  40  59  90 116 146 187 242 299 354
#     4  11  21  35  57  81 120 159 198 241 293 342
#     4  11  22  37  59  86 116 155 207 249 281 334
#     4  10  21  37  58  86 113 157 198 241 285 346
#
# _framework density 19.954435
#
# number of rings (size 3 to 8) (size 9 to 14) (size 15 to 20)
#    0.000    1.846    1.538    3.462    0.000    4.308 
#    5.538    0.385    0.000    3.692    0.000    0.000 
#    0.000    0.000    0.000    0.000    0.000    0.000 
#
# Total GULP energy -145003.616406 kJ/mol
# GULP energy per Si atom -5577.062169 kJ/mol
# Density = 1.990902 g / cm^3
# Si number density = 19.954435 Si / 1000 Ang^3
#
#
#
# Elastic Constant Matrix: (Units=GPa)
#
#
# Indices 1 2 3 4 5 6 
#
# 1 39.7622 28.2307 5.7675 0.0000 -6.6222 0.0000
# 2 28.2307 89.2820 15.0707 0.0000 -6.9439 0.0000
# 3 5.7675 15.0707 124.5349 0.0000 8.6934 0.0000
# 4 0.0000 0.0000 0.0000 113.0511 0.0000 43.6673
# 5 -6.6222 -6.9439 8.6934 0.0000 15.6525 0.0000
# 6 0.0000 0.0000 0.0000 43.6673 0.0000 76.8846
#
#
#
# Elastic Compliance Matrix: (Units=1/GPa)
#
#
# Indices 1 2 3 4 5 6 
#
# 1 0.034004 -0.009726 -0.001145 0.000000 0.010708 0.000000
# 2 -0.009726 0.014800 -0.001573 0.000000 0.003324 0.000000
# 3 -0.001145 -0.001573 0.008693 0.000000 -0.006010 0.000000
# 4 0.000000 0.000000 0.000000 0.011331 0.000000 -0.006436
# 5 0.010708 0.003324 -0.006010 0.000000 0.073230 0.000000
# 6 0.000000 0.000000 0.000000 -0.006436 0.000000 0.016662
#
#
# Mechanical properties :
#
#
# Convention : Reuss Voigt Hill
#
# Bulk Modulus (GPa) = 30.66625 39.07966 34.87296
# Shear Modulus (GPa) = 25.70985 54.75166 40.23076
#
# Velocity S-wave (km/s) = 3.59336 5.24384 4.49501
# Velocity P-wave (km/s) = 5.71120 7.50272 6.66741
#
# Compressibility (1/GPa) = 0.03260914
#
# Stress axis : x y z
#
# Youngs Moduli (GPa) = 29.40802 67.56860 115.03798
#
# Poissons Ratio (x) = 0.65717 0.13175
# Poissons Ratio (y) = 0.28602 0.18091
# Poissons Ratio (z) = 0.03368 0.10626
#
# Static dielectric constant tensor:
#      x y z
#    x 1.673960 0.000000 -0.012510 
#    y 0.000000 1.759680 0.000000 
#    z -0.012510 0.000000 1.737330 
# 
# From -- ./inp_files/263045.got.cif
#   From: 2010.05.17/outbox.cif.g08.bks.cpg/sg12_132_cif.got.tgz:263045.got - 2010.06.03 13:09:07.
