data_PCOD9203453
_publ_section_title
;
Structure prediction by ZEFSAII (Michael W. Deem and Ramdas Pophale) SiO2 
 PCOD9203453
Probable space group: C 2/M
;
_chemical_formula_sum "Si O2"
_cell_formula_units_Z 56
_cell_length_a 29.884919
_cell_length_b 8.231428
_cell_length_c 19.117584
_cell_angle_alpha 90.000000
_cell_angle_beta 144.898171
_cell_angle_gamma 90.000000
_cell_volume 2704.280961
_symmetry_space_group_name_H-M "C 2/M"
_symmetry_group_IT_number 12
_symmetry_cell_setting 'monoclinic'
loop_
_space_group_symop_operation_xyz
x,y,z
-x,y,-z
-x,-y,-z
x,-y,z
1/2+x,1/2+y,z
1/2-x,1/2+y,-z
1/2-x,1/2-y,-z
1/2+x,1/2-y,z
loop_
_atom_site_type_symbol
_atom_site_label
_atom_site_fract_x
_atom_site_fract_y
_atom_site_fract_z
Si Si1 0.703992 0.182170 0.279191
Si Si2 0.949164 0.000000 0.045475
Si Si3 0.677879 0.683405 0.453219
Si Si4 0.470297 0.807377 0.668151
Si Si5 0.067115 0.694554 0.534737
Si Si6 0.233268 0.188666 0.794838
Si Si7 0.612003 0.500000 0.191168
Si Si8 0.111441 0.696874 0.942609
O O1 0.787011 0.185810 0.423440
O O2 0.717538 0.206384 0.214409
O O3 0.657721 0.330510 0.253631
O O4 0.670763 0.000000 0.248616
O O5 0.922923 0.166460 0.049228
O O6 0.040934 0.000000 0.152590
O O7 0.916537 0.000000 0.925504
O O8 0.668136 0.500000 0.417768
O O9 0.750000 0.750000 0.500000
O O10 0.593258 0.760865 0.353849
O O11 0.447244 0.739098 0.562367
O O12 0.558439 0.773362 0.806154
O O13 0.464197 0.000000 0.655036
O O14 0.058139 0.500000 0.518739
O O15 0.152132 0.723415 0.676729
O O16 0.000000 0.758656 0.500000
O O17 0.213504 0.000000 0.777426
O O18 0.295463 0.230276 0.935212
O O19 0.102832 0.500000 0.948829
#
# Coordination Sequence:
#
# PCOD9203453 Si02
#       8
#     8   4   8   8   8   8   4   8
#     4  10  22  38  57  84 117 160 212 258 310 368
#     4  11  24  38  56  90 117 166 215 257 318 367
#     4  11  24  37  55  86 122 161 210 261 313 373
#     4  10  22  40  61  87 126 166 201 257 318 371
#     4  10  22  40  67  99 126 157 203 259 316 379
#     4  10  20  39  63  87 118 161 205 249 305 369
#     4  11  24  36  58  84 120 162 213 267 313 369
#     4  10  23  41  61  88 123 166 211 256 312 378
#
# _framework density 20.707908
#
# number of rings (size 3 to 8) (size 9 to 14) (size 15 to 20)
#    0.000    1.714    2.857    0.429    7.000    0.857 
#    0.000    2.143    0.000    0.000    0.000    0.000 
#    0.000    0.000    0.000    0.000    0.000    0.000 
#
# Total GULP energy -155962.160629 kJ/mol
# GULP energy per Si atom -5570.077165 kJ/mol
# Density = 2.066078 g / cm^3
# Si number density = 20.707908 Si / 1000 Ang^3
#
#
#
# Elastic Constant Matrix: (Units=GPa)
#
#
# Indices 1 2 3 4 5 6 
#
# 1 66.5194 24.8396 52.2947 0.0000 5.5186 0.0000
# 2 24.8396 67.0131 44.6842 0.0000 11.6651 0.0000
# 3 52.2947 44.6842 154.7711 0.0000 0.5218 0.0000
# 4 0.0000 0.0000 0.0000 34.6827 0.0000 0.2951
# 5 5.5186 11.6651 0.5218 0.0000 16.6849 0.0000
# 6 0.0000 0.0000 0.0000 0.2951 0.0000 8.2597
#
#
#
# Elastic Compliance Matrix: (Units=1/GPa)
#
#
# Indices 1 2 3 4 5 6 
#
# 1 0.021577 -0.002830 -0.006457 0.000000 -0.004956 0.000000
# 2 -0.002830 0.022032 -0.005357 0.000000 -0.014300 0.000000
# 3 -0.006457 -0.005357 0.010171 0.000000 0.005563 0.000000
# 4 0.000000 0.000000 0.000000 0.028842 0.000000 -0.001031
# 5 -0.004956 -0.014300 0.005563 0.000000 0.071398 0.000000
# 6 0.000000 0.000000 0.000000 -0.001031 0.000000 0.121107
#
#
# Mechanical properties :
#
#
# Convention : Reuss Voigt Hill
#
# Bulk Modulus (GPa) = 40.82696 59.10451 49.96573
# Shear Modulus (GPa) = 15.99601 23.02447 19.51024
#
# Velocity S-wave (km/s) = 2.78233 3.33809 3.07280
# Velocity P-wave (km/s) = 5.48455 6.59250 6.06388
#
# Compressibility (1/GPa) = 0.02449362
#
# Stress axis : x y z
#
# Youngs Moduli (GPa) = 46.34513 45.38752 98.32243
#
# Poissons Ratio (x) = 0.12844 0.63486
# Poissons Ratio (y) = 0.13115 0.52668
# Poissons Ratio (z) = 0.29925 0.24313
#
# Static dielectric constant tensor:
#      x y z
#    x 1.838610 0.000000 -0.040600 
#    y 0.000000 1.754460 0.000000 
#    z -0.040600 0.000000 1.811970 
# 
# From -- ./inp_files/329755.got.cif
#   From: 2010.05.17/outbox.cif.g08.bks.cpg/sg12_165_cif.got.tgz:329755.got - 2010.06.03 13:09:07.
