data_PCOD9203452
_publ_section_title
;
Structure prediction by ZEFSAII (Michael W. Deem and Ramdas Pophale) SiO2 
 PCOD9203452
Probable space group: C 2/M
;
_chemical_formula_sum "Si O2"
_cell_formula_units_Z 56
_cell_length_a 20.625707
_cell_length_b 8.385450
_cell_length_c 20.014673
_cell_angle_alpha 90.000000
_cell_angle_beta 123.154595
_cell_angle_gamma 90.000000
_cell_volume 2898.090122
_symmetry_space_group_name_H-M "C 2/M"
_symmetry_group_IT_number 12
_symmetry_cell_setting 'monoclinic'
loop_
_space_group_symop_operation_xyz
x,y,z
-x,y,-z
-x,-y,-z
x,-y,z
1/2+x,1/2+y,z
1/2-x,1/2+y,-z
1/2-x,1/2-y,-z
1/2+x,1/2-y,z
loop_
_atom_site_type_symbol
_atom_site_label
_atom_site_fract_x
_atom_site_fract_y
_atom_site_fract_z
Si Si1 0.532007 0.308927 0.806921
Si Si2 0.861345 0.309309 0.743879
Si Si3 0.913556 0.307925 0.437179
Si Si4 0.126017 0.807376 0.732256
Si Si5 0.166816 0.692188 0.980473
Si Si6 0.697852 0.193862 0.145313
Si Si7 0.735003 0.190835 0.566274
O O1 0.525874 0.500000 0.803138
O O2 0.448871 0.236787 0.776254
O O3 0.563646 0.256576 0.752182
O O4 0.597260 0.258917 0.896877
O O5 0.853498 0.500000 0.739133
O O6 0.839469 0.250795 0.806236
O O7 0.801811 0.242866 0.655484
O O8 0.915219 0.500000 0.442970
O O9 0.889779 0.261062 0.349268
O O10 0.847396 0.249873 0.450849
O O11 0.000000 0.247051 0.500000
O O12 0.211883 0.759538 0.804116
O O13 0.124951 0.000000 0.727838
O O14 0.165447 0.500000 0.977084
O O15 0.250000 0.750000 0.000000
O O16 0.160042 0.744238 0.054216
O O17 0.695225 0.000000 0.144443
O O18 0.750000 0.250000 0.500000
O O19 0.733086 0.000000 0.563947
#
# Coordination Sequence:
#
# PCOD9203452 Si02
#       7
#     8   8   8   8   8   8   8
#     4  11  24  41  60  91 128 160 203 254 303 362
#     4  11  23  42  65  88 119 162 206 250 304 364
#     4  10  23  41  61  91 125 155 197 253 300 349
#     4  10  20  39  63  87 118 160 202 245 297 361
#     4  11  21  38  62  91 124 161 205 253 306 360
#     4   9  19  38  63  87 118 159 202 247 300 363
#     4  11  24  42  63  90 125 163 200 247 302 361
#
# _framework density 19.323070999999999
#
# number of rings (size 3 to 8) (size 9 to 14) (size 15 to 20)
#    0.000    1.571    2.857    1.714    2.000    2.571 
#    0.000    5.714    0.000    0.000    0.000    0.000 
#    0.000    0.000    0.000    0.000    0.000    0.000 
#
# Total GULP energy -156444.875579 kJ/mol
# GULP energy per Si atom -5587.316985 kJ/mol
# Density = 1.927909 g / cm^3
# Si number density = 19.323071 Si / 1000 Ang^3
#
#
#
# Elastic Constant Matrix: (Units=GPa)
#
#
# Indices 1 2 3 4 5 6 
#
# 1 168.6702 17.6675 75.4567 0.0000 -14.9240 0.0000
# 2 17.6675 25.5956 12.1292 0.0000 -4.6185 0.0000
# 3 75.4567 12.1292 126.5481 0.0000 -19.9049 0.0000
# 4 0.0000 0.0000 0.0000 35.7768 0.0000 1.6335
# 5 -14.9240 -4.6185 -19.9049 0.0000 40.4836 0.0000
# 6 0.0000 0.0000 0.0000 1.6335 0.0000 25.9121
#
#
#
# Elastic Compliance Matrix: (Units=1/GPa)
#
#
# Indices 1 2 3 4 5 6 
#
# 1 0.008395 -0.003538 -0.004599 0.000000 0.000430 0.000000
# 2 -0.003538 0.042751 -0.001546 0.000000 0.002813 0.000000
# 3 -0.004599 -0.001546 0.011378 0.000000 0.003723 0.000000
# 4 0.000000 0.000000 0.000000 0.028032 0.000000 -0.001767
# 5 0.000430 0.002813 0.003723 0.000000 0.027011 0.000000
# 6 0.000000 0.000000 0.000000 -0.001767 0.000000 0.038703
#
#
# Mechanical properties :
#
#
# Convention : Reuss Voigt Hill
#
# Bulk Modulus (GPa) = 23.16984 59.03564 41.10274
# Shear Modulus (GPa) = 26.31291 34.80519 30.55905
#
# Velocity S-wave (km/s) = 3.69417 4.24869 3.98110
# Velocity P-wave (km/s) = 5.49661 7.39504 6.51534
#
# Compressibility (1/GPa) = 0.04315956
#
# Stress axis : x y z
#
# Youngs Moduli (GPa) = 119.12366 23.39117 87.88951
#
# Poissons Ratio (x) = 0.08275 0.40418
# Poissons Ratio (y) = 0.42141 0.13585
# Poissons Ratio (z) = 0.54782 0.03616
#
# Static dielectric constant tensor:
#      x y z
#    x 1.670230 0.000000 -0.012160 
#    y 0.000000 1.674480 0.000000 
#    z -0.012160 0.000000 1.645340 
# 
# From -- ./inp_files/281611.got.cif
#   From: 2010.05.17/outbox.cif.g08.bks.cpg/sg12_141_cif.got.tgz:281611.got - 2010.06.03 13:09:07.
