data_PCOD9203783
_publ_section_title
;
Structure prediction by ZEFSAII (Michael W. Deem and Ramdas Pophale) SiO2 
 PCOD9203783
Probable space group: C 2/M
;
_chemical_formula_sum "Si O2"
_cell_formula_units_Z 48
_cell_length_a 20.749074
_cell_length_b 8.869650
_cell_length_c 21.434171
_cell_angle_alpha 90.000000
_cell_angle_beta 138.424437
_cell_angle_gamma 90.000000
_cell_volume 2617.718791
_symmetry_space_group_name_H-M "C 2/M"
_symmetry_group_IT_number 12
_symmetry_cell_setting 'monoclinic'
loop_
_space_group_symop_operation_xyz
x,y,z
-x,y,-z
-x,-y,-z
x,-y,z
1/2+x,1/2+y,z
1/2-x,1/2+y,-z
1/2-x,1/2-y,-z
1/2+x,1/2-y,z
loop_
_atom_site_type_symbol
_atom_site_label
_atom_site_fract_x
_atom_site_fract_y
_atom_site_fract_z
Si Si1 0.972389 0.320458 0.790054
Si Si2 0.832646 0.179551 0.015681
Si Si3 0.487181 0.679067 0.314275
Si Si4 0.217185 0.819569 0.286556
Si Si5 0.278469 0.179487 0.190774
Si Si6 0.576749 0.180312 0.500973
O O1 0.979139 0.500000 0.793262
O O2 0.874118 0.266778 0.751874
O O3 0.065167 0.253431 0.893488
O O4 0.977180 0.256074 0.723443
O O5 0.837640 0.000000 0.030037
O O6 0.750000 0.250000 0.000000
O O7 0.798705 0.205150 0.920067
O O8 0.491269 0.500000 0.310638
O O9 0.376801 0.732142 0.246876
O O10 0.549514 0.733876 0.418450
O O11 0.237958 0.781087 0.229436
O O12 0.315453 0.787813 0.396179
O O13 0.199349 0.000000 0.276927
O O14 0.302088 0.000000 0.208595
O O15 0.500000 0.219104 0.500000
O O16 0.567968 0.000000 0.483895
#
# Coordination Sequence:
#
# PCOD9203783 Si02
#       6
#     8   8   8   8   8   8
#     4  12  26  43  62  88 129 169 208 261 316 368
#     4  11  22  38  65  96 125 163 209 257 309 370
#     4  12  24  38  63  94 126 162 210 261 306 370
#     4  10  22  42  66  92 125 164 207 255 310 374
#     4  10  21  40  66  93 124 163 206 253 310 375
#     4  10  20  39  67  94 124 164 207 253 309 376
#
# _framework density 18.336576999999998
#
# number of rings (size 3 to 8) (size 9 to 14) (size 15 to 20)
#    0.000    1.167    3.333    3.500    0.000    3.667 
#    0.000    3.333    0.000    0.000    0.000    0.000 
#    0.000    0.000    0.000    0.000    0.000    0.000 
#
# Total GULP energy -134223.353609 kJ/mol
# GULP energy per Si atom -5592.639734 kJ/mol
# Density = 1.829484 g / cm^3
# Si number density = 18.336577 Si / 1000 Ang^3
#
#
#
# Elastic Constant Matrix: (Units=GPa)
#
#
# Indices 1 2 3 4 5 6 
#
# 1 130.5862 78.1023 75.4403 0.0000 -0.1146 0.0000
# 2 78.1023 109.1668 83.3096 0.0000 -2.7202 0.0000
# 3 75.4403 83.3096 134.3085 0.0000 -6.3514 0.0000
# 4 0.0000 0.0000 0.0000 33.0927 0.0000 2.3456
# 5 -0.1146 -2.7202 -6.3514 0.0000 33.4095 0.0000
# 6 0.0000 0.0000 0.0000 2.3456 0.0000 34.6032
#
#
#
# Elastic Compliance Matrix: (Units=1/GPa)
#
#
# Indices 1 2 3 4 5 6 
#
# 1 0.014099 -0.007653 -0.003229 0.000000 -0.001189 0.000000
# 2 -0.007653 0.021561 -0.009076 0.000000 0.000004 0.000000
# 3 -0.003229 -0.009076 0.014988 0.000000 0.002099 0.000000
# 4 0.000000 0.000000 0.000000 0.030364 0.000000 -0.002058
# 5 -0.001189 0.000004 0.002099 0.000000 0.030327 0.000000
# 6 0.000000 0.000000 0.000000 -0.002058 0.000000 0.029039
#
#
# Mechanical properties :
#
#
# Convention : Reuss Voigt Hill
#
# Bulk Modulus (GPa) = 93.15916 94.19623 93.67770
# Shear Modulus (GPa) = 27.19324 29.36838 28.28081
#
# Velocity S-wave (km/s) = 3.85516 4.00638 3.93149
# Velocity P-wave (km/s) = 8.41022 8.53719 8.47394
#
# Compressibility (1/GPa) = 0.01073432
#
# Stress axis : x y z
#
# Youngs Moduli (GPa) = 70.92749 46.37940 66.72095
#
# Poissons Ratio (x) = 0.35492 0.21542
# Poissons Ratio (y) = 0.54278 0.60553
# Poissons Ratio (z) = 0.22900 0.42092
#
# Static dielectric constant tensor:
#      x y z
#    x 1.593090 0.000000 -0.010260 
#    y 0.000000 1.615790 0.000000 
#    z -0.010260 0.000000 1.616330 
# 
# From -- ./inp_files/244731.got.cif
#   From: 2010.05.17/outbox.cif.g08.bks.cpg/sg12_123_cif.got.tgz:244731.got - 2010.06.03 13:09:07.
