data_PCOD9203346
_publ_section_title
;
Structure prediction by ZEFSAII (Michael W. Deem and Ramdas Pophale) SiO2 
 PCOD9203346
Probable space group: C 2/M
;
_chemical_formula_sum "Si O2"
_cell_formula_units_Z 58
_cell_length_a 11.467954
_cell_length_b 28.612930
_cell_length_c 8.191440
_cell_angle_alpha 90.000000
_cell_angle_beta 83.038344
_cell_angle_gamma 90.000000
_cell_volume 2668.055299
_symmetry_space_group_name_H-M "C 2/M"
_symmetry_group_IT_number 12
_symmetry_cell_setting 'monoclinic'
loop_
_space_group_symop_operation_xyz
x,y,z
-x,y,-z
-x,-y,-z
x,-y,z
1/2+x,1/2+y,z
1/2-x,1/2+y,-z
1/2-x,1/2-y,-z
1/2+x,1/2-y,z
loop_
_atom_site_type_symbol
_atom_site_label
_atom_site_fract_x
_atom_site_fract_y
_atom_site_fract_z
Si Si1 0.141362 0.947916 0.483229
Si Si2 0.945845 0.820720 0.182584
Si Si3 0.160744 0.678967 0.508222
Si Si4 0.211958 0.653399 0.061431
Si Si5 0.335876 0.081843 0.679594
Si Si6 0.841560 0.144148 0.695897
Si Si7 0.000000 0.500000 0.500000
Si Si8 0.467014 0.217191 0.758335
O O1 0.206083 0.935367 0.642373
O O2 0.183891 0.908620 0.351818
O O3 0.000000 0.947536 0.500000
O O4 0.181543 0.000000 0.431580
O O5 0.809700 0.830452 0.179512
O O6 0.019880 0.849234 0.301909
O O7 0.982501 0.767209 0.204199
O O8 0.000000 0.835543 0.000000
O O9 0.137553 0.628768 0.429686
O O10 0.289810 0.677088 0.562837
O O11 0.121219 0.717723 0.383795
O O12 0.073678 0.685989 0.675141
O O13 0.168838 0.603022 0.136046
O O14 0.108747 0.691396 0.091061
O O15 0.274047 0.653903 0.876371
O O16 0.426513 0.041451 0.615227
#
# Coordination Sequence:
#
# PCOD9203346 Si02
#       8
#     8   8   8   8   8   8   2   8
#     4  10  20  39  63  88 116 154 198 247 307 365
#     4  10  23  37  58  85 121 162 204 252 301 362
#     4   9  21  40  57  83 124 156 199 252 305 348
#     4  10  22  40  60  85 125 160 203 248 311 355
#     4  10  20  39  62  85 116 158 193 247 304 367
#     4  10  22  39  62  87 122 161 197 257 304 360
#     4  12  20  36  70  90 114 152 204 240 304 378
#     4  10  21  38  57  85 116 162 206 247 295 360
#
# _framework density 21.738681
#
# number of rings (size 3 to 8) (size 9 to 14) (size 15 to 20)
#    0.000    2.069    0.690    2.483    3.862    1.655 
#   16.138    0.000    0.000    4.552    0.000    0.000 
#    0.000    0.000    0.000    0.000    0.000    0.000 
#
# Total GULP energy -161589.014511 kJ/mol
# GULP energy per Si atom -5572.034983 kJ/mol
# Density = 2.168920 g / cm^3
# Si number density = 21.738681 Si / 1000 Ang^3
#
#
#
# Elastic Constant Matrix: (Units=GPa)
#
#
# Indices 1 2 3 4 5 6 
#
# 1 66.3243 10.1622 12.8152 0.0000 10.2427 0.0000
# 2 10.1622 94.8630 4.3943 0.0000 12.0748 0.0000
# 3 12.8152 4.3943 61.1995 0.0000 8.9604 0.0000
# 4 0.0000 0.0000 0.0000 15.1499 0.0000 2.0804
# 5 10.2427 12.0748 8.9604 0.0000 34.9215 0.0000
# 6 0.0000 0.0000 0.0000 2.0804 0.0000 28.5232
#
#
#
# Elastic Compliance Matrix: (Units=1/GPa)
#
#
# Indices 1 2 3 4 5 6 
#
# 1 0.016365 -0.001155 -0.002805 0.000000 -0.003681 0.000000
# 2 -0.001155 0.011112 -0.000045 0.000000 -0.003492 0.000000
# 3 -0.002805 -0.000045 0.017464 0.000000 -0.003643 0.000000
# 4 0.000000 0.000000 0.000000 0.066675 0.000000 -0.004863
# 5 -0.003681 -0.003492 -0.003643 0.000000 0.031857 0.000000
# 6 0.000000 0.000000 0.000000 -0.004863 0.000000 0.035414
#
#
# Mechanical properties :
#
#
# Convention : Reuss Voigt Hill
#
# Bulk Modulus (GPa) = 27.07700 30.79226 28.93463
# Shear Modulus (GPa) = 25.09967 28.71993 26.90980
#
# Velocity S-wave (km/s) = 3.40164 3.63870 3.52216
# Velocity P-wave (km/s) = 5.28308 5.64349 5.46626
#
# Compressibility (1/GPa) = 0.03693171
#
# Stress axis : x y z
#
# Youngs Moduli (GPa) = 61.10690 89.99474 57.26092
#
# Poissons Ratio (x) = 0.10391 0.16061
# Poissons Ratio (y) = 0.07055 0.00257
# Poissons Ratio (z) = 0.17140 0.00403
#
# Static dielectric constant tensor:
#      x y z
#    x 1.870190 0.000000 0.037950 
#    y 0.000000 1.769820 0.000000 
#    z 0.037950 0.000000 1.842930 
# 
# From -- ./inp_files/53233.got.cif
#   From: 2010.05.17/outbox.cif.g08.bks.cpg/sg12_27_cif.got.tgz:53233.got - 2010.06.03 13:09:07.
